[H]c1nc(N2C([H])([H])C([H])([H])c3nc(N4C([H])([H])C([H])([H])C([H])([H])C4([H])[H])nc(N([H])c4c([H])c([H])c(C(F)(F)F)c([H])c4[H])c3C([H])([H])C2([H])[H])c(C(F)(F)F)c([H])c1[H]


 38 42  0  0  0  0  0  0  0  0999 V2000
  -10.0932   -6.8763    8.6028 C   0  0  0  0  0  0  0  0  0  0  0  0
   -8.8070   -6.9582    8.3210 N   0  0  0  0  0  0  0  0  0  0  0  0
   -8.3153   -6.7285    7.0583 C   0  0  0  0  0  0  0  0  0  0  0  0
   -9.1831   -6.4058    6.0736 N   0  0  0  0  0  0  0  0  0  0  0  0
  -10.5270   -6.2953    6.2736 C   0  0  0  0  0  0  0  0  0  0  0  0
  -11.1444   -5.9569    4.9997 C   0  0  0  0  0  0  0  0  0  0  0  0
  -12.6010   -5.9568    4.8791 C   0  0  0  0  0  0  0  0  0  0  0  0
  -13.3971   -6.7737    5.7348 N   0  0  0  0  0  0  0  0  0  0  0  0
  -13.0445   -7.5215    6.8819 C   0  0  0  0  0  0  0  0  0  0  0  0
  -12.3915   -6.6035    7.9537 C   0  0  0  0  0  0  0  0  0  0  0  0
  -10.9444   -6.5332    7.5266 C   0  0  0  0  0  0  0  0  0  0  0  0
  -14.7973   -6.8282    5.4355 C   0  0  0  0  0  0  0  0  0  0  0  0
  -15.4212   -8.0050    5.8204 N   0  0  0  0  0  0  0  0  0  0  0  0
  -16.7453   -8.1424    5.6373 C   0  0  0  0  0  0  0  0  0  0  0  0
  -17.4769   -7.1195    5.0764 C   0  0  0  0  0  0  0  0  0  0  0  0
  -16.8584   -5.9747    4.7027 C   0  0  0  0  0  0  0  0  0  0  0  0
  -15.4578   -5.8035    4.8814 C   0  0  0  0  0  0  0  0  0  0  0  0
  -14.9158   -4.5241    4.4077 C   0  0  0  0  0  0  0  0  0  0  0  0
  -13.8728   -4.7237    3.5272 F   0  0  0  0  0  0  0  0  0  0  0  0
  -14.5699   -3.6082    5.4002 F   0  0  0  0  0  0  0  0  0  0  0  0
  -15.8869   -3.8272    3.6611 F   0  0  0  0  0  0  0  0  0  0  0  0
   -6.9451   -6.8059    6.7668 N   0  0  0  0  0  0  0  0  0  0  0  0
   -5.7663   -6.9993    7.5411 C   0  0  0  0  0  0  0  0  0  0  0  0
   -4.8754   -5.8545    7.0621 C   0  0  0  0  0  0  0  0  0  0  0  0
   -5.3352   -5.6170    5.6362 C   0  0  0  0  0  0  0  0  0  0  0  0
   -6.3952   -6.6658    5.3833 C   0  0  0  0  0  0  0  0  0  0  0  0
  -10.7151   -6.9456    9.8313 N   0  0  0  0  0  0  0  0  0  0  0  0
  -10.1185   -6.6089   10.7308 H   0  0  0  0  0  0  0  0  0  0  0  0
  -14.4477   -8.3273   11.3286 C   0  0  0  0  0  0  0  0  0  0  0  0
  -13.9941   -7.0210   11.4106 C   0  0  0  0  0  0  0  0  0  0  0  0
  -12.8201   -6.6033   10.8754 C   0  0  0  0  0  0  0  0  0  0  0  0
  -11.9494   -7.4962   10.1745 C   0  0  0  0  0  0  0  0  0  0  0  0
  -12.3964   -8.7724   10.0884 C   0  0  0  0  0  0  0  0  0  0  0  0
  -13.6241   -9.2064   10.6511 C   0  0  0  0  0  0  0  0  0  0  0  0
  -16.3720   -7.5530   12.4656 F   0  0  0  0  0  0  0  0  0  0  0  0
  -15.7299   -8.6715   11.9799 C   0  0  0  0  0  0  0  0  0  0  0  0
  -15.5080   -9.5142   13.0827 F   0  0  0  0  0  0  0  0  0  0  0  0
  -16.5804   -9.3161   11.1316 F   0  0  0  0  0  0  0  0  0  0  0  0
 35 36  1  0  0  0
 36 37  1  0  0  0
 36 38  1  0  0  0
 36 29  1  0  0  0
 29 30  2  0  0  0
 30 31  1  0  0  0
 31 32  2  0  0  0
 32 27  1  0  0  0
 27  1  1  0  0  0
  1  2  2  0  0  0
  2  3  1  0  0  0
  3  4  2  0  0  0
  4  5  1  0  0  0
  5  6  1  0  0  0
  6  7  1  0  0  0
  7  8  1  0  0  0
  8  9  1  0  0  0
  9 10  1  0  0  0
 10 11  1  0  0  0
  8 12  1  0  0  0
 12 13  2  0  0  0
 13 14  1  0  0  0
 14 15  2  0  0  0
 15 16  1  0  0  0
 16 17  2  0  0  0
 17 18  1  0  0  0
 18 19  1  0  0  0
 18 20  1  0  0  0
 18 21  1  0  0  0
  3 22  1  0  0  0
 22 23  1  0  0  0
 23 24  1  0  0  0
 24 25  1  0  0  0
 25 26  1  0  0  0
 32 33  1  0  0  0
 33 34  2  0  0  0
 34 29  1  0  0  0
 11  1  1  0  0  0
 17 12  1  0  0  0
 26 22  1  0  0  0
 11  5  2  0  0  0
 27 28  1  0  0  0
M  END
> <minimizedAffinity>
16.16205

> <CNNscore>
0.4746375382

> <CNNaffinity>
7.5930719376

> <CNN_VS>
3.6039569378

> <CNNaffinity_variance>
0.6432367563

$$$$
[H]c1nc(N2C([H])([H])C([H])([H])c3nc(N4C([H])([H])C([H])([H])C([H])([H])C4([H])[H])nc(N([H])c4c([H])c([H])c(C(F)(F)F)c([H])c4[H])c3C([H])([H])C2([H])[H])c(C(F)(F)F)c([H])c1[H]


 38 42  0  0  0  0  0  0  0  0999 V2000
  -10.9247   -7.2220    8.3760 C   0  0  0  0  0  0  0  0  0  0  0  0
  -10.5757   -6.6682    9.5214 N   0  0  0  0  0  0  0  0  0  0  0  0
  -11.5012   -6.2154   10.4310 C   0  0  0  0  0  0  0  0  0  0  0  0
  -12.8145   -6.3454   10.1388 N   0  0  0  0  0  0  0  0  0  0  0  0
  -13.2667   -6.9073    8.9822 C   0  0  0  0  0  0  0  0  0  0  0  0
  -14.7214   -6.8621    8.9996 C   0  0  0  0  0  0  0  0  0  0  0  0
  -15.4711   -7.2307    7.8002 C   0  0  0  0  0  0  0  0  0  0  0  0
  -14.8808   -7.0961    6.5092 N   0  0  0  0  0  0  0  0  0  0  0  0
  -13.5484   -6.8104    6.1321 C   0  0  0  0  0  0  0  0  0  0  0  0
  -12.5713   -7.8545    6.7430 C   0  0  0  0  0  0  0  0  0  0  0  0
  -12.3145   -7.3279    8.1353 C   0  0  0  0  0  0  0  0  0  0  0  0
  -15.7451   -7.3287    5.3903 C   0  0  0  0  0  0  0  0  0  0  0  0
  -16.2859   -8.6043    5.3380 N   0  0  0  0  0  0  0  0  0  0  0  0
  -17.1537   -8.9155    4.3604 C   0  0  0  0  0  0  0  0  0  0  0  0
  -17.5065   -7.9724    3.4212 C   0  0  0  0  0  0  0  0  0  0  0  0
  -16.9722   -6.7299    3.4799 C   0  0  0  0  0  0  0  0  0  0  0  0
  -16.0487   -6.3741    4.5014 C   0  0  0  0  0  0  0  0  0  0  0  0
  -15.5291   -5.0031    4.4290 C   0  0  0  0  0  0  0  0  0  0  0  0
  -14.2782   -4.9775    3.8479 F   0  0  0  0  0  0  0  0  0  0  0  0
  -15.5450   -4.2854    5.6241 F   0  0  0  0  0  0  0  0  0  0  0  0
  -16.3349   -4.2183    3.5800 F   0  0  0  0  0  0  0  0  0  0  0  0
  -11.1244   -5.6376   11.6527 N   0  0  0  0  0  0  0  0  0  0  0  0
   -9.9106   -5.5638   12.3930 C   0  0  0  0  0  0  0  0  0  0  0  0
  -10.3544   -6.0139   13.7838 C   0  0  0  0  0  0  0  0  0  0  0  0
  -11.8117   -5.5972   13.8457 C   0  0  0  0  0  0  0  0  0  0  0  0
  -12.0774   -4.8943   12.5332 C   0  0  0  0  0  0  0  0  0  0  0  0
  -10.1272   -7.8375    7.4350 N   0  0  0  0  0  0  0  0  0  0  0  0
  -10.6478   -8.4450    6.6359 H   0  0  0  0  0  0  0  0  0  0  0  0
   -5.9100   -7.7550    6.8951 C   0  0  0  0  0  0  0  0  0  0  0  0
   -6.7232   -6.6357    6.9659 C   0  0  0  0  0  0  0  0  0  0  0  0
   -8.0590   -6.6965    7.1915 C   0  0  0  0  0  0  0  0  0  0  0  0
   -8.7380   -7.9421    7.3765 C   0  0  0  0  0  0  0  0  0  0  0  0
   -7.9413   -9.0364    7.3141 C   0  0  0  0  0  0  0  0  0  0  0  0
   -6.5445   -8.9693    7.0760 C   0  0  0  0  0  0  0  0  0  0  0  0
   -3.9282   -8.6594    5.9731 F   0  0  0  0  0  0  0  0  0  0  0  0
   -4.4712   -7.5652    6.6114 C   0  0  0  0  0  0  0  0  0  0  0  0
   -3.7531   -7.4055    7.8091 F   0  0  0  0  0  0  0  0  0  0  0  0
   -4.2400   -6.4647    5.8409 F   0  0  0  0  0  0  0  0  0  0  0  0
 35 36  1  0  0  0
 36 37  1  0  0  0
 36 38  1  0  0  0
 36 29  1  0  0  0
 29 30  2  0  0  0
 30 31  1  0  0  0
 31 32  2  0  0  0
 32 27  1  0  0  0
 27  1  1  0  0  0
  1  2  2  0  0  0
  2  3  1  0  0  0
  3  4  2  0  0  0
  4  5  1  0  0  0
  5  6  1  0  0  0
  6  7  1  0  0  0
  7  8  1  0  0  0
  8  9  1  0  0  0
  9 10  1  0  0  0
 10 11  1  0  0  0
  8 12  1  0  0  0
 12 13  2  0  0  0
 13 14  1  0  0  0
 14 15  2  0  0  0
 15 16  1  0  0  0
 16 17  2  0  0  0
 17 18  1  0  0  0
 18 19  1  0  0  0
 18 20  1  0  0  0
 18 21  1  0  0  0
  3 22  1  0  0  0
 22 23  1  0  0  0
 23 24  1  0  0  0
 24 25  1  0  0  0
 25 26  1  0  0  0
 32 33  1  0  0  0
 33 34  2  0  0  0
 34 29  1  0  0  0
 11  1  1  0  0  0
 17 12  1  0  0  0
 26 22  1  0  0  0
 11  5  2  0  0  0
 27 28  1  0  0  0
M  END
> <minimizedAffinity>
-3.36016

> <CNNscore>
0.4399063289

> <CNNaffinity>
7.8964591026

> <CNN_VS>
3.4737024307

> <CNNaffinity_variance>
0.2733077407

$$$$
[H]c1nc(N2C([H])([H])C([H])([H])c3nc(N4C([H])([H])C([H])([H])C([H])([H])C4([H])[H])nc(N([H])c4c([H])c([H])c(C(F)(F)F)c([H])c4[H])c3C([H])([H])C2([H])[H])c(C(F)(F)F)c([H])c1[H]


 38 42  0  0  0  0  0  0  0  0999 V2000
  -11.0409   -7.1796    9.0087 C   0  0  0  0  0  0  0  0  0  0  0  0
   -9.7647   -7.2281    8.6779 N   0  0  0  0  0  0  0  0  0  0  0  0
   -9.3428   -7.1968    7.3702 C   0  0  0  0  0  0  0  0  0  0  0  0
  -10.2712   -7.1116    6.3915 N   0  0  0  0  0  0  0  0  0  0  0  0
  -11.6102   -7.0535    6.6398 C   0  0  0  0  0  0  0  0  0  0  0  0
  -12.3019   -6.9886    5.3609 C   0  0  0  0  0  0  0  0  0  0  0  0
  -13.7584   -7.1033    5.3194 C   0  0  0  0  0  0  0  0  0  0  0  0
  -14.4577   -7.8033    6.3463 N   0  0  0  0  0  0  0  0  0  0  0  0
  -14.0055   -8.3098    7.5865 C   0  0  0  0  0  0  0  0  0  0  0  0
  -13.3775   -7.1750    8.4444 C   0  0  0  0  0  0  0  0  0  0  0  0
  -11.9578   -7.0897    7.9355 C   0  0  0  0  0  0  0  0  0  0  0  0
  -15.8613   -8.0000    6.1358 C   0  0  0  0  0  0  0  0  0  0  0  0
  -16.6581   -7.6510    7.2154 N   0  0  0  0  0  0  0  0  0  0  0  0
  -17.9945   -7.7435    7.1087 C   0  0  0  0  0  0  0  0  0  0  0  0
  -18.5672   -8.1767    5.9338 C   0  0  0  0  0  0  0  0  0  0  0  0
  -17.7807   -8.5164    4.8856 C   0  0  0  0  0  0  0  0  0  0  0  0
  -16.3636   -8.4316    4.9718 C   0  0  0  0  0  0  0  0  0  0  0  0
  -15.6345   -8.8558    3.7704 C   0  0  0  0  0  0  0  0  0  0  0  0
  -14.9759   -7.7921    3.1892 F   0  0  0  0  0  0  0  0  0  0  0  0
  -16.3794   -9.5635    2.8282 F   0  0  0  0  0  0  0  0  0  0  0  0
  -14.6141   -9.7656    4.1125 F   0  0  0  0  0  0  0  0  0  0  0  0
   -7.9837   -7.2372    7.0246 N   0  0  0  0  0  0  0  0  0  0  0  0
   -6.9550   -6.2619    6.8922 C   0  0  0  0  0  0  0  0  0  0  0  0
   -6.3791   -6.5870    5.5150 C   0  0  0  0  0  0  0  0  0  0  0  0
   -6.6329   -8.0749    5.3642 C   0  0  0  0  0  0  0  0  0  0  0  0
   -7.2686   -8.5013    6.6686 C   0  0  0  0  0  0  0  0  0  0  0  0
  -11.6055   -7.0678   10.2613 N   0  0  0  0  0  0  0  0  0  0  0  0
  -11.0809   -6.3971   11.0053 H   0  0  0  0  0  0  0  0  0  0  0  0
  -14.9766   -8.7363   12.2451 C   0  0  0  0  0  0  0  0  0  0  0  0
  -14.9034   -7.4420   11.7566 C   0  0  0  0  0  0  0  0  0  0  0  0
  -13.8312   -6.9582   11.0819 C   0  0  0  0  0  0  0  0  0  0  0  0
  -12.6776   -7.7628   10.8200 C   0  0  0  0  0  0  0  0  0  0  0  0
  -12.7522   -9.0309   11.2918 C   0  0  0  0  0  0  0  0  0  0  0  0
  -13.8746   -9.5330   11.9989 C   0  0  0  0  0  0  0  0  0  0  0  0
  -15.8725   -9.6178   14.2491 F   0  0  0  0  0  0  0  0  0  0  0  0
  -16.1855   -9.1405   12.9946 C   0  0  0  0  0  0  0  0  0  0  0  0
  -16.8503  -10.1828   12.3260 F   0  0  0  0  0  0  0  0  0  0  0  0
  -17.0688   -8.1121   13.1385 F   0  0  0  0  0  0  0  0  0  0  0  0
 35 36  1  0  0  0
 36 37  1  0  0  0
 36 38  1  0  0  0
 36 29  1  0  0  0
 29 30  2  0  0  0
 30 31  1  0  0  0
 31 32  2  0  0  0
 32 27  1  0  0  0
 27  1  1  0  0  0
  1  2  2  0  0  0
  2  3  1  0  0  0
  3  4  2  0  0  0
  4  5  1  0  0  0
  5  6  1  0  0  0
  6  7  1  0  0  0
  7  8  1  0  0  0
  8  9  1  0  0  0
  9 10  1  0  0  0
 10 11  1  0  0  0
  8 12  1  0  0  0
 12 13  2  0  0  0
 13 14  1  0  0  0
 14 15  2  0  0  0
 15 16  1  0  0  0
 16 17  2  0  0  0
 17 18  1  0  0  0
 18 19  1  0  0  0
 18 20  1  0  0  0
 18 21  1  0  0  0
  3 22  1  0  0  0
 22 23  1  0  0  0
 23 24  1  0  0  0
 24 25  1  0  0  0
 25 26  1  0  0  0
 32 33  1  0  0  0
 33 34  2  0  0  0
 34 29  1  0  0  0
 11  1  1  0  0  0
 17 12  1  0  0  0
 26 22  1  0  0  0
 11  5  2  0  0  0
 27 28  1  0  0  0
M  END
> <minimizedAffinity>
16.99786

> <CNNscore>
0.4221236706

> <CNNaffinity>
7.5316514969

> <CNN_VS>
3.1792883873

> <CNNaffinity_variance>
0.8964026570

$$$$
[H]c1nc(N2C([H])([H])C([H])([H])c3nc(N4C([H])([H])C([H])([H])C([H])([H])C4([H])[H])nc(N([H])c4c([H])c([H])c(C(F)(F)F)c([H])c4[H])c3C([H])([H])C2([H])[H])c(C(F)(F)F)c([H])c1[H]


 38 42  0  0  0  0  0  0  0  0999 V2000
  -12.7405   -8.6735    8.1650 C   0  0  0  0  0  0  0  0  0  0  0  0
  -12.7013   -8.7428    9.4818 N   0  0  0  0  0  0  0  0  0  0  0  0
  -13.8266   -8.6051   10.2588 C   0  0  0  0  0  0  0  0  0  0  0  0
  -15.0138   -8.3932    9.6484 N   0  0  0  0  0  0  0  0  0  0  0  0
  -15.1494   -8.3106    8.2945 C   0  0  0  0  0  0  0  0  0  0  0  0
  -16.5521   -8.0593    7.9981 C   0  0  0  0  0  0  0  0  0  0  0  0
  -16.9568   -7.7420    6.6300 C   0  0  0  0  0  0  0  0  0  0  0  0
  -16.0338   -7.1412    5.7242 N   0  0  0  0  0  0  0  0  0  0  0  0
  -14.6417   -6.9225    5.8396 C   0  0  0  0  0  0  0  0  0  0  0  0
  -13.8972   -8.2629    6.0982 C   0  0  0  0  0  0  0  0  0  0  0  0
  -14.0146   -8.4514    7.5923 C   0  0  0  0  0  0  0  0  0  0  0  0
  -16.5670   -6.7220    4.4619 C   0  0  0  0  0  0  0  0  0  0  0  0
  -17.4851   -7.6000    3.9065 N   0  0  0  0  0  0  0  0  0  0  0  0
  -18.0894   -7.2809    2.7495 C   0  0  0  0  0  0  0  0  0  0  0  0
  -17.8022   -6.0884    2.1238 C   0  0  0  0  0  0  0  0  0  0  0  0
  -16.9033   -5.2383    2.6734 C   0  0  0  0  0  0  0  0  0  0  0  0
  -16.2462   -5.5519    3.8951 C   0  0  0  0  0  0  0  0  0  0  0  0
  -15.2776   -4.5526    4.3621 C   0  0  0  0  0  0  0  0  0  0  0  0
  -13.9840   -4.9630    4.1147 F   0  0  0  0  0  0  0  0  0  0  0  0
  -15.4297   -4.1325    5.6827 F   0  0  0  0  0  0  0  0  0  0  0  0
  -15.4194   -3.3550    3.6327 F   0  0  0  0  0  0  0  0  0  0  0  0
  -13.7808   -8.6910   11.6584 N   0  0  0  0  0  0  0  0  0  0  0  0
  -12.7401   -8.8373   12.6188 C   0  0  0  0  0  0  0  0  0  0  0  0
  -13.2515   -9.9960   13.4731 C   0  0  0  0  0  0  0  0  0  0  0  0
  -14.7601   -9.8818   13.3632 C   0  0  0  0  0  0  0  0  0  0  0  0
  -15.0024   -8.6500   12.5197 C   0  0  0  0  0  0  0  0  0  0  0  0
  -11.7343   -8.9218    7.2560 N   0  0  0  0  0  0  0  0  0  0  0  0
  -12.0319   -9.3986    6.2748 H   0  0  0  0  0  0  0  0  0  0  0  0
   -7.5645   -8.0963    7.3793 C   0  0  0  0  0  0  0  0  0  0  0  0
   -8.5652   -7.1405    7.4441 C   0  0  0  0  0  0  0  0  0  0  0  0
   -9.8871   -7.4430    7.4549 C   0  0  0  0  0  0  0  0  0  0  0  0
  -10.3532   -8.7945    7.3999 C   0  0  0  0  0  0  0  0  0  0  0  0
   -9.3742   -9.7296    7.3435 C   0  0  0  0  0  0  0  0  0  0  0  0
   -7.9924   -9.4095    7.3304 C   0  0  0  0  0  0  0  0  0  0  0  0
   -6.0216   -6.4566    6.6539 F   0  0  0  0  0  0  0  0  0  0  0  0
   -6.1573   -7.6436    7.3410 C   0  0  0  0  0  0  0  0  0  0  0  0
   -5.3582   -8.5857    6.6708 F   0  0  0  0  0  0  0  0  0  0  0  0
   -5.6377   -7.4744    8.5899 F   0  0  0  0  0  0  0  0  0  0  0  0
 35 36  1  0  0  0
 36 37  1  0  0  0
 36 38  1  0  0  0
 36 29  1  0  0  0
 29 30  2  0  0  0
 30 31  1  0  0  0
 31 32  2  0  0  0
 32 27  1  0  0  0
 27  1  1  0  0  0
  1  2  2  0  0  0
  2  3  1  0  0  0
  3  4  2  0  0  0
  4  5  1  0  0  0
  5  6  1  0  0  0
  6  7  1  0  0  0
  7  8  1  0  0  0
  8  9  1  0  0  0
  9 10  1  0  0  0
 10 11  1  0  0  0
  8 12  1  0  0  0
 12 13  2  0  0  0
 13 14  1  0  0  0
 14 15  2  0  0  0
 15 16  1  0  0  0
 16 17  2  0  0  0
 17 18  1  0  0  0
 18 19  1  0  0  0
 18 20  1  0  0  0
 18 21  1  0  0  0
  3 22  1  0  0  0
 22 23  1  0  0  0
 23 24  1  0  0  0
 24 25  1  0  0  0
 25 26  1  0  0  0
 32 33  1  0  0  0
 33 34  2  0  0  0
 34 29  1  0  0  0
 11  1  1  0  0  0
 17 12  1  0  0  0
 26 22  1  0  0  0
 11  5  2  0  0  0
 27 28  1  0  0  0
M  END
> <minimizedAffinity>
4.14300

> <CNNscore>
0.4166092575

> <CNNaffinity>
7.6721839905

> <CNN_VS>
3.1963028908

> <CNNaffinity_variance>
0.1364477128

$$$$
[H]c1nc(N2C([H])([H])C([H])([H])c3nc(N4C([H])([H])C([H])([H])C([H])([H])C4([H])[H])nc(N([H])c4c([H])c([H])c(C(F)(F)F)c([H])c4[H])c3C([H])([H])C2([H])[H])c(C(F)(F)F)c([H])c1[H]


 38 42  0  0  0  0  0  0  0  0999 V2000
  -10.8803   -7.3349    8.3967 C   0  0  0  0  0  0  0  0  0  0  0  0
  -10.5163   -6.7687    9.5314 N   0  0  0  0  0  0  0  0  0  0  0  0
  -11.4288   -6.2611   10.4252 C   0  0  0  0  0  0  0  0  0  0  0  0
  -12.7445   -6.3486   10.1284 N   0  0  0  0  0  0  0  0  0  0  0  0
  -13.2118   -6.9194    8.9821 C   0  0  0  0  0  0  0  0  0  0  0  0
  -14.6638   -6.8195    8.9901 C   0  0  0  0  0  0  0  0  0  0  0  0
  -15.4209   -7.1869    7.7951 C   0  0  0  0  0  0  0  0  0  0  0  0
  -14.8196   -7.1038    6.5048 N   0  0  0  0  0  0  0  0  0  0  0  0
  -13.4756   -6.8767    6.1290 C   0  0  0  0  0  0  0  0  0  0  0  0
  -12.5414   -7.9424    6.7689 C   0  0  0  0  0  0  0  0  0  0  0  0
  -12.2718   -7.3943    8.1504 C   0  0  0  0  0  0  0  0  0  0  0  0
  -15.6865   -7.3293    5.3864 C   0  0  0  0  0  0  0  0  0  0  0  0
  -16.2399   -8.5995    5.3360 N   0  0  0  0  0  0  0  0  0  0  0  0
  -17.1111   -8.9034    4.3590 C   0  0  0  0  0  0  0  0  0  0  0  0
  -17.4548   -7.9581    3.4187 C   0  0  0  0  0  0  0  0  0  0  0  0
  -16.9081   -6.7209    3.4756 C   0  0  0  0  0  0  0  0  0  0  0  0
  -15.9808   -6.3730    4.4963 C   0  0  0  0  0  0  0  0  0  0  0  0
  -15.4477   -5.0073    4.4219 C   0  0  0  0  0  0  0  0  0  0  0  0
  -14.1989   -4.9942    3.8360 F   0  0  0  0  0  0  0  0  0  0  0  0
  -15.4517   -4.2895    5.6171 F   0  0  0  0  0  0  0  0  0  0  0  0
  -16.2488   -4.2143    3.5761 F   0  0  0  0  0  0  0  0  0  0  0  0
  -11.0365   -5.6702   11.6357 N   0  0  0  0  0  0  0  0  0  0  0  0
   -9.8184   -5.6057   12.3698 C   0  0  0  0  0  0  0  0  0  0  0  0
  -10.2639   -6.0253   13.7696 C   0  0  0  0  0  0  0  0  0  0  0  0
  -11.7134   -5.5821   13.8306 C   0  0  0  0  0  0  0  0  0  0  0  0
  -11.9726   -4.8961   12.5078 C   0  0  0  0  0  0  0  0  0  0  0  0
  -10.1018   -8.0010    7.4744 N   0  0  0  0  0  0  0  0  0  0  0  0
  -10.5444   -8.9263    6.9984 H   0  0  0  0  0  0  0  0  0  0  0  0
   -5.9169   -7.6584    6.8012 C   0  0  0  0  0  0  0  0  0  0  0  0
   -6.5645   -8.8161    7.2005 C   0  0  0  0  0  0  0  0  0  0  0  0
   -7.9088   -8.9041    7.3554 C   0  0  0  0  0  0  0  0  0  0  0  0
   -8.7717   -7.7890    7.1132 C   0  0  0  0  0  0  0  0  0  0  0  0
   -8.1389   -6.6586    6.7160 C   0  0  0  0  0  0  0  0  0  0  0  0
   -6.7322   -6.5695    6.5569 C   0  0  0  0  0  0  0  0  0  0  0  0
   -3.8430   -7.5736    7.9357 F   0  0  0  0  0  0  0  0  0  0  0  0
   -4.4419   -7.6742    6.6985 C   0  0  0  0  0  0  0  0  0  0  0  0
   -3.9917   -6.5750    5.9471 F   0  0  0  0  0  0  0  0  0  0  0  0
   -3.9810   -8.8053    6.0931 F   0  0  0  0  0  0  0  0  0  0  0  0
 35 36  1  0  0  0
 36 37  1  0  0  0
 36 38  1  0  0  0
 36 29  1  0  0  0
 29 30  2  0  0  0
 30 31  1  0  0  0
 31 32  2  0  0  0
 32 27  1  0  0  0
 27  1  1  0  0  0
  1  2  2  0  0  0
  2  3  1  0  0  0
  3  4  2  0  0  0
  4  5  1  0  0  0
  5  6  1  0  0  0
  6  7  1  0  0  0
  7  8  1  0  0  0
  8  9  1  0  0  0
  9 10  1  0  0  0
 10 11  1  0  0  0
  8 12  1  0  0  0
 12 13  2  0  0  0
 13 14  1  0  0  0
 14 15  2  0  0  0
 15 16  1  0  0  0
 16 17  2  0  0  0
 17 18  1  0  0  0
 18 19  1  0  0  0
 18 20  1  0  0  0
 18 21  1  0  0  0
  3 22  1  0  0  0
 22 23  1  0  0  0
 23 24  1  0  0  0
 24 25  1  0  0  0
 25 26  1  0  0  0
 32 33  1  0  0  0
 33 34  2  0  0  0
 34 29  1  0  0  0
 11  1  1  0  0  0
 17 12  1  0  0  0
 26 22  1  0  0  0
 11  5  2  0  0  0
 27 28  1  0  0  0
M  END
> <minimizedAffinity>
-3.34226

> <CNNscore>
0.4119460583

> <CNNaffinity>
7.8890810013

> <CNN_VS>
3.2498757839

> <CNNaffinity_variance>
0.2987509370

$$$$
[H]c1nc(N2C([H])([H])C([H])([H])c3nc(N4C([H])([H])C([H])([H])C([H])([H])C4([H])[H])nc(N([H])c4c([H])c([H])c(C(F)(F)F)c([H])c4[H])c3C([H])([H])C2([H])[H])c(C(F)(F)F)c([H])c1[H]


 38 42  0  0  0  0  0  0  0  0999 V2000
  -12.4691   -8.2414    6.4811 C   0  0  0  0  0  0  0  0  0  0  0  0
  -13.1933   -7.7222    5.5082 N   0  0  0  0  0  0  0  0  0  0  0  0
  -14.3944   -7.0954    5.7402 C   0  0  0  0  0  0  0  0  0  0  0  0
  -14.8451   -7.0085    7.0114 N   0  0  0  0  0  0  0  0  0  0  0  0
  -14.1629   -7.5127    8.0784 C   0  0  0  0  0  0  0  0  0  0  0  0
  -14.9493   -7.2567    9.2761 C   0  0  0  0  0  0  0  0  0  0  0  0
  -14.5451   -7.8526   10.5480 C   0  0  0  0  0  0  0  0  0  0  0  0
  -13.7895   -9.0617   10.5719 N   0  0  0  0  0  0  0  0  0  0  0  0
  -13.1578   -9.7726    9.5256 C   0  0  0  0  0  0  0  0  0  0  0  0
  -12.1421   -8.8610    8.7804 C   0  0  0  0  0  0  0  0  0  0  0  0
  -12.9991   -8.1136    7.7862 C   0  0  0  0  0  0  0  0  0  0  0  0
  -13.5796   -9.6520   11.8606 C   0  0  0  0  0  0  0  0  0  0  0  0
  -12.3433  -10.2591   12.0195 N   0  0  0  0  0  0  0  0  0  0  0  0
  -12.0184  -10.7977   13.2069 C   0  0  0  0  0  0  0  0  0  0  0  0
  -12.9052  -10.7418   14.2588 C   0  0  0  0  0  0  0  0  0  0  0  0
  -14.1104  -10.1479   14.0935 C   0  0  0  0  0  0  0  0  0  0  0  0
  -14.4821   -9.5729   12.8469 C   0  0  0  0  0  0  0  0  0  0  0  0
  -15.8269   -8.9863   12.8015 C   0  0  0  0  0  0  0  0  0  0  0  0
  -16.6911   -9.7836   12.0800 F   0  0  0  0  0  0  0  0  0  0  0  0
  -15.8949   -7.6590   12.3806 F   0  0  0  0  0  0  0  0  0  0  0  0
  -16.3826   -8.9348   14.0956 F   0  0  0  0  0  0  0  0  0  0  0  0
  -15.1549   -6.5351    4.7029 N   0  0  0  0  0  0  0  0  0  0  0  0
  -14.9198   -5.5363    3.7161 C   0  0  0  0  0  0  0  0  0  0  0  0
  -16.1425   -4.6341    3.8740 C   0  0  0  0  0  0  0  0  0  0  0  0
  -17.2187   -5.5767    4.3783 C   0  0  0  0  0  0  0  0  0  0  0  0
  -16.5649   -6.9400    4.4132 C   0  0  0  0  0  0  0  0  0  0  0  0
  -11.1991   -8.7745    6.4233 N   0  0  0  0  0  0  0  0  0  0  0  0
  -11.1105   -9.8659    6.1411 H   0  0  0  0  0  0  0  0  0  0  0  0
   -7.4184   -7.4699    7.8682 C   0  0  0  0  0  0  0  0  0  0  0  0
   -7.7461   -8.7838    7.5757 C   0  0  0  0  0  0  0  0  0  0  0  0
   -8.9457   -9.1584    7.0663 C   0  0  0  0  0  0  0  0  0  0  0  0
   -9.9783   -8.2081    6.7882 C   0  0  0  0  0  0  0  0  0  0  0  0
   -9.6552   -6.9222    7.0679 C   0  0  0  0  0  0  0  0  0  0  0  0
   -8.4000   -6.5341    7.6026 C   0  0  0  0  0  0  0  0  0  0  0  0
   -5.1432   -8.0965    8.0307 F   0  0  0  0  0  0  0  0  0  0  0  0
   -6.0894   -7.1870    8.4515 C   0  0  0  0  0  0  0  0  0  0  0  0
   -6.1394   -7.2832    9.8528 F   0  0  0  0  0  0  0  0  0  0  0  0
   -5.6465   -5.9363    8.1385 F   0  0  0  0  0  0  0  0  0  0  0  0
 35 36  1  0  0  0
 36 37  1  0  0  0
 36 38  1  0  0  0
 36 29  1  0  0  0
 29 30  2  0  0  0
 30 31  1  0  0  0
 31 32  2  0  0  0
 32 27  1  0  0  0
 27  1  1  0  0  0
  1  2  2  0  0  0
  2  3  1  0  0  0
  3  4  2  0  0  0
  4  5  1  0  0  0
  5  6  1  0  0  0
  6  7  1  0  0  0
  7  8  1  0  0  0
  8  9  1  0  0  0
  9 10  1  0  0  0
 10 11  1  0  0  0
  8 12  1  0  0  0
 12 13  2  0  0  0
 13 14  1  0  0  0
 14 15  2  0  0  0
 15 16  1  0  0  0
 16 17  2  0  0  0
 17 18  1  0  0  0
 18 19  1  0  0  0
 18 20  1  0  0  0
 18 21  1  0  0  0
  3 22  1  0  0  0
 22 23  1  0  0  0
 23 24  1  0  0  0
 24 25  1  0  0  0
 25 26  1  0  0  0
 32 33  1  0  0  0
 33 34  2  0  0  0
 34 29  1  0  0  0
 11  1  1  0  0  0
 17 12  1  0  0  0
 26 22  1  0  0  0
 11  5  2  0  0  0
 27 28  1  0  0  0
M  END
> <minimizedAffinity>
19.71307

> <CNNscore>
0.3969928622

> <CNNaffinity>
7.4600782394

> <CNN_VS>
2.9615979195

> <CNNaffinity_variance>
0.5901163220

$$$$
[H]c1nc(N2C([H])([H])C([H])([H])c3nc(N4C([H])([H])C([H])([H])C([H])([H])C4([H])[H])nc(N([H])c4c([H])c([H])c(C(F)(F)F)c([H])c4[H])c3C([H])([H])C2([H])[H])c(C(F)(F)F)c([H])c1[H]


 38 42  0  0  0  0  0  0  0  0999 V2000
  -11.0715   -7.4830    9.2307 C   0  0  0  0  0  0  0  0  0  0  0  0
   -9.8063   -7.4874    8.8569 N   0  0  0  0  0  0  0  0  0  0  0  0
   -9.4259   -7.3044    7.5489 C   0  0  0  0  0  0  0  0  0  0  0  0
  -10.3847   -7.1118    6.6159 N   0  0  0  0  0  0  0  0  0  0  0  0
  -11.7153   -7.0886    6.9110 C   0  0  0  0  0  0  0  0  0  0  0  0
  -12.4470   -6.8806    5.6701 C   0  0  0  0  0  0  0  0  0  0  0  0
  -13.9040   -6.9965    5.6612 C   0  0  0  0  0  0  0  0  0  0  0  0
  -14.5699   -7.8128    6.6223 N   0  0  0  0  0  0  0  0  0  0  0  0
  -14.0783   -8.4561    7.7815 C   0  0  0  0  0  0  0  0  0  0  0  0
  -13.4247   -7.4243    8.7439 C   0  0  0  0  0  0  0  0  0  0  0  0
  -12.0219   -7.2748    8.2041 C   0  0  0  0  0  0  0  0  0  0  0  0
  -15.9793   -7.9905    6.4346 C   0  0  0  0  0  0  0  0  0  0  0  0
  -16.7061   -8.0970    7.6104 N   0  0  0  0  0  0  0  0  0  0  0  0
  -18.0438   -8.2119    7.5533 C   0  0  0  0  0  0  0  0  0  0  0  0
  -18.6871   -8.2184    6.3359 C   0  0  0  0  0  0  0  0  0  0  0  0
  -17.9685   -8.1150    5.1932 C   0  0  0  0  0  0  0  0  0  0  0  0
  -16.5516   -7.9958    5.2238 C   0  0  0  0  0  0  0  0  0  0  0  0
  -15.8991   -7.9185    3.9112 C   0  0  0  0  0  0  0  0  0  0  0  0
  -14.8871   -8.8500    3.8054 F   0  0  0  0  0  0  0  0  0  0  0  0
  -15.4613   -6.6522    3.5260 F   0  0  0  0  0  0  0  0  0  0  0  0
  -16.8092   -8.2606    2.8910 F   0  0  0  0  0  0  0  0  0  0  0  0
   -8.0782   -7.2987    7.1587 N   0  0  0  0  0  0  0  0  0  0  0  0
   -6.8738   -6.7954    7.7267 C   0  0  0  0  0  0  0  0  0  0  0  0
   -6.2709   -6.0132    6.5611 C   0  0  0  0  0  0  0  0  0  0  0  0
   -6.7952   -6.7379    5.3359 C   0  0  0  0  0  0  0  0  0  0  0  0
   -7.5962   -7.9008    5.8777 C   0  0  0  0  0  0  0  0  0  0  0  0
  -11.5964   -7.5182   10.5050 N   0  0  0  0  0  0  0  0  0  0  0  0
  -11.4614   -8.4751   11.0920 H   0  0  0  0  0  0  0  0  0  0  0  0
  -14.4537   -4.8746   12.2170 C   0  0  0  0  0  0  0  0  0  0  0  0
  -14.6814   -6.2101   11.9275 C   0  0  0  0  0  0  0  0  0  0  0  0
  -13.7304   -7.0388   11.4298 C   0  0  0  0  0  0  0  0  0  0  0  0
  -12.3993   -6.5872   11.1631 C   0  0  0  0  0  0  0  0  0  0  0  0
  -12.1748   -5.2827   11.4528 C   0  0  0  0  0  0  0  0  0  0  0  0
  -13.1726   -4.4181   11.9716 C   0  0  0  0  0  0  0  0  0  0  0  0
  -15.4725   -3.8343   14.0812 F   0  0  0  0  0  0  0  0  0  0  0  0
  -15.5787   -4.0609   12.7259 C   0  0  0  0  0  0  0  0  0  0  0  0
  -16.7973   -4.7328   12.5284 F   0  0  0  0  0  0  0  0  0  0  0  0
  -15.6654   -2.8542   12.0979 F   0  0  0  0  0  0  0  0  0  0  0  0
 35 36  1  0  0  0
 36 37  1  0  0  0
 36 38  1  0  0  0
 36 29  1  0  0  0
 29 30  2  0  0  0
 30 31  1  0  0  0
 31 32  2  0  0  0
 32 27  1  0  0  0
 27  1  1  0  0  0
  1  2  2  0  0  0
  2  3  1  0  0  0
  3  4  2  0  0  0
  4  5  1  0  0  0
  5  6  1  0  0  0
  6  7  1  0  0  0
  7  8  1  0  0  0
  8  9  1  0  0  0
  9 10  1  0  0  0
 10 11  1  0  0  0
  8 12  1  0  0  0
 12 13  2  0  0  0
 13 14  1  0  0  0
 14 15  2  0  0  0
 15 16  1  0  0  0
 16 17  2  0  0  0
 17 18  1  0  0  0
 18 19  1  0  0  0
 18 20  1  0  0  0
 18 21  1  0  0  0
  3 22  1  0  0  0
 22 23  1  0  0  0
 23 24  1  0  0  0
 24 25  1  0  0  0
 25 26  1  0  0  0
 32 33  1  0  0  0
 33 34  2  0  0  0
 34 29  1  0  0  0
 11  1  1  0  0  0
 17 12  1  0  0  0
 26 22  1  0  0  0
 11  5  2  0  0  0
 27 28  1  0  0  0
M  END
> <minimizedAffinity>
22.36082

> <CNNscore>
0.3673959076

> <CNNaffinity>
7.4588127136

> <CNN_VS>
2.7403373718

> <CNNaffinity_variance>
0.5767035484

$$$$
[H]c1nc(N2C([H])([H])C([H])([H])c3nc(N4C([H])([H])C([H])([H])C([H])([H])C4([H])[H])nc(N([H])c4c([H])c([H])c(C(F)(F)F)c([H])c4[H])c3C([H])([H])C2([H])[H])c(C(F)(F)F)c([H])c1[H]


 38 42  0  0  0  0  0  0  0  0999 V2000
  -12.9674   -8.5754    7.9210 C   0  0  0  0  0  0  0  0  0  0  0  0
  -13.6485   -8.6971    9.0442 N   0  0  0  0  0  0  0  0  0  0  0  0
  -13.2646   -8.0740   10.2076 C   0  0  0  0  0  0  0  0  0  0  0  0
  -12.1503   -7.3091   10.1960 N   0  0  0  0  0  0  0  0  0  0  0  0
  -11.3872   -7.1240    9.0818 C   0  0  0  0  0  0  0  0  0  0  0  0
  -10.2675   -6.2665    9.4416 C   0  0  0  0  0  0  0  0  0  0  0  0
   -9.1846   -6.0507    8.4840 C   0  0  0  0  0  0  0  0  0  0  0  0
   -8.8972   -7.0275    7.4857 N   0  0  0  0  0  0  0  0  0  0  0  0
   -9.6123   -8.1838    7.0972 C   0  0  0  0  0  0  0  0  0  0  0  0
  -11.0611   -7.8132    6.6708 C   0  0  0  0  0  0  0  0  0  0  0  0
  -11.8134   -7.7596    7.9795 C   0  0  0  0  0  0  0  0  0  0  0  0
   -7.7209   -6.8022    6.6992 C   0  0  0  0  0  0  0  0  0  0  0  0
   -7.9649   -6.2808    5.4379 N   0  0  0  0  0  0  0  0  0  0  0  0
   -6.9303   -5.9793    4.6351 C   0  0  0  0  0  0  0  0  0  0  0  0
   -5.6380   -6.1821    5.0649 C   0  0  0  0  0  0  0  0  0  0  0  0
   -5.4100   -6.6929    6.2977 C   0  0  0  0  0  0  0  0  0  0  0  0
   -6.4859   -7.0243    7.1669 C   0  0  0  0  0  0  0  0  0  0  0  0
   -6.0947   -7.5933    8.4623 C   0  0  0  0  0  0  0  0  0  0  0  0
   -6.7468   -8.7861    8.6966 F   0  0  0  0  0  0  0  0  0  0  0  0
   -6.2010   -6.7367    9.5570 F   0  0  0  0  0  0  0  0  0  0  0  0
   -4.7258   -7.9282    8.4567 F   0  0  0  0  0  0  0  0  0  0  0  0
  -13.9992   -8.1978   11.3965 N   0  0  0  0  0  0  0  0  0  0  0  0
  -13.6961   -8.6234   12.7208 C   0  0  0  0  0  0  0  0  0  0  0  0
  -14.8098   -9.6319   12.9974 C   0  0  0  0  0  0  0  0  0  0  0  0
  -15.9605   -9.1361   12.1422 C   0  0  0  0  0  0  0  0  0  0  0  0
  -15.4538   -7.8659   11.4962 C   0  0  0  0  0  0  0  0  0  0  0  0
  -13.2948   -9.0227    6.6587 N   0  0  0  0  0  0  0  0  0  0  0  0
  -12.6884   -9.8816    6.2427 H   0  0  0  0  0  0  0  0  0  0  0  0
  -16.3547   -7.3063    4.2558 C   0  0  0  0  0  0  0  0  0  0  0  0
  -15.9444   -6.8191    5.4859 C   0  0  0  0  0  0  0  0  0  0  0  0
  -14.9285   -7.3609    6.2025 C   0  0  0  0  0  0  0  0  0  0  0  0
  -14.1931   -8.4944    5.7322 C   0  0  0  0  0  0  0  0  0  0  0  0
  -14.5900   -8.9666    4.5258 C   0  0  0  0  0  0  0  0  0  0  0  0
  -15.6544   -8.3986    3.7799 C   0  0  0  0  0  0  0  0  0  0  0  0
  -18.4081   -6.1556    4.4901 F   0  0  0  0  0  0  0  0  0  0  0  0
  -17.4971   -6.6517    3.5827 C   0  0  0  0  0  0  0  0  0  0  0  0
  -18.1920   -7.5779    2.7860 F   0  0  0  0  0  0  0  0  0  0  0  0
  -17.0998   -5.6278    2.7751 F   0  0  0  0  0  0  0  0  0  0  0  0
 35 36  1  0  0  0
 36 37  1  0  0  0
 36 38  1  0  0  0
 36 29  1  0  0  0
 29 30  2  0  0  0
 30 31  1  0  0  0
 31 32  2  0  0  0
 32 27  1  0  0  0
 27  1  1  0  0  0
  1  2  2  0  0  0
  2  3  1  0  0  0
  3  4  2  0  0  0
  4  5  1  0  0  0
  5  6  1  0  0  0
  6  7  1  0  0  0
  7  8  1  0  0  0
  8  9  1  0  0  0
  9 10  1  0  0  0
 10 11  1  0  0  0
  8 12  1  0  0  0
 12 13  2  0  0  0
 13 14  1  0  0  0
 14 15  2  0  0  0
 15 16  1  0  0  0
 16 17  2  0  0  0
 17 18  1  0  0  0
 18 19  1  0  0  0
 18 20  1  0  0  0
 18 21  1  0  0  0
  3 22  1  0  0  0
 22 23  1  0  0  0
 23 24  1  0  0  0
 24 25  1  0  0  0
 25 26  1  0  0  0
 32 33  1  0  0  0
 33 34  2  0  0  0
 34 29  1  0  0  0
 11  1  1  0  0  0
 17 12  1  0  0  0
 26 22  1  0  0  0
 11  5  2  0  0  0
 27 28  1  0  0  0
M  END
> <minimizedAffinity>
2.91955

> <CNNscore>
0.3651308417

> <CNNaffinity>
7.5756025314

> <CNN_VS>
2.7660861015

> <CNNaffinity_variance>
0.2311383188

$$$$
[H]c1nc(N2C([H])([H])C([H])([H])c3nc(N4C([H])([H])C([H])([H])C([H])([H])C4([H])[H])nc(N([H])c4c([H])c([H])c(C(F)(F)F)c([H])c4[H])c3C([H])([H])C2([H])[H])c(C(F)(F)F)c([H])c1[H]


 38 42  0  0  0  0  0  0  0  0999 V2000
   -9.2916   -9.3428    6.7807 C   0  0  0  0  0  0  0  0  0  0  0  0
   -8.0776   -9.2146    6.2805 N   0  0  0  0  0  0  0  0  0  0  0  0
   -7.1591   -8.3324    6.7975 C   0  0  0  0  0  0  0  0  0  0  0  0
   -7.5155   -7.5724    7.8568 N   0  0  0  0  0  0  0  0  0  0  0  0
   -8.7457   -7.6400    8.4401 C   0  0  0  0  0  0  0  0  0  0  0  0
   -8.7802   -6.6747    9.5289 C   0  0  0  0  0  0  0  0  0  0  0  0
  -10.0423   -6.4011   10.2135 C   0  0  0  0  0  0  0  0  0  0  0  0
  -11.2853   -6.5950    9.5422 N   0  0  0  0  0  0  0  0  0  0  0  0
  -11.5748   -7.2060    8.3004 C   0  0  0  0  0  0  0  0  0  0  0  0
  -11.0495   -8.6694    8.2755 C   0  0  0  0  0  0  0  0  0  0  0  0
   -9.5971   -8.5185    7.8887 C   0  0  0  0  0  0  0  0  0  0  0  0
  -12.4565   -6.1490   10.2369 C   0  0  0  0  0  0  0  0  0  0  0  0
  -13.3191   -7.1649   10.6191 N   0  0  0  0  0  0  0  0  0  0  0  0
  -14.4227   -6.8654   11.3248 C   0  0  0  0  0  0  0  0  0  0  0  0
  -14.6912   -5.5597   11.6698 C   0  0  0  0  0  0  0  0  0  0  0  0
  -13.8435   -4.5745   11.2909 C   0  0  0  0  0  0  0  0  0  0  0  0
  -12.6701   -4.8622   10.5404 C   0  0  0  0  0  0  0  0  0  0  0  0
  -11.8562   -3.6964   10.1753 C   0  0  0  0  0  0  0  0  0  0  0  0
  -12.6482   -2.6606    9.7251 F   0  0  0  0  0  0  0  0  0  0  0  0
  -10.8026   -3.9445    9.2967 F   0  0  0  0  0  0  0  0  0  0  0  0
  -11.2027   -3.1801   11.3122 F   0  0  0  0  0  0  0  0  0  0  0  0
   -5.8656   -8.2084    6.2686 N   0  0  0  0  0  0  0  0  0  0  0  0
   -4.7549   -9.0872    6.1235 C   0  0  0  0  0  0  0  0  0  0  0  0
   -3.6117   -8.2599    6.7090 C   0  0  0  0  0  0  0  0  0  0  0  0
   -4.0365   -6.8276    6.4459 C   0  0  0  0  0  0  0  0  0  0  0  0
   -5.3398   -6.9355    5.6861 C   0  0  0  0  0  0  0  0  0  0  0  0
  -10.2649  -10.2655    6.4617 N   0  0  0  0  0  0  0  0  0  0  0  0
   -9.9204  -11.3136    6.2141 H   0  0  0  0  0  0  0  0  0  0  0  0
  -14.3063   -9.2525    5.6107 C   0  0  0  0  0  0  0  0  0  0  0  0
  -13.2441   -9.0797    4.7384 C   0  0  0  0  0  0  0  0  0  0  0  0
  -11.9746   -9.4625    5.0227 C   0  0  0  0  0  0  0  0  0  0  0  0
  -11.6335  -10.0841    6.2653 C   0  0  0  0  0  0  0  0  0  0  0  0
  -12.6738  -10.2594    7.1156 C   0  0  0  0  0  0  0  0  0  0  0  0
  -14.0002   -9.8559    6.8158 C   0  0  0  0  0  0  0  0  0  0  0  0
  -15.5645   -7.5538    4.5493 F   0  0  0  0  0  0  0  0  0  0  0  0
  -15.6414   -8.7648    5.2027 C   0  0  0  0  0  0  0  0  0  0  0  0
  -16.4529   -8.5579    6.3315 F   0  0  0  0  0  0  0  0  0  0  0  0
  -16.2843   -9.6483    4.3877 F   0  0  0  0  0  0  0  0  0  0  0  0
 35 36  1  0  0  0
 36 37  1  0  0  0
 36 38  1  0  0  0
 36 29  1  0  0  0
 29 30  2  0  0  0
 30 31  1  0  0  0
 31 32  2  0  0  0
 32 27  1  0  0  0
 27  1  1  0  0  0
  1  2  2  0  0  0
  2  3  1  0  0  0
  3  4  2  0  0  0
  4  5  1  0  0  0
  5  6  1  0  0  0
  6  7  1  0  0  0
  7  8  1  0  0  0
  8  9  1  0  0  0
  9 10  1  0  0  0
 10 11  1  0  0  0
  8 12  1  0  0  0
 12 13  2  0  0  0
 13 14  1  0  0  0
 14 15  2  0  0  0
 15 16  1  0  0  0
 16 17  2  0  0  0
 17 18  1  0  0  0
 18 19  1  0  0  0
 18 20  1  0  0  0
 18 21  1  0  0  0
  3 22  1  0  0  0
 22 23  1  0  0  0
 23 24  1  0  0  0
 24 25  1  0  0  0
 25 26  1  0  0  0
 32 33  1  0  0  0
 33 34  2  0  0  0
 34 29  1  0  0  0
 11  1  1  0  0  0
 17 12  1  0  0  0
 26 22  1  0  0  0
 11  5  2  0  0  0
 27 28  1  0  0  0
M  END
> <minimizedAffinity>
8.66219

> <CNNscore>
0.3500365913

> <CNNaffinity>
7.0634627342

> <CNN_VS>
2.4724705219

> <CNNaffinity_variance>
0.9060622454

$$$$
[H]c1nc(N([H])c2c([H])c(N([H])C(=O)c3c([H])c([H])c(C([H])([H])N4C([H])([H])C([H])([H])N(C([H])([H])[H])C([H])([H])C4([H])[H])c(C(F)(F)F)c3[H])c([H])c([H])c2C([H])([H])[H])nc(-c2c([H])nc([H])c([H])c2[H])c1[H]


 43 47  0  0  0  0  0  0  0  0999 V2000
  -10.3203   -6.3725    6.1355 C   0  0  0  0  0  0  0  0  0  0  0  0
  -10.8338   -6.8616    7.1612 O   0  0  0  0  0  0  0  0  0  0  0  0
  -11.0926   -5.9001    5.0759 N   0  0  0  0  0  0  0  0  0  0  0  0
  -10.5555   -5.4940    4.2257 H   0  0  0  0  0  0  0  0  0  0  0  0
  -12.4900   -5.8599    4.9300 C   0  0  0  0  0  0  0  0  0  0  0  0
  -13.0233   -5.0709    3.9023 C   0  0  0  0  0  0  0  0  0  0  0  0
  -14.3821   -4.9877    3.7310 C   0  0  0  0  0  0  0  0  0  0  0  0
  -15.2394   -5.6752    4.5626 C   0  0  0  0  0  0  0  0  0  0  0  0
  -16.7013   -5.5839    4.3731 C   0  0  0  0  0  0  0  0  0  0  0  0
  -14.7655   -6.4743    5.6008 C   0  0  0  0  0  0  0  0  0  0  0  0
  -13.4040   -6.5385    5.7484 C   0  0  0  0  0  0  0  0  0  0  0  0
  -15.6841   -7.1399    6.4101 N   0  0  0  0  0  0  0  0  0  0  0  0
  -16.6486   -7.3684    5.9624 H   0  0  0  0  0  0  0  0  0  0  0  0
  -15.5831   -7.5788    7.7403 C   0  0  0  0  0  0  0  0  0  0  0  0
  -16.3723   -8.4775    8.3414 N   0  0  0  0  0  0  0  0  0  0  0  0
  -16.2208   -8.8529    9.6168 C   0  0  0  0  0  0  0  0  0  0  0  0
  -15.1950   -8.2999   10.3965 C   0  0  0  0  0  0  0  0  0  0  0  0
  -14.3770   -7.3762    9.7931 C   0  0  0  0  0  0  0  0  0  0  0  0
  -14.6058   -7.0633    8.5117 N   0  0  0  0  0  0  0  0  0  0  0  0
  -13.2615   -6.7315   10.5256 C   0  0  0  0  0  0  0  0  0  0  0  0
  -13.5029   -5.8432   11.5311 C   0  0  0  0  0  0  0  0  0  0  0  0
  -12.4187   -5.2593   12.1964 C   0  0  0  0  0  0  0  0  0  0  0  0
  -11.1249   -5.5682   11.8509 C   0  0  0  0  0  0  0  0  0  0  0  0
  -10.9327   -6.4479   10.8549 N   0  0  0  0  0  0  0  0  0  0  0  0
  -11.9529   -7.0248   10.1978 C   0  0  0  0  0  0  0  0  0  0  0  0
   -6.0313   -6.2757    6.1517 C   0  0  0  0  0  0  0  0  0  0  0  0
   -6.7460   -5.9547    5.0248 C   0  0  0  0  0  0  0  0  0  0  0  0
   -8.1381   -5.9803    5.0088 C   0  0  0  0  0  0  0  0  0  0  0  0
   -8.8557   -6.3299    6.1217 C   0  0  0  0  0  0  0  0  0  0  0  0
   -8.1201   -6.6497    7.2424 C   0  0  0  0  0  0  0  0  0  0  0  0
   -6.7473   -6.6334    7.2906 C   0  0  0  0  0  0  0  0  0  0  0  0
   -5.9918   -6.9820    8.5186 C   0  0  0  0  0  0  0  0  0  0  0  0
   -6.7687   -7.5754    9.4844 F   0  0  0  0  0  0  0  0  0  0  0  0
   -5.0092   -7.8936    8.1494 F   0  0  0  0  0  0  0  0  0  0  0  0
   -5.3102   -5.8820    9.0257 F   0  0  0  0  0  0  0  0  0  0  0  0
   -4.5710   -6.2963    6.1183 C   0  0  0  0  0  0  0  0  0  0  0  0
   -0.6850   -3.3534    4.8754 C   0  0  0  0  0  0  0  0  0  0  0  0
   -1.2032   -4.1038    6.0029 N   0  0  0  0  0  0  0  0  0  0  0  0
   -1.6524   -5.3980    5.4784 C   0  0  0  0  0  0  0  0  0  0  0  0
   -2.9536   -5.1942    4.7627 C   0  0  0  0  0  0  0  0  0  0  0  0
   -4.0787   -4.9587    5.7010 N   0  0  0  0  0  0  0  0  0  0  0  0
   -3.4612   -4.3422    6.9002 C   0  0  0  0  0  0  0  0  0  0  0  0
   -2.3696   -3.3696    6.4994 C   0  0  0  0  0  0  0  0  0  0  0  0
 37 38  1  0  0  0
 38 39  1  0  0  0
 39 40  1  0  0  0
 40 41  1  0  0  0
 41 36  1  0  0  0
 36 26  1  0  0  0
 26 27  2  0  0  0
 27 28  1  0  0  0
 28 29  2  0  0  0
 29 30  1  0  0  0
 30 31  2  0  0  0
 31 32  1  0  0  0
 32 33  1  0  0  0
 32 34  1  0  0  0
 32 35  1  0  0  0
 29  1  1  0  0  0
  1  2  2  0  0  0
  1  3  1  0  0  0
  3  5  1  0  0  0
  5  6  2  0  0  0
  6  7  1  0  0  0
  7  8  2  0  0  0
  8  9  1  0  0  0
  8 10  1  0  0  0
 10 12  1  0  0  0
 12 14  1  0  0  0
 14 15  2  0  0  0
 15 16  1  0  0  0
 16 17  2  0  0  0
 17 18  1  0  0  0
 18 19  2  0  0  0
 18 20  1  0  0  0
 20 21  2  0  0  0
 21 22  1  0  0  0
 22 23  2  0  0  0
 23 24  1  0  0  0
 24 25  2  0  0  0
 10 11  2  0  0  0
 41 42  1  0  0  0
 42 43  1  0  0  0
 43 38  1  0  0  0
 31 26  1  0  0  0
 11  5  1  0  0  0
 19 14  1  0  0  0
 25 20  1  0  0  0
  3  4  1  0  0  0
 12 13  1  0  0  0
M  END
> <minimizedAffinity>
12.51069

> <CNNscore>
0.5213466287

> <CNNaffinity>
7.4594826698

> <CNN_VS>
3.8889760971

> <CNNaffinity_variance>
1.1702070236

$$$$
[H]c1nc(N([H])c2c([H])c(N([H])C(=O)c3c([H])c([H])c(C([H])([H])N4C([H])([H])C([H])([H])N(C([H])([H])[H])C([H])([H])C4([H])[H])c(C(F)(F)F)c3[H])c([H])c([H])c2C([H])([H])[H])nc(-c2c([H])nc([H])c([H])c2[H])c1[H]


 43 47  0  0  0  0  0  0  0  0999 V2000
  -11.9286   -6.7192    6.8205 C   0  0  0  0  0  0  0  0  0  0  0  0
  -12.7643   -7.1699    7.6290 O   0  0  0  0  0  0  0  0  0  0  0  0
  -12.3107   -6.0722    5.6467 N   0  0  0  0  0  0  0  0  0  0  0  0
  -11.5119   -5.7162    5.0053 H   0  0  0  0  0  0  0  0  0  0  0  0
  -13.5963   -5.7958    5.1502 C   0  0  0  0  0  0  0  0  0  0  0  0
  -13.7271   -4.7934    4.1800 C   0  0  0  0  0  0  0  0  0  0  0  0
  -14.9640   -4.4772    3.6773 C   0  0  0  0  0  0  0  0  0  0  0  0
  -16.0914   -5.1370    4.1165 C   0  0  0  0  0  0  0  0  0  0  0  0
  -17.4205   -4.7943    3.5711 C   0  0  0  0  0  0  0  0  0  0  0  0
  -16.0213   -6.1415    5.0793 C   0  0  0  0  0  0  0  0  0  0  0  0
  -14.7730   -6.4361    5.5636 C   0  0  0  0  0  0  0  0  0  0  0  0
  -17.1984   -6.7671    5.4852 N   0  0  0  0  0  0  0  0  0  0  0  0
  -18.0735   -6.6068    4.8595 H   0  0  0  0  0  0  0  0  0  0  0  0
  -17.4634   -7.5900    6.5920 C   0  0  0  0  0  0  0  0  0  0  0  0
  -18.6349   -8.1639    6.8917 N   0  0  0  0  0  0  0  0  0  0  0  0
  -18.8203   -8.9400    7.9658 C   0  0  0  0  0  0  0  0  0  0  0  0
  -17.7579   -9.1890    8.8464 C   0  0  0  0  0  0  0  0  0  0  0  0
  -16.5493   -8.6067    8.5517 C   0  0  0  0  0  0  0  0  0  0  0  0
  -16.4597   -7.8454    7.4542 N   0  0  0  0  0  0  0  0  0  0  0  0
  -15.3610   -8.8056    9.4147 C   0  0  0  0  0  0  0  0  0  0  0  0
  -15.3469   -8.3601   10.7030 C   0  0  0  0  0  0  0  0  0  0  0  0
  -14.2033   -8.5709   11.4821 C   0  0  0  0  0  0  0  0  0  0  0  0
  -13.1042   -9.2161   10.9680 C   0  0  0  0  0  0  0  0  0  0  0  0
  -13.1609   -9.6382    9.6947 N   0  0  0  0  0  0  0  0  0  0  0  0
  -14.2442   -9.4507    8.9222 C   0  0  0  0  0  0  0  0  0  0  0  0
   -7.8225   -7.3594    7.8859 C   0  0  0  0  0  0  0  0  0  0  0  0
   -8.3316   -6.0928    7.7440 C   0  0  0  0  0  0  0  0  0  0  0  0
   -9.6632   -5.8732    7.4010 C   0  0  0  0  0  0  0  0  0  0  0  0
  -10.5242   -6.9169    7.1885 C   0  0  0  0  0  0  0  0  0  0  0  0
   -9.9938   -8.1804    7.3346 C   0  0  0  0  0  0  0  0  0  0  0  0
   -8.6859   -8.4302    7.6726 C   0  0  0  0  0  0  0  0  0  0  0  0
   -8.1537   -9.8066    7.8231 C   0  0  0  0  0  0  0  0  0  0  0  0
   -9.0510  -10.7795    7.4531 F   0  0  0  0  0  0  0  0  0  0  0  0
   -7.0490   -9.9119    6.9856 F   0  0  0  0  0  0  0  0  0  0  0  0
   -7.6718  -10.0278    9.1077 F   0  0  0  0  0  0  0  0  0  0  0  0
   -6.4069   -7.5560    8.1884 C   0  0  0  0  0  0  0  0  0  0  0  0
   -2.3218   -6.1885    5.5908 C   0  0  0  0  0  0  0  0  0  0  0  0
   -2.6936   -6.7508    6.8746 N   0  0  0  0  0  0  0  0  0  0  0  0
   -3.7231   -7.7619    6.6106 C   0  0  0  0  0  0  0  0  0  0  0  0
   -5.0154   -7.0594    6.3216 C   0  0  0  0  0  0  0  0  0  0  0  0
   -5.6206   -6.4738    7.5433 N   0  0  0  0  0  0  0  0  0  0  0  0
   -4.4774   -6.1873    8.4436 C   0  0  0  0  0  0  0  0  0  0  0  0
   -3.2931   -5.6650    7.6543 C   0  0  0  0  0  0  0  0  0  0  0  0
 37 38  1  0  0  0
 38 39  1  0  0  0
 39 40  1  0  0  0
 40 41  1  0  0  0
 41 36  1  0  0  0
 36 26  1  0  0  0
 26 27  2  0  0  0
 27 28  1  0  0  0
 28 29  2  0  0  0
 29 30  1  0  0  0
 30 31  2  0  0  0
 31 32  1  0  0  0
 32 33  1  0  0  0
 32 34  1  0  0  0
 32 35  1  0  0  0
 29  1  1  0  0  0
  1  2  2  0  0  0
  1  3  1  0  0  0
  3  5  1  0  0  0
  5  6  2  0  0  0
  6  7  1  0  0  0
  7  8  2  0  0  0
  8  9  1  0  0  0
  8 10  1  0  0  0
 10 12  1  0  0  0
 12 14  1  0  0  0
 14 15  2  0  0  0
 15 16  1  0  0  0
 16 17  2  0  0  0
 17 18  1  0  0  0
 18 19  2  0  0  0
 18 20  1  0  0  0
 20 21  2  0  0  0
 21 22  1  0  0  0
 22 23  2  0  0  0
 23 24  1  0  0  0
 24 25  2  0  0  0
 10 11  2  0  0  0
 41 42  1  0  0  0
 42 43  1  0  0  0
 43 38  1  0  0  0
 31 26  1  0  0  0
 11  5  1  0  0  0
 19 14  1  0  0  0
 25 20  1  0  0  0
  3  4  1  0  0  0
 12 13  1  0  0  0
M  END
> <minimizedAffinity>
8.19930

> <CNNscore>
0.4378691614

> <CNNaffinity>
7.2697920799

> <CNN_VS>
3.1832177639

> <CNNaffinity_variance>
0.6074624062

$$$$
[H]c1nc(N([H])c2c([H])c(N([H])C(=O)c3c([H])c([H])c(C([H])([H])N4C([H])([H])C([H])([H])N(C([H])([H])[H])C([H])([H])C4([H])[H])c(C(F)(F)F)c3[H])c([H])c([H])c2C([H])([H])[H])nc(-c2c([H])nc([H])c([H])c2[H])c1[H]


 43 47  0  0  0  0  0  0  0  0999 V2000
   -8.9424   -7.0760    7.7631 C   0  0  0  0  0  0  0  0  0  0  0  0
   -8.8182   -6.7316    8.9552 O   0  0  0  0  0  0  0  0  0  0  0  0
   -7.8403   -7.3312    6.9491 N   0  0  0  0  0  0  0  0  0  0  0  0
   -8.0486   -7.6233    5.9256 H   0  0  0  0  0  0  0  0  0  0  0  0
   -6.4683   -7.2741    7.2497 C   0  0  0  0  0  0  0  0  0  0  0  0
   -5.8653   -8.4141    7.7974 C   0  0  0  0  0  0  0  0  0  0  0  0
   -4.5323   -8.4006    8.1221 C   0  0  0  0  0  0  0  0  0  0  0  0
   -3.7694   -7.2717    7.9156 C   0  0  0  0  0  0  0  0  0  0  0  0
   -2.3344   -7.2626    8.2650 C   0  0  0  0  0  0  0  0  0  0  0  0
   -4.3157   -6.1098    7.3745 C   0  0  0  0  0  0  0  0  0  0  0  0
   -5.6494   -6.1521    7.0600 C   0  0  0  0  0  0  0  0  0  0  0  0
   -3.4925   -4.9999    7.1954 N   0  0  0  0  0  0  0  0  0  0  0  0
   -2.5082   -5.0467    7.6559 H   0  0  0  0  0  0  0  0  0  0  0  0
   -3.7154   -3.7960    6.5074 C   0  0  0  0  0  0  0  0  0  0  0  0
   -3.9992   -3.6668    5.2057 N   0  0  0  0  0  0  0  0  0  0  0  0
   -4.2013   -2.4854    4.6107 C   0  0  0  0  0  0  0  0  0  0  0  0
   -4.1204   -1.2995    5.3545 C   0  0  0  0  0  0  0  0  0  0  0  0
   -3.8299   -1.4164    6.6919 C   0  0  0  0  0  0  0  0  0  0  0  0
   -3.6437   -2.6415    7.1987 N   0  0  0  0  0  0  0  0  0  0  0  0
   -3.7225   -0.2272    7.5696 C   0  0  0  0  0  0  0  0  0  0  0  0
   -4.4813    0.8826    7.3438 C   0  0  0  0  0  0  0  0  0  0  0  0
   -4.3477    1.9825    8.1991 C   0  0  0  0  0  0  0  0  0  0  0  0
   -3.4682    1.9569    9.2549 C   0  0  0  0  0  0  0  0  0  0  0  0
   -2.7406    0.8439    9.4407 N   0  0  0  0  0  0  0  0  0  0  0  0
   -2.8466   -0.2275    8.6369 C   0  0  0  0  0  0  0  0  0  0  0  0
  -12.9707   -7.4798    6.3435 C   0  0  0  0  0  0  0  0  0  0  0  0
  -12.5155   -6.2948    6.8652 C   0  0  0  0  0  0  0  0  0  0  0  0
  -11.2095   -6.1516    7.3266 C   0  0  0  0  0  0  0  0  0  0  0  0
  -10.3208   -7.1927    7.2802 C   0  0  0  0  0  0  0  0  0  0  0  0
  -10.7971   -8.3741    6.7541 C   0  0  0  0  0  0  0  0  0  0  0  0
  -12.0786   -8.5471    6.2903 C   0  0  0  0  0  0  0  0  0  0  0  0
  -12.5523   -9.8353    5.7281 C   0  0  0  0  0  0  0  0  0  0  0  0
  -12.0327  -10.1098    4.4858 F   0  0  0  0  0  0  0  0  0  0  0  0
  -12.1299  -10.8389    6.5925 F   0  0  0  0  0  0  0  0  0  0  0  0
  -13.9402   -9.9073    5.7210 F   0  0  0  0  0  0  0  0  0  0  0  0
  -14.3631   -7.6143    5.9230 C   0  0  0  0  0  0  0  0  0  0  0  0
  -18.8771   -8.7531    7.8294 C   0  0  0  0  0  0  0  0  0  0  0  0
  -18.2203   -7.7202    7.0518 N   0  0  0  0  0  0  0  0  0  0  0  0
  -17.3779   -8.4054    6.0655 C   0  0  0  0  0  0  0  0  0  0  0  0
  -16.1600   -8.9302    6.7644 C   0  0  0  0  0  0  0  0  0  0  0  0
  -15.2088   -7.8489    7.1212 N   0  0  0  0  0  0  0  0  0  0  0  0
  -16.0458   -6.6365    7.2921 C   0  0  0  0  0  0  0  0  0  0  0  0
  -17.3545   -6.9822    7.9747 C   0  0  0  0  0  0  0  0  0  0  0  0
 37 38  1  0  0  0
 38 39  1  0  0  0
 39 40  1  0  0  0
 40 41  1  0  0  0
 41 36  1  0  0  0
 36 26  1  0  0  0
 26 27  2  0  0  0
 27 28  1  0  0  0
 28 29  2  0  0  0
 29 30  1  0  0  0
 30 31  2  0  0  0
 31 32  1  0  0  0
 32 33  1  0  0  0
 32 34  1  0  0  0
 32 35  1  0  0  0
 29  1  1  0  0  0
  1  2  2  0  0  0
  1  3  1  0  0  0
  3  5  1  0  0  0
  5  6  2  0  0  0
  6  7  1  0  0  0
  7  8  2  0  0  0
  8  9  1  0  0  0
  8 10  1  0  0  0
 10 12  1  0  0  0
 12 14  1  0  0  0
 14 15  2  0  0  0
 15 16  1  0  0  0
 16 17  2  0  0  0
 17 18  1  0  0  0
 18 19  2  0  0  0
 18 20  1  0  0  0
 20 21  2  0  0  0
 21 22  1  0  0  0
 22 23  2  0  0  0
 23 24  1  0  0  0
 24 25  2  0  0  0
 10 11  2  0  0  0
 41 42  1  0  0  0
 42 43  1  0  0  0
 43 38  1  0  0  0
 31 26  1  0  0  0
 11  5  1  0  0  0
 19 14  1  0  0  0
 25 20  1  0  0  0
  3  4  1  0  0  0
 12 13  1  0  0  0
M  END
> <minimizedAffinity>
7.77495

> <CNNscore>
0.3757493496

> <CNNaffinity>
7.1916565895

> <CNN_VS>
2.7022602558

> <CNNaffinity_variance>
4.3801431656

$$$$
[H]c1nc(N([H])c2c([H])c(N([H])C(=O)c3c([H])c([H])c(C([H])([H])N4C([H])([H])C([H])([H])N(C([H])([H])[H])C([H])([H])C4([H])[H])c(C(F)(F)F)c3[H])c([H])c([H])c2C([H])([H])[H])nc(-c2c([H])nc([H])c([H])c2[H])c1[H]


 43 47  0  0  0  0  0  0  0  0999 V2000
   -8.6786   -7.9972    7.3966 C   0  0  0  0  0  0  0  0  0  0  0  0
   -9.3260   -8.7388    6.6310 O   0  0  0  0  0  0  0  0  0  0  0  0
   -9.2743   -7.3514    8.4784 N   0  0  0  0  0  0  0  0  0  0  0  0
   -8.6301   -6.7256    9.0863 H   0  0  0  0  0  0  0  0  0  0  0  0
  -10.6076   -7.3849    8.9222 C   0  0  0  0  0  0  0  0  0  0  0  0
  -10.8424   -7.4083   10.3033 C   0  0  0  0  0  0  0  0  0  0  0  0
  -12.1267   -7.4575   10.7838 C   0  0  0  0  0  0  0  0  0  0  0  0
  -13.2003   -7.4846    9.9202 C   0  0  0  0  0  0  0  0  0  0  0  0
  -14.5809   -7.5357   10.4423 C   0  0  0  0  0  0  0  0  0  0  0  0
  -13.0266   -7.4637    8.5380 C   0  0  0  0  0  0  0  0  0  0  0  0
  -11.7330   -7.4147    8.0866 C   0  0  0  0  0  0  0  0  0  0  0  0
  -14.1528   -7.4984    7.7182 N   0  0  0  0  0  0  0  0  0  0  0  0
  -15.0774   -7.8394    8.1785 H   0  0  0  0  0  0  0  0  0  0  0  0
  -14.3099   -7.1633    6.3635 C   0  0  0  0  0  0  0  0  0  0  0  0
  -13.3366   -7.0809    5.4484 N   0  0  0  0  0  0  0  0  0  0  0  0
  -13.5554   -6.7553    4.1691 C   0  0  0  0  0  0  0  0  0  0  0  0
  -14.8566   -6.4795    3.7254 C   0  0  0  0  0  0  0  0  0  0  0  0
  -15.8660   -6.5602    4.6534 C   0  0  0  0  0  0  0  0  0  0  0  0
  -15.5503   -6.8935    5.9109 N   0  0  0  0  0  0  0  0  0  0  0  0
  -17.2773   -6.2899    4.2905 C   0  0  0  0  0  0  0  0  0  0  0  0
  -17.9114   -5.1653    4.7283 C   0  0  0  0  0  0  0  0  0  0  0  0
  -19.2446   -4.9502    4.3599 C   0  0  0  0  0  0  0  0  0  0  0  0
  -19.9159   -5.8516    3.5691 C   0  0  0  0  0  0  0  0  0  0  0  0
  -19.2534   -6.9456    3.1604 N   0  0  0  0  0  0  0  0  0  0  0  0
  -17.9739   -7.1796    3.4973 C   0  0  0  0  0  0  0  0  0  0  0  0
   -4.5234   -7.5861    6.4112 C   0  0  0  0  0  0  0  0  0  0  0  0
   -4.9989   -7.2360    7.6501 C   0  0  0  0  0  0  0  0  0  0  0  0
   -6.3449   -7.3675    7.9817 C   0  0  0  0  0  0  0  0  0  0  0  0
   -7.2551   -7.8527    7.0807 C   0  0  0  0  0  0  0  0  0  0  0  0
   -6.7584   -8.1975    5.8423 C   0  0  0  0  0  0  0  0  0  0  0  0
   -5.4372   -8.0805    5.4847 C   0  0  0  0  0  0  0  0  0  0  0  0
   -4.9412   -8.4657    4.1409 C   0  0  0  0  0  0  0  0  0  0  0  0
   -5.2281   -7.5372    3.1692 F   0  0  0  0  0  0  0  0  0  0  0  0
   -3.5576   -8.5689    4.2296 F   0  0  0  0  0  0  0  0  0  0  0  0
   -5.3882   -9.7303    3.7771 F   0  0  0  0  0  0  0  0  0  0  0  0
   -3.1167   -7.3804    6.0756 C   0  0  0  0  0  0  0  0  0  0  0  0
   -1.4667   -2.6613    5.5151 C   0  0  0  0  0  0  0  0  0  0  0  0
   -1.0779   -4.0248    5.2113 N   0  0  0  0  0  0  0  0  0  0  0  0
   -2.2772   -4.7040    4.7090 C   0  0  0  0  0  0  0  0  0  0  0  0
   -3.1723   -5.0089    5.8722 C   0  0  0  0  0  0  0  0  0  0  0  0
   -2.6494   -6.1194    6.7060 N   0  0  0  0  0  0  0  0  0  0  0  0
   -1.1776   -6.0780    6.5287 C   0  0  0  0  0  0  0  0  0  0  0  0
   -0.6851   -4.6451    6.4790 C   0  0  0  0  0  0  0  0  0  0  0  0
 37 38  1  0  0  0
 38 39  1  0  0  0
 39 40  1  0  0  0
 40 41  1  0  0  0
 41 36  1  0  0  0
 36 26  1  0  0  0
 26 27  2  0  0  0
 27 28  1  0  0  0
 28 29  2  0  0  0
 29 30  1  0  0  0
 30 31  2  0  0  0
 31 32  1  0  0  0
 32 33  1  0  0  0
 32 34  1  0  0  0
 32 35  1  0  0  0
 29  1  1  0  0  0
  1  2  2  0  0  0
  1  3  1  0  0  0
  3  5  1  0  0  0
  5  6  2  0  0  0
  6  7  1  0  0  0
  7  8  2  0  0  0
  8  9  1  0  0  0
  8 10  1  0  0  0
 10 12  1  0  0  0
 12 14  1  0  0  0
 14 15  2  0  0  0
 15 16  1  0  0  0
 16 17  2  0  0  0
 17 18  1  0  0  0
 18 19  2  0  0  0
 18 20  1  0  0  0
 20 21  2  0  0  0
 21 22  1  0  0  0
 22 23  2  0  0  0
 23 24  1  0  0  0
 24 25  2  0  0  0
 10 11  2  0  0  0
 41 42  1  0  0  0
 42 43  1  0  0  0
 43 38  1  0  0  0
 31 26  1  0  0  0
 11  5  1  0  0  0
 19 14  1  0  0  0
 25 20  1  0  0  0
  3  4  1  0  0  0
 12 13  1  0  0  0
M  END
> <minimizedAffinity>
16.23127

> <CNNscore>
0.3665091693

> <CNNaffinity>
7.2408499718

> <CNN_VS>
2.6538379192

> <CNNaffinity_variance>
1.6769176722

$$$$
[H]c1nc(N([H])c2c([H])c(N([H])C(=O)c3c([H])c([H])c(C([H])([H])N4C([H])([H])C([H])([H])N(C([H])([H])[H])C([H])([H])C4([H])[H])c(C(F)(F)F)c3[H])c([H])c([H])c2C([H])([H])[H])nc(-c2c([H])nc([H])c([H])c2[H])c1[H]


 43 47  0  0  0  0  0  0  0  0999 V2000
   -4.3886   -5.4105    5.6737 C   0  0  0  0  0  0  0  0  0  0  0  0
   -3.6858   -6.0412    6.4882 O   0  0  0  0  0  0  0  0  0  0  0  0
   -5.7335   -5.7133    5.4685 N   0  0  0  0  0  0  0  0  0  0  0  0
   -6.2619   -5.1104    4.7381 H   0  0  0  0  0  0  0  0  0  0  0  0
   -6.5363   -6.6953    6.0741 C   0  0  0  0  0  0  0  0  0  0  0  0
   -6.5351   -7.9821    5.5197 C   0  0  0  0  0  0  0  0  0  0  0  0
   -7.3151   -8.9695    6.0666 C   0  0  0  0  0  0  0  0  0  0  0  0
   -8.1079   -8.7127    7.1641 C   0  0  0  0  0  0  0  0  0  0  0  0
   -8.9445   -9.7794    7.7504 C   0  0  0  0  0  0  0  0  0  0  0  0
   -8.1492   -7.4524    7.7565 C   0  0  0  0  0  0  0  0  0  0  0  0
   -7.3601   -6.4856    7.1890 C   0  0  0  0  0  0  0  0  0  0  0  0
   -8.9755   -7.2554    8.8612 N   0  0  0  0  0  0  0  0  0  0  0  0
   -8.5184   -7.3903    9.8389 H   0  0  0  0  0  0  0  0  0  0  0  0
  -10.3334   -6.9054    8.9382 C   0  0  0  0  0  0  0  0  0  0  0  0
  -10.9091   -6.1656    9.8936 N   0  0  0  0  0  0  0  0  0  0  0  0
  -12.2136   -5.8677    9.9073 C   0  0  0  0  0  0  0  0  0  0  0  0
  -13.0534   -6.3354    8.8864 C   0  0  0  0  0  0  0  0  0  0  0  0
  -12.4765   -7.0959    7.8988 C   0  0  0  0  0  0  0  0  0  0  0  0
  -11.1625   -7.3419    7.9697 N   0  0  0  0  0  0  0  0  0  0  0  0
  -13.2724   -7.6390    6.7728 C   0  0  0  0  0  0  0  0  0  0  0  0
  -13.0663   -8.9063    6.3147 C   0  0  0  0  0  0  0  0  0  0  0  0
  -13.8421   -9.3782    5.2495 C   0  0  0  0  0  0  0  0  0  0  0  0
  -14.8009   -8.5858    4.6651 C   0  0  0  0  0  0  0  0  0  0  0  0
  -14.9706   -7.3443    5.1475 N   0  0  0  0  0  0  0  0  0  0  0  0
  -14.2416   -6.8633    6.1686 C   0  0  0  0  0  0  0  0  0  0  0  0
   -2.4243   -2.2187    3.5858 C   0  0  0  0  0  0  0  0  0  0  0  0
   -1.9419   -3.5028    3.5387 C   0  0  0  0  0  0  0  0  0  0  0  0
   -2.5727   -4.5469    4.2103 C   0  0  0  0  0  0  0  0  0  0  0  0
   -3.7052   -4.3348    4.9506 C   0  0  0  0  0  0  0  0  0  0  0  0
   -4.1730   -3.0390    4.9864 C   0  0  0  0  0  0  0  0  0  0  0  0
   -3.5747   -1.9880    4.3348 C   0  0  0  0  0  0  0  0  0  0  0  0
   -4.1116   -0.6066    4.3960 C   0  0  0  0  0  0  0  0  0  0  0  0
   -4.5100   -0.1239    3.1726 F   0  0  0  0  0  0  0  0  0  0  0  0
   -5.2303   -0.6387    5.2209 F   0  0  0  0  0  0  0  0  0  0  0  0
   -3.2168    0.2599    5.0126 F   0  0  0  0  0  0  0  0  0  0  0  0
   -1.7058   -1.1358    2.9188 C   0  0  0  0  0  0  0  0  0  0  0  0
   -1.8459    0.2823   -1.9058 C   0  0  0  0  0  0  0  0  0  0  0  0
   -2.7263    0.1017   -0.7678 N   0  0  0  0  0  0  0  0  0  0  0  0
   -2.0352    0.6692    0.3951 C   0  0  0  0  0  0  0  0  0  0  0  0
   -0.9623   -0.2865    0.8225 C   0  0  0  0  0  0  0  0  0  0  0  0
   -1.5170   -1.4906    1.4890 N   0  0  0  0  0  0  0  0  0  0  0  0
   -2.8729   -1.6628    0.9133 C   0  0  0  0  0  0  0  0  0  0  0  0
   -2.8692   -1.3426   -0.5685 C   0  0  0  0  0  0  0  0  0  0  0  0
 37 38  1  0  0  0
 38 39  1  0  0  0
 39 40  1  0  0  0
 40 41  1  0  0  0
 41 36  1  0  0  0
 36 26  1  0  0  0
 26 27  2  0  0  0
 27 28  1  0  0  0
 28 29  2  0  0  0
 29 30  1  0  0  0
 30 31  2  0  0  0
 31 32  1  0  0  0
 32 33  1  0  0  0
 32 34  1  0  0  0
 32 35  1  0  0  0
 29  1  1  0  0  0
  1  2  2  0  0  0
  1  3  1  0  0  0
  3  5  1  0  0  0
  5  6  2  0  0  0
  6  7  1  0  0  0
  7  8  2  0  0  0
  8  9  1  0  0  0
  8 10  1  0  0  0
 10 12  1  0  0  0
 12 14  1  0  0  0
 14 15  2  0  0  0
 15 16  1  0  0  0
 16 17  2  0  0  0
 17 18  1  0  0  0
 18 19  2  0  0  0
 18 20  1  0  0  0
 20 21  2  0  0  0
 21 22  1  0  0  0
 22 23  2  0  0  0
 23 24  1  0  0  0
 24 25  2  0  0  0
 10 11  2  0  0  0
 41 42  1  0  0  0
 42 43  1  0  0  0
 43 38  1  0  0  0
 31 26  1  0  0  0
 11  5  1  0  0  0
 19 14  1  0  0  0
 25 20  1  0  0  0
  3  4  1  0  0  0
 12 13  1  0  0  0
M  END
> <minimizedAffinity>
-8.44427

> <CNNscore>
0.3664531410

> <CNNaffinity>
6.9385328293

> <CNN_VS>
2.5426471233

> <CNNaffinity_variance>
0.0203432627

$$$$
[H]c1nc(N([H])c2c([H])c(N([H])C(=O)c3c([H])c([H])c(C([H])([H])N4C([H])([H])C([H])([H])N(C([H])([H])[H])C([H])([H])C4([H])[H])c(C(F)(F)F)c3[H])c([H])c([H])c2C([H])([H])[H])nc(-c2c([H])nc([H])c([H])c2[H])c1[H]


 43 47  0  0  0  0  0  0  0  0999 V2000
   -8.6989  -10.5557    5.1129 C   0  0  0  0  0  0  0  0  0  0  0  0
   -8.0517   -9.5641    4.7218 O   0  0  0  0  0  0  0  0  0  0  0  0
   -9.5368  -10.4993    6.2251 N   0  0  0  0  0  0  0  0  0  0  0  0
  -10.0568  -11.4136    6.4893 H   0  0  0  0  0  0  0  0  0  0  0  0
   -9.8274   -9.4204    7.0779 C   0  0  0  0  0  0  0  0  0  0  0  0
  -11.1481   -9.2660    7.5196 C   0  0  0  0  0  0  0  0  0  0  0  0
  -11.4829   -8.2186    8.3403 C   0  0  0  0  0  0  0  0  0  0  0  0
  -10.5305   -7.3067    8.7411 C   0  0  0  0  0  0  0  0  0  0  0  0
  -10.8954   -6.1820    9.6260 C   0  0  0  0  0  0  0  0  0  0  0  0
   -9.2025   -7.4104    8.3328 C   0  0  0  0  0  0  0  0  0  0  0  0
   -8.8970   -8.4661    7.5133 C   0  0  0  0  0  0  0  0  0  0  0  0
   -8.2885   -6.4531    8.7685 N   0  0  0  0  0  0  0  0  0  0  0  0
   -8.6316   -5.7728    9.5447 H   0  0  0  0  0  0  0  0  0  0  0  0
   -6.9653   -6.2024    8.3703 C   0  0  0  0  0  0  0  0  0  0  0  0
   -6.5008   -6.2025    7.1150 N   0  0  0  0  0  0  0  0  0  0  0  0
   -5.2234   -5.9544    6.8033 C   0  0  0  0  0  0  0  0  0  0  0  0
   -4.2932   -5.6757    7.8148 C   0  0  0  0  0  0  0  0  0  0  0  0
   -4.7553   -5.6721    9.1083 C   0  0  0  0  0  0  0  0  0  0  0  0
   -6.0510   -5.9318    9.3227 N   0  0  0  0  0  0  0  0  0  0  0  0
   -3.8572   -5.3883   10.2525 C   0  0  0  0  0  0  0  0  0  0  0  0
   -4.3589   -4.9956   11.4577 C   0  0  0  0  0  0  0  0  0  0  0  0
   -3.4734   -4.7393   12.5111 C   0  0  0  0  0  0  0  0  0  0  0  0
   -2.1162   -4.8778   12.3460 C   0  0  0  0  0  0  0  0  0  0  0  0
   -1.6652   -5.2665   11.1426 N   0  0  0  0  0  0  0  0  0  0  0  0
   -2.4901   -5.5198   10.1126 C   0  0  0  0  0  0  0  0  0  0  0  0
   -8.1463  -14.1005    2.7603 C   0  0  0  0  0  0  0  0  0  0  0  0
   -8.4452  -14.1736    4.0979 C   0  0  0  0  0  0  0  0  0  0  0  0
   -8.6291  -13.0298    4.8705 C   0  0  0  0  0  0  0  0  0  0  0  0
   -8.5175  -11.7782    4.3258 C   0  0  0  0  0  0  0  0  0  0  0  0
   -8.2159  -11.7259    2.9821 C   0  0  0  0  0  0  0  0  0  0  0  0
   -8.0293  -12.8348    2.1929 C   0  0  0  0  0  0  0  0  0  0  0  0
   -7.7083  -12.7361    0.7481 C   0  0  0  0  0  0  0  0  0  0  0  0
   -6.3750  -12.9247    0.4737 F   0  0  0  0  0  0  0  0  0  0  0  0
   -8.4179  -13.7419    0.1018 F   0  0  0  0  0  0  0  0  0  0  0  0
   -8.1709  -11.5435    0.2047 F   0  0  0  0  0  0  0  0  0  0  0  0
   -7.9012  -15.3181    1.9915 C   0  0  0  0  0  0  0  0  0  0  0  0
   -7.2260  -17.9007    6.2553 C   0  0  0  0  0  0  0  0  0  0  0  0
   -6.4978  -17.4882    5.0711 N   0  0  0  0  0  0  0  0  0  0  0  0
   -6.8490  -16.0850    4.8269 C   0  0  0  0  0  0  0  0  0  0  0  0
   -8.2266  -16.0360    4.2380 C   0  0  0  0  0  0  0  0  0  0  0  0
   -8.2499  -16.4952    2.8273 N   0  0  0  0  0  0  0  0  0  0  0  0
   -7.1186  -17.4471    2.7102 C   0  0  0  0  0  0  0  0  0  0  0  0
   -7.0041  -18.2976    3.9599 C   0  0  0  0  0  0  0  0  0  0  0  0
 37 38  1  0  0  0
 38 39  1  0  0  0
 39 40  1  0  0  0
 40 41  1  0  0  0
 41 36  1  0  0  0
 36 26  1  0  0  0
 26 27  2  0  0  0
 27 28  1  0  0  0
 28 29  2  0  0  0
 29 30  1  0  0  0
 30 31  2  0  0  0
 31 32  1  0  0  0
 32 33  1  0  0  0
 32 34  1  0  0  0
 32 35  1  0  0  0
 29  1  1  0  0  0
  1  2  2  0  0  0
  1  3  1  0  0  0
  3  5  1  0  0  0
  5  6  2  0  0  0
  6  7  1  0  0  0
  7  8  2  0  0  0
  8  9  1  0  0  0
  8 10  1  0  0  0
 10 12  1  0  0  0
 12 14  1  0  0  0
 14 15  2  0  0  0
 15 16  1  0  0  0
 16 17  2  0  0  0
 17 18  1  0  0  0
 18 19  2  0  0  0
 18 20  1  0  0  0
 20 21  2  0  0  0
 21 22  1  0  0  0
 22 23  2  0  0  0
 23 24  1  0  0  0
 24 25  2  0  0  0
 10 11  2  0  0  0
 41 42  1  0  0  0
 42 43  1  0  0  0
 43 38  1  0  0  0
 31 26  1  0  0  0
 11  5  1  0  0  0
 19 14  1  0  0  0
 25 20  1  0  0  0
  3  4  1  0  0  0
 12 13  1  0  0  0
M  END
> <minimizedAffinity>
17.33846

> <CNNscore>
0.3640159965

> <CNNaffinity>
6.6531181335

> <CNN_VS>
2.4218413830

> <CNNaffinity_variance>
0.5463528633

$$$$
[H]c1nc(N([H])c2c([H])c(N([H])C(=O)c3c([H])c([H])c(C([H])([H])N4C([H])([H])C([H])([H])N(C([H])([H])[H])C([H])([H])C4([H])[H])c(C(F)(F)F)c3[H])c([H])c([H])c2C([H])([H])[H])nc(-c2c([H])nc([H])c([H])c2[H])c1[H]


 43 47  0  0  0  0  0  0  0  0999 V2000
  -13.8310   -7.1216    6.7255 C   0  0  0  0  0  0  0  0  0  0  0  0
  -13.4295   -6.0191    6.3034 O   0  0  0  0  0  0  0  0  0  0  0  0
  -13.0317   -7.9458    7.5157 N   0  0  0  0  0  0  0  0  0  0  0  0
  -13.4677   -8.8867    7.8334 H   0  0  0  0  0  0  0  0  0  0  0  0
  -11.7209   -7.7470    7.9826 C   0  0  0  0  0  0  0  0  0  0  0  0
  -11.4866   -6.6746    8.8533 C   0  0  0  0  0  0  0  0  0  0  0  0
  -10.2204   -6.4313    9.3226 C   0  0  0  0  0  0  0  0  0  0  0  0
   -9.1647   -7.2335    8.9470 C   0  0  0  0  0  0  0  0  0  0  0  0
   -7.8039   -6.9686    9.4563 C   0  0  0  0  0  0  0  0  0  0  0  0
   -9.3388   -8.3131    8.0838 C   0  0  0  0  0  0  0  0  0  0  0  0
  -10.6140   -8.5323    7.6307 C   0  0  0  0  0  0  0  0  0  0  0  0
   -8.2301   -9.0831    7.7380 N   0  0  0  0  0  0  0  0  0  0  0  0
   -8.2075  -10.1007    8.1215 H   0  0  0  0  0  0  0  0  0  0  0  0
   -7.1030   -8.7685    6.9613 C   0  0  0  0  0  0  0  0  0  0  0  0
   -6.9397   -9.0281    5.6584 N   0  0  0  0  0  0  0  0  0  0  0  0
   -5.8366   -8.7000    4.9757 C   0  0  0  0  0  0  0  0  0  0  0  0
   -4.7756   -8.0501    5.6223 C   0  0  0  0  0  0  0  0  0  0  0  0
   -4.9290   -7.7770    6.9596 C   0  0  0  0  0  0  0  0  0  0  0  0
   -6.0690   -8.1436    7.5581 N   0  0  0  0  0  0  0  0  0  0  0  0
   -3.8700   -7.0925    7.7384 C   0  0  0  0  0  0  0  0  0  0  0  0
   -2.7218   -7.7416    8.0831 C   0  0  0  0  0  0  0  0  0  0  0  0
   -1.7481   -7.0555    8.8181 C   0  0  0  0  0  0  0  0  0  0  0  0
   -1.9344   -5.7465    9.1931 C   0  0  0  0  0  0  0  0  0  0  0  0
   -3.0797   -5.1457    8.8327 N   0  0  0  0  0  0  0  0  0  0  0  0
   -4.0327   -5.7779    8.1273 C   0  0  0  0  0  0  0  0  0  0  0  0
  -17.8112   -8.1771    5.5218 C   0  0  0  0  0  0  0  0  0  0  0  0
  -17.3217   -8.5353    6.7530 C   0  0  0  0  0  0  0  0  0  0  0  0
  -16.0324   -8.1960    7.1551 C   0  0  0  0  0  0  0  0  0  0  0  0
  -15.1946   -7.4886    6.3345 C   0  0  0  0  0  0  0  0  0  0  0  0
  -15.7041   -7.1395    5.1025 C   0  0  0  0  0  0  0  0  0  0  0  0
  -16.9707   -7.4581    4.6767 C   0  0  0  0  0  0  0  0  0  0  0  0
  -17.4833   -7.0609    3.3427 C   0  0  0  0  0  0  0  0  0  0  0  0
  -17.7132   -5.7107    3.2289 F   0  0  0  0  0  0  0  0  0  0  0  0
  -16.5087   -7.4021    2.4118 F   0  0  0  0  0  0  0  0  0  0  0  0
  -18.6097   -7.7952    2.9914 F   0  0  0  0  0  0  0  0  0  0  0  0
  -19.1468   -8.5997    5.1075 C   0  0  0  0  0  0  0  0  0  0  0  0
  -21.4885  -12.1526    7.7907 C   0  0  0  0  0  0  0  0  0  0  0  0
  -21.5688  -11.4888    6.5040 N   0  0  0  0  0  0  0  0  0  0  0  0
  -20.1986  -11.4023    5.9872 C   0  0  0  0  0  0  0  0  0  0  0  0
  -19.4805  -10.3136    6.7260 C   0  0  0  0  0  0  0  0  0  0  0  0
  -19.9342   -8.9624    6.3134 N   0  0  0  0  0  0  0  0  0  0  0  0
  -21.3359   -9.1441    5.8644 C   0  0  0  0  0  0  0  0  0  0  0  0
  -22.0597  -10.1321    6.7579 C   0  0  0  0  0  0  0  0  0  0  0  0
 37 38  1  0  0  0
 38 39  1  0  0  0
 39 40  1  0  0  0
 40 41  1  0  0  0
 41 36  1  0  0  0
 36 26  1  0  0  0
 26 27  2  0  0  0
 27 28  1  0  0  0
 28 29  2  0  0  0
 29 30  1  0  0  0
 30 31  2  0  0  0
 31 32  1  0  0  0
 32 33  1  0  0  0
 32 34  1  0  0  0
 32 35  1  0  0  0
 29  1  1  0  0  0
  1  2  2  0  0  0
  1  3  1  0  0  0
  3  5  1  0  0  0
  5  6  2  0  0  0
  6  7  1  0  0  0
  7  8  2  0  0  0
  8  9  1  0  0  0
  8 10  1  0  0  0
 10 12  1  0  0  0
 12 14  1  0  0  0
 14 15  2  0  0  0
 15 16  1  0  0  0
 16 17  2  0  0  0
 17 18  1  0  0  0
 18 19  2  0  0  0
 18 20  1  0  0  0
 20 21  2  0  0  0
 21 22  1  0  0  0
 22 23  2  0  0  0
 23 24  1  0  0  0
 24 25  2  0  0  0
 10 11  2  0  0  0
 41 42  1  0  0  0
 42 43  1  0  0  0
 43 38  1  0  0  0
 31 26  1  0  0  0
 11  5  1  0  0  0
 19 14  1  0  0  0
 25 20  1  0  0  0
  3  4  1  0  0  0
 12 13  1  0  0  0
M  END
> <minimizedAffinity>
1.77344

> <CNNscore>
0.3623367250

> <CNNaffinity>
7.1484894753

> <CNN_VS>
2.5901603699

> <CNNaffinity_variance>
1.3978006840

$$$$
[H]c1nc(N([H])c2c([H])c(N([H])C(=O)c3c([H])c([H])c(C([H])([H])N4C([H])([H])C([H])([H])N(C([H])([H])[H])C([H])([H])C4([H])[H])c(C(F)(F)F)c3[H])c([H])c([H])c2C([H])([H])[H])nc(-c2c([H])nc([H])c([H])c2[H])c1[H]


 43 47  0  0  0  0  0  0  0  0999 V2000
   -8.0967   -7.2672    7.9622 C   0  0  0  0  0  0  0  0  0  0  0  0
   -8.1706   -8.4900    8.1955 O   0  0  0  0  0  0  0  0  0  0  0  0
   -9.1667   -6.4048    8.1942 N   0  0  0  0  0  0  0  0  0  0  0  0
   -9.0078   -5.3581    7.9587 H   0  0  0  0  0  0  0  0  0  0  0  0
  -10.4488   -6.6791    8.7010 C   0  0  0  0  0  0  0  0  0  0  0  0
  -10.8096   -6.1055    9.9274 C   0  0  0  0  0  0  0  0  0  0  0  0
  -12.0445   -6.3574   10.4698 C   0  0  0  0  0  0  0  0  0  0  0  0
  -12.9447   -7.1741    9.8205 C   0  0  0  0  0  0  0  0  0  0  0  0
  -14.2735   -7.4408   10.4075 C   0  0  0  0  0  0  0  0  0  0  0  0
  -12.6400   -7.7715    8.5992 C   0  0  0  0  0  0  0  0  0  0  0  0
  -11.3995   -7.5023    8.0813 C   0  0  0  0  0  0  0  0  0  0  0  0
  -13.5915   -8.5913    7.9958 N   0  0  0  0  0  0  0  0  0  0  0  0
  -14.1076   -9.2948    8.6452 H   0  0  0  0  0  0  0  0  0  0  0  0
  -14.0132   -8.6741    6.6587 C   0  0  0  0  0  0  0  0  0  0  0  0
  -13.4829   -9.4505    5.7061 N   0  0  0  0  0  0  0  0  0  0  0  0
  -13.9345   -9.4818    4.4468 C   0  0  0  0  0  0  0  0  0  0  0  0
  -15.0165   -8.6752    4.0665 C   0  0  0  0  0  0  0  0  0  0  0  0
  -15.5712   -7.8730    5.0337 C   0  0  0  0  0  0  0  0  0  0  0  0
  -15.0513   -7.9093    6.2668 N   0  0  0  0  0  0  0  0  0  0  0  0
  -16.7190   -6.9829    4.7393 C   0  0  0  0  0  0  0  0  0  0  0  0
  -16.7068   -5.6735    5.1183 C   0  0  0  0  0  0  0  0  0  0  0  0
  -17.8124   -4.8692    4.8183 C   0  0  0  0  0  0  0  0  0  0  0  0
  -18.9006   -5.3796    4.1519 C   0  0  0  0  0  0  0  0  0  0  0  0
  -18.8707   -6.6743    3.7973 N   0  0  0  0  0  0  0  0  0  0  0  0
  -17.8241   -7.4712    4.0712 C   0  0  0  0  0  0  0  0  0  0  0  0
   -4.3150   -5.9071    6.4608 C   0  0  0  0  0  0  0  0  0  0  0  0
   -5.3104   -6.3215    5.6115 C   0  0  0  0  0  0  0  0  0  0  0  0
   -6.5424   -6.7626    6.0875 C   0  0  0  0  0  0  0  0  0  0  0  0
   -6.8132   -6.8027    7.4295 C   0  0  0  0  0  0  0  0  0  0  0  0
   -5.8010   -6.3838    8.2656 C   0  0  0  0  0  0  0  0  0  0  0  0
   -4.5759   -5.9428    7.8277 C   0  0  0  0  0  0  0  0  0  0  0  0
   -3.5125   -5.4971    8.7608 C   0  0  0  0  0  0  0  0  0  0  0  0
   -3.0914   -4.2095    8.5296 F   0  0  0  0  0  0  0  0  0  0  0  0
   -4.0483   -5.5412   10.0429 F   0  0  0  0  0  0  0  0  0  0  0  0
   -2.4417   -6.3830    8.7721 F   0  0  0  0  0  0  0  0  0  0  0  0
   -3.0135   -5.5065    5.9322 C   0  0  0  0  0  0  0  0  0  0  0  0
   -1.2578   -1.7790    3.0460 C   0  0  0  0  0  0  0  0  0  0  0  0
   -1.6615   -2.0377    4.4145 N   0  0  0  0  0  0  0  0  0  0  0  0
   -1.0877   -3.3358    4.7859 C   0  0  0  0  0  0  0  0  0  0  0  0
   -1.8968   -4.4163    4.1342 C   0  0  0  0  0  0  0  0  0  0  0  0
   -3.2209   -4.5922    4.7803 N   0  0  0  0  0  0  0  0  0  0  0  0
   -3.5546   -3.2639    5.3493 C   0  0  0  0  0  0  0  0  0  0  0  0
   -3.1217   -2.1557    4.4097 C   0  0  0  0  0  0  0  0  0  0  0  0
 37 38  1  0  0  0
 38 39  1  0  0  0
 39 40  1  0  0  0
 40 41  1  0  0  0
 41 36  1  0  0  0
 36 26  1  0  0  0
 26 27  2  0  0  0
 27 28  1  0  0  0
 28 29  2  0  0  0
 29 30  1  0  0  0
 30 31  2  0  0  0
 31 32  1  0  0  0
 32 33  1  0  0  0
 32 34  1  0  0  0
 32 35  1  0  0  0
 29  1  1  0  0  0
  1  2  2  0  0  0
  1  3  1  0  0  0
  3  5  1  0  0  0
  5  6  2  0  0  0
  6  7  1  0  0  0
  7  8  2  0  0  0
  8  9  1  0  0  0
  8 10  1  0  0  0
 10 12  1  0  0  0
 12 14  1  0  0  0
 14 15  2  0  0  0
 15 16  1  0  0  0
 16 17  2  0  0  0
 17 18  1  0  0  0
 18 19  2  0  0  0
 18 20  1  0  0  0
 20 21  2  0  0  0
 21 22  1  0  0  0
 22 23  2  0  0  0
 23 24  1  0  0  0
 24 25  2  0  0  0
 10 11  2  0  0  0
 41 42  1  0  0  0
 42 43  1  0  0  0
 43 38  1  0  0  0
 31 26  1  0  0  0
 11  5  1  0  0  0
 19 14  1  0  0  0
 25 20  1  0  0  0
  3  4  1  0  0  0
 12 13  1  0  0  0
M  END
> <minimizedAffinity>
-9.22582

> <CNNscore>
0.3557881415

> <CNNaffinity>
7.4343276024

> <CNN_VS>
2.6450455189

> <CNNaffinity_variance>
0.0192696750

$$$$
[H]c1nc(N([H])c2c([H])c(N([H])C(=O)c3c([H])c([H])c(C([H])([H])N4C([H])([H])C([H])([H])N(C([H])([H])[H])C([H])([H])C4([H])[H])c(C(F)(F)F)c3[H])c([H])c([H])c2C([H])([H])[H])nc(-c2c([H])nc([H])c([H])c2[H])c1[H]


 43 47  0  0  0  0  0  0  0  0999 V2000
   -7.7305   -8.4726    8.0887 C   0  0  0  0  0  0  0  0  0  0  0  0
   -7.1966   -9.4213    8.6972 O   0  0  0  0  0  0  0  0  0  0  0  0
   -6.9867   -7.4107    7.5775 N   0  0  0  0  0  0  0  0  0  0  0  0
   -7.5401   -6.6313    7.0652 H   0  0  0  0  0  0  0  0  0  0  0  0
   -5.6000   -7.1838    7.6158 C   0  0  0  0  0  0  0  0  0  0  0  0
   -5.1092   -6.2546    8.5426 C   0  0  0  0  0  0  0  0  0  0  0  0
   -3.7648   -5.9880    8.6059 C   0  0  0  0  0  0  0  0  0  0  0  0
   -2.8806   -6.6266    7.7636 C   0  0  0  0  0  0  0  0  0  0  0  0
   -1.4340   -6.3376    7.8369 C   0  0  0  0  0  0  0  0  0  0  0  0
   -3.3119   -7.5591    6.8227 C   0  0  0  0  0  0  0  0  0  0  0  0
   -4.6600   -7.8053    6.7817 C   0  0  0  0  0  0  0  0  0  0  0  0
   -2.3685   -8.1664    5.9964 N   0  0  0  0  0  0  0  0  0  0  0  0
   -1.9603   -7.5547    5.1949 H   0  0  0  0  0  0  0  0  0  0  0  0
   -1.8372   -9.4663    6.0142 C   0  0  0  0  0  0  0  0  0  0  0  0
   -1.2718  -10.1066    4.9837 N   0  0  0  0  0  0  0  0  0  0  0  0
   -0.7833  -11.3494    5.0686 C   0  0  0  0  0  0  0  0  0  0  0  0
   -0.8480  -12.0501    6.2814 C   0  0  0  0  0  0  0  0  0  0  0  0
   -1.4256  -11.4056    7.3480 C   0  0  0  0  0  0  0  0  0  0  0  0
   -1.8865  -10.1618    7.1674 N   0  0  0  0  0  0  0  0  0  0  0  0
   -1.5436  -12.0541    8.6754 C   0  0  0  0  0  0  0  0  0  0  0  0
   -2.2172  -13.2299    8.8245 C   0  0  0  0  0  0  0  0  0  0  0  0
   -2.3024  -13.8073   10.0968 C   0  0  0  0  0  0  0  0  0  0  0  0
   -1.7201  -13.2080   11.1878 C   0  0  0  0  0  0  0  0  0  0  0  0
   -1.0666  -12.0508   10.9959 N   0  0  0  0  0  0  0  0  0  0  0  0
   -0.9677  -11.4725    9.7871 C   0  0  0  0  0  0  0  0  0  0  0  0
  -12.0007   -8.6509    7.7155 C   0  0  0  0  0  0  0  0  0  0  0  0
  -11.1881   -9.4954    7.0012 C   0  0  0  0  0  0  0  0  0  0  0  0
   -9.8012   -9.4481    7.1163 C   0  0  0  0  0  0  0  0  0  0  0  0
   -9.1870   -8.5517    7.9499 C   0  0  0  0  0  0  0  0  0  0  0  0
  -10.0198   -7.7119    8.6574 C   0  0  0  0  0  0  0  0  0  0  0  0
  -11.3904   -7.7340    8.5667 C   0  0  0  0  0  0  0  0  0  0  0  0
  -12.2527   -6.8141    9.3480 C   0  0  0  0  0  0  0  0  0  0  0  0
  -13.0792   -7.4643   10.2328 F   0  0  0  0  0  0  0  0  0  0  0  0
  -11.4097   -5.9910   10.0861 F   0  0  0  0  0  0  0  0  0  0  0  0
  -12.9728   -5.9637    8.5174 F   0  0  0  0  0  0  0  0  0  0  0  0
  -13.4489   -8.6862    7.5274 C   0  0  0  0  0  0  0  0  0  0  0  0
  -16.9919   -6.9777    4.3914 C   0  0  0  0  0  0  0  0  0  0  0  0
  -16.4791   -8.2242    4.9260 N   0  0  0  0  0  0  0  0  0  0  0  0
  -16.2630   -8.0112    6.3612 C   0  0  0  0  0  0  0  0  0  0  0  0
  -15.0185   -7.1945    6.5377 C   0  0  0  0  0  0  0  0  0  0  0  0
  -13.7892   -7.9799    6.2660 N   0  0  0  0  0  0  0  0  0  0  0  0
  -14.2016   -9.0227    5.2955 C   0  0  0  0  0  0  0  0  0  0  0  0
  -15.1816   -8.4567    4.2867 C   0  0  0  0  0  0  0  0  0  0  0  0
 37 38  1  0  0  0
 38 39  1  0  0  0
 39 40  1  0  0  0
 40 41  1  0  0  0
 41 36  1  0  0  0
 36 26  1  0  0  0
 26 27  2  0  0  0
 27 28  1  0  0  0
 28 29  2  0  0  0
 29 30  1  0  0  0
 30 31  2  0  0  0
 31 32  1  0  0  0
 32 33  1  0  0  0
 32 34  1  0  0  0
 32 35  1  0  0  0
 29  1  1  0  0  0
  1  2  2  0  0  0
  1  3  1  0  0  0
  3  5  1  0  0  0
  5  6  2  0  0  0
  6  7  1  0  0  0
  7  8  2  0  0  0
  8  9  1  0  0  0
  8 10  1  0  0  0
 10 12  1  0  0  0
 12 14  1  0  0  0
 14 15  2  0  0  0
 15 16  1  0  0  0
 16 17  2  0  0  0
 17 18  1  0  0  0
 18 19  2  0  0  0
 18 20  1  0  0  0
 20 21  2  0  0  0
 21 22  1  0  0  0
 22 23  2  0  0  0
 23 24  1  0  0  0
 24 25  2  0  0  0
 10 11  2  0  0  0
 41 42  1  0  0  0
 42 43  1  0  0  0
 43 38  1  0  0  0
 31 26  1  0  0  0
 11  5  1  0  0  0
 19 14  1  0  0  0
 25 20  1  0  0  0
  3  4  1  0  0  0
 12 13  1  0  0  0
M  END
> <minimizedAffinity>
-9.55721

> <CNNscore>
0.3077536821

> <CNNaffinity>
7.3647041321

> <CNN_VS>
2.2665147781

> <CNNaffinity_variance>
0.1270540655

$$$$
[H]OC(=O)C(O[H])(C([H])(C([H])([H])[H])C([H])([H])[H])C1([H])C([H])([H])C([H])([H])N(C(=O)[C@@]([H])(N([H])[H])C([H])(C([H])([H])[H])C([H])([H])[H])C([H])([H])C1([H])[H]


 25 25  0  0  0  0  0  0  0  0999 V2000
  -10.8643   -7.1382    8.3573 C   0  0  0  0  0  0  0  0  0  0  0  0
  -10.9028   -6.2405    9.2916 O   0  0  0  0  0  0  0  0  0  0  0  0
  -12.0325   -7.8765    8.1451 N   0  0  0  0  0  0  0  0  0  0  0  0
  -12.2916   -8.9172    7.2111 C   0  0  0  0  0  0  0  0  0  0  0  0
  -13.7303   -9.4193    7.2644 C   0  0  0  0  0  0  0  0  0  0  0  0
  -14.7569   -8.3628    7.2229 C   0  0  0  0  0  0  0  0  0  0  0  0
  -14.2674   -7.1443    8.0224 C   0  0  0  0  0  0  0  0  0  0  0  0
  -13.1926   -7.5364    9.0115 C   0  0  0  0  0  0  0  0  0  0  0  0
   -9.6369   -7.3305    7.5910 C   0  0  0  0  0  0  0  0  0  0  0  0
   -8.8156   -6.1726    7.4308 N   0  0  0  0  0  0  0  0  0  0  0  0
   -8.4666   -6.1069    6.4555 H   0  0  0  0  0  0  0  0  0  0  0  0
   -8.0269   -6.1312    8.1216 H   0  0  0  0  0  0  0  0  0  0  0  0
   -7.3355   -7.9435    8.3655 C   0  0  0  0  0  0  0  0  0  0  0  0
   -8.7486   -8.4318    8.1653 C   0  0  0  0  0  0  0  0  0  0  0  0
   -8.7935   -9.6737    7.3175 C   0  0  0  0  0  0  0  0  0  0  0  0
  -15.1949   -7.8429    5.9132 C   0  0  0  0  0  0  0  0  0  0  0  0
  -14.4929   -6.7089    5.4988 O   0  0  0  0  0  0  0  0  0  0  0  0
  -13.7445   -6.8922    4.9150 H   0  0  0  0  0  0  0  0  0  0  0  0
  -16.5969   -7.3098    6.1931 C   0  0  0  0  0  0  0  0  0  0  0  0
  -17.3553   -8.0690    7.0711 O   0  0  0  0  0  0  0  0  0  0  0  0
  -17.0460   -6.2786    5.6850 O   0  0  0  0  0  0  0  0  0  0  0  0
  -17.1068   -8.3234    7.9947 H   0  0  0  0  0  0  0  0  0  0  0  0
  -15.4084   -8.7754    4.7909 C   0  0  0  0  0  0  0  0  0  0  0  0
  -16.8731   -8.5641    4.3485 C   0  0  0  0  0  0  0  0  0  0  0  0
  -14.6031   -8.5757    3.5506 C   0  0  0  0  0  0  0  0  0  0  0  0
 13 14  1  0  0  0
 14 15  1  0  0  0
 14  9  1  0  0  0
  9 10  1  0  0  0
  9  1  1  0  0  0
  1  2  2  0  0  0
  1  3  1  0  0  0
  3  4  1  0  0  0
  4  5  1  0  0  0
  5  6  1  0  0  0
  6  7  1  0  0  0
  7  8  1  0  0  0
  6 16  1  0  0  0
 16 17  1  0  0  0
 16 23  1  0  0  0
 23 24  1  0  0  0
 23 25  1  0  0  0
 16 19  1  0  0  0
 19 20  1  0  0  0
 19 21  2  0  0  0
  8  3  1  0  0  0
 10 11  1  0  0  0
 10 12  1  0  0  0
 17 18  1  0  0  0
 20 22  1  0  0  0
M  END
> <minimizedAffinity>
-7.96633

> <CNNscore>
0.5291751027

> <CNNaffinity>
6.0000829697

> <CNN_VS>
3.1750946045

> <CNNaffinity_variance>
0.0939377472

$$$$
[H]OC(=O)C(O[H])(C([H])(C([H])([H])[H])C([H])([H])[H])C1([H])C([H])([H])C([H])([H])N(C(=O)[C@@]([H])(N([H])[H])C([H])(C([H])([H])[H])C([H])([H])[H])C([H])([H])C1([H])[H]


 25 25  0  0  0  0  0  0  0  0999 V2000
   -7.0195   -6.7746    7.6022 C   0  0  0  0  0  0  0  0  0  0  0  0
   -7.2985   -5.5088    7.5986 O   0  0  0  0  0  0  0  0  0  0  0  0
   -6.0788   -7.2145    6.6661 N   0  0  0  0  0  0  0  0  0  0  0  0
   -5.5796   -8.5248    6.4276 C   0  0  0  0  0  0  0  0  0  0  0  0
   -4.5056   -8.5639    5.3461 C   0  0  0  0  0  0  0  0  0  0  0  0
   -3.4250   -7.5756    5.5103 C   0  0  0  0  0  0  0  0  0  0  0  0
   -4.0120   -6.2641    6.0571 C   0  0  0  0  0  0  0  0  0  0  0  0
   -5.4958   -6.1726    5.7793 C   0  0  0  0  0  0  0  0  0  0  0  0
   -7.6819   -7.6572    8.5576 C   0  0  0  0  0  0  0  0  0  0  0  0
   -7.9665   -7.0881    9.8366 N   0  0  0  0  0  0  0  0  0  0  0  0
   -7.7358   -7.7605   10.5930 H   0  0  0  0  0  0  0  0  0  0  0  0
   -8.9541   -6.7436    9.9210 H   0  0  0  0  0  0  0  0  0  0  0  0
  -10.1297   -7.9767    8.9805 C   0  0  0  0  0  0  0  0  0  0  0  0
   -8.9925   -8.2298    8.0223 C   0  0  0  0  0  0  0  0  0  0  0  0
   -8.8598   -9.6908    7.6893 C   0  0  0  0  0  0  0  0  0  0  0  0
   -2.2808   -7.9056    6.3818 C   0  0  0  0  0  0  0  0  0  0  0  0
   -1.4322   -6.8232    6.6242 O   0  0  0  0  0  0  0  0  0  0  0  0
   -1.6187   -6.3434    7.4425 H   0  0  0  0  0  0  0  0  0  0  0  0
   -1.4327   -8.8350    5.5185 C   0  0  0  0  0  0  0  0  0  0  0  0
   -1.0952   -8.3390    4.2685 O   0  0  0  0  0  0  0  0  0  0  0  0
   -1.0621   -9.9536    5.8854 O   0  0  0  0  0  0  0  0  0  0  0  0
   -0.6223   -7.4901    4.0806 H   0  0  0  0  0  0  0  0  0  0  0  0
   -2.4999   -8.6942    7.6085 C   0  0  0  0  0  0  0  0  0  0  0  0
   -1.2339   -9.5631    7.7752 C   0  0  0  0  0  0  0  0  0  0  0  0
   -2.6305   -7.9592    8.9005 C   0  0  0  0  0  0  0  0  0  0  0  0
 13 14  1  0  0  0
 14 15  1  0  0  0
 14  9  1  0  0  0
  9 10  1  0  0  0
  9  1  1  0  0  0
  1  2  2  0  0  0
  1  3  1  0  0  0
  3  4  1  0  0  0
  4  5  1  0  0  0
  5  6  1  0  0  0
  6  7  1  0  0  0
  7  8  1  0  0  0
  6 16  1  0  0  0
 16 17  1  0  0  0
 16 23  1  0  0  0
 23 24  1  0  0  0
 23 25  1  0  0  0
 16 19  1  0  0  0
 19 20  1  0  0  0
 19 21  2  0  0  0
  8  3  1  0  0  0
 10 11  1  0  0  0
 10 12  1  0  0  0
 17 18  1  0  0  0
 20 22  1  0  0  0
M  END
> <minimizedAffinity>
1.10697

> <CNNscore>
0.4370456040

> <CNNaffinity>
4.9268484116

> <CNN_VS>
2.1532573700

> <CNNaffinity_variance>
1.6070467234

$$$$
[H]OC(=O)C(O[H])(C([H])(C([H])([H])[H])C([H])([H])[H])C1([H])C([H])([H])C([H])([H])N(C(=O)[C@@]([H])(N([H])[H])C([H])(C([H])([H])[H])C([H])([H])[H])C([H])([H])C1([H])[H]


 25 25  0  0  0  0  0  0  0  0999 V2000
  -12.8924   -6.5294    8.6894 C   0  0  0  0  0  0  0  0  0  0  0  0
  -12.1686   -5.4734    8.4860 O   0  0  0  0  0  0  0  0  0  0  0  0
  -14.0455   -6.6619    7.9099 N   0  0  0  0  0  0  0  0  0  0  0  0
  -15.0264   -7.6917    7.9079 C   0  0  0  0  0  0  0  0  0  0  0  0
  -16.1028   -7.4851    6.8480 C   0  0  0  0  0  0  0  0  0  0  0  0
  -15.5932   -7.1962    5.4958 C   0  0  0  0  0  0  0  0  0  0  0  0
  -14.3433   -6.3072    5.6010 C   0  0  0  0  0  0  0  0  0  0  0  0
  -14.3024   -5.5775    6.9251 C   0  0  0  0  0  0  0  0  0  0  0  0
  -12.4806   -7.5042    9.6948 C   0  0  0  0  0  0  0  0  0  0  0  0
  -12.1166   -6.9687   10.9683 N   0  0  0  0  0  0  0  0  0  0  0  0
  -11.2588   -7.4314   11.3252 H   0  0  0  0  0  0  0  0  0  0  0  0
  -12.8954   -7.0157   11.6700 H   0  0  0  0  0  0  0  0  0  0  0  0
  -14.4182   -8.2085   11.1170 C   0  0  0  0  0  0  0  0  0  0  0  0
  -13.5393   -8.5754    9.9472 C   0  0  0  0  0  0  0  0  0  0  0  0
  -12.9171   -9.9338   10.1230 C   0  0  0  0  0  0  0  0  0  0  0  0
  -15.2213   -8.3214    4.6165 C   0  0  0  0  0  0  0  0  0  0  0  0
  -14.7296   -7.9199    3.3725 O   0  0  0  0  0  0  0  0  0  0  0  0
  -13.7658   -7.8650    3.3215 H   0  0  0  0  0  0  0  0  0  0  0  0
  -16.5622   -8.9656    4.2770 C   0  0  0  0  0  0  0  0  0  0  0  0
  -16.4881  -10.2475    3.7537 O   0  0  0  0  0  0  0  0  0  0  0  0
  -17.6483   -8.4046    4.4467 O   0  0  0  0  0  0  0  0  0  0  0  0
  -16.0503  -11.0297    4.1732 H   0  0  0  0  0  0  0  0  0  0  0  0
  -14.4371   -9.4457    5.1603 C   0  0  0  0  0  0  0  0  0  0  0  0
  -12.9629   -9.1193    4.8350 C   0  0  0  0  0  0  0  0  0  0  0  0
  -14.4615   -9.6688    6.6355 C   0  0  0  0  0  0  0  0  0  0  0  0
 13 14  1  0  0  0
 14 15  1  0  0  0
 14  9  1  0  0  0
  9 10  1  0  0  0
  9  1  1  0  0  0
  1  2  2  0  0  0
  1  3  1  0  0  0
  3  4  1  0  0  0
  4  5  1  0  0  0
  5  6  1  0  0  0
  6  7  1  0  0  0
  7  8  1  0  0  0
  6 16  1  0  0  0
 16 17  1  0  0  0
 16 23  1  0  0  0
 23 24  1  0  0  0
 23 25  1  0  0  0
 16 19  1  0  0  0
 19 20  1  0  0  0
 19 21  2  0  0  0
  8  3  1  0  0  0
 10 11  1  0  0  0
 10 12  1  0  0  0
 17 18  1  0  0  0
 20 22  1  0  0  0
M  END
> <minimizedAffinity>
1.57158

> <CNNscore>
0.4337323904

> <CNNaffinity>
5.7496118546

> <CNN_VS>
2.4937930107

> <CNNaffinity_variance>
0.9246689081

$$$$
[H]OC(=O)C(O[H])(C([H])(C([H])([H])[H])C([H])([H])[H])C1([H])C([H])([H])C([H])([H])N(C(=O)[C@@]([H])(N([H])[H])C([H])(C([H])([H])[H])C([H])([H])[H])C([H])([H])C1([H])[H]


 25 25  0  0  0  0  0  0  0  0999 V2000
  -10.7085   -8.3972    7.9931 C   0  0  0  0  0  0  0  0  0  0  0  0
  -11.3156   -8.0476    9.0837 O   0  0  0  0  0  0  0  0  0  0  0  0
   -9.7626   -7.5020    7.4845 N   0  0  0  0  0  0  0  0  0  0  0  0
   -8.9517   -7.6025    6.3204 C   0  0  0  0  0  0  0  0  0  0  0  0
   -7.9967   -6.4251    6.1579 C   0  0  0  0  0  0  0  0  0  0  0  0
   -7.2105   -6.0948    7.3598 C   0  0  0  0  0  0  0  0  0  0  0  0
   -8.0814   -6.2972    8.6105 C   0  0  0  0  0  0  0  0  0  0  0  0
   -9.5529   -6.2528    8.2639 C   0  0  0  0  0  0  0  0  0  0  0  0
  -11.0317   -9.6743    7.3645 C   0  0  0  0  0  0  0  0  0  0  0  0
  -12.0282   -9.6299    6.3418 N   0  0  0  0  0  0  0  0  0  0  0  0
  -12.6893  -10.4237    6.4439 H   0  0  0  0  0  0  0  0  0  0  0  0
  -11.6217   -9.5943    5.3751 H   0  0  0  0  0  0  0  0  0  0  0  0
  -10.1431  -11.7584    6.2970 C   0  0  0  0  0  0  0  0  0  0  0  0
   -9.8081  -10.3643    6.7656 C   0  0  0  0  0  0  0  0  0  0  0  0
   -8.6501  -10.3630    7.7260 C   0  0  0  0  0  0  0  0  0  0  0  0
   -5.9537   -6.8249    7.6147 C   0  0  0  0  0  0  0  0  0  0  0  0
   -6.0144   -7.6722    8.7232 O   0  0  0  0  0  0  0  0  0  0  0  0
   -6.2336   -8.5902    8.5141 H   0  0  0  0  0  0  0  0  0  0  0  0
   -4.9894   -5.7287    8.0583 C   0  0  0  0  0  0  0  0  0  0  0  0
   -4.8745   -5.5599    9.4298 O   0  0  0  0  0  0  0  0  0  0  0  0
   -4.3469   -5.0288    7.2706 O   0  0  0  0  0  0  0  0  0  0  0  0
   -4.6227   -6.2539   10.0888 H   0  0  0  0  0  0  0  0  0  0  0  0
   -5.2405   -7.4658    6.4943 C   0  0  0  0  0  0  0  0  0  0  0  0
   -3.9272   -8.0121    7.0963 C   0  0  0  0  0  0  0  0  0  0  0  0
   -5.8791   -8.6449    5.8396 C   0  0  0  0  0  0  0  0  0  0  0  0
 13 14  1  0  0  0
 14 15  1  0  0  0
 14  9  1  0  0  0
  9 10  1  0  0  0
  9  1  1  0  0  0
  1  2  2  0  0  0
  1  3  1  0  0  0
  3  4  1  0  0  0
  4  5  1  0  0  0
  5  6  1  0  0  0
  6  7  1  0  0  0
  7  8  1  0  0  0
  6 16  1  0  0  0
 16 17  1  0  0  0
 16 23  1  0  0  0
 23 24  1  0  0  0
 23 25  1  0  0  0
 16 19  1  0  0  0
 19 20  1  0  0  0
 19 21  2  0  0  0
  8  3  1  0  0  0
 10 11  1  0  0  0
 10 12  1  0  0  0
 17 18  1  0  0  0
 20 22  1  0  0  0
M  END
> <minimizedAffinity>
-1.05130

> <CNNscore>
0.3643467128

> <CNNaffinity>
5.0210871696

> <CNN_VS>
1.8294166327

> <CNNaffinity_variance>
0.5862731934

$$$$
[H]OC(=O)C(O[H])(C([H])(C([H])([H])[H])C([H])([H])[H])C1([H])C([H])([H])C([H])([H])N(C(=O)[C@@]([H])(N([H])[H])C([H])(C([H])([H])[H])C([H])([H])[H])C([H])([H])C1([H])[H]


 25 25  0  0  0  0  0  0  0  0999 V2000
  -10.8675   -7.1658    8.4928 C   0  0  0  0  0  0  0  0  0  0  0  0
  -10.8479   -6.1818    9.3363 O   0  0  0  0  0  0  0  0  0  0  0  0
  -12.0398   -7.9258    8.4392 N   0  0  0  0  0  0  0  0  0  0  0  0
  -12.3546   -9.0534    7.6317 C   0  0  0  0  0  0  0  0  0  0  0  0
  -13.7800   -9.5534    7.8387 C   0  0  0  0  0  0  0  0  0  0  0  0
  -14.8184   -8.5100    7.7706 C   0  0  0  0  0  0  0  0  0  0  0  0
  -14.2856   -7.2176    8.4105 C   0  0  0  0  0  0  0  0  0  0  0  0
  -13.1376   -7.5075    9.3514 C   0  0  0  0  0  0  0  0  0  0  0  0
   -9.6969   -7.4270    7.6608 C   0  0  0  0  0  0  0  0  0  0  0  0
   -8.8396   -6.3089    7.4244 N   0  0  0  0  0  0  0  0  0  0  0  0
   -8.5469   -6.2796    6.4290 H   0  0  0  0  0  0  0  0  0  0  0  0
   -8.0101   -6.2859    8.0666 H   0  0  0  0  0  0  0  0  0  0  0  0
   -7.4078   -8.0804    8.4391 C   0  0  0  0  0  0  0  0  0  0  0  0
   -8.8220   -8.5522    8.2088 C   0  0  0  0  0  0  0  0  0  0  0  0
   -8.8663   -9.7661    7.3213 C   0  0  0  0  0  0  0  0  0  0  0  0
  -15.3560   -8.1216    6.4524 C   0  0  0  0  0  0  0  0  0  0  0  0
  -15.0986   -9.0555    5.4464 O   0  0  0  0  0  0  0  0  0  0  0  0
  -15.8145   -9.6869    5.2933 H   0  0  0  0  0  0  0  0  0  0  0  0
  -14.4950   -6.9260    6.0554 C   0  0  0  0  0  0  0  0  0  0  0  0
  -15.1481   -5.7030    6.0443 O   0  0  0  0  0  0  0  0  0  0  0  0
  -13.3001   -7.0170    5.7603 O   0  0  0  0  0  0  0  0  0  0  0  0
  -15.6357   -5.2896    6.7999 H   0  0  0  0  0  0  0  0  0  0  0  0
  -16.7295   -7.5946    6.3495 C   0  0  0  0  0  0  0  0  0  0  0  0
  -17.3745   -8.3453    5.1637 C   0  0  0  0  0  0  0  0  0  0  0  0
  -17.6565   -7.8252    7.4960 C   0  0  0  0  0  0  0  0  0  0  0  0
 13 14  1  0  0  0
 14 15  1  0  0  0
 14  9  1  0  0  0
  9 10  1  0  0  0
  9  1  1  0  0  0
  1  2  2  0  0  0
  1  3  1  0  0  0
  3  4  1  0  0  0
  4  5  1  0  0  0
  5  6  1  0  0  0
  6  7  1  0  0  0
  7  8  1  0  0  0
  6 16  1  0  0  0
 16 17  1  0  0  0
 16 23  1  0  0  0
 23 24  1  0  0  0
 23 25  1  0  0  0
 16 19  1  0  0  0
 19 20  1  0  0  0
 19 21  2  0  0  0
  8  3  1  0  0  0
 10 11  1  0  0  0
 10 12  1  0  0  0
 17 18  1  0  0  0
 20 22  1  0  0  0
M  END
> <minimizedAffinity>
-7.14514

> <CNNscore>
0.2989464998

> <CNNaffinity>
5.6080884933

> <CNN_VS>
1.6765184402

> <CNNaffinity_variance>
0.0324014276

$$$$
[H]OC(=O)C(O[H])(C([H])(C([H])([H])[H])C([H])([H])[H])C1([H])C([H])([H])C([H])([H])N(C(=O)[C@@]([H])(N([H])[H])C([H])(C([H])([H])[H])C([H])([H])[H])C([H])([H])C1([H])[H]


 25 25  0  0  0  0  0  0  0  0999 V2000
  -12.1513   -8.0105    7.8897 C   0  0  0  0  0  0  0  0  0  0  0  0
  -11.4030   -6.9520    7.8816 O   0  0  0  0  0  0  0  0  0  0  0  0
  -13.5340   -7.8040    7.8718 N   0  0  0  0  0  0  0  0  0  0  0  0
  -14.5936   -8.7526    7.8804 C   0  0  0  0  0  0  0  0  0  0  0  0
  -15.9712   -8.1057    7.7885 C   0  0  0  0  0  0  0  0  0  0  0  0
  -16.1186   -7.1131    6.7094 C   0  0  0  0  0  0  0  0  0  0  0  0
  -14.8111   -6.3172    6.5664 C   0  0  0  0  0  0  0  0  0  0  0  0
  -13.9876   -6.3882    7.8330 C   0  0  0  0  0  0  0  0  0  0  0  0
  -11.5322   -9.3321    7.9158 C   0  0  0  0  0  0  0  0  0  0  0  0
  -12.3234  -10.4003    7.3925 N   0  0  0  0  0  0  0  0  0  0  0  0
  -12.2551  -11.2363    8.0039 H   0  0  0  0  0  0  0  0  0  0  0  0
  -12.0874  -10.6353    6.3975 H   0  0  0  0  0  0  0  0  0  0  0  0
  -10.0137  -10.6701    6.4406 C   0  0  0  0  0  0  0  0  0  0  0  0
  -10.1914   -9.3708    7.1859 C   0  0  0  0  0  0  0  0  0  0  0  0
   -9.0457   -9.1062    8.1243 C   0  0  0  0  0  0  0  0  0  0  0  0
  -16.4639   -7.5786    5.3523 C   0  0  0  0  0  0  0  0  0  0  0  0
  -17.0835   -8.8301    5.3314 O   0  0  0  0  0  0  0  0  0  0  0  0
  -18.0495   -8.7986    5.3148 H   0  0  0  0  0  0  0  0  0  0  0  0
  -15.1051   -7.8445    4.7111 C   0  0  0  0  0  0  0  0  0  0  0  0
  -14.6488   -9.1501    4.8093 O   0  0  0  0  0  0  0  0  0  0  0  0
  -14.4408   -6.9748    4.1405 O   0  0  0  0  0  0  0  0  0  0  0  0
  -15.1204   -9.9630    4.4990 H   0  0  0  0  0  0  0  0  0  0  0  0
  -17.1071   -6.6512    4.4030 C   0  0  0  0  0  0  0  0  0  0  0  0
  -18.2590   -7.4517    3.7566 C   0  0  0  0  0  0  0  0  0  0  0  0
  -17.7563   -5.4249    4.9519 C   0  0  0  0  0  0  0  0  0  0  0  0
 13 14  1  0  0  0
 14 15  1  0  0  0
 14  9  1  0  0  0
  9 10  1  0  0  0
  9  1  1  0  0  0
  1  2  2  0  0  0
  1  3  1  0  0  0
  3  4  1  0  0  0
  4  5  1  0  0  0
  5  6  1  0  0  0
  6  7  1  0  0  0
  7  8  1  0  0  0
  6 16  1  0  0  0
 16 17  1  0  0  0
 16 23  1  0  0  0
 23 24  1  0  0  0
 23 25  1  0  0  0
 16 19  1  0  0  0
 19 20  1  0  0  0
 19 21  2  0  0  0
  8  3  1  0  0  0
 10 11  1  0  0  0
 10 12  1  0  0  0
 17 18  1  0  0  0
 20 22  1  0  0  0
M  END
> <minimizedAffinity>
-7.40756

> <CNNscore>
0.2983639240

> <CNNaffinity>
5.6987714767

> <CNN_VS>
1.7003078461

> <CNNaffinity_variance>
0.0058342721

$$$$
[H]OC(=O)C(O[H])(C([H])(C([H])([H])[H])C([H])([H])[H])C1([H])C([H])([H])C([H])([H])N(C(=O)[C@@]([H])(N([H])[H])C([H])(C([H])([H])[H])C([H])([H])[H])C([H])([H])C1([H])[H]


 25 25  0  0  0  0  0  0  0  0999 V2000
   -6.5311   -8.6581    6.2587 C   0  0  0  0  0  0  0  0  0  0  0  0
   -6.4439   -8.8971    4.9877 O   0  0  0  0  0  0  0  0  0  0  0  0
   -5.3818   -8.1698    6.8877 N   0  0  0  0  0  0  0  0  0  0  0  0
   -5.1702   -7.8247    8.2512 C   0  0  0  0  0  0  0  0  0  0  0  0
   -3.7762   -7.2655    8.5133 C   0  0  0  0  0  0  0  0  0  0  0  0
   -3.3560   -6.1933    7.5938 C   0  0  0  0  0  0  0  0  0  0  0  0
   -3.8818   -6.4974    6.1814 C   0  0  0  0  0  0  0  0  0  0  0  0
   -4.1912   -7.9689    6.0194 C   0  0  0  0  0  0  0  0  0  0  0  0
   -7.7907   -8.9026    6.9546 C   0  0  0  0  0  0  0  0  0  0  0  0
   -7.7015   -9.6864    8.1457 N   0  0  0  0  0  0  0  0  0  0  0  0
   -8.4704  -10.3828    8.1807 H   0  0  0  0  0  0  0  0  0  0  0  0
   -7.6745   -9.1040    9.0181 H   0  0  0  0  0  0  0  0  0  0  0  0
   -8.2972   -6.5435    6.2833 C   0  0  0  0  0  0  0  0  0  0  0  0
   -8.5222   -7.6136    7.3224 C   0  0  0  0  0  0  0  0  0  0  0  0
   -8.1451   -7.1402    8.6996 C   0  0  0  0  0  0  0  0  0  0  0  0
   -3.7543   -4.8031    7.8873 C   0  0  0  0  0  0  0  0  0  0  0  0
   -5.1287   -4.6435    8.0769 O   0  0  0  0  0  0  0  0  0  0  0  0
   -5.4118   -4.6740    9.0007 H   0  0  0  0  0  0  0  0  0  0  0  0
   -3.4900   -4.0726    6.5740 C   0  0  0  0  0  0  0  0  0  0  0  0
   -2.6268   -2.9910    6.6607 O   0  0  0  0  0  0  0  0  0  0  0  0
   -3.9979   -4.4024    5.4986 O   0  0  0  0  0  0  0  0  0  0  0  0
   -1.7015   -3.0036    7.0117 H   0  0  0  0  0  0  0  0  0  0  0  0
   -2.9872   -4.0149    8.8698 C   0  0  0  0  0  0  0  0  0  0  0  0
   -3.8991   -3.8975   10.1108 C   0  0  0  0  0  0  0  0  0  0  0  0
   -1.7113   -4.5901    9.3874 C   0  0  0  0  0  0  0  0  0  0  0  0
 13 14  1  0  0  0
 14 15  1  0  0  0
 14  9  1  0  0  0
  9 10  1  0  0  0
  9  1  1  0  0  0
  1  2  2  0  0  0
  1  3  1  0  0  0
  3  4  1  0  0  0
  4  5  1  0  0  0
  5  6  1  0  0  0
  6  7  1  0  0  0
  7  8  1  0  0  0
  6 16  1  0  0  0
 16 17  1  0  0  0
 16 23  1  0  0  0
 23 24  1  0  0  0
 23 25  1  0  0  0
 16 19  1  0  0  0
 19 20  1  0  0  0
 19 21  2  0  0  0
  8  3  1  0  0  0
 10 11  1  0  0  0
 10 12  1  0  0  0
 17 18  1  0  0  0
 20 22  1  0  0  0
M  END
> <minimizedAffinity>
-2.07381

> <CNNscore>
0.2811790109

> <CNNaffinity>
4.3219261169

> <CNN_VS>
1.2152348757

> <CNNaffinity_variance>
0.3915399909

$$$$
[H]OC(=O)C(O[H])(C([H])(C([H])([H])[H])C([H])([H])[H])C1([H])C([H])([H])C([H])([H])N(C(=O)[C@@]([H])(N([H])[H])C([H])(C([H])([H])[H])C([H])([H])[H])C([H])([H])C1([H])[H]


 25 25  0  0  0  0  0  0  0  0999 V2000
  -15.9792   -7.9606    3.9141 C   0  0  0  0  0  0  0  0  0  0  0  0
  -15.2805   -8.4678    2.9472 O   0  0  0  0  0  0  0  0  0  0  0  0
  -15.7195   -8.4449    5.1997 N   0  0  0  0  0  0  0  0  0  0  0  0
  -16.3182   -8.0923    6.4407 C   0  0  0  0  0  0  0  0  0  0  0  0
  -15.6957   -8.8179    7.6284 C   0  0  0  0  0  0  0  0  0  0  0  0
  -14.2240   -8.7665    7.6834 C   0  0  0  0  0  0  0  0  0  0  0  0
  -13.6567   -8.8591    6.2575 C   0  0  0  0  0  0  0  0  0  0  0  0
  -14.6586   -9.4813    5.3108 C   0  0  0  0  0  0  0  0  0  0  0  0
  -16.9767   -6.9354    3.6233 C   0  0  0  0  0  0  0  0  0  0  0  0
  -18.2294   -7.0779    4.2950 N   0  0  0  0  0  0  0  0  0  0  0  0
  -19.0148   -6.8927    3.6421 H   0  0  0  0  0  0  0  0  0  0  0  0
  -18.3019   -6.4839    5.1569 H   0  0  0  0  0  0  0  0  0  0  0  0
  -14.9821   -5.5111    4.1387 C   0  0  0  0  0  0  0  0  0  0  0  0
  -16.4734   -5.5229    3.9124 C   0  0  0  0  0  0  0  0  0  0  0  0
  -17.2159   -4.8984    5.0622 C   0  0  0  0  0  0  0  0  0  0  0  0
  -13.5723   -7.5987    8.3073 C   0  0  0  0  0  0  0  0  0  0  0  0
  -14.3306   -7.0116    9.3226 O   0  0  0  0  0  0  0  0  0  0  0  0
  -14.1120   -7.3170   10.2134 H   0  0  0  0  0  0  0  0  0  0  0  0
  -13.5885   -6.5488    7.2001 C   0  0  0  0  0  0  0  0  0  0  0  0
  -14.5771   -5.5833    7.3134 O   0  0  0  0  0  0  0  0  0  0  0  0
  -12.7889   -6.5399    6.2600 O   0  0  0  0  0  0  0  0  0  0  0  0
  -14.7289   -4.9848    8.0869 H   0  0  0  0  0  0  0  0  0  0  0  0
  -12.1476   -7.6698    8.6813 C   0  0  0  0  0  0  0  0  0  0  0  0
  -12.0283   -6.8938   10.0114 C   0  0  0  0  0  0  0  0  0  0  0  0
  -11.5648   -9.0128    8.9701 C   0  0  0  0  0  0  0  0  0  0  0  0
 13 14  1  0  0  0
 14 15  1  0  0  0
 14  9  1  0  0  0
  9 10  1  0  0  0
  9  1  1  0  0  0
  1  2  2  0  0  0
  1  3  1  0  0  0
  3  4  1  0  0  0
  4  5  1  0  0  0
  5  6  1  0  0  0
  6  7  1  0  0  0
  7  8  1  0  0  0
  6 16  1  0  0  0
 16 17  1  0  0  0
 16 23  1  0  0  0
 23 24  1  0  0  0
 23 25  1  0  0  0
 16 19  1  0  0  0
 19 20  1  0  0  0
 19 21  2  0  0  0
  8  3  1  0  0  0
 10 11  1  0  0  0
 10 12  1  0  0  0
 17 18  1  0  0  0
 20 22  1  0  0  0
M  END
> <minimizedAffinity>
-3.64035

> <CNNscore>
0.2783021033

> <CNNaffinity>
5.5908923149

> <CNN_VS>
1.5559570789

> <CNNaffinity_variance>
0.0673552603

$$$$
[H]OC(=O)C(O[H])(C([H])(C([H])([H])[H])C([H])([H])[H])C1([H])C([H])([H])C([H])([H])N(C(=O)[C@@]([H])(N([H])[H])C([H])(C([H])([H])[H])C([H])([H])[H])C([H])([H])C1([H])[H]


 25 25  0  0  0  0  0  0  0  0999 V2000
   -9.6426   -6.6834    8.0678 C   0  0  0  0  0  0  0  0  0  0  0  0
   -9.5674   -5.4028    8.2537 O   0  0  0  0  0  0  0  0  0  0  0  0
  -10.7855   -7.3243    8.5557 N   0  0  0  0  0  0  0  0  0  0  0  0
  -11.1448   -8.6996    8.5089 C   0  0  0  0  0  0  0  0  0  0  0  0
  -12.5202   -8.9752    9.1063 C   0  0  0  0  0  0  0  0  0  0  0  0
  -13.5971   -8.0992    8.6119 C   0  0  0  0  0  0  0  0  0  0  0  0
  -13.0453   -6.6790    8.4062 C   0  0  0  0  0  0  0  0  0  0  0  0
  -11.7922   -6.4567    9.2233 C   0  0  0  0  0  0  0  0  0  0  0  0
   -8.5605   -7.3774    7.3764 C   0  0  0  0  0  0  0  0  0  0  0  0
   -7.7482   -6.5693    6.5231 N   0  0  0  0  0  0  0  0  0  0  0  0
   -7.5602   -7.0607    5.6284 H   0  0  0  0  0  0  0  0  0  0  0  0
   -6.8573   -6.2571    6.9812 H   0  0  0  0  0  0  0  0  0  0  0  0
   -6.2491   -7.4693    8.3361 C   0  0  0  0  0  0  0  0  0  0  0  0
   -7.6178   -8.1033    8.3335 C   0  0  0  0  0  0  0  0  0  0  0  0
   -7.5490   -9.5748    8.0282 C   0  0  0  0  0  0  0  0  0  0  0  0
  -14.2883   -8.4545    7.3575 C   0  0  0  0  0  0  0  0  0  0  0  0
  -15.6219   -8.8270    7.5402 O   0  0  0  0  0  0  0  0  0  0  0  0
  -16.2586   -8.1102    7.4159 H   0  0  0  0  0  0  0  0  0  0  0  0
  -13.6114   -9.7550    6.9345 C   0  0  0  0  0  0  0  0  0  0  0  0
  -14.0590  -10.8948    7.5850 O   0  0  0  0  0  0  0  0  0  0  0  0
  -12.7256   -9.8127    6.0771 O   0  0  0  0  0  0  0  0  0  0  0  0
  -14.9926  -11.2205    7.6257 H   0  0  0  0  0  0  0  0  0  0  0  0
  -14.1347   -7.5946    6.1694 C   0  0  0  0  0  0  0  0  0  0  0  0
  -14.7544   -8.3891    4.9988 C   0  0  0  0  0  0  0  0  0  0  0  0
  -14.8448   -6.2822    6.1573 C   0  0  0  0  0  0  0  0  0  0  0  0
 13 14  1  0  0  0
 14 15  1  0  0  0
 14  9  1  0  0  0
  9 10  1  0  0  0
  9  1  1  0  0  0
  1  2  2  0  0  0
  1  3  1  0  0  0
  3  4  1  0  0  0
  4  5  1  0  0  0
  5  6  1  0  0  0
  6  7  1  0  0  0
  7  8  1  0  0  0
  6 16  1  0  0  0
 16 17  1  0  0  0
 16 23  1  0  0  0
 23 24  1  0  0  0
 23 25  1  0  0  0
 16 19  1  0  0  0
 19 20  1  0  0  0
 19 21  2  0  0  0
  8  3  1  0  0  0
 10 11  1  0  0  0
 10 12  1  0  0  0
 17 18  1  0  0  0
 20 22  1  0  0  0
M  END
> <minimizedAffinity>
-7.60260

> <CNNscore>
0.2781412899

> <CNNaffinity>
5.6638784409

> <CNN_VS>
1.5753585100

> <CNNaffinity_variance>
0.0333767533

$$$$
[H]c1c([H])c(S(=O)(=O)N2C([H])([H])C([H])([H])N(C([H])([H])c3c([H])c([H])c([N+](=O)[O-])c([H])c3[H])C([H])([H])C2([H])[H])c([H])c([H])c1N1C([H])([H])C([H])([H])OC([H])([H])C1([H])[H]


 31 34  0  0  0  0  0  0  0  0999 V2000
  -15.9373   -7.2087    7.0028 N   0  0  0  0  0  0  0  0  0  0  0  0
  -16.1814   -8.0910    8.1092 C   0  0  0  0  0  0  0  0  0  0  0  0
  -15.0880   -9.1364    8.1388 C   0  0  0  0  0  0  0  0  0  0  0  0
  -13.8398   -8.4351    8.3816 N   0  0  0  0  0  0  0  0  0  0  0  0
  -13.5318   -7.5843    7.2764 C   0  0  0  0  0  0  0  0  0  0  0  0
  -14.6945   -7.4127    6.3237 C   0  0  0  0  0  0  0  0  0  0  0  0
  -12.5711   -9.5558    8.7263 S   0  0  0  0  0  0  0  0  0  0  0  0
  -12.5849   -9.8312   10.1823 O   0  0  0  0  0  0  0  0  0  0  0  0
  -12.7499  -10.8028    7.9444 O   0  0  0  0  0  0  0  0  0  0  0  0
  -11.0091   -8.8822    8.3042 C   0  0  0  0  0  0  0  0  0  0  0  0
  -10.6999   -7.6313    8.7518 C   0  0  0  0  0  0  0  0  0  0  0  0
   -9.4610   -7.0745    8.4272 C   0  0  0  0  0  0  0  0  0  0  0  0
   -8.5476   -7.7500    7.6715 C   0  0  0  0  0  0  0  0  0  0  0  0
   -8.9007   -9.0194    7.2360 C   0  0  0  0  0  0  0  0  0  0  0  0
  -10.1109   -9.6009    7.5353 C   0  0  0  0  0  0  0  0  0  0  0  0
   -7.2987   -7.1866    7.3427 N   0  0  0  0  0  0  0  0  0  0  0  0
   -7.0439   -6.5086    6.0959 C   0  0  0  0  0  0  0  0  0  0  0  0
   -5.5737   -6.6431    5.7196 C   0  0  0  0  0  0  0  0  0  0  0  0
   -4.7100   -6.2463    6.7047 O   0  0  0  0  0  0  0  0  0  0  0  0
   -5.2590   -6.1313    7.9591 C   0  0  0  0  0  0  0  0  0  0  0  0
   -6.2107   -7.2815    8.2905 C   0  0  0  0  0  0  0  0  0  0  0  0
  -17.0597   -7.2173    6.0857 C   0  0  0  0  0  0  0  0  0  0  0  0
  -16.8501   -4.0458    3.1646 C   0  0  0  0  0  0  0  0  0  0  0  0
  -17.9928   -4.7956    3.3479 C   0  0  0  0  0  0  0  0  0  0  0  0
  -18.0444   -5.8054    4.2857 C   0  0  0  0  0  0  0  0  0  0  0  0
  -16.9570   -6.1195    5.0899 C   0  0  0  0  0  0  0  0  0  0  0  0
  -15.8132   -5.3707    4.9082 C   0  0  0  0  0  0  0  0  0  0  0  0
  -15.7600   -4.3605    3.9707 C   0  0  0  0  0  0  0  0  0  0  0  0
  -15.8107   -2.0689    2.1981 O   0  0  0  0  0  0  0  0  0  0  0  0
  -16.7979   -3.0110    2.2032 N   0  0  0  0  0  0  0  0  0  0  0  0
  -17.6780   -2.9571    1.3358 O   0  0  0  0  0  0  0  0  0  0  0  0
 29 30  1  0  0  0
 30 31  2  0  0  0
 30 23  1  0  0  0
 23 24  2  0  0  0
 24 25  1  0  0  0
 25 26  2  0  0  0
 26 22  1  0  0  0
 22  1  1  0  0  0
  1  2  1  0  0  0
  2  3  1  0  0  0
  3  4  1  0  0  0
  4  5  1  0  0  0
  5  6  1  0  0  0
  4  7  1  0  0  0
  7  8  2  0  0  0
  7  9  2  0  0  0
  7 10  1  0  0  0
 10 11  2  0  0  0
 11 12  1  0  0  0
 12 13  2  0  0  0
 13 14  1  0  0  0
 14 15  2  0  0  0
 13 16  1  0  0  0
 16 17  1  0  0  0
 17 18  1  0  0  0
 18 19  1  0  0  0
 19 20  1  0  0  0
 20 21  1  0  0  0
 26 27  1  0  0  0
 27 28  2  0  0  0
 28 23  1  0  0  0
  6  1  1  0  0  0
 15 10  1  0  0  0
 21 16  1  0  0  0
M  CHG 1  29  -1
M  CHG 1  30   1
M  END
> <minimizedAffinity>
1.18977

> <CNNscore>
0.5294945240

> <CNNaffinity>
7.0174660683

> <CNN_VS>
3.7157099247

> <CNNaffinity_variance>
0.6910247803

$$$$
[H]c1c([H])c(S(=O)(=O)N2C([H])([H])C([H])([H])N(C([H])([H])c3c([H])c([H])c([N+](=O)[O-])c([H])c3[H])C([H])([H])C2([H])[H])c([H])c([H])c1N1C([H])([H])C([H])([H])OC([H])([H])C1([H])[H]


 31 34  0  0  0  0  0  0  0  0999 V2000
   -8.4395   -8.9706    7.1566 N   0  0  0  0  0  0  0  0  0  0  0  0
   -8.2413   -8.3625    8.4422 C   0  0  0  0  0  0  0  0  0  0  0  0
   -9.3595   -7.3715    8.6812 C   0  0  0  0  0  0  0  0  0  0  0  0
  -10.5959   -8.1319    8.7221 N   0  0  0  0  0  0  0  0  0  0  0  0
  -10.8588   -8.7108    7.4430 C   0  0  0  0  0  0  0  0  0  0  0  0
   -9.6712   -8.6378    6.5087 C   0  0  0  0  0  0  0  0  0  0  0  0
  -11.8982   -7.1433    9.2800 S   0  0  0  0  0  0  0  0  0  0  0  0
  -12.3673   -7.6899   10.5750 O   0  0  0  0  0  0  0  0  0  0  0  0
  -11.4597   -5.7340    9.4217 O   0  0  0  0  0  0  0  0  0  0  0  0
  -13.2361   -7.1732    8.1483 C   0  0  0  0  0  0  0  0  0  0  0  0
  -12.9916   -6.8479    6.8462 C   0  0  0  0  0  0  0  0  0  0  0  0
  -14.0428   -6.8647    5.9271 C   0  0  0  0  0  0  0  0  0  0  0  0
  -15.3129   -7.1988    6.2970 C   0  0  0  0  0  0  0  0  0  0  0  0
  -15.5197   -7.5232    7.6303 C   0  0  0  0  0  0  0  0  0  0  0  0
  -14.5099   -7.5179    8.5645 C   0  0  0  0  0  0  0  0  0  0  0  0
  -16.3734   -7.2133    5.3693 N   0  0  0  0  0  0  0  0  0  0  0  0
  -17.0559   -8.4197    4.9717 C   0  0  0  0  0  0  0  0  0  0  0  0
  -17.5949   -8.2713    3.5544 C   0  0  0  0  0  0  0  0  0  0  0  0
  -18.3705   -7.1587    3.3691 O   0  0  0  0  0  0  0  0  0  0  0  0
  -18.2597   -6.1941    4.3413 C   0  0  0  0  0  0  0  0  0  0  0  0
  -16.8126   -5.9676    4.7807 C   0  0  0  0  0  0  0  0  0  0  0  0
   -7.2972   -8.7312    6.2970 C   0  0  0  0  0  0  0  0  0  0  0  0
   -7.7863  -10.8057    2.5430 C   0  0  0  0  0  0  0  0  0  0  0  0
   -8.4951  -11.1606    3.6714 C   0  0  0  0  0  0  0  0  0  0  0  0
   -8.3281  -10.4877    4.8635 C   0  0  0  0  0  0  0  0  0  0  0  0
   -7.4441   -9.4247    4.9914 C   0  0  0  0  0  0  0  0  0  0  0  0
   -6.7342   -9.0682    3.8640 C   0  0  0  0  0  0  0  0  0  0  0  0
   -6.9000   -9.7401    2.6710 C   0  0  0  0  0  0  0  0  0  0  0  0
   -9.1906  -11.7578    0.7984 O   0  0  0  0  0  0  0  0  0  0  0  0
   -7.9578  -11.4958    1.3215 N   0  0  0  0  0  0  0  0  0  0  0  0
   -6.9553  -11.8759    0.7048 O   0  0  0  0  0  0  0  0  0  0  0  0
 29 30  1  0  0  0
 30 31  2  0  0  0
 30 23  1  0  0  0
 23 24  2  0  0  0
 24 25  1  0  0  0
 25 26  2  0  0  0
 26 22  1  0  0  0
 22  1  1  0  0  0
  1  2  1  0  0  0
  2  3  1  0  0  0
  3  4  1  0  0  0
  4  5  1  0  0  0
  5  6  1  0  0  0
  4  7  1  0  0  0
  7  8  2  0  0  0
  7  9  2  0  0  0
  7 10  1  0  0  0
 10 11  2  0  0  0
 11 12  1  0  0  0
 12 13  2  0  0  0
 13 14  1  0  0  0
 14 15  2  0  0  0
 13 16  1  0  0  0
 16 17  1  0  0  0
 17 18  1  0  0  0
 18 19  1  0  0  0
 19 20  1  0  0  0
 20 21  1  0  0  0
 26 27  1  0  0  0
 27 28  2  0  0  0
 28 23  1  0  0  0
  6  1  1  0  0  0
 15 10  1  0  0  0
 21 16  1  0  0  0
M  CHG 1  29  -1
M  CHG 1  30   1
M  END
> <minimizedAffinity>
3.34629

> <CNNscore>
0.4981655180

> <CNNaffinity>
6.8023061752

> <CNN_VS>
3.3886744976

> <CNNaffinity_variance>
0.6233633161

$$$$
[H]c1c([H])c(S(=O)(=O)N2C([H])([H])C([H])([H])N(C([H])([H])c3c([H])c([H])c([N+](=O)[O-])c([H])c3[H])C([H])([H])C2([H])[H])c([H])c([H])c1N1C([H])([H])C([H])([H])OC([H])([H])C1([H])[H]


 31 34  0  0  0  0  0  0  0  0999 V2000
  -16.1744   -7.0061    7.3954 N   0  0  0  0  0  0  0  0  0  0  0  0
  -16.2562   -8.3832    6.9966 C   0  0  0  0  0  0  0  0  0  0  0  0
  -14.8753   -8.9937    7.0954 C   0  0  0  0  0  0  0  0  0  0  0  0
  -14.4917   -8.9462    8.4951 N   0  0  0  0  0  0  0  0  0  0  0  0
  -14.3463   -7.5899    8.9186 C   0  0  0  0  0  0  0  0  0  0  0  0
  -14.9081   -6.5990    7.9229 C   0  0  0  0  0  0  0  0  0  0  0  0
  -13.0630   -9.8793    8.7648 S   0  0  0  0  0  0  0  0  0  0  0  0
  -12.8974  -10.0530   10.2271 O   0  0  0  0  0  0  0  0  0  0  0  0
  -13.1585  -11.1898    8.0780 O   0  0  0  0  0  0  0  0  0  0  0  0
  -11.6488   -9.0532    8.1409 C   0  0  0  0  0  0  0  0  0  0  0  0
  -10.6190   -9.8056    7.6570 C   0  0  0  0  0  0  0  0  0  0  0  0
   -9.4821   -9.1685    7.1553 C   0  0  0  0  0  0  0  0  0  0  0  0
   -9.3725   -7.8086    7.1357 C   0  0  0  0  0  0  0  0  0  0  0  0
  -10.4417   -7.0798    7.6369 C   0  0  0  0  0  0  0  0  0  0  0  0
  -11.5776   -7.6713    8.1391 C   0  0  0  0  0  0  0  0  0  0  0  0
   -8.2241   -7.1667    6.6312 N   0  0  0  0  0  0  0  0  0  0  0  0
   -6.9020   -7.3837    7.1642 C   0  0  0  0  0  0  0  0  0  0  0  0
   -6.0464   -6.1397    6.9600 C   0  0  0  0  0  0  0  0  0  0  0  0
   -6.0108   -5.6968    5.6652 O   0  0  0  0  0  0  0  0  0  0  0  0
   -6.9915   -6.1978    4.8435 C   0  0  0  0  0  0  0  0  0  0  0  0
   -8.3598   -6.2456    5.5248 C   0  0  0  0  0  0  0  0  0  0  0  0
  -16.6153   -6.1369    6.3226 C   0  0  0  0  0  0  0  0  0  0  0  0
  -13.3978   -4.9681    3.6928 C   0  0  0  0  0  0  0  0  0  0  0  0
  -14.6733   -4.4623    3.5559 C   0  0  0  0  0  0  0  0  0  0  0  0
  -15.6907   -4.8451    4.4044 C   0  0  0  0  0  0  0  0  0  0  0  0
  -15.4876   -5.7537    5.4346 C   0  0  0  0  0  0  0  0  0  0  0  0
  -14.2127   -6.2608    5.5731 C   0  0  0  0  0  0  0  0  0  0  0  0
  -13.1940   -5.8790    4.7253 C   0  0  0  0  0  0  0  0  0  0  0  0
  -11.0652   -4.4378    3.2452 O   0  0  0  0  0  0  0  0  0  0  0  0
  -12.3554   -4.5754    2.8227 N   0  0  0  0  0  0  0  0  0  0  0  0
  -12.6218   -4.3482    1.6364 O   0  0  0  0  0  0  0  0  0  0  0  0
 29 30  1  0  0  0
 30 31  2  0  0  0
 30 23  1  0  0  0
 23 24  2  0  0  0
 24 25  1  0  0  0
 25 26  2  0  0  0
 26 22  1  0  0  0
 22  1  1  0  0  0
  1  2  1  0  0  0
  2  3  1  0  0  0
  3  4  1  0  0  0
  4  5  1  0  0  0
  5  6  1  0  0  0
  4  7  1  0  0  0
  7  8  2  0  0  0
  7  9  2  0  0  0
  7 10  1  0  0  0
 10 11  2  0  0  0
 11 12  1  0  0  0
 12 13  2  0  0  0
 13 14  1  0  0  0
 14 15  2  0  0  0
 13 16  1  0  0  0
 16 17  1  0  0  0
 17 18  1  0  0  0
 18 19  1  0  0  0
 19 20  1  0  0  0
 20 21  1  0  0  0
 26 27  1  0  0  0
 27 28  2  0  0  0
 28 23  1  0  0  0
  6  1  1  0  0  0
 15 10  1  0  0  0
 21 16  1  0  0  0
M  CHG 1  29  -1
M  CHG 1  30   1
M  END
> <minimizedAffinity>
7.28678

> <CNNscore>
0.4770267606

> <CNNaffinity>
6.9112348557

> <CNN_VS>
3.2968440056

> <CNNaffinity_variance>
1.5519223213

$$$$
[H]c1c([H])c(S(=O)(=O)N2C([H])([H])C([H])([H])N(C([H])([H])c3c([H])c([H])c([N+](=O)[O-])c([H])c3[H])C([H])([H])C2([H])[H])c([H])c([H])c1N1C([H])([H])C([H])([H])OC([H])([H])C1([H])[H]


 31 34  0  0  0  0  0  0  0  0999 V2000
   -7.3801   -9.9615    2.9392 N   0  0  0  0  0  0  0  0  0  0  0  0
   -8.3839  -10.5718    3.7651 C   0  0  0  0  0  0  0  0  0  0  0  0
   -7.9579  -10.4431    5.2113 C   0  0  0  0  0  0  0  0  0  0  0  0
   -7.9184   -9.0237    5.5152 N   0  0  0  0  0  0  0  0  0  0  0  0
   -6.8931   -8.3865    4.7516 C   0  0  0  0  0  0  0  0  0  0  0  0
   -6.3494   -9.2657    3.6470 C   0  0  0  0  0  0  0  0  0  0  0  0
   -7.7304   -8.7718    7.2139 S   0  0  0  0  0  0  0  0  0  0  0  0
   -8.9791   -8.1618    7.7285 O   0  0  0  0  0  0  0  0  0  0  0  0
   -7.4375  -10.0521    7.9019 O   0  0  0  0  0  0  0  0  0  0  0  0
   -6.4024   -7.6758    7.5409 C   0  0  0  0  0  0  0  0  0  0  0  0
   -6.6150   -6.3366    7.3922 C   0  0  0  0  0  0  0  0  0  0  0  0
   -5.5709   -5.4450    7.6470 C   0  0  0  0  0  0  0  0  0  0  0  0
   -4.3389   -5.8781    8.0421 C   0  0  0  0  0  0  0  0  0  0  0  0
   -4.1637   -7.2476    8.1815 C   0  0  0  0  0  0  0  0  0  0  0  0
   -5.1677   -8.1564    7.9398 C   0  0  0  0  0  0  0  0  0  0  0  0
   -3.2853   -4.9779    8.2968 N   0  0  0  0  0  0  0  0  0  0  0  0
   -3.4104   -3.5511    8.1300 C   0  0  0  0  0  0  0  0  0  0  0  0
   -2.0559   -2.9454    7.7839 C   0  0  0  0  0  0  0  0  0  0  0  0
   -1.0600   -3.2733    8.6640 O   0  0  0  0  0  0  0  0  0  0  0  0
   -1.3283   -4.3401    9.4874 C   0  0  0  0  0  0  0  0  0  0  0  0
   -2.0122   -5.4923    8.7504 C   0  0  0  0  0  0  0  0  0  0  0  0
   -6.8347  -10.9243    2.0030 C   0  0  0  0  0  0  0  0  0  0  0  0
   -9.8786  -13.5120    0.3680 C   0  0  0  0  0  0  0  0  0  0  0  0
   -8.7897  -14.0076    1.0536 C   0  0  0  0  0  0  0  0  0  0  0  0
   -7.8257  -13.1679    1.5706 C   0  0  0  0  0  0  0  0  0  0  0  0
   -7.8985  -11.7885    1.4298 C   0  0  0  0  0  0  0  0  0  0  0  0
   -8.9868  -11.2908    0.7443 C   0  0  0  0  0  0  0  0  0  0  0  0
   -9.9518  -12.1292    0.2267 C   0  0  0  0  0  0  0  0  0  0  0  0
  -10.7169  -15.7295   -0.1821 O   0  0  0  0  0  0  0  0  0  0  0  0
  -10.8663  -14.3732   -0.1618 N   0  0  0  0  0  0  0  0  0  0  0  0
  -11.9026  -13.8805   -0.6234 O   0  0  0  0  0  0  0  0  0  0  0  0
 29 30  1  0  0  0
 30 31  2  0  0  0
 30 23  1  0  0  0
 23 24  2  0  0  0
 24 25  1  0  0  0
 25 26  2  0  0  0
 26 22  1  0  0  0
 22  1  1  0  0  0
  1  2  1  0  0  0
  2  3  1  0  0  0
  3  4  1  0  0  0
  4  5  1  0  0  0
  5  6  1  0  0  0
  4  7  1  0  0  0
  7  8  2  0  0  0
  7  9  2  0  0  0
  7 10  1  0  0  0
 10 11  2  0  0  0
 11 12  1  0  0  0
 12 13  2  0  0  0
 13 14  1  0  0  0
 14 15  2  0  0  0
 13 16  1  0  0  0
 16 17  1  0  0  0
 17 18  1  0  0  0
 18 19  1  0  0  0
 19 20  1  0  0  0
 20 21  1  0  0  0
 26 27  1  0  0  0
 27 28  2  0  0  0
 28 23  1  0  0  0
  6  1  1  0  0  0
 15 10  1  0  0  0
 21 16  1  0  0  0
M  CHG 1  29  -1
M  CHG 1  30   1
M  END
> <minimizedAffinity>
18.23270

> <CNNscore>
0.4411701262

> <CNNaffinity>
5.6262092590

> <CNN_VS>
2.4821155071

> <CNNaffinity_variance>
1.1487681866

$$$$
[H]c1c([H])c(S(=O)(=O)N2C([H])([H])C([H])([H])N(C([H])([H])c3c([H])c([H])c([N+](=O)[O-])c([H])c3[H])C([H])([H])C2([H])[H])c([H])c([H])c1N1C([H])([H])C([H])([H])OC([H])([H])C1([H])[H]


 31 34  0  0  0  0  0  0  0  0999 V2000
  -16.4001   -7.1993    7.7145 N   0  0  0  0  0  0  0  0  0  0  0  0
  -16.7754   -8.5560    7.4306 C   0  0  0  0  0  0  0  0  0  0  0  0
  -15.5324   -9.3256    7.0407 C   0  0  0  0  0  0  0  0  0  0  0  0
  -14.6564   -9.3275    8.1988 N   0  0  0  0  0  0  0  0  0  0  0  0
  -14.2156   -7.9990    8.4832 C   0  0  0  0  0  0  0  0  0  0  0  0
  -14.9918   -6.9460    7.7232 C   0  0  0  0  0  0  0  0  0  0  0  0
  -13.3419  -10.4236    7.9636 S   0  0  0  0  0  0  0  0  0  0  0  0
  -13.2114  -11.2527    9.1849 O   0  0  0  0  0  0  0  0  0  0  0  0
  -13.5741  -11.2674    6.7667 O   0  0  0  0  0  0  0  0  0  0  0  0
  -11.8391   -9.5555    7.7196 C   0  0  0  0  0  0  0  0  0  0  0  0
  -10.7869  -10.2235    7.1649 C   0  0  0  0  0  0  0  0  0  0  0  0
   -9.5797   -9.5517    6.9615 C   0  0  0  0  0  0  0  0  0  0  0  0
   -9.4228   -8.2403    7.3038 C   0  0  0  0  0  0  0  0  0  0  0  0
  -10.5168   -7.5970    7.8651 C   0  0  0  0  0  0  0  0  0  0  0  0
  -11.7216   -8.2250    8.0808 C   0  0  0  0  0  0  0  0  0  0  0  0
   -8.2037   -7.5638    7.1003 N   0  0  0  0  0  0  0  0  0  0  0  0
   -7.9570   -6.2246    7.5745 C   0  0  0  0  0  0  0  0  0  0  0  0
   -6.9494   -5.5277    6.6687 C   0  0  0  0  0  0  0  0  0  0  0  0
   -5.7881   -6.2292    6.4870 O   0  0  0  0  0  0  0  0  0  0  0  0
   -5.8406   -7.5571    6.8360 C   0  0  0  0  0  0  0  0  0  0  0  0
   -7.1376   -8.2309    6.3864 C   0  0  0  0  0  0  0  0  0  0  0  0
  -17.1068   -6.2812    6.8435 C   0  0  0  0  0  0  0  0  0  0  0  0
  -14.5472   -4.7367    3.7294 C   0  0  0  0  0  0  0  0  0  0  0  0
  -15.5066   -5.6947    3.4781 C   0  0  0  0  0  0  0  0  0  0  0  0
  -16.3171   -6.1780    4.4837 C   0  0  0  0  0  0  0  0  0  0  0  0
  -16.2120   -5.7296    5.7936 C   0  0  0  0  0  0  0  0  0  0  0  0
  -15.2531   -4.7715    6.0470 C   0  0  0  0  0  0  0  0  0  0  0  0
  -14.4416   -4.2871    5.0424 C   0  0  0  0  0  0  0  0  0  0  0  0
  -13.9708   -3.0635    2.0588 O   0  0  0  0  0  0  0  0  0  0  0  0
  -13.7166   -4.2419    2.6983 N   0  0  0  0  0  0  0  0  0  0  0  0
  -12.7243   -4.9000    2.3635 O   0  0  0  0  0  0  0  0  0  0  0  0
 29 30  1  0  0  0
 30 31  2  0  0  0
 30 23  1  0  0  0
 23 24  2  0  0  0
 24 25  1  0  0  0
 25 26  2  0  0  0
 26 22  1  0  0  0
 22  1  1  0  0  0
  1  2  1  0  0  0
  2  3  1  0  0  0
  3  4  1  0  0  0
  4  5  1  0  0  0
  5  6  1  0  0  0
  4  7  1  0  0  0
  7  8  2  0  0  0
  7  9  2  0  0  0
  7 10  1  0  0  0
 10 11  2  0  0  0
 11 12  1  0  0  0
 12 13  2  0  0  0
 13 14  1  0  0  0
 14 15  2  0  0  0
 13 16  1  0  0  0
 16 17  1  0  0  0
 17 18  1  0  0  0
 18 19  1  0  0  0
 19 20  1  0  0  0
 20 21  1  0  0  0
 26 27  1  0  0  0
 27 28  2  0  0  0
 28 23  1  0  0  0
  6  1  1  0  0  0
 15 10  1  0  0  0
 21 16  1  0  0  0
M  CHG 1  29  -1
M  CHG 1  30   1
M  END
> <minimizedAffinity>
12.78587

> <CNNscore>
0.4395249188

> <CNNaffinity>
6.9871087074

> <CNN_VS>
3.0710084438

> <CNNaffinity_variance>
2.9872047901

$$$$
[H]c1c([H])c(S(=O)(=O)N2C([H])([H])C([H])([H])N(C([H])([H])c3c([H])c([H])c([N+](=O)[O-])c([H])c3[H])C([H])([H])C2([H])[H])c([H])c([H])c1N1C([H])([H])C([H])([H])OC([H])([H])C1([H])[H]


 31 34  0  0  0  0  0  0  0  0999 V2000
   -7.7622  -11.1465    1.5588 N   0  0  0  0  0  0  0  0  0  0  0  0
   -8.4197  -11.4131    2.8073 C   0  0  0  0  0  0  0  0  0  0  0  0
   -7.6111  -10.7815    3.9193 C   0  0  0  0  0  0  0  0  0  0  0  0
   -7.6285   -9.3474    3.6919 N   0  0  0  0  0  0  0  0  0  0  0  0
   -6.9352   -9.0336    2.4831 C   0  0  0  0  0  0  0  0  0  0  0  0
   -6.6467  -10.2537    1.6364 C   0  0  0  0  0  0  0  0  0  0  0  0
   -6.9863   -8.5084    5.0587 S   0  0  0  0  0  0  0  0  0  0  0  0
   -5.9724   -9.3799    5.6976 O   0  0  0  0  0  0  0  0  0  0  0  0
   -6.3944   -7.2135    4.6451 O   0  0  0  0  0  0  0  0  0  0  0  0
   -8.2435   -8.1685    6.2317 C   0  0  0  0  0  0  0  0  0  0  0  0
   -8.9003   -9.2195    6.8014 C   0  0  0  0  0  0  0  0  0  0  0  0
   -9.9058   -8.9722    7.7383 C   0  0  0  0  0  0  0  0  0  0  0  0
  -10.2509   -7.7029    8.1010 C   0  0  0  0  0  0  0  0  0  0  0  0
   -9.5590   -6.6618    7.4986 C   0  0  0  0  0  0  0  0  0  0  0  0
   -8.5629   -6.8659    6.5719 C   0  0  0  0  0  0  0  0  0  0  0  0
  -11.2672   -7.4542    9.0448 N   0  0  0  0  0  0  0  0  0  0  0  0
  -11.9559   -8.5026    9.7559 C   0  0  0  0  0  0  0  0  0  0  0  0
  -13.3658   -8.0506   10.1149 C   0  0  0  0  0  0  0  0  0  0  0  0
  -13.4126   -6.8591   10.7871 O   0  0  0  0  0  0  0  0  0  0  0  0
  -12.2674   -6.1021   10.7257 C   0  0  0  0  0  0  0  0  0  0  0  0
  -11.6478   -6.0881    9.3278 C   0  0  0  0  0  0  0  0  0  0  0  0
   -7.4153  -12.3847    0.8899 C   0  0  0  0  0  0  0  0  0  0  0  0
  -10.8815  -14.6522   -0.3259 C   0  0  0  0  0  0  0  0  0  0  0  0
   -9.5985  -15.1188   -0.5203 C   0  0  0  0  0  0  0  0  0  0  0  0
   -8.5011  -14.3827   -0.1259 C   0  0  0  0  0  0  0  0  0  0  0  0
   -8.6274  -13.1416    0.4836 C   0  0  0  0  0  0  0  0  0  0  0  0
   -9.9098  -12.6732    0.6788 C   0  0  0  0  0  0  0  0  0  0  0  0
  -11.0084  -13.4081    0.2849 C   0  0  0  0  0  0  0  0  0  0  0  0
  -12.9850  -14.8881   -1.5270 O   0  0  0  0  0  0  0  0  0  0  0  0
  -12.0059  -15.4071   -0.7305 N   0  0  0  0  0  0  0  0  0  0  0  0
  -12.1065  -16.5794   -0.3493 O   0  0  0  0  0  0  0  0  0  0  0  0
 29 30  1  0  0  0
 30 31  2  0  0  0
 30 23  1  0  0  0
 23 24  2  0  0  0
 24 25  1  0  0  0
 25 26  2  0  0  0
 26 22  1  0  0  0
 22  1  1  0  0  0
  1  2  1  0  0  0
  2  3  1  0  0  0
  3  4  1  0  0  0
  4  5  1  0  0  0
  5  6  1  0  0  0
  4  7  1  0  0  0
  7  8  2  0  0  0
  7  9  2  0  0  0
  7 10  1  0  0  0
 10 11  2  0  0  0
 11 12  1  0  0  0
 12 13  2  0  0  0
 13 14  1  0  0  0
 14 15  2  0  0  0
 13 16  1  0  0  0
 16 17  1  0  0  0
 17 18  1  0  0  0
 18 19  1  0  0  0
 19 20  1  0  0  0
 20 21  1  0  0  0
 26 27  1  0  0  0
 27 28  2  0  0  0
 28 23  1  0  0  0
  6  1  1  0  0  0
 15 10  1  0  0  0
 21 16  1  0  0  0
M  CHG 1  29  -1
M  CHG 1  30   1
M  END
> <minimizedAffinity>
24.35674

> <CNNscore>
0.4339927435

> <CNNaffinity>
5.8294463158

> <CNN_VS>
2.5299375057

> <CNNaffinity_variance>
1.1513510942

$$$$
[H]c1c([H])c(S(=O)(=O)N2C([H])([H])C([H])([H])N(C([H])([H])c3c([H])c([H])c([N+](=O)[O-])c([H])c3[H])C([H])([H])C2([H])[H])c([H])c([H])c1N1C([H])([H])C([H])([H])OC([H])([H])C1([H])[H]


 31 34  0  0  0  0  0  0  0  0999 V2000
   -6.9293   -9.8943    2.7791 N   0  0  0  0  0  0  0  0  0  0  0  0
   -8.1873  -10.2335    3.3827 C   0  0  0  0  0  0  0  0  0  0  0  0
   -8.0105  -10.2444    4.8854 C   0  0  0  0  0  0  0  0  0  0  0  0
   -7.6658   -8.8901    5.2798 N   0  0  0  0  0  0  0  0  0  0  0  0
   -6.3917   -8.5315    4.7428 C   0  0  0  0  0  0  0  0  0  0  0  0
   -5.9003   -9.5045    3.6937 C   0  0  0  0  0  0  0  0  0  0  0  0
   -7.7291   -8.7237    6.9982 S   0  0  0  0  0  0  0  0  0  0  0  0
   -7.1268   -9.9369    7.5993 O   0  0  0  0  0  0  0  0  0  0  0  0
   -7.0121   -7.5001    7.4306 O   0  0  0  0  0  0  0  0  0  0  0  0
   -9.3863   -8.5940    7.5538 C   0  0  0  0  0  0  0  0  0  0  0  0
  -10.2685   -9.5713    7.1967 C   0  0  0  0  0  0  0  0  0  0  0  0
  -11.5941   -9.4881    7.6278 C   0  0  0  0  0  0  0  0  0  0  0  0
  -12.0331   -8.4521    8.3995 C   0  0  0  0  0  0  0  0  0  0  0  0
  -11.1047   -7.4789    8.7409 C   0  0  0  0  0  0  0  0  0  0  0  0
   -9.7910   -7.5264    8.3354 C   0  0  0  0  0  0  0  0  0  0  0  0
  -13.3714   -8.3679    8.8322 N   0  0  0  0  0  0  0  0  0  0  0  0
  -14.4401   -9.1352    8.2421 C   0  0  0  0  0  0  0  0  0  0  0  0
  -15.7579   -8.3821    8.3741 C   0  0  0  0  0  0  0  0  0  0  0  0
  -16.0506   -7.9957    9.6543 O   0  0  0  0  0  0  0  0  0  0  0  0
  -14.9956   -8.0228   10.5343 C   0  0  0  0  0  0  0  0  0  0  0  0
  -13.7059   -7.4765    9.9207 C   0  0  0  0  0  0  0  0  0  0  0  0
   -6.4879  -10.9510    1.8906 C   0  0  0  0  0  0  0  0  0  0  0  0
   -9.7732  -13.3530    0.4512 C   0  0  0  0  0  0  0  0  0  0  0  0
   -8.6899  -13.9096    1.0977 C   0  0  0  0  0  0  0  0  0  0  0  0
   -7.6481  -13.1288    1.5523 C   0  0  0  0  0  0  0  0  0  0  0  0
   -7.6335  -11.7505    1.3849 C   0  0  0  0  0  0  0  0  0  0  0  0
   -8.7161  -11.1919    0.7385 C   0  0  0  0  0  0  0  0  0  0  0  0
   -9.7588  -11.9714    0.2832 C   0  0  0  0  0  0  0  0  0  0  0  0
  -10.8851  -15.5022    0.1914 O   0  0  0  0  0  0  0  0  0  0  0  0
  -10.8407  -14.1539   -0.0146 N   0  0  0  0  0  0  0  0  0  0  0  0
  -11.7673  -13.6141   -0.6308 O   0  0  0  0  0  0  0  0  0  0  0  0
 29 30  1  0  0  0
 30 31  2  0  0  0
 30 23  1  0  0  0
 23 24  2  0  0  0
 24 25  1  0  0  0
 25 26  2  0  0  0
 26 22  1  0  0  0
 22  1  1  0  0  0
  1  2  1  0  0  0
  2  3  1  0  0  0
  3  4  1  0  0  0
  4  5  1  0  0  0
  5  6  1  0  0  0
  4  7  1  0  0  0
  7  8  2  0  0  0
  7  9  2  0  0  0
  7 10  1  0  0  0
 10 11  2  0  0  0
 11 12  1  0  0  0
 12 13  2  0  0  0
 13 14  1  0  0  0
 14 15  2  0  0  0
 13 16  1  0  0  0
 16 17  1  0  0  0
 17 18  1  0  0  0
 18 19  1  0  0  0
 19 20  1  0  0  0
 20 21  1  0  0  0
 26 27  1  0  0  0
 27 28  2  0  0  0
 28 23  1  0  0  0
  6  1  1  0  0  0
 15 10  1  0  0  0
 21 16  1  0  0  0
M  CHG 1  29  -1
M  CHG 1  30   1
M  END
> <minimizedAffinity>
17.10805

> <CNNscore>
0.4259973168

> <CNNaffinity>
6.1508131027

> <CNN_VS>
2.6202299595

> <CNNaffinity_variance>
1.0421967506

$$$$
[H]c1c([H])c(S(=O)(=O)N2C([H])([H])C([H])([H])N(C([H])([H])c3c([H])c([H])c([N+](=O)[O-])c([H])c3[H])C([H])([H])C2([H])[H])c([H])c([H])c1N1C([H])([H])C([H])([H])OC([H])([H])C1([H])[H]


 31 34  0  0  0  0  0  0  0  0999 V2000
  -13.9797   -9.2623    9.0846 N   0  0  0  0  0  0  0  0  0  0  0  0
  -15.0514   -8.3559    9.3880 C   0  0  0  0  0  0  0  0  0  0  0  0
  -15.4044   -7.5928    8.1300 C   0  0  0  0  0  0  0  0  0  0  0  0
  -15.8891   -8.5662    7.1677 N   0  0  0  0  0  0  0  0  0  0  0  0
  -14.8357   -9.4568    6.7972 C   0  0  0  0  0  0  0  0  0  0  0  0
  -13.6270   -9.3468    7.7004 C   0  0  0  0  0  0  0  0  0  0  0  0
  -16.5937   -7.7729    5.8044 S   0  0  0  0  0  0  0  0  0  0  0  0
  -17.9700   -8.2940    5.6307 O   0  0  0  0  0  0  0  0  0  0  0  0
  -16.5991   -6.3034    6.0013 O   0  0  0  0  0  0  0  0  0  0  0  0
  -15.6845   -8.1110    4.3446 C   0  0  0  0  0  0  0  0  0  0  0  0
  -15.7634   -9.3621    3.8065 C   0  0  0  0  0  0  0  0  0  0  0  0
  -15.0471   -9.6540    2.6439 C   0  0  0  0  0  0  0  0  0  0  0  0
  -14.2673   -8.7186    2.0287 C   0  0  0  0  0  0  0  0  0  0  0  0
  -14.2140   -7.4585    2.6076 C   0  0  0  0  0  0  0  0  0  0  0  0
  -14.9051   -7.1335    3.7518 C   0  0  0  0  0  0  0  0  0  0  0  0
  -13.5431   -9.0146    0.8568 N   0  0  0  0  0  0  0  0  0  0  0  0
  -13.0498   -8.0006   -0.0418 C   0  0  0  0  0  0  0  0  0  0  0  0
  -12.9674   -8.5544   -1.4588 C   0  0  0  0  0  0  0  0  0  0  0  0
  -12.2548   -9.7189   -1.5591 O   0  0  0  0  0  0  0  0  0  0  0  0
  -12.0348  -10.3795   -0.3745 C   0  0  0  0  0  0  0  0  0  0  0  0
  -13.2704  -10.3957    0.5263 C   0  0  0  0  0  0  0  0  0  0  0  0
  -12.8265   -8.9867    9.9182 C   0  0  0  0  0  0  0  0  0  0  0  0
  -11.9448   -4.7615    9.9885 C   0  0  0  0  0  0  0  0  0  0  0  0
  -13.0836   -5.2797   10.5683 C   0  0  0  0  0  0  0  0  0  0  0  0
  -13.3511   -6.6321   10.5379 C   0  0  0  0  0  0  0  0  0  0  0  0
  -12.4950   -7.5385    9.9267 C   0  0  0  0  0  0  0  0  0  0  0  0
  -11.3556   -7.0222    9.3463 C   0  0  0  0  0  0  0  0  0  0  0  0
  -11.0865   -5.6698    9.3757 C   0  0  0  0  0  0  0  0  0  0  0  0
  -10.5298   -2.8445    9.4931 O   0  0  0  0  0  0  0  0  0  0  0  0
  -11.6713   -3.3751   10.0199 N   0  0  0  0  0  0  0  0  0  0  0  0
  -12.4954   -2.6157   10.5433 O   0  0  0  0  0  0  0  0  0  0  0  0
 29 30  1  0  0  0
 30 31  2  0  0  0
 30 23  1  0  0  0
 23 24  2  0  0  0
 24 25  1  0  0  0
 25 26  2  0  0  0
 26 22  1  0  0  0
 22  1  1  0  0  0
  1  2  1  0  0  0
  2  3  1  0  0  0
  3  4  1  0  0  0
  4  5  1  0  0  0
  5  6  1  0  0  0
  4  7  1  0  0  0
  7  8  2  0  0  0
  7  9  2  0  0  0
  7 10  1  0  0  0
 10 11  2  0  0  0
 11 12  1  0  0  0
 12 13  2  0  0  0
 13 14  1  0  0  0
 14 15  2  0  0  0
 13 16  1  0  0  0
 16 17  1  0  0  0
 17 18  1  0  0  0
 18 19  1  0  0  0
 19 20  1  0  0  0
 20 21  1  0  0  0
 26 27  1  0  0  0
 27 28  2  0  0  0
 28 23  1  0  0  0
  6  1  1  0  0  0
 15 10  1  0  0  0
 21 16  1  0  0  0
M  CHG 1  29  -1
M  CHG 1  30   1
M  END
> <minimizedAffinity>
16.96932

> <CNNscore>
0.3514221311

> <CNNaffinity>
6.4226102829

> <CNN_VS>
2.2570474148

> <CNNaffinity_variance>
0.6313675046

$$$$
[H]c1c([H])c(S(=O)(=O)N2C([H])([H])C([H])([H])N(C([H])([H])c3c([H])c([H])c([N+](=O)[O-])c([H])c3[H])C([H])([H])C2([H])[H])c([H])c([H])c1N1C([H])([H])C([H])([H])OC([H])([H])C1([H])[H]


 31 34  0  0  0  0  0  0  0  0999 V2000
   -4.7451   -5.3256    6.2667 N   0  0  0  0  0  0  0  0  0  0  0  0
   -5.8050   -5.8637    5.4611 C   0  0  0  0  0  0  0  0  0  0  0  0
   -6.1893   -7.2176    6.0166 C   0  0  0  0  0  0  0  0  0  0  0  0
   -6.7032   -6.9939    7.3562 N   0  0  0  0  0  0  0  0  0  0  0  0
   -5.6632   -6.5079    8.2062 C   0  0  0  0  0  0  0  0  0  0  0  0
   -4.4302   -6.0794    7.4415 C   0  0  0  0  0  0  0  0  0  0  0  0
   -7.4417   -8.4298    7.9705 S   0  0  0  0  0  0  0  0  0  0  0  0
   -6.9670   -9.5741    7.1575 O   0  0  0  0  0  0  0  0  0  0  0  0
   -7.1077   -8.6163    9.4030 O   0  0  0  0  0  0  0  0  0  0  0  0
   -9.1871   -8.3417    7.8380 C   0  0  0  0  0  0  0  0  0  0  0  0
   -9.8598   -9.4405    7.3896 C   0  0  0  0  0  0  0  0  0  0  0  0
  -11.2508   -9.3928    7.2757 C   0  0  0  0  0  0  0  0  0  0  0  0
  -11.9585   -8.2728    7.6019 C   0  0  0  0  0  0  0  0  0  0  0  0
  -11.2371   -7.1770    8.0540 C   0  0  0  0  0  0  0  0  0  0  0  0
   -9.8672   -7.1861    8.1794 C   0  0  0  0  0  0  0  0  0  0  0  0
  -13.3618   -8.2248    7.4847 N   0  0  0  0  0  0  0  0  0  0  0  0
  -14.0776   -8.7715    6.3586 C   0  0  0  0  0  0  0  0  0  0  0  0
  -15.3759   -8.0041    6.1430 C   0  0  0  0  0  0  0  0  0  0  0  0
  -16.1635   -7.9208    7.2595 O   0  0  0  0  0  0  0  0  0  0  0  0
  -15.5363   -8.2131    8.4467 C   0  0  0  0  0  0  0  0  0  0  0  0
  -14.1366   -7.6039    8.5360 C   0  0  0  0  0  0  0  0  0  0  0  0
   -3.5688   -5.0710    5.4590 C   0  0  0  0  0  0  0  0  0  0  0  0
   -3.8147   -1.1818    3.6021 C   0  0  0  0  0  0  0  0  0  0  0  0
   -4.0993   -1.3727    4.9378 C   0  0  0  0  0  0  0  0  0  0  0  0
   -4.0157   -2.6215    5.5167 C   0  0  0  0  0  0  0  0  0  0  0  0
   -3.6434   -3.7457    4.7918 C   0  0  0  0  0  0  0  0  0  0  0  0
   -3.3584   -3.5568    3.4557 C   0  0  0  0  0  0  0  0  0  0  0  0
   -3.4416   -2.3085    2.8752 C   0  0  0  0  0  0  0  0  0  0  0  0
   -4.0806    1.2330    3.7459 O   0  0  0  0  0  0  0  0  0  0  0  0
   -3.9008    0.0985    3.0093 N   0  0  0  0  0  0  0  0  0  0  0  0
   -3.8100    0.1942    1.7795 O   0  0  0  0  0  0  0  0  0  0  0  0
 29 30  1  0  0  0
 30 31  2  0  0  0
 30 23  1  0  0  0
 23 24  2  0  0  0
 24 25  1  0  0  0
 25 26  2  0  0  0
 26 22  1  0  0  0
 22  1  1  0  0  0
  1  2  1  0  0  0
  2  3  1  0  0  0
  3  4  1  0  0  0
  4  5  1  0  0  0
  5  6  1  0  0  0
  4  7  1  0  0  0
  7  8  2  0  0  0
  7  9  2  0  0  0
  7 10  1  0  0  0
 10 11  2  0  0  0
 11 12  1  0  0  0
 12 13  2  0  0  0
 13 14  1  0  0  0
 14 15  2  0  0  0
 13 16  1  0  0  0
 16 17  1  0  0  0
 17 18  1  0  0  0
 18 19  1  0  0  0
 19 20  1  0  0  0
 20 21  1  0  0  0
 26 27  1  0  0  0
 27 28  2  0  0  0
 28 23  1  0  0  0
  6  1  1  0  0  0
 15 10  1  0  0  0
 21 16  1  0  0  0
M  CHG 1  29  -1
M  CHG 1  30   1
M  END
> <minimizedAffinity>
-7.11533

> <CNNscore>
0.3315882385

> <CNNaffinity>
5.9330282211

> <CNN_VS>
1.9673223495

> <CNNaffinity_variance>
0.1807257086

$$$$
[H]O[C@@]1([H])C([H])([H])C([H])([H])[C@]2(C([H])([H])[H])C3([H])C([H])([H])C([H])([H])[C@@]4(C([H])([H])[H])C([H])(C([H])([H])C([H])([H])[C@]4([H])c4c([H])nc([H])c([H])c4[H])C3([H])C([H])([H])C([H])([H])C2([H])C1([H])[H]


 27 31  0  0  0  0  0  0  0  0999 V2000
  -14.4166   -8.7795    7.9447 C   0  0  0  0  0  0  0  0  0  0  0  0
  -13.7407   -8.1504    6.7873 C   0  0  0  0  0  0  0  0  0  0  0  0
  -13.0211   -9.1399    5.9494 C   0  0  0  0  0  0  0  0  0  0  0  0
  -11.5031   -8.9970    6.0269 C   0  0  0  0  0  0  0  0  0  0  0  0
  -11.0520   -8.8814    7.4906 C   0  0  0  0  0  0  0  0  0  0  0  0
  -11.7356   -7.7269    8.1141 C   0  0  0  0  0  0  0  0  0  0  0  0
  -10.7835   -6.6404    8.5816 C   0  0  0  0  0  0  0  0  0  0  0  0
   -9.8017   -7.3414    9.4924 C   0  0  0  0  0  0  0  0  0  0  0  0
   -8.8987   -8.1680    8.6062 C   0  0  0  0  0  0  0  0  0  0  0  0
   -7.8109   -7.2023    8.1146 C   0  0  0  0  0  0  0  0  0  0  0  0
   -6.7693   -7.9057    7.2999 C   0  0  0  0  0  0  0  0  0  0  0  0
   -5.8877   -8.6480    8.0882 O   0  0  0  0  0  0  0  0  0  0  0  0
   -7.4526   -8.7350    6.2643 C   0  0  0  0  0  0  0  0  0  0  0  0
   -8.9523   -8.4175    6.1896 C   0  0  0  0  0  0  0  0  0  0  0  0
   -9.5758   -8.8913    7.5125 C   0  0  0  0  0  0  0  0  0  0  0  0
   -9.1353  -10.3658    7.6028 C   0  0  0  0  0  0  0  0  0  0  0  0
  -12.7229   -7.0901    7.2022 C   0  0  0  0  0  0  0  0  0  0  0  0
  -13.5976   -6.0546    7.8104 C   0  0  0  0  0  0  0  0  0  0  0  0
  -14.8158   -6.0514    6.8778 C   0  0  0  0  0  0  0  0  0  0  0  0
  -14.7052   -7.2735    6.0273 C   0  0  0  0  0  0  0  0  0  0  0  0
   -6.0437   -8.4988    9.0633 H   0  0  0  0  0  0  0  0  0  0  0  0
  -15.9543   -7.8987    5.6282 C   0  0  0  0  0  0  0  0  0  0  0  0
  -16.1255   -8.6354    4.4843 C   0  0  0  0  0  0  0  0  0  0  0  0
  -17.3280   -9.2121    4.1315 C   0  0  0  0  0  0  0  0  0  0  0  0
  -18.4229   -9.0517    4.9557 C   0  0  0  0  0  0  0  0  0  0  0  0
  -18.2692   -8.3224    6.0966 N   0  0  0  0  0  0  0  0  0  0  0  0
  -17.0935   -7.7626    6.4344 C   0  0  0  0  0  0  0  0  0  0  0  0
  2  1  1  0  0  0
  2  3  1  0  0  0
  3  4  1  0  0  0
  4  5  1  0  0  0
  5  6  1  0  0  0
  6  7  1  0  0  0
  7  8  1  0  0  0
  8  9  1  0  0  0
  9 10  1  0  0  0
 10 11  1  0  0  0
 11 12  1  0  0  0
 11 13  1  0  0  0
 13 14  1  0  0  0
 14 15  1  0  0  0
 15 16  1  0  0  0
  6 17  1  0  0  0
 17 18  1  0  0  0
 18 19  1  0  0  0
 19 20  1  0  0  0
 20 22  1  0  0  0
 22 23  2  0  0  0
 23 24  1  0  0  0
 24 25  2  0  0  0
 25 26  1  0  0  0
 26 27  2  0  0  0
 17  2  1  0  0  0
 27 22  1  0  0  0
 20  2  1  0  0  0
 15  5  1  0  0  0
 15  9  1  0  0  0
 12 21  1  0  0  0
M  END
> <minimizedAffinity>
-2.65881

> <CNNscore>
0.3984668255

> <CNNaffinity>
6.8301429749

> <CNN_VS>
2.7215852737

> <CNNaffinity_variance>
0.4707103670

$$$$
[H]O[C@@]1([H])C([H])([H])C([H])([H])[C@]2(C([H])([H])[H])C3([H])C([H])([H])C([H])([H])[C@@]4(C([H])([H])[H])C([H])(C([H])([H])C([H])([H])[C@]4([H])c4c([H])nc([H])c([H])c4[H])C3([H])C([H])([H])C([H])([H])C2([H])C1([H])[H]


 27 31  0  0  0  0  0  0  0  0999 V2000
  -12.6870   -8.2372   10.1156 C   0  0  0  0  0  0  0  0  0  0  0  0
  -12.5939   -7.0042    9.3013 C   0  0  0  0  0  0  0  0  0  0  0  0
  -13.8345   -6.1942    9.3622 C   0  0  0  0  0  0  0  0  0  0  0  0
  -14.6014   -6.1757    8.0423 C   0  0  0  0  0  0  0  0  0  0  0  0
  -14.7400   -7.6005    7.4856 C   0  0  0  0  0  0  0  0  0  0  0  0
  -13.3908   -8.1840    7.3180 C   0  0  0  0  0  0  0  0  0  0  0  0
  -13.0532   -8.5237    5.8771 C   0  0  0  0  0  0  0  0  0  0  0  0
  -14.1760   -9.4217    5.4102 C   0  0  0  0  0  0  0  0  0  0  0  0
  -15.3922   -8.5423    5.2321 C   0  0  0  0  0  0  0  0  0  0  0  0
  -15.2518   -7.9268    3.8325 C   0  0  0  0  0  0  0  0  0  0  0  0
  -16.4472   -7.1026    3.4647 C   0  0  0  0  0  0  0  0  0  0  0  0
  -17.5476   -7.8870    3.1133 O   0  0  0  0  0  0  0  0  0  0  0  0
  -16.7442   -6.1647    4.5868 C   0  0  0  0  0  0  0  0  0  0  0  0
  -15.6139   -6.1545    5.6250 C   0  0  0  0  0  0  0  0  0  0  0  0
  -15.6078   -7.5391    6.2928 C   0  0  0  0  0  0  0  0  0  0  0  0
  -17.0605   -7.7017    6.7823 C   0  0  0  0  0  0  0  0  0  0  0  0
  -12.3170   -7.2895    7.8268 C   0  0  0  0  0  0  0  0  0  0  0  0
  -10.9535   -7.8765    7.8843 C   0  0  0  0  0  0  0  0  0  0  0  0
  -10.2603   -7.0164    8.9491 C   0  0  0  0  0  0  0  0  0  0  0  0
  -11.3353   -6.2438    9.6395 C   0  0  0  0  0  0  0  0  0  0  0  0
  -17.3152   -8.8573    3.0706 H   0  0  0  0  0  0  0  0  0  0  0  0
  -11.1235   -5.9586   11.0482 C   0  0  0  0  0  0  0  0  0  0  0  0
  -12.1130   -5.5999   11.9272 C   0  0  0  0  0  0  0  0  0  0  0  0
  -11.8771   -5.3304   13.2594 C   0  0  0  0  0  0  0  0  0  0  0  0
  -10.5908   -5.4207   13.7505 C   0  0  0  0  0  0  0  0  0  0  0  0
   -9.5960   -5.7764   12.8896 N   0  0  0  0  0  0  0  0  0  0  0  0
   -9.8332   -6.0376   11.5915 C   0  0  0  0  0  0  0  0  0  0  0  0
  2  1  1  0  0  0
  2  3  1  0  0  0
  3  4  1  0  0  0
  4  5  1  0  0  0
  5  6  1  0  0  0
  6  7  1  0  0  0
  7  8  1  0  0  0
  8  9  1  0  0  0
  9 10  1  0  0  0
 10 11  1  0  0  0
 11 12  1  0  0  0
 11 13  1  0  0  0
 13 14  1  0  0  0
 14 15  1  0  0  0
 15 16  1  0  0  0
  6 17  1  0  0  0
 17 18  1  0  0  0
 18 19  1  0  0  0
 19 20  1  0  0  0
 20 22  1  0  0  0
 22 23  2  0  0  0
 23 24  1  0  0  0
 24 25  2  0  0  0
 25 26  1  0  0  0
 26 27  2  0  0  0
 17  2  1  0  0  0
 27 22  1  0  0  0
 20  2  1  0  0  0
 15  5  1  0  0  0
 15  9  1  0  0  0
 12 21  1  0  0  0
M  END
> <minimizedAffinity>
-1.77794

> <CNNscore>
0.3723714948

> <CNNaffinity>
6.7229590416

> <CNN_VS>
2.5034382343

> <CNNaffinity_variance>
0.2804557979

$$$$
[H]O[C@@]1([H])C([H])([H])C([H])([H])[C@]2(C([H])([H])[H])C3([H])C([H])([H])C([H])([H])[C@@]4(C([H])([H])[H])C([H])(C([H])([H])C([H])([H])[C@]4([H])c4c([H])nc([H])c([H])c4[H])C3([H])C([H])([H])C([H])([H])C2([H])C1([H])[H]


 27 31  0  0  0  0  0  0  0  0999 V2000
  -16.1538   -7.8475    8.2951 C   0  0  0  0  0  0  0  0  0  0  0  0
  -15.4888   -8.1665    7.0113 C   0  0  0  0  0  0  0  0  0  0  0  0
  -14.9558   -9.5499    6.9817 C   0  0  0  0  0  0  0  0  0  0  0  0
  -13.4301   -9.6026    6.9857 C   0  0  0  0  0  0  0  0  0  0  0  0
  -12.8669   -8.6744    8.0722 C   0  0  0  0  0  0  0  0  0  0  0  0
  -13.3591   -7.3000    7.8322 C   0  0  0  0  0  0  0  0  0  0  0  0
  -12.2511   -6.3020    7.5460 C   0  0  0  0  0  0  0  0  0  0  0  0
  -11.3009   -6.4215    8.7156 C   0  0  0  0  0  0  0  0  0  0  0  0
  -10.5698   -7.7339    8.5509 C   0  0  0  0  0  0  0  0  0  0  0  0
   -9.4094   -7.4391    7.5897 C   0  0  0  0  0  0  0  0  0  0  0  0
   -8.5210   -8.6313    7.4079 C   0  0  0  0  0  0  0  0  0  0  0  0
   -7.6837   -8.8442    8.5047 O   0  0  0  0  0  0  0  0  0  0  0  0
   -9.3712   -9.8170    7.0945 C   0  0  0  0  0  0  0  0  0  0  0  0
  -10.8225   -9.4081    6.8079 C   0  0  0  0  0  0  0  0  0  0  0  0
  -11.4051   -8.8741    8.1264 C   0  0  0  0  0  0  0  0  0  0  0  0
  -11.1427  -10.0233    9.1198 C   0  0  0  0  0  0  0  0  0  0  0  0
  -14.3227   -7.2303    6.7014 C   0  0  0  0  0  0  0  0  0  0  0  0
  -15.0196   -5.9310    6.5191 C   0  0  0  0  0  0  0  0  0  0  0  0
  -16.2906   -6.3333    5.7597 C   0  0  0  0  0  0  0  0  0  0  0  0
  -16.3898   -7.8202    5.8516 C   0  0  0  0  0  0  0  0  0  0  0  0
   -7.7516   -8.1063    9.1743 H   0  0  0  0  0  0  0  0  0  0  0  0
  -17.7308   -8.3769    5.8994 C   0  0  0  0  0  0  0  0  0  0  0  0
  -18.4641   -8.5433    7.0462 C   0  0  0  0  0  0  0  0  0  0  0  0
  -19.7346   -9.0806    7.0577 C   0  0  0  0  0  0  0  0  0  0  0  0
  -20.3129   -9.4756    5.8687 C   0  0  0  0  0  0  0  0  0  0  0  0
  -19.5971   -9.3166    4.7200 N   0  0  0  0  0  0  0  0  0  0  0  0
  -18.3584   -8.7920    4.7162 C   0  0  0  0  0  0  0  0  0  0  0  0
  2  1  1  0  0  0
  2  3  1  0  0  0
  3  4  1  0  0  0
  4  5  1  0  0  0
  5  6  1  0  0  0
  6  7  1  0  0  0
  7  8  1  0  0  0
  8  9  1  0  0  0
  9 10  1  0  0  0
 10 11  1  0  0  0
 11 12  1  0  0  0
 11 13  1  0  0  0
 13 14  1  0  0  0
 14 15  1  0  0  0
 15 16  1  0  0  0
  6 17  1  0  0  0
 17 18  1  0  0  0
 18 19  1  0  0  0
 19 20  1  0  0  0
 20 22  1  0  0  0
 22 23  2  0  0  0
 23 24  1  0  0  0
 24 25  2  0  0  0
 25 26  1  0  0  0
 26 27  2  0  0  0
 17  2  1  0  0  0
 27 22  1  0  0  0
 20  2  1  0  0  0
 15  5  1  0  0  0
 15  9  1  0  0  0
 12 21  1  0  0  0
M  END
> <minimizedAffinity>
2.17583

> <CNNscore>
0.3700687289

> <CNNaffinity>
6.6539382935

> <CNN_VS>
2.4624145031

> <CNNaffinity_variance>
0.4333475232

$$$$
[H]O[C@@]1([H])C([H])([H])C([H])([H])[C@]2(C([H])([H])[H])C3([H])C([H])([H])C([H])([H])[C@@]4(C([H])([H])[H])C([H])(C([H])([H])C([H])([H])[C@]4([H])c4c([H])nc([H])c([H])c4[H])C3([H])C([H])([H])C([H])([H])C2([H])C1([H])[H]


 27 31  0  0  0  0  0  0  0  0999 V2000
  -13.8453   -6.5091    5.4886 C   0  0  0  0  0  0  0  0  0  0  0  0
  -14.2933   -7.3636    6.6116 C   0  0  0  0  0  0  0  0  0  0  0  0
  -15.1329   -6.6221    7.5833 C   0  0  0  0  0  0  0  0  0  0  0  0
  -14.4452   -6.4135    8.9302 C   0  0  0  0  0  0  0  0  0  0  0  0
  -13.0145   -5.8939    8.7242 C   0  0  0  0  0  0  0  0  0  0  0  0
  -12.2709   -6.8560    7.8814 C   0  0  0  0  0  0  0  0  0  0  0  0
  -11.0773   -7.4787    8.5836 C   0  0  0  0  0  0  0  0  0  0  0  0
  -10.2480   -6.3096    9.0636 C   0  0  0  0  0  0  0  0  0  0  0  0
  -10.9918   -5.6962   10.2275 C   0  0  0  0  0  0  0  0  0  0  0  0
  -10.5942   -6.5303   11.4537 C   0  0  0  0  0  0  0  0  0  0  0  0
  -11.1760   -5.9745   12.7170 C   0  0  0  0  0  0  0  0  0  0  0  0
  -10.5028   -4.8330   13.1567 O   0  0  0  0  0  0  0  0  0  0  0  0
  -12.6343   -5.7373   12.5073 C   0  0  0  0  0  0  0  0  0  0  0  0
  -13.1215   -6.3595   11.1916 C   0  0  0  0  0  0  0  0  0  0  0  0
  -12.4520   -5.5752   10.0515 C   0  0  0  0  0  0  0  0  0  0  0  0
  -12.8266   -4.1123   10.3613 C   0  0  0  0  0  0  0  0  0  0  0  0
  -13.1298   -7.9683    7.3946 C   0  0  0  0  0  0  0  0  0  0  0  0
  -12.5193   -8.8668    6.3812 C   0  0  0  0  0  0  0  0  0  0  0  0
  -13.7447   -9.4580    5.6722 C   0  0  0  0  0  0  0  0  0  0  0  0
  -14.9178   -8.6341    6.0896 C   0  0  0  0  0  0  0  0  0  0  0  0
   -9.6893   -4.6457   12.6085 H   0  0  0  0  0  0  0  0  0  0  0  0
  -15.9732   -8.4665    5.1054 C   0  0  0  0  0  0  0  0  0  0  0  0
  -15.7878   -8.5235    3.7479 C   0  0  0  0  0  0  0  0  0  0  0  0
  -16.8118   -8.3548    2.8391 C   0  0  0  0  0  0  0  0  0  0  0  0
  -18.0912   -8.1165    3.2979 C   0  0  0  0  0  0  0  0  0  0  0  0
  -18.2921   -8.0572    4.6445 N   0  0  0  0  0  0  0  0  0  0  0  0
  -17.2886   -8.2225    5.5251 C   0  0  0  0  0  0  0  0  0  0  0  0
  2  1  1  0  0  0
  2  3  1  0  0  0
  3  4  1  0  0  0
  4  5  1  0  0  0
  5  6  1  0  0  0
  6  7  1  0  0  0
  7  8  1  0  0  0
  8  9  1  0  0  0
  9 10  1  0  0  0
 10 11  1  0  0  0
 11 12  1  0  0  0
 11 13  1  0  0  0
 13 14  1  0  0  0
 14 15  1  0  0  0
 15 16  1  0  0  0
  6 17  1  0  0  0
 17 18  1  0  0  0
 18 19  1  0  0  0
 19 20  1  0  0  0
 20 22  1  0  0  0
 22 23  2  0  0  0
 23 24  1  0  0  0
 24 25  2  0  0  0
 25 26  1  0  0  0
 26 27  2  0  0  0
 17  2  1  0  0  0
 27 22  1  0  0  0
 20  2  1  0  0  0
 15  5  1  0  0  0
 15  9  1  0  0  0
 12 21  1  0  0  0
M  END
> <minimizedAffinity>
1.60737

> <CNNscore>
0.3308882415

> <CNNaffinity>
6.8031425476

> <CNN_VS>
2.2510797977

> <CNNaffinity_variance>
0.3763394058

$$$$
[H]O[C@@]1([H])C([H])([H])C([H])([H])[C@]2(C([H])([H])[H])C3([H])C([H])([H])C([H])([H])[C@@]4(C([H])([H])[H])C([H])(C([H])([H])C([H])([H])[C@]4([H])c4c([H])nc([H])c([H])c4[H])C3([H])C([H])([H])C([H])([H])C2([H])C1([H])[H]


 27 31  0  0  0  0  0  0  0  0999 V2000
   -6.7044   -6.8907    6.1423 C   0  0  0  0  0  0  0  0  0  0  0  0
   -6.8453   -7.8958    7.2203 C   0  0  0  0  0  0  0  0  0  0  0  0
   -7.4388   -9.1645    6.7332 C   0  0  0  0  0  0  0  0  0  0  0  0
   -8.8460   -9.4111    7.2712 C   0  0  0  0  0  0  0  0  0  0  0  0
   -9.7060   -8.1481    7.1152 C   0  0  0  0  0  0  0  0  0  0  0  0
   -9.0466   -7.0278    7.8216 C   0  0  0  0  0  0  0  0  0  0  0  0
   -9.8703   -6.4660    8.9668 C   0  0  0  0  0  0  0  0  0  0  0  0
  -11.2052   -6.1085    8.3541 C   0  0  0  0  0  0  0  0  0  0  0  0
  -11.9225   -7.4107    8.0817 C   0  0  0  0  0  0  0  0  0  0  0  0
  -12.5920   -7.7954    9.4087 C   0  0  0  0  0  0  0  0  0  0  0  0
  -13.4370   -9.0243    9.2697 C   0  0  0  0  0  0  0  0  0  0  0  0
  -14.6479   -8.7682    8.6235 O   0  0  0  0  0  0  0  0  0  0  0  0
  -12.6338  -10.0816    8.5885 C   0  0  0  0  0  0  0  0  0  0  0  0
  -11.1560   -9.6821    8.4794 C   0  0  0  0  0  0  0  0  0  0  0  0
  -11.0862   -8.4867    7.5153 C   0  0  0  0  0  0  0  0  0  0  0  0
  -11.8071   -9.0061    6.2556 C   0  0  0  0  0  0  0  0  0  0  0  0
   -7.7185   -7.4065    8.3738 C   0  0  0  0  0  0  0  0  0  0  0  0
   -6.8996   -6.2942    8.9208 C   0  0  0  0  0  0  0  0  0  0  0  0
   -5.4722   -6.8492    8.8293 C   0  0  0  0  0  0  0  0  0  0  0  0
   -5.5406   -8.0610    7.9599 C   0  0  0  0  0  0  0  0  0  0  0  0
  -14.7829   -7.7926    8.4578 H   0  0  0  0  0  0  0  0  0  0  0  0
   -4.3738   -8.3339    7.1384 C   0  0  0  0  0  0  0  0  0  0  0  0
   -4.4210   -8.8010    5.8499 C   0  0  0  0  0  0  0  0  0  0  0  0
   -3.2926   -9.0551    5.0981 C   0  0  0  0  0  0  0  0  0  0  0  0
   -2.0476   -8.8351    5.6508 C   0  0  0  0  0  0  0  0  0  0  0  0
   -1.9837   -8.3708    6.9305 N   0  0  0  0  0  0  0  0  0  0  0  0
   -3.0883   -8.1252    7.6580 C   0  0  0  0  0  0  0  0  0  0  0  0
  2  1  1  0  0  0
  2  3  1  0  0  0
  3  4  1  0  0  0
  4  5  1  0  0  0
  5  6  1  0  0  0
  6  7  1  0  0  0
  7  8  1  0  0  0
  8  9  1  0  0  0
  9 10  1  0  0  0
 10 11  1  0  0  0
 11 12  1  0  0  0
 11 13  1  0  0  0
 13 14  1  0  0  0
 14 15  1  0  0  0
 15 16  1  0  0  0
  6 17  1  0  0  0
 17 18  1  0  0  0
 18 19  1  0  0  0
 19 20  1  0  0  0
 20 22  1  0  0  0
 22 23  2  0  0  0
 23 24  1  0  0  0
 24 25  2  0  0  0
 25 26  1  0  0  0
 26 27  2  0  0  0
 17  2  1  0  0  0
 27 22  1  0  0  0
 20  2  1  0  0  0
 15  5  1  0  0  0
 15  9  1  0  0  0
 12 21  1  0  0  0
M  END
> <minimizedAffinity>
-1.86669

> <CNNscore>
0.3260788620

> <CNNaffinity>
6.2398834229

> <CNN_VS>
2.0346941948

> <CNNaffinity_variance>
0.3261483312

$$$$
[H]O[C@@]1([H])C([H])([H])C([H])([H])[C@]2(C([H])([H])[H])C3([H])C([H])([H])C([H])([H])[C@@]4(C([H])([H])[H])C([H])(C([H])([H])C([H])([H])[C@]4([H])c4c([H])nc([H])c([H])c4[H])C3([H])C([H])([H])C([H])([H])C2([H])C1([H])[H]


 27 31  0  0  0  0  0  0  0  0999 V2000
  -12.8639   -6.7161    8.7728 C   0  0  0  0  0  0  0  0  0  0  0  0
  -12.5594   -7.6885    7.6985 C   0  0  0  0  0  0  0  0  0  0  0  0
  -12.0110   -8.9601    8.2289 C   0  0  0  0  0  0  0  0  0  0  0  0
  -10.5396   -9.1681    7.8790 C   0  0  0  0  0  0  0  0  0  0  0  0
   -9.7341   -7.8957    8.1810 C   0  0  0  0  0  0  0  0  0  0  0  0
  -10.3155   -6.7674    7.4208 C   0  0  0  0  0  0  0  0  0  0  0  0
   -9.3574   -6.1604    6.4113 C   0  0  0  0  0  0  0  0  0  0  0  0
   -8.1242   -5.7978    7.2068 C   0  0  0  0  0  0  0  0  0  0  0  0
   -7.4236   -7.0948    7.5403 C   0  0  0  0  0  0  0  0  0  0  0  0
   -6.5746   -7.4314    6.3060 C   0  0  0  0  0  0  0  0  0  0  0  0
   -5.7311   -8.6493    6.5264 C   0  0  0  0  0  0  0  0  0  0  0  0
   -4.6231   -8.3910    7.3358 O   0  0  0  0  0  0  0  0  0  0  0  0
   -6.5967   -9.7384    7.0665 C   0  0  0  0  0  0  0  0  0  0  0  0
   -8.0836   -9.3668    6.9859 C   0  0  0  0  0  0  0  0  0  0  0  0
   -8.3061   -8.1999    7.9617 C   0  0  0  0  0  0  0  0  0  0  0  0
   -7.7501   -8.7419    9.2934 C   0  0  0  0  0  0  0  0  0  0  0  0
  -11.5497   -7.1529    6.6857 C   0  0  0  0  0  0  0  0  0  0  0  0
  -12.3103   -6.0397    6.0617 C   0  0  0  0  0  0  0  0  0  0  0  0
  -13.7255   -6.6208    5.9464 C   0  0  0  0  0  0  0  0  0  0  0  0
  -13.7497   -7.8549    6.7863 C   0  0  0  0  0  0  0  0  0  0  0  0
   -4.5314   -7.4183    7.5427 H   0  0  0  0  0  0  0  0  0  0  0  0
  -15.0102   -8.1700    7.4363 C   0  0  0  0  0  0  0  0  0  0  0  0
  -15.1290   -8.8943    8.5947 C   0  0  0  0  0  0  0  0  0  0  0  0
  -16.3431   -9.1807    9.1839 C   0  0  0  0  0  0  0  0  0  0  0  0
  -17.5050   -8.7255    8.5951 C   0  0  0  0  0  0  0  0  0  0  0  0
  -17.4039   -8.0039    7.4434 N   0  0  0  0  0  0  0  0  0  0  0  0
  -16.2165   -7.7284    6.8742 C   0  0  0  0  0  0  0  0  0  0  0  0
  2  1  1  0  0  0
  2  3  1  0  0  0
  3  4  1  0  0  0
  4  5  1  0  0  0
  5  6  1  0  0  0
  6  7  1  0  0  0
  7  8  1  0  0  0
  8  9  1  0  0  0
  9 10  1  0  0  0
 10 11  1  0  0  0
 11 12  1  0  0  0
 11 13  1  0  0  0
 13 14  1  0  0  0
 14 15  1  0  0  0
 15 16  1  0  0  0
  6 17  1  0  0  0
 17 18  1  0  0  0
 18 19  1  0  0  0
 19 20  1  0  0  0
 20 22  1  0  0  0
 22 23  2  0  0  0
 23 24  1  0  0  0
 24 25  2  0  0  0
 25 26  1  0  0  0
 26 27  2  0  0  0
 17  2  1  0  0  0
 27 22  1  0  0  0
 20  2  1  0  0  0
 15  5  1  0  0  0
 15  9  1  0  0  0
 12 21  1  0  0  0
M  END
> <minimizedAffinity>
4.69171

> <CNNscore>
0.3145198226

> <CNNaffinity>
6.5937867165

> <CNN_VS>
2.0738766193

> <CNNaffinity_variance>
0.9371312261

$$$$
[H]O[C@@]1([H])C([H])([H])C([H])([H])[C@]2(C([H])([H])[H])C3([H])C([H])([H])C([H])([H])[C@@]4(C([H])([H])[H])C([H])(C([H])([H])C([H])([H])[C@]4([H])c4c([H])nc([H])c([H])c4[H])C3([H])C([H])([H])C([H])([H])C2([H])C1([H])[H]


 27 31  0  0  0  0  0  0  0  0999 V2000
   -9.5722   -6.8389    6.4448 C   0  0  0  0  0  0  0  0  0  0  0  0
   -8.9847   -7.3981    7.6835 C   0  0  0  0  0  0  0  0  0  0  0  0
   -8.3560   -6.3549    8.5293 C   0  0  0  0  0  0  0  0  0  0  0  0
   -6.8346   -6.4678    8.5852 C   0  0  0  0  0  0  0  0  0  0  0  0
   -6.2600   -6.6418    7.1714 C   0  0  0  0  0  0  0  0  0  0  0  0
   -6.8678   -7.8389    6.5499 C   0  0  0  0  0  0  0  0  0  0  0  0
   -5.8604   -8.9249    6.2163 C   0  0  0  0  0  0  0  0  0  0  0  0
   -4.8183   -8.2457    5.3573 C   0  0  0  0  0  0  0  0  0  0  0  0
   -4.0080   -7.3589    6.2745 C   0  0  0  0  0  0  0  0  0  0  0  0
   -2.9482   -8.2764    6.9009 C   0  0  0  0  0  0  0  0  0  0  0  0
   -1.9916   -7.5129    7.7643 C   0  0  0  0  0  0  0  0  0  0  0  0
   -1.0604   -6.7890    7.0169 O   0  0  0  0  0  0  0  0  0  0  0  0
   -2.7743   -6.6513    8.6982 C   0  0  0  0  0  0  0  0  0  0  0  0
   -4.2690   -6.9979    8.6633 C   0  0  0  0  0  0  0  0  0  0  0  0
   -4.7876   -6.6004    7.2718 C   0  0  0  0  0  0  0  0  0  0  0  0
   -4.3678   -5.1224    7.1471 C   0  0  0  0  0  0  0  0  0  0  0  0
   -7.9167   -8.4540    7.4064 C   0  0  0  0  0  0  0  0  0  0  0  0
   -8.7183   -9.5358    6.7785 C   0  0  0  0  0  0  0  0  0  0  0  0
  -10.0103   -9.5222    7.6057 C   0  0  0  0  0  0  0  0  0  0  0  0
   -9.9936   -8.2594    8.4022 C   0  0  0  0  0  0  0  0  0  0  0  0
   -1.1311   -6.9871    6.0407 H   0  0  0  0  0  0  0  0  0  0  0  0
  -11.2830   -7.6440    8.6654 C   0  0  0  0  0  0  0  0  0  0  0  0
  -11.5069   -6.6828    9.6176 C   0  0  0  0  0  0  0  0  0  0  0  0
  -12.7463   -6.1218    9.8459 C   0  0  0  0  0  0  0  0  0  0  0  0
  -13.8251   -6.5338    9.0906 C   0  0  0  0  0  0  0  0  0  0  0  0
  -13.6190   -7.4883    8.1400 N   0  0  0  0  0  0  0  0  0  0  0  0
  -12.4075   -8.0313    7.9227 C   0  0  0  0  0  0  0  0  0  0  0  0
  2  1  1  0  0  0
  2  3  1  0  0  0
  3  4  1  0  0  0
  4  5  1  0  0  0
  5  6  1  0  0  0
  6  7  1  0  0  0
  7  8  1  0  0  0
  8  9  1  0  0  0
  9 10  1  0  0  0
 10 11  1  0  0  0
 11 12  1  0  0  0
 11 13  1  0  0  0
 13 14  1  0  0  0
 14 15  1  0  0  0
 15 16  1  0  0  0
  6 17  1  0  0  0
 17 18  1  0  0  0
 18 19  1  0  0  0
 19 20  1  0  0  0
 20 22  1  0  0  0
 22 23  2  0  0  0
 23 24  1  0  0  0
 24 25  2  0  0  0
 25 26  1  0  0  0
 26 27  2  0  0  0
 17  2  1  0  0  0
 27 22  1  0  0  0
 20  2  1  0  0  0
 15  5  1  0  0  0
 15  9  1  0  0  0
 12 21  1  0  0  0
M  END
> <minimizedAffinity>
-4.48363

> <CNNscore>
0.2553696036

> <CNNaffinity>
6.2109937668

> <CNN_VS>
1.5860990286

> <CNNaffinity_variance>
0.2758988738

$$$$
[H]O[C@@]1([H])C([H])([H])C([H])([H])[C@]2(C([H])([H])[H])C3([H])C([H])([H])C([H])([H])[C@@]4(C([H])([H])[H])C([H])(C([H])([H])C([H])([H])[C@]4([H])c4c([H])nc([H])c([H])c4[H])C3([H])C([H])([H])C([H])([H])C2([H])C1([H])[H]


 27 31  0  0  0  0  0  0  0  0999 V2000
  -13.0942   -8.8440    5.6077 C   0  0  0  0  0  0  0  0  0  0  0  0
  -12.8826   -8.5000    7.0322 C   0  0  0  0  0  0  0  0  0  0  0  0
  -12.4570   -7.0912    7.2141 C   0  0  0  0  0  0  0  0  0  0  0  0
  -11.0118   -6.9602    7.6882 C   0  0  0  0  0  0  0  0  0  0  0  0
  -10.0897   -7.8508    6.8422 C   0  0  0  0  0  0  0  0  0  0  0  0
  -10.5617   -9.2503    6.9291 C   0  0  0  0  0  0  0  0  0  0  0  0
   -9.5502  -10.1920    7.5580 C   0  0  0  0  0  0  0  0  0  0  0  0
   -8.2884  -10.0160    6.7444 C   0  0  0  0  0  0  0  0  0  0  0  0
   -7.7136   -8.6689    7.1173 C   0  0  0  0  0  0  0  0  0  0  0  0
   -6.8999   -8.9102    8.3967 C   0  0  0  0  0  0  0  0  0  0  0  0
   -6.1754   -7.6753    8.8365 C   0  0  0  0  0  0  0  0  0  0  0  0
   -5.0482   -7.4122    8.0556 O   0  0  0  0  0  0  0  0  0  0  0  0
   -7.1401   -6.5369    8.8559 C   0  0  0  0  0  0  0  0  0  0  0  0
   -8.5853   -7.0217    8.6768 C   0  0  0  0  0  0  0  0  0  0  0  0
   -8.6968   -7.5760    7.2473 C   0  0  0  0  0  0  0  0  0  0  0  0
   -8.1949   -6.4082    6.3752 C   0  0  0  0  0  0  0  0  0  0  0  0
  -11.8265   -9.3771    7.7012 C   0  0  0  0  0  0  0  0  0  0  0  0
  -12.4784  -10.7117    7.6683 C   0  0  0  0  0  0  0  0  0  0  0  0
  -13.9422  -10.3803    7.9868 C   0  0  0  0  0  0  0  0  0  0  0  0
  -14.0831   -8.8999    7.8541 C   0  0  0  0  0  0  0  0  0  0  0  0
   -4.8650   -8.1480    7.4057 H   0  0  0  0  0  0  0  0  0  0  0  0
  -15.3679   -8.4125    7.3827 C   0  0  0  0  0  0  0  0  0  0  0  0
  -15.6741   -8.1711    6.0679 C   0  0  0  0  0  0  0  0  0  0  0  0
  -16.9039   -7.7029    5.6537 C   0  0  0  0  0  0  0  0  0  0  0  0
  -17.8862   -7.4597    6.5916 C   0  0  0  0  0  0  0  0  0  0  0  0
  -17.5977   -7.6948    7.9026 N   0  0  0  0  0  0  0  0  0  0  0  0
  -16.3961   -8.1513    8.2996 C   0  0  0  0  0  0  0  0  0  0  0  0
  2  1  1  0  0  0
  2  3  1  0  0  0
  3  4  1  0  0  0
  4  5  1  0  0  0
  5  6  1  0  0  0
  6  7  1  0  0  0
  7  8  1  0  0  0
  8  9  1  0  0  0
  9 10  1  0  0  0
 10 11  1  0  0  0
 11 12  1  0  0  0
 11 13  1  0  0  0
 13 14  1  0  0  0
 14 15  1  0  0  0
 15 16  1  0  0  0
  6 17  1  0  0  0
 17 18  1  0  0  0
 18 19  1  0  0  0
 19 20  1  0  0  0
 20 22  1  0  0  0
 22 23  2  0  0  0
 23 24  1  0  0  0
 24 25  2  0  0  0
 25 26  1  0  0  0
 26 27  2  0  0  0
 17  2  1  0  0  0
 27 22  1  0  0  0
 20  2  1  0  0  0
 15  5  1  0  0  0
 15  9  1  0  0  0
 12 21  1  0  0  0
M  END
> <minimizedAffinity>
-3.67961

> <CNNscore>
0.2427203506

> <CNNaffinity>
6.5728988647

> <CNN_VS>
1.5953763723

> <CNNaffinity_variance>
0.2181326151

$$$$
[H]O[C@@]1([H])C([H])([H])C([H])([H])[C@]2(C([H])([H])[H])C3([H])C([H])([H])C([H])([H])[C@@]4(C([H])([H])[H])C([H])(C([H])([H])C([H])([H])[C@]4([H])c4c([H])nc([H])c([H])c4[H])C3([H])C([H])([H])C([H])([H])C2([H])C1([H])[H]


 27 31  0  0  0  0  0  0  0  0999 V2000
   -8.3634   -6.2349    7.0762 C   0  0  0  0  0  0  0  0  0  0  0  0
   -8.6098   -7.5205    7.7681 C   0  0  0  0  0  0  0  0  0  0  0  0
   -9.2118   -8.5364    6.8712 C   0  0  0  0  0  0  0  0  0  0  0  0
  -10.6593   -8.8654    7.2276 C   0  0  0  0  0  0  0  0  0  0  0  0
  -11.4639   -7.5740    7.4379 C   0  0  0  0  0  0  0  0  0  0  0  0
  -10.8157   -6.7716    8.4985 C   0  0  0  0  0  0  0  0  0  0  0  0
  -11.6946   -6.5581    9.7181 C   0  0  0  0  0  0  0  0  0  0  0  0
  -12.9728   -5.9547    9.1823 C   0  0  0  0  0  0  0  0  0  0  0  0
  -13.7138   -7.0636    8.4713 C   0  0  0  0  0  0  0  0  0  0  0  0
  -14.4830   -7.8123    9.5691 C   0  0  0  0  0  0  0  0  0  0  0  0
  -15.3577   -8.8874    9.0011 C   0  0  0  0  0  0  0  0  0  0  0  0
  -16.5135   -8.3759    8.4077 O   0  0  0  0  0  0  0  0  0  0  0  0
  -14.5470   -9.7159    8.0613 C   0  0  0  0  0  0  0  0  0  0  0  0
  -13.0526   -9.3815    8.1631 C   0  0  0  0  0  0  0  0  0  0  0  0
  -12.8784   -7.9480    7.6360 C   0  0  0  0  0  0  0  0  0  0  0  0
  -13.5307   -8.0029    6.2403 C   0  0  0  0  0  0  0  0  0  0  0  0
   -9.5410   -7.3756    8.9699 C   0  0  0  0  0  0  0  0  0  0  0  0
   -8.7234   -6.5387    9.8854 C   0  0  0  0  0  0  0  0  0  0  0  0
   -7.3126   -7.1114    9.6968 C   0  0  0  0  0  0  0  0  0  0  0  0
   -7.3636   -7.9803    8.4837 C   0  0  0  0  0  0  0  0  0  0  0  0
  -16.6042   -7.3923    8.5551 H   0  0  0  0  0  0  0  0  0  0  0  0
   -6.1545   -8.0409    7.6806 C   0  0  0  0  0  0  0  0  0  0  0  0
   -6.0126   -8.7933    6.5429 C   0  0  0  0  0  0  0  0  0  0  0  0
   -4.8475   -8.8327    5.8052 C   0  0  0  0  0  0  0  0  0  0  0  0
   -3.7617   -8.0863    6.2149 C   0  0  0  0  0  0  0  0  0  0  0  0
   -3.8867   -7.3330    7.3437 N   0  0  0  0  0  0  0  0  0  0  0  0
   -5.0260   -7.2994    8.0584 C   0  0  0  0  0  0  0  0  0  0  0  0
  2  1  1  0  0  0
  2  3  1  0  0  0
  3  4  1  0  0  0
  4  5  1  0  0  0
  5  6  1  0  0  0
  6  7  1  0  0  0
  7  8  1  0  0  0
  8  9  1  0  0  0
  9 10  1  0  0  0
 10 11  1  0  0  0
 11 12  1  0  0  0
 11 13  1  0  0  0
 13 14  1  0  0  0
 14 15  1  0  0  0
 15 16  1  0  0  0
  6 17  1  0  0  0
 17 18  1  0  0  0
 18 19  1  0  0  0
 19 20  1  0  0  0
 20 22  1  0  0  0
 22 23  2  0  0  0
 23 24  1  0  0  0
 24 25  2  0  0  0
 25 26  1  0  0  0
 26 27  2  0  0  0
 17  2  1  0  0  0
 27 22  1  0  0  0
 20  2  1  0  0  0
 15  5  1  0  0  0
 15  9  1  0  0  0
 12 21  1  0  0  0
M  END
> <minimizedAffinity>
-4.57704

> <CNNscore>
0.2381550670

> <CNNaffinity>
6.4788994789

> <CNN_VS>
1.5429826975

> <CNNaffinity_variance>
0.2052346915

$$$$
[H]c1c([H])c(N([H])C(=O)c2c(C([H])([H])[H])c(C(=O)C(=O)N([H])C3(C(F)(F)F)C([H])([H])C3([H])[H])c3n2C([H])([H])C([H])([H])C3([H])[H])c([H])c(Cl)c1F


 34 37  0  0  0  0  0  0  0  0999 V2000
  -10.5872  -10.3364    6.4218 C   0  0  0  0  0  0  0  0  0  0  0  0
  -10.8781   -9.2535    7.4036 C   0  0  0  0  0  0  0  0  0  0  0  0
  -12.1909   -8.9256    7.7724 C   0  0  0  0  0  0  0  0  0  0  0  0
  -12.0940   -7.8795    8.6559 C   0  0  0  0  0  0  0  0  0  0  0  0
  -12.9929   -6.9765    9.4884 C   0  0  0  0  0  0  0  0  0  0  0  0
  -12.0686   -5.8003    9.7073 C   0  0  0  0  0  0  0  0  0  0  0  0
  -10.6890   -6.4536    9.7716 C   0  0  0  0  0  0  0  0  0  0  0  0
  -10.8249   -7.5627    8.8391 N   0  0  0  0  0  0  0  0  0  0  0  0
  -10.0592   -8.4016    8.0741 C   0  0  0  0  0  0  0  0  0  0  0  0
   -8.5820   -8.3504    8.0692 C   0  0  0  0  0  0  0  0  0  0  0  0
   -7.9470   -9.2622    8.6916 O   0  0  0  0  0  0  0  0  0  0  0  0
   -7.8564   -7.3520    7.4112 N   0  0  0  0  0  0  0  0  0  0  0  0
   -8.3169   -6.5774    6.8490 H   0  0  0  0  0  0  0  0  0  0  0  0
   -6.4329   -7.2580    7.3733 C   0  0  0  0  0  0  0  0  0  0  0  0
   -5.6995   -8.1254    6.5525 C   0  0  0  0  0  0  0  0  0  0  0  0
   -4.3264   -8.0953    6.4964 C   0  0  0  0  0  0  0  0  0  0  0  0
   -3.6069   -7.2076    7.2478 C   0  0  0  0  0  0  0  0  0  0  0  0
   -2.2588   -7.1389    7.2273 F   0  0  0  0  0  0  0  0  0  0  0  0
   -4.2883   -6.3528    8.0547 C   0  0  0  0  0  0  0  0  0  0  0  0
   -3.4155   -5.2015    9.0328 Cl  0  0  0  0  0  0  0  0  0  0  0  0
   -5.6900   -6.3814    8.1143 C   0  0  0  0  0  0  0  0  0  0  0  0
  -13.4057   -9.5756    7.3025 C   0  0  0  0  0  0  0  0  0  0  0  0
  -13.7763  -10.6764    7.7854 O   0  0  0  0  0  0  0  0  0  0  0  0
  -14.2339   -8.9835    6.2639 C   0  0  0  0  0  0  0  0  0  0  0  0
  -13.7698   -8.9448    5.0930 O   0  0  0  0  0  0  0  0  0  0  0  0
  -15.5241   -8.4646    6.5541 N   0  0  0  0  0  0  0  0  0  0  0  0
  -15.9121   -8.4943    7.5204 H   0  0  0  0  0  0  0  0  0  0  0  0
  -16.3284   -7.8806    5.5025 C   0  0  0  0  0  0  0  0  0  0  0  0
  -17.7281   -8.3786    5.4005 C   0  0  0  0  0  0  0  0  0  0  0  0
  -16.7033   -8.7518    4.3593 C   0  0  0  0  0  0  0  0  0  0  0  0
  -16.1071   -6.4034    5.1782 C   0  0  0  0  0  0  0  0  0  0  0  0
  -15.1920   -5.8952    6.0633 F   0  0  0  0  0  0  0  0  0  0  0  0
  -17.3154   -5.7159    5.2733 F   0  0  0  0  0  0  0  0  0  0  0  0
  -15.5692   -6.2724    3.9121 F   0  0  0  0  0  0  0  0  0  0  0  0
  1  2  1  0  0  0
  2  3  1  0  0  0
  3 22  1  0  0  0
 22 23  2  0  0  0
 22 24  1  0  0  0
 24 25  2  0  0  0
 24 26  1  0  0  0
 26 28  1  0  0  0
 28 29  1  0  0  0
 29 30  1  0  0  0
 28 31  1  0  0  0
 31 32  1  0  0  0
 31 33  1  0  0  0
 31 34  1  0  0  0
  3  4  2  0  0  0
  4  5  1  0  0  0
  5  6  1  0  0  0
  6  7  1  0  0  0
  7  8  1  0  0  0
  8  9  1  0  0  0
  9 10  1  0  0  0
 10 11  2  0  0  0
 10 12  1  0  0  0
 12 14  1  0  0  0
 14 15  2  0  0  0
 15 16  1  0  0  0
 16 17  2  0  0  0
 17 18  1  0  0  0
 17 19  1  0  0  0
 19 20  1  0  0  0
 19 21  2  0  0  0
  9  2  2  0  0  0
 21 14  1  0  0  0
 30 28  1  0  0  0
  8  4  1  0  0  0
 26 27  1  0  0  0
 12 13  1  0  0  0
M  END
> <minimizedAffinity>
-10.03521

> <CNNscore>
0.8005714417

> <CNNaffinity>
7.5925893784

> <CNN_VS>
6.0784101486

> <CNNaffinity_variance>
0.0417666994

$$$$
[H]c1c([H])c(N([H])C(=O)c2c(C([H])([H])[H])c(C(=O)C(=O)N([H])C3(C(F)(F)F)C([H])([H])C3([H])[H])c3n2C([H])([H])C([H])([H])C3([H])[H])c([H])c(Cl)c1F


 34 37  0  0  0  0  0  0  0  0999 V2000
  -10.6950   -9.9984    6.5336 C   0  0  0  0  0  0  0  0  0  0  0  0
  -10.9494   -8.9432    7.5548 C   0  0  0  0  0  0  0  0  0  0  0  0
  -12.2377   -8.6890    8.0474 C   0  0  0  0  0  0  0  0  0  0  0  0
  -12.1137   -7.6490    8.9348 C   0  0  0  0  0  0  0  0  0  0  0  0
  -12.9773   -6.8039    9.8603 C   0  0  0  0  0  0  0  0  0  0  0  0
  -12.0985   -5.5831   10.0123 C   0  0  0  0  0  0  0  0  0  0  0  0
  -10.6870   -6.1635    9.9397 C   0  0  0  0  0  0  0  0  0  0  0  0
  -10.8512   -7.2678    9.0061 N   0  0  0  0  0  0  0  0  0  0  0  0
  -10.1171   -8.0568    8.1610 C   0  0  0  0  0  0  0  0  0  0  0  0
   -8.6513   -7.9278    8.0218 C   0  0  0  0  0  0  0  0  0  0  0  0
   -7.9264   -8.9210    8.3536 O   0  0  0  0  0  0  0  0  0  0  0  0
   -8.0305   -6.7705    7.5407 N   0  0  0  0  0  0  0  0  0  0  0  0
   -8.5715   -5.9151    7.2186 H   0  0  0  0  0  0  0  0  0  0  0  0
   -6.6228   -6.5953    7.3845 C   0  0  0  0  0  0  0  0  0  0  0  0
   -6.0335   -6.7806    6.1266 C   0  0  0  0  0  0  0  0  0  0  0  0
   -4.6801   -6.6494    5.9250 C   0  0  0  0  0  0  0  0  0  0  0  0
   -3.8392   -6.3287    6.9547 C   0  0  0  0  0  0  0  0  0  0  0  0
   -2.5046   -6.1882    6.8073 F   0  0  0  0  0  0  0  0  0  0  0  0
   -4.3793   -6.1427    8.1875 C   0  0  0  0  0  0  0  0  0  0  0  0
   -3.3479   -5.7321    9.5335 Cl  0  0  0  0  0  0  0  0  0  0  0  0
   -5.7605   -6.2763    8.3964 C   0  0  0  0  0  0  0  0  0  0  0  0
  -13.4556   -9.3968    7.6804 C   0  0  0  0  0  0  0  0  0  0  0  0
  -13.6037  -10.6140    7.9611 O   0  0  0  0  0  0  0  0  0  0  0  0
  -14.5424   -8.7308    6.9798 C   0  0  0  0  0  0  0  0  0  0  0  0
  -15.6375   -8.5945    7.5880 O   0  0  0  0  0  0  0  0  0  0  0  0
  -14.3801   -8.2479    5.6537 N   0  0  0  0  0  0  0  0  0  0  0  0
  -13.4768   -8.3582    5.1467 H   0  0  0  0  0  0  0  0  0  0  0  0
  -15.4771   -7.5886    4.9786 C   0  0  0  0  0  0  0  0  0  0  0  0
  -15.1838   -6.2374    4.4258 C   0  0  0  0  0  0  0  0  0  0  0  0
  -16.0709   -6.3956    5.6349 C   0  0  0  0  0  0  0  0  0  0  0  0
  -16.4383   -8.4598    4.1703 C   0  0  0  0  0  0  0  0  0  0  0  0
  -17.3949   -8.9555    5.0178 F   0  0  0  0  0  0  0  0  0  0  0  0
  -15.7340   -9.4985    3.5647 F   0  0  0  0  0  0  0  0  0  0  0  0
  -17.0885   -7.6929    3.2223 F   0  0  0  0  0  0  0  0  0  0  0  0
  1  2  1  0  0  0
  2  3  1  0  0  0
  3 22  1  0  0  0
 22 23  2  0  0  0
 22 24  1  0  0  0
 24 25  2  0  0  0
 24 26  1  0  0  0
 26 28  1  0  0  0
 28 29  1  0  0  0
 29 30  1  0  0  0
 28 31  1  0  0  0
 31 32  1  0  0  0
 31 33  1  0  0  0
 31 34  1  0  0  0
  3  4  2  0  0  0
  4  5  1  0  0  0
  5  6  1  0  0  0
  6  7  1  0  0  0
  7  8  1  0  0  0
  8  9  1  0  0  0
  9 10  1  0  0  0
 10 11  2  0  0  0
 10 12  1  0  0  0
 12 14  1  0  0  0
 14 15  2  0  0  0
 15 16  1  0  0  0
 16 17  2  0  0  0
 17 18  1  0  0  0
 17 19  1  0  0  0
 19 20  1  0  0  0
 19 21  2  0  0  0
  9  2  2  0  0  0
 21 14  1  0  0  0
 30 28  1  0  0  0
  8  4  1  0  0  0
 26 27  1  0  0  0
 12 13  1  0  0  0
M  END
> <minimizedAffinity>
-9.96001

> <CNNscore>
0.6092794538

> <CNNaffinity>
7.3810744286

> <CNN_VS>
4.4971370697

> <CNNaffinity_variance>
0.0129129123

$$$$
[H]c1c([H])c(N([H])C(=O)c2c(C([H])([H])[H])c(C(=O)C(=O)N([H])C3(C(F)(F)F)C([H])([H])C3([H])[H])c3n2C([H])([H])C([H])([H])C3([H])[H])c([H])c(Cl)c1F


 34 37  0  0  0  0  0  0  0  0999 V2000
  -12.7149   -9.0140    6.1525 C   0  0  0  0  0  0  0  0  0  0  0  0
  -12.5466   -8.1155    7.3297 C   0  0  0  0  0  0  0  0  0  0  0  0
  -13.6450   -7.5154    7.9623 C   0  0  0  0  0  0  0  0  0  0  0  0
  -13.1327   -6.7400    8.9726 C   0  0  0  0  0  0  0  0  0  0  0  0
  -13.6111   -5.8100   10.0784 C   0  0  0  0  0  0  0  0  0  0  0  0
  -12.3524   -5.0093   10.3234 C   0  0  0  0  0  0  0  0  0  0  0  0
  -11.2413   -6.0213   10.0487 C   0  0  0  0  0  0  0  0  0  0  0  0
  -11.8154   -6.8349    8.9873 N   0  0  0  0  0  0  0  0  0  0  0  0
  -11.4356   -7.6813    7.9799 C   0  0  0  0  0  0  0  0  0  0  0  0
  -10.0243   -8.0454    7.7341 C   0  0  0  0  0  0  0  0  0  0  0  0
   -9.7046   -9.2773    7.7810 O   0  0  0  0  0  0  0  0  0  0  0  0
   -9.0321   -7.1014    7.4501 N   0  0  0  0  0  0  0  0  0  0  0  0
   -9.2302   -6.0613    7.3664 H   0  0  0  0  0  0  0  0  0  0  0  0
   -7.6586   -7.3994    7.2029 C   0  0  0  0  0  0  0  0  0  0  0  0
   -7.3162   -8.3513    6.2330 C   0  0  0  0  0  0  0  0  0  0  0  0
   -6.0111   -8.6948    5.9720 C   0  0  0  0  0  0  0  0  0  0  0  0
   -4.9771   -8.1164    6.6550 C   0  0  0  0  0  0  0  0  0  0  0  0
   -3.6801   -8.4195    6.4350 F   0  0  0  0  0  0  0  0  0  0  0  0
   -5.2755   -7.1895    7.6026 C   0  0  0  0  0  0  0  0  0  0  0  0
   -3.9912   -6.4231    8.5011 Cl  0  0  0  0  0  0  0  0  0  0  0  0
   -6.6068   -6.8371    7.8715 C   0  0  0  0  0  0  0  0  0  0  0  0
  -15.0457   -7.6902    7.6063 C   0  0  0  0  0  0  0  0  0  0  0  0
  -15.8298   -8.3188    8.3628 O   0  0  0  0  0  0  0  0  0  0  0  0
  -15.5912   -7.1494    6.3713 C   0  0  0  0  0  0  0  0  0  0  0  0
  -14.8406   -6.4245    5.6650 O   0  0  0  0  0  0  0  0  0  0  0  0
  -16.9255   -7.4262    5.9696 N   0  0  0  0  0  0  0  0  0  0  0  0
  -17.5499   -8.0249    6.5500 H   0  0  0  0  0  0  0  0  0  0  0  0
  -17.4443   -6.8760    4.7360 C   0  0  0  0  0  0  0  0  0  0  0  0
  -18.3372   -7.7707    3.9486 C   0  0  0  0  0  0  0  0  0  0  0  0
  -16.9455   -7.4540    3.4618 C   0  0  0  0  0  0  0  0  0  0  0  0
  -17.7825   -5.3856    4.7115 C   0  0  0  0  0  0  0  0  0  0  0  0
  -18.9732   -5.2196    4.0528 F   0  0  0  0  0  0  0  0  0  0  0  0
  -16.7646   -4.6838    4.0689 F   0  0  0  0  0  0  0  0  0  0  0  0
  -17.9589   -4.9191    6.0003 F   0  0  0  0  0  0  0  0  0  0  0  0
  1  2  1  0  0  0
  2  3  1  0  0  0
  3 22  1  0  0  0
 22 23  2  0  0  0
 22 24  1  0  0  0
 24 25  2  0  0  0
 24 26  1  0  0  0
 26 28  1  0  0  0
 28 29  1  0  0  0
 29 30  1  0  0  0
 28 31  1  0  0  0
 31 32  1  0  0  0
 31 33  1  0  0  0
 31 34  1  0  0  0
  3  4  2  0  0  0
  4  5  1  0  0  0
  5  6  1  0  0  0
  6  7  1  0  0  0
  7  8  1  0  0  0
  8  9  1  0  0  0
  9 10  1  0  0  0
 10 11  2  0  0  0
 10 12  1  0  0  0
 12 14  1  0  0  0
 14 15  2  0  0  0
 15 16  1  0  0  0
 16 17  2  0  0  0
 17 18  1  0  0  0
 17 19  1  0  0  0
 19 20  1  0  0  0
 19 21  2  0  0  0
  9  2  2  0  0  0
 21 14  1  0  0  0
 30 28  1  0  0  0
  8  4  1  0  0  0
 26 27  1  0  0  0
 12 13  1  0  0  0
M  END
> <minimizedAffinity>
-10.62308

> <CNNscore>
0.5820609331

> <CNNaffinity>
7.5898675919

> <CNN_VS>
4.4177656174

> <CNNaffinity_variance>
0.1412327588

$$$$
[H]c1c([H])c(N([H])C(=O)c2c(C([H])([H])[H])c(C(=O)C(=O)N([H])C3(C(F)(F)F)C([H])([H])C3([H])[H])c3n2C([H])([H])C([H])([H])C3([H])[H])c([H])c(Cl)c1F


 34 37  0  0  0  0  0  0  0  0999 V2000
  -13.0645   -9.4796    6.7512 C   0  0  0  0  0  0  0  0  0  0  0  0
  -12.8217   -8.4450    7.7961 C   0  0  0  0  0  0  0  0  0  0  0  0
  -13.8752   -7.8603    8.5138 C   0  0  0  0  0  0  0  0  0  0  0  0
  -13.3040   -6.9410    9.3583 C   0  0  0  0  0  0  0  0  0  0  0  0
  -13.7119   -5.9308   10.4210 C   0  0  0  0  0  0  0  0  0  0  0  0
  -12.5075   -5.0171   10.4038 C   0  0  0  0  0  0  0  0  0  0  0  0
  -11.3576   -5.9690   10.0783 C   0  0  0  0  0  0  0  0  0  0  0  0
  -11.9932   -6.9364    9.1962 N   0  0  0  0  0  0  0  0  0  0  0  0
  -11.6770   -7.8600    8.2357 C   0  0  0  0  0  0  0  0  0  0  0  0
  -10.2841   -8.1444    7.8310 C   0  0  0  0  0  0  0  0  0  0  0  0
  -10.0290   -9.2789    7.3116 O   0  0  0  0  0  0  0  0  0  0  0  0
   -9.2418   -7.2254    7.9895 N   0  0  0  0  0  0  0  0  0  0  0  0
   -9.3851   -6.2512    8.3877 H   0  0  0  0  0  0  0  0  0  0  0  0
   -7.8832   -7.4483    7.6140 C   0  0  0  0  0  0  0  0  0  0  0  0
   -6.8484   -7.0018    8.4470 C   0  0  0  0  0  0  0  0  0  0  0  0
   -5.5230   -7.1677    8.1223 C   0  0  0  0  0  0  0  0  0  0  0  0
   -5.1512   -7.7826    6.9587 C   0  0  0  0  0  0  0  0  0  0  0  0
   -3.8644   -7.9693    6.5957 F   0  0  0  0  0  0  0  0  0  0  0  0
   -6.1309   -8.2268    6.1286 C   0  0  0  0  0  0  0  0  0  0  0  0
   -5.7074   -9.0179    4.6322 Cl  0  0  0  0  0  0  0  0  0  0  0  0
   -7.4847   -8.0586    6.4572 C   0  0  0  0  0  0  0  0  0  0  0  0
  -15.2897   -8.1766    8.3787 C   0  0  0  0  0  0  0  0  0  0  0  0
  -15.8767   -8.8859    9.2358 O   0  0  0  0  0  0  0  0  0  0  0  0
  -16.0757   -7.6892    7.2562 C   0  0  0  0  0  0  0  0  0  0  0  0
  -17.2932   -7.4345    7.4578 O   0  0  0  0  0  0  0  0  0  0  0  0
  -15.4951   -7.5044    5.9728 N   0  0  0  0  0  0  0  0  0  0  0  0
  -14.4892   -7.7136    5.8012 H   0  0  0  0  0  0  0  0  0  0  0  0
  -16.2990   -7.0181    4.8724 C   0  0  0  0  0  0  0  0  0  0  0  0
  -15.7474   -5.8517    4.1288 C   0  0  0  0  0  0  0  0  0  0  0  0
  -16.9469   -5.6905    5.0282 C   0  0  0  0  0  0  0  0  0  0  0  0
  -17.0678   -8.0490    4.0463 C   0  0  0  0  0  0  0  0  0  0  0  0
  -16.1643   -8.8302    3.3737 F   0  0  0  0  0  0  0  0  0  0  0  0
  -17.9140   -7.3968    3.1516 F   0  0  0  0  0  0  0  0  0  0  0  0
  -17.7883   -8.8819    4.8809 F   0  0  0  0  0  0  0  0  0  0  0  0
  1  2  1  0  0  0
  2  3  1  0  0  0
  3 22  1  0  0  0
 22 23  2  0  0  0
 22 24  1  0  0  0
 24 25  2  0  0  0
 24 26  1  0  0  0
 26 28  1  0  0  0
 28 29  1  0  0  0
 29 30  1  0  0  0
 28 31  1  0  0  0
 31 32  1  0  0  0
 31 33  1  0  0  0
 31 34  1  0  0  0
  3  4  2  0  0  0
  4  5  1  0  0  0
  5  6  1  0  0  0
  6  7  1  0  0  0
  7  8  1  0  0  0
  8  9  1  0  0  0
  9 10  1  0  0  0
 10 11  2  0  0  0
 10 12  1  0  0  0
 12 14  1  0  0  0
 14 15  2  0  0  0
 15 16  1  0  0  0
 16 17  2  0  0  0
 17 18  1  0  0  0
 17 19  1  0  0  0
 19 20  1  0  0  0
 19 21  2  0  0  0
  9  2  2  0  0  0
 21 14  1  0  0  0
 30 28  1  0  0  0
  8  4  1  0  0  0
 26 27  1  0  0  0
 12 13  1  0  0  0
M  END
> <minimizedAffinity>
-9.00912

> <CNNscore>
0.5266184807

> <CNNaffinity>
7.5501670837

> <CNN_VS>
3.9760575294

> <CNNaffinity_variance>
0.0290856846

$$$$
[H]c1c([H])c(N([H])C(=O)c2c(C([H])([H])[H])c(C(=O)C(=O)N([H])C3(C(F)(F)F)C([H])([H])C3([H])[H])c3n2C([H])([H])C([H])([H])C3([H])[H])c([H])c(Cl)c1F


 34 37  0  0  0  0  0  0  0  0999 V2000
  -12.2754   -9.5657    6.3157 C   0  0  0  0  0  0  0  0  0  0  0  0
  -12.2252   -8.5405    7.3963 C   0  0  0  0  0  0  0  0  0  0  0  0
  -13.3927   -8.0002    7.9550 C   0  0  0  0  0  0  0  0  0  0  0  0
  -12.9843   -7.0769    8.8851 C   0  0  0  0  0  0  0  0  0  0  0  0
  -13.5791   -6.0967    9.8860 C   0  0  0  0  0  0  0  0  0  0  0  0
  -12.4165   -5.1457   10.0587 C   0  0  0  0  0  0  0  0  0  0  0  0
  -11.2001   -6.0561    9.8982 C   0  0  0  0  0  0  0  0  0  0  0  0
  -11.6648   -7.0289    8.9206 N   0  0  0  0  0  0  0  0  0  0  0  0
  -11.1788   -7.9270    8.0081 C   0  0  0  0  0  0  0  0  0  0  0  0
   -9.7326   -8.1616    7.8129 C   0  0  0  0  0  0  0  0  0  0  0  0
   -9.2695   -9.3172    8.0816 O   0  0  0  0  0  0  0  0  0  0  0  0
   -8.8572   -7.1763    7.3448 N   0  0  0  0  0  0  0  0  0  0  0  0
   -9.1765   -6.2003    7.0736 H   0  0  0  0  0  0  0  0  0  0  0  0
   -7.4562   -7.3510    7.1365 C   0  0  0  0  0  0  0  0  0  0  0  0
   -7.0043   -8.2323    6.1451 C   0  0  0  0  0  0  0  0  0  0  0  0
   -5.6673   -8.4574    5.9187 C   0  0  0  0  0  0  0  0  0  0  0  0
   -4.7079   -7.8242    6.6596 C   0  0  0  0  0  0  0  0  0  0  0  0
   -3.3837   -8.0113    6.4755 F   0  0  0  0  0  0  0  0  0  0  0  0
   -5.1133   -6.9633    7.6295 C   0  0  0  0  0  0  0  0  0  0  0  0
   -3.9273   -6.1310    8.6016 Cl  0  0  0  0  0  0  0  0  0  0  0  0
   -6.4774   -6.7318    7.8630 C   0  0  0  0  0  0  0  0  0  0  0  0
  -14.7600   -8.3582    7.6068 C   0  0  0  0  0  0  0  0  0  0  0  0
  -15.4497   -9.0857    8.3666 O   0  0  0  0  0  0  0  0  0  0  0  0
  -15.3797   -7.8929    6.3759 C   0  0  0  0  0  0  0  0  0  0  0  0
  -14.8691   -8.2624    5.2848 O   0  0  0  0  0  0  0  0  0  0  0  0
  -16.5230   -7.0499    6.3973 N   0  0  0  0  0  0  0  0  0  0  0  0
  -16.9486   -6.7417    7.2967 H   0  0  0  0  0  0  0  0  0  0  0  0
  -17.1207   -6.6008    5.1584 C   0  0  0  0  0  0  0  0  0  0  0  0
  -16.3325   -5.6074    4.3777 C   0  0  0  0  0  0  0  0  0  0  0  0
  -17.5938   -5.1942    5.0935 C   0  0  0  0  0  0  0  0  0  0  0  0
  -17.9240   -7.6186    4.3491 C   0  0  0  0  0  0  0  0  0  0  0  0
  -19.0625   -7.0090    3.8893 F   0  0  0  0  0  0  0  0  0  0  0  0
  -18.2432   -8.7110    5.1532 F   0  0  0  0  0  0  0  0  0  0  0  0
  -17.1998   -8.0214    3.2433 F   0  0  0  0  0  0  0  0  0  0  0  0
  1  2  1  0  0  0
  2  3  1  0  0  0
  3 22  1  0  0  0
 22 23  2  0  0  0
 22 24  1  0  0  0
 24 25  2  0  0  0
 24 26  1  0  0  0
 26 28  1  0  0  0
 28 29  1  0  0  0
 29 30  1  0  0  0
 28 31  1  0  0  0
 31 32  1  0  0  0
 31 33  1  0  0  0
 31 34  1  0  0  0
  3  4  2  0  0  0
  4  5  1  0  0  0
  5  6  1  0  0  0
  6  7  1  0  0  0
  7  8  1  0  0  0
  8  9  1  0  0  0
  9 10  1  0  0  0
 10 11  2  0  0  0
 10 12  1  0  0  0
 12 14  1  0  0  0
 14 15  2  0  0  0
 15 16  1  0  0  0
 16 17  2  0  0  0
 17 18  1  0  0  0
 17 19  1  0  0  0
 19 20  1  0  0  0
 19 21  2  0  0  0
  9  2  2  0  0  0
 21 14  1  0  0  0
 30 28  1  0  0  0
  8  4  1  0  0  0
 26 27  1  0  0  0
 12 13  1  0  0  0
M  END
> <minimizedAffinity>
-10.44073

> <CNNscore>
0.4680831730

> <CNNaffinity>
7.3910417557

> <CNN_VS>
3.4596223831

> <CNNaffinity_variance>
0.0846230835

$$$$
[H]c1c([H])c(N([H])C(=O)c2c(C([H])([H])[H])c(C(=O)C(=O)N([H])C3(C(F)(F)F)C([H])([H])C3([H])[H])c3n2C([H])([H])C([H])([H])C3([H])[H])c([H])c(Cl)c1F


 34 37  0  0  0  0  0  0  0  0999 V2000
   -9.8531   -8.9793    9.3881 C   0  0  0  0  0  0  0  0  0  0  0  0
   -9.7933   -7.9592    8.3032 C   0  0  0  0  0  0  0  0  0  0  0  0
  -10.9468   -7.5283    7.6318 C   0  0  0  0  0  0  0  0  0  0  0  0
  -10.5289   -6.6232    6.6880 C   0  0  0  0  0  0  0  0  0  0  0  0
  -11.1078   -5.7317    5.5987 C   0  0  0  0  0  0  0  0  0  0  0  0
   -9.8815   -5.5214    4.7397 C   0  0  0  0  0  0  0  0  0  0  0  0
   -8.7422   -5.5307    5.7576 C   0  0  0  0  0  0  0  0  0  0  0  0
   -9.2169   -6.4847    6.7489 N   0  0  0  0  0  0  0  0  0  0  0  0
   -8.7454   -7.3017    7.7417 C   0  0  0  0  0  0  0  0  0  0  0  0
   -7.3152   -7.3662    8.1091 C   0  0  0  0  0  0  0  0  0  0  0  0
   -6.8161   -8.5053    8.3838 O   0  0  0  0  0  0  0  0  0  0  0  0
   -6.4908   -6.2376    8.1638 N   0  0  0  0  0  0  0  0  0  0  0  0
   -6.8301   -5.2611    7.9202 H   0  0  0  0  0  0  0  0  0  0  0  0
   -5.1062   -6.2452    8.5093 C   0  0  0  0  0  0  0  0  0  0  0  0
   -4.6200   -5.3338    9.4564 C   0  0  0  0  0  0  0  0  0  0  0  0
   -3.2921   -5.2806    9.8078 C   0  0  0  0  0  0  0  0  0  0  0  0
   -2.3762   -6.1242    9.2424 C   0  0  0  0  0  0  0  0  0  0  0  0
   -1.0628   -6.1112    9.5542 F   0  0  0  0  0  0  0  0  0  0  0  0
   -2.8156   -7.0199    8.3199 C   0  0  0  0  0  0  0  0  0  0  0  0
   -1.6857   -8.1177    7.5699 Cl  0  0  0  0  0  0  0  0  0  0  0  0
   -4.1704   -7.0763    7.9589 C   0  0  0  0  0  0  0  0  0  0  0  0
  -12.3105   -7.9640    7.8953 C   0  0  0  0  0  0  0  0  0  0  0  0
  -12.5821   -8.6547    8.9109 O   0  0  0  0  0  0  0  0  0  0  0  0
  -13.4060   -7.6212    7.0021 C   0  0  0  0  0  0  0  0  0  0  0  0
  -13.9398   -6.4875    7.1349 O   0  0  0  0  0  0  0  0  0  0  0  0
  -13.8631   -8.5304    6.0108 N   0  0  0  0  0  0  0  0  0  0  0  0
  -13.4251   -9.4687    5.8972 H   0  0  0  0  0  0  0  0  0  0  0  0
  -14.9550   -8.1650    5.1345 C   0  0  0  0  0  0  0  0  0  0  0  0
  -15.6209   -6.8664    5.4306 C   0  0  0  0  0  0  0  0  0  0  0  0
  -16.3263   -8.1705    5.7054 C   0  0  0  0  0  0  0  0  0  0  0  0
  -14.8390   -8.5487    3.6595 C   0  0  0  0  0  0  0  0  0  0  0  0
  -15.9566   -9.2588    3.3047 F   0  0  0  0  0  0  0  0  0  0  0  0
  -13.6900   -9.3119    3.4620 F   0  0  0  0  0  0  0  0  0  0  0  0
  -14.8103   -7.4112    2.8755 F   0  0  0  0  0  0  0  0  0  0  0  0
  1  2  1  0  0  0
  2  3  1  0  0  0
  3 22  1  0  0  0
 22 23  2  0  0  0
 22 24  1  0  0  0
 24 25  2  0  0  0
 24 26  1  0  0  0
 26 28  1  0  0  0
 28 29  1  0  0  0
 29 30  1  0  0  0
 28 31  1  0  0  0
 31 32  1  0  0  0
 31 33  1  0  0  0
 31 34  1  0  0  0
  3  4  2  0  0  0
  4  5  1  0  0  0
  5  6  1  0  0  0
  6  7  1  0  0  0
  7  8  1  0  0  0
  8  9  1  0  0  0
  9 10  1  0  0  0
 10 11  2  0  0  0
 10 12  1  0  0  0
 12 14  1  0  0  0
 14 15  2  0  0  0
 15 16  1  0  0  0
 16 17  2  0  0  0
 17 18  1  0  0  0
 17 19  1  0  0  0
 19 20  1  0  0  0
 19 21  2  0  0  0
  9  2  2  0  0  0
 21 14  1  0  0  0
 30 28  1  0  0  0
  8  4  1  0  0  0
 26 27  1  0  0  0
 12 13  1  0  0  0
M  END
> <minimizedAffinity>
7.96637

> <CNNscore>
0.4252982438

> <CNNaffinity>
6.6527299881

> <CNN_VS>
2.8293943405

> <CNNaffinity_variance>
0.8621318936

$$$$
[H]c1c([H])c(N([H])C(=O)c2c(C([H])([H])[H])c(C(=O)C(=O)N([H])C3(C(F)(F)F)C([H])([H])C3([H])[H])c3n2C([H])([H])C([H])([H])C3([H])[H])c([H])c(Cl)c1F


 34 37  0  0  0  0  0  0  0  0999 V2000
   -9.1975   -9.9791    7.6985 C   0  0  0  0  0  0  0  0  0  0  0  0
   -8.4391   -9.0343    6.8306 C   0  0  0  0  0  0  0  0  0  0  0  0
   -8.0843   -7.7510    7.2714 C   0  0  0  0  0  0  0  0  0  0  0  0
   -7.4320   -7.1495    6.2239 C   0  0  0  0  0  0  0  0  0  0  0  0
   -6.7565   -5.8292    5.8819 C   0  0  0  0  0  0  0  0  0  0  0  0
   -6.8181   -5.8757    4.3720 C   0  0  0  0  0  0  0  0  0  0  0  0
   -6.6871   -7.3671    4.0676 C   0  0  0  0  0  0  0  0  0  0  0  0
   -7.3730   -7.9777    5.1968 N   0  0  0  0  0  0  0  0  0  0  0  0
   -7.9892   -9.1474    5.5536 C   0  0  0  0  0  0  0  0  0  0  0  0
   -8.0706  -10.3138    4.6493 C   0  0  0  0  0  0  0  0  0  0  0  0
   -8.5390  -11.4030    5.1142 O   0  0  0  0  0  0  0  0  0  0  0  0
   -7.6617  -10.2715    3.3125 N   0  0  0  0  0  0  0  0  0  0  0  0
   -7.2888   -9.3915    2.8492 H   0  0  0  0  0  0  0  0  0  0  0  0
   -7.7214  -11.3655    2.3981 C   0  0  0  0  0  0  0  0  0  0  0  0
   -7.7629  -11.1189    1.0192 C   0  0  0  0  0  0  0  0  0  0  0  0
   -7.8461  -12.1335    0.0955 C   0  0  0  0  0  0  0  0  0  0  0  0
   -7.8927  -13.4434    0.4856 C   0  0  0  0  0  0  0  0  0  0  0  0
   -7.9741  -14.4743   -0.3822 F   0  0  0  0  0  0  0  0  0  0  0  0
   -7.8547  -13.7163    1.8161 C   0  0  0  0  0  0  0  0  0  0  0  0
   -7.9114  -15.3719    2.3640 Cl  0  0  0  0  0  0  0  0  0  0  0  0
   -7.7701  -12.6827    2.7614 C   0  0  0  0  0  0  0  0  0  0  0  0
   -8.3601   -7.1838    8.5833 C   0  0  0  0  0  0  0  0  0  0  0  0
   -7.4310   -6.7228    9.2950 O   0  0  0  0  0  0  0  0  0  0  0  0
   -9.7106   -7.1272    9.1204 C   0  0  0  0  0  0  0  0  0  0  0  0
   -9.8424   -6.9838   10.3653 O   0  0  0  0  0  0  0  0  0  0  0  0
  -10.8470   -7.2296    8.2741 N   0  0  0  0  0  0  0  0  0  0  0  0
  -10.7432   -7.3483    7.2444 H   0  0  0  0  0  0  0  0  0  0  0  0
  -12.1801   -7.1704    8.8335 C   0  0  0  0  0  0  0  0  0  0  0  0
  -12.9082   -5.8849    8.6466 C   0  0  0  0  0  0  0  0  0  0  0  0
  -12.3947   -6.2849   10.0068 C   0  0  0  0  0  0  0  0  0  0  0  0
  -13.0253   -8.4431    8.7879 C   0  0  0  0  0  0  0  0  0  0  0  0
  -14.3453   -8.0865    8.6903 F   0  0  0  0  0  0  0  0  0  0  0  0
  -12.8043   -9.1948    9.9403 F   0  0  0  0  0  0  0  0  0  0  0  0
  -12.7147   -9.1772    7.6591 F   0  0  0  0  0  0  0  0  0  0  0  0
  1  2  1  0  0  0
  2  3  1  0  0  0
  3 22  1  0  0  0
 22 23  2  0  0  0
 22 24  1  0  0  0
 24 25  2  0  0  0
 24 26  1  0  0  0
 26 28  1  0  0  0
 28 29  1  0  0  0
 29 30  1  0  0  0
 28 31  1  0  0  0
 31 32  1  0  0  0
 31 33  1  0  0  0
 31 34  1  0  0  0
  3  4  2  0  0  0
  4  5  1  0  0  0
  5  6  1  0  0  0
  6  7  1  0  0  0
  7  8  1  0  0  0
  8  9  1  0  0  0
  9 10  1  0  0  0
 10 11  2  0  0  0
 10 12  1  0  0  0
 12 14  1  0  0  0
 14 15  2  0  0  0
 15 16  1  0  0  0
 16 17  2  0  0  0
 17 18  1  0  0  0
 17 19  1  0  0  0
 19 20  1  0  0  0
 19 21  2  0  0  0
  9  2  2  0  0  0
 21 14  1  0  0  0
 30 28  1  0  0  0
  8  4  1  0  0  0
 26 27  1  0  0  0
 12 13  1  0  0  0
M  END
> <minimizedAffinity>
12.25313

> <CNNscore>
0.4190021753

> <CNNaffinity>
6.2004003525

> <CNN_VS>
2.5979812145

> <CNNaffinity_variance>
0.2815075517

$$$$
[H]c1c([H])c(N([H])C(=O)c2c(C([H])([H])[H])c(C(=O)C(=O)N([H])C3(C(F)(F)F)C([H])([H])C3([H])[H])c3n2C([H])([H])C([H])([H])C3([H])[H])c([H])c(Cl)c1F


 34 37  0  0  0  0  0  0  0  0999 V2000
  -15.5005   -6.3699    6.5503 C   0  0  0  0  0  0  0  0  0  0  0  0
  -14.2441   -7.0956    6.8904 C   0  0  0  0  0  0  0  0  0  0  0  0
  -13.4427   -6.7138    7.9762 C   0  0  0  0  0  0  0  0  0  0  0  0
  -12.3655   -7.5646    7.9793 C   0  0  0  0  0  0  0  0  0  0  0  0
  -11.0960   -7.8268    8.7769 C   0  0  0  0  0  0  0  0  0  0  0  0
  -10.2780   -8.5735    7.7478 C   0  0  0  0  0  0  0  0  0  0  0  0
  -11.3368   -9.3376    6.9545 C   0  0  0  0  0  0  0  0  0  0  0  0
  -12.4671   -8.4212    6.9790 N   0  0  0  0  0  0  0  0  0  0  0  0
  -13.6220   -8.1471    6.2960 C   0  0  0  0  0  0  0  0  0  0  0  0
  -14.0693   -8.9439    5.1342 C   0  0  0  0  0  0  0  0  0  0  0  0
  -13.1898   -9.5771    4.4653 O   0  0  0  0  0  0  0  0  0  0  0  0
  -15.4090   -9.0348    4.7429 N   0  0  0  0  0  0  0  0  0  0  0  0
  -16.1990   -8.5582    5.2692 H   0  0  0  0  0  0  0  0  0  0  0  0
  -15.8934   -9.7904    3.6334 C   0  0  0  0  0  0  0  0  0  0  0  0
  -16.7313   -9.1818    2.6892 C   0  0  0  0  0  0  0  0  0  0  0  0
  -17.2464   -9.8689    1.6158 C   0  0  0  0  0  0  0  0  0  0  0  0
  -16.9608  -11.1919    1.4196 C   0  0  0  0  0  0  0  0  0  0  0  0
  -17.4414  -11.9093    0.3819 F   0  0  0  0  0  0  0  0  0  0  0  0
  -16.1513  -11.8116    2.3178 C   0  0  0  0  0  0  0  0  0  0  0  0
  -15.7575  -13.4988    2.1109 Cl  0  0  0  0  0  0  0  0  0  0  0  0
  -15.6243  -11.1130    3.4146 C   0  0  0  0  0  0  0  0  0  0  0  0
  -13.7135   -5.6278    8.9070 C   0  0  0  0  0  0  0  0  0  0  0  0
  -14.2883   -4.5771    8.5226 O   0  0  0  0  0  0  0  0  0  0  0  0
  -13.3336   -5.7127   10.3084 C   0  0  0  0  0  0  0  0  0  0  0  0
  -14.1492   -6.2461   11.1071 O   0  0  0  0  0  0  0  0  0  0  0  0
  -12.0854   -5.2127   10.7669 N   0  0  0  0  0  0  0  0  0  0  0  0
  -11.4078   -4.7709   10.1105 H   0  0  0  0  0  0  0  0  0  0  0  0
  -11.7312   -5.3095   12.1665 C   0  0  0  0  0  0  0  0  0  0  0  0
  -10.2878   -5.1314   12.4867 C   0  0  0  0  0  0  0  0  0  0  0  0
  -10.9358   -6.4888   12.5945 C   0  0  0  0  0  0  0  0  0  0  0  0
  -12.7268   -4.7626   13.1892 C   0  0  0  0  0  0  0  0  0  0  0  0
  -12.9341   -3.4330   12.9278 F   0  0  0  0  0  0  0  0  0  0  0  0
  -12.2210   -4.9364   14.4760 F   0  0  0  0  0  0  0  0  0  0  0  0
  -13.9444   -5.4017   13.0528 F   0  0  0  0  0  0  0  0  0  0  0  0
  1  2  1  0  0  0
  2  3  1  0  0  0
  3 22  1  0  0  0
 22 23  2  0  0  0
 22 24  1  0  0  0
 24 25  2  0  0  0
 24 26  1  0  0  0
 26 28  1  0  0  0
 28 29  1  0  0  0
 29 30  1  0  0  0
 28 31  1  0  0  0
 31 32  1  0  0  0
 31 33  1  0  0  0
 31 34  1  0  0  0
  3  4  2  0  0  0
  4  5  1  0  0  0
  5  6  1  0  0  0
  6  7  1  0  0  0
  7  8  1  0  0  0
  8  9  1  0  0  0
  9 10  1  0  0  0
 10 11  2  0  0  0
 10 12  1  0  0  0
 12 14  1  0  0  0
 14 15  2  0  0  0
 15 16  1  0  0  0
 16 17  2  0  0  0
 17 18  1  0  0  0
 17 19  1  0  0  0
 19 20  1  0  0  0
 19 21  2  0  0  0
  9  2  2  0  0  0
 21 14  1  0  0  0
 30 28  1  0  0  0
  8  4  1  0  0  0
 26 27  1  0  0  0
 12 13  1  0  0  0
M  END
> <minimizedAffinity>
38.75227

> <CNNscore>
0.4064166546

> <CNNaffinity>
6.4943580627

> <CNN_VS>
2.6394152641

> <CNNaffinity_variance>
0.7617415190

$$$$
[H]c1c([H])c(N([H])C(=O)c2c(C([H])([H])[H])c(C(=O)C(=O)N([H])C3(C(F)(F)F)C([H])([H])C3([H])[H])c3n2C([H])([H])C([H])([H])C3([H])[H])c([H])c(Cl)c1F


 34 37  0  0  0  0  0  0  0  0999 V2000
   -9.4479   -7.8194   10.0959 C   0  0  0  0  0  0  0  0  0  0  0  0
   -9.2296   -7.1999    8.7581 C   0  0  0  0  0  0  0  0  0  0  0  0
  -10.2908   -6.9678    7.8710 C   0  0  0  0  0  0  0  0  0  0  0  0
   -9.7362   -6.4240    6.7391 C   0  0  0  0  0  0  0  0  0  0  0  0
  -10.1606   -5.9070    5.3720 C   0  0  0  0  0  0  0  0  0  0  0  0
   -8.8536   -6.0208    4.6208 C   0  0  0  0  0  0  0  0  0  0  0  0
   -7.8098   -5.7428    5.7013 C   0  0  0  0  0  0  0  0  0  0  0  0
   -8.4282   -6.3160    6.8876 N   0  0  0  0  0  0  0  0  0  0  0  0
   -8.0974   -6.7896    8.1293 C   0  0  0  0  0  0  0  0  0  0  0  0
   -6.7115   -6.7803    8.6428 C   0  0  0  0  0  0  0  0  0  0  0  0
   -5.9185   -7.6959    8.2490 O   0  0  0  0  0  0  0  0  0  0  0  0
   -6.2355   -5.8131    9.5340 N   0  0  0  0  0  0  0  0  0  0  0  0
   -6.8301   -5.0049    9.8822 H   0  0  0  0  0  0  0  0  0  0  0  0
   -4.9089   -5.7571   10.0570 C   0  0  0  0  0  0  0  0  0  0  0  0
   -4.6927   -5.2812   11.3574 C   0  0  0  0  0  0  0  0  0  0  0  0
   -3.4344   -5.1824   11.9018 C   0  0  0  0  0  0  0  0  0  0  0  0
   -2.3251   -5.5482   11.1906 C   0  0  0  0  0  0  0  0  0  0  0  0
   -1.0696   -5.4701   11.6808 F   0  0  0  0  0  0  0  0  0  0  0  0
   -2.5006   -6.0134    9.9261 C   0  0  0  0  0  0  0  0  0  0  0  0
   -1.1163   -6.4927    8.9783 Cl  0  0  0  0  0  0  0  0  0  0  0  0
   -3.7838   -6.1151    9.3676 C   0  0  0  0  0  0  0  0  0  0  0  0
  -11.6971   -7.2524    8.1167 C   0  0  0  0  0  0  0  0  0  0  0  0
  -12.1535   -7.2851    9.2883 O   0  0  0  0  0  0  0  0  0  0  0  0
  -12.6246   -7.5085    7.0259 C   0  0  0  0  0  0  0  0  0  0  0  0
  -12.3373   -8.4283    6.2140 O   0  0  0  0  0  0  0  0  0  0  0  0
  -13.8165   -6.7500    6.8763 N   0  0  0  0  0  0  0  0  0  0  0  0
  -14.0583   -5.9887    7.5449 H   0  0  0  0  0  0  0  0  0  0  0  0
  -14.7228   -7.0248    5.7823 C   0  0  0  0  0  0  0  0  0  0  0  0
  -14.1228   -7.6846    4.5897 C   0  0  0  0  0  0  0  0  0  0  0  0
  -14.5507   -6.2397    4.5331 C   0  0  0  0  0  0  0  0  0  0  0  0
  -16.1555   -7.4263    6.1324 C   0  0  0  0  0  0  0  0  0  0  0  0
  -17.0118   -6.5054    5.5868 F   0  0  0  0  0  0  0  0  0  0  0  0
  -16.3043   -7.4743    7.5171 F   0  0  0  0  0  0  0  0  0  0  0  0
  -16.4555   -8.6506    5.5663 F   0  0  0  0  0  0  0  0  0  0  0  0
  1  2  1  0  0  0
  2  3  1  0  0  0
  3 22  1  0  0  0
 22 23  2  0  0  0
 22 24  1  0  0  0
 24 25  2  0  0  0
 24 26  1  0  0  0
 26 28  1  0  0  0
 28 29  1  0  0  0
 29 30  1  0  0  0
 28 31  1  0  0  0
 31 32  1  0  0  0
 31 33  1  0  0  0
 31 34  1  0  0  0
  3  4  2  0  0  0
  4  5  1  0  0  0
  5  6  1  0  0  0
  6  7  1  0  0  0
  7  8  1  0  0  0
  8  9  1  0  0  0
  9 10  1  0  0  0
 10 11  2  0  0  0
 10 12  1  0  0  0
 12 14  1  0  0  0
 14 15  2  0  0  0
 15 16  1  0  0  0
 16 17  2  0  0  0
 17 18  1  0  0  0
 17 19  1  0  0  0
 19 20  1  0  0  0
 19 21  2  0  0  0
  9  2  2  0  0  0
 21 14  1  0  0  0
 30 28  1  0  0  0
  8  4  1  0  0  0
 26 27  1  0  0  0
 12 13  1  0  0  0
M  END
> <minimizedAffinity>
8.64799

> <CNNscore>
0.3984603882

> <CNNaffinity>
6.5182900429

> <CNN_VS>
2.5972802639

> <CNNaffinity_variance>
1.2683023214

$$$$
[H]c1nc2c([H])c(C([H])([H])[H])c(-c3c(C([H])(C([H])([H])[H])C([H])([H])[H])c4c([H])c(C5([H])C([H])([H])C([H])([H])N(C([H])([H])c6c([H])nn(C([H])([H])[H])c6[H])C([H])([H])C5([H])[H])c([H])c([H])c4n3[H])c([H])n2n1


 36 41  0  0  0  0  0  0  0  0999 V2000
  -12.2820   -7.1417    7.5321 C   0  0  0  0  0  0  0  0  0  0  0  0
  -12.8674   -6.9371    6.2763 C   0  0  0  0  0  0  0  0  0  0  0  0
  -11.8884   -6.5261    5.4634 N   0  0  0  0  0  0  0  0  0  0  0  0
  -10.7155   -6.4594    6.1185 C   0  0  0  0  0  0  0  0  0  0  0  0
   -9.4713   -6.1008    5.6690 C   0  0  0  0  0  0  0  0  0  0  0  0
   -8.3789   -6.1194    6.5430 C   0  0  0  0  0  0  0  0  0  0  0  0
   -8.5368   -6.4921    7.8481 C   0  0  0  0  0  0  0  0  0  0  0  0
   -9.8244   -6.8473    8.2592 C   0  0  0  0  0  0  0  0  0  0  0  0
  -10.9175   -6.8399    7.4222 C   0  0  0  0  0  0  0  0  0  0  0  0
  -11.9712   -6.2869    4.4286 H   0  0  0  0  0  0  0  0  0  0  0  0
  -14.2770   -7.0779    5.8604 C   0  0  0  0  0  0  0  0  0  0  0  0
  -14.8277   -8.3211    5.6403 C   0  0  0  0  0  0  0  0  0  0  0  0
  -16.1271   -8.4335    5.3376 N   0  0  0  0  0  0  0  0  0  0  0  0
  -16.8934   -9.4987    5.0787 N   0  0  0  0  0  0  0  0  0  0  0  0
  -18.1489   -9.1008    4.8215 C   0  0  0  0  0  0  0  0  0  0  0  0
  -18.1765   -7.7794    4.9177 N   0  0  0  0  0  0  0  0  0  0  0  0
  -16.9278   -7.3733    5.2356 C   0  0  0  0  0  0  0  0  0  0  0  0
  -16.4158   -6.1315    5.4450 C   0  0  0  0  0  0  0  0  0  0  0  0
  -15.0669   -5.9566    5.7652 C   0  0  0  0  0  0  0  0  0  0  0  0
  -14.6167   -4.5633    5.9953 C   0  0  0  0  0  0  0  0  0  0  0  0
   -7.4032   -6.5527    8.7748 C   0  0  0  0  0  0  0  0  0  0  0  0
   -6.0756   -6.3454    8.0340 C   0  0  0  0  0  0  0  0  0  0  0  0
   -4.9826   -6.5589    9.0265 C   0  0  0  0  0  0  0  0  0  0  0  0
   -5.5219   -6.4697   10.4157 N   0  0  0  0  0  0  0  0  0  0  0  0
   -6.2132   -7.7453   10.5711 C   0  0  0  0  0  0  0  0  0  0  0  0
   -7.2768   -7.8615    9.4982 C   0  0  0  0  0  0  0  0  0  0  0  0
   -4.3817   -6.3067   11.2371 C   0  0  0  0  0  0  0  0  0  0  0  0
   -4.4611   -5.3423   12.3337 C   0  0  0  0  0  0  0  0  0  0  0  0
   -3.5733   -4.4860   12.9176 C   0  0  0  0  0  0  0  0  0  0  0  0
   -4.2036   -3.8546   13.9010 N   0  0  0  0  0  0  0  0  0  0  0  0
   -5.4503   -4.2523   13.9905 N   0  0  0  0  0  0  0  0  0  0  0  0
   -6.4785   -3.8249   14.9237 C   0  0  0  0  0  0  0  0  0  0  0  0
   -5.6481   -5.1666   13.0435 C   0  0  0  0  0  0  0  0  0  0  0  0
  -14.3213   -6.8656    9.0054 C   0  0  0  0  0  0  0  0  0  0  0  0
  -12.9765   -7.4698    8.7683 C   0  0  0  0  0  0  0  0  0  0  0  0
  -13.1856   -9.0287    8.7274 C   0  0  0  0  0  0  0  0  0  0  0  0
 34 35  1  0  0  0
 35 36  1  0  0  0
 35  1  1  0  0  0
  1  2  2  0  0  0
  2  3  1  0  0  0
  3  4  1  0  0  0
  4  5  2  0  0  0
  5  6  1  0  0  0
  6  7  2  0  0  0
  7  8  1  0  0  0
  8  9  2  0  0  0
  7 21  1  0  0  0
 21 22  1  0  0  0
 22 23  1  0  0  0
 23 24  1  0  0  0
 24 27  1  0  0  0
 27 28  1  0  0  0
 28 29  1  0  0  0
 29 30  2  0  0  0
 30 31  1  0  0  0
 31 32  1  0  0  0
 31 33  1  0  0  0
 24 25  1  0  0  0
 25 26  1  0  0  0
  2 11  1  0  0  0
 11 12  2  0  0  0
 12 13  1  0  0  0
 13 14  1  0  0  0
 14 15  2  0  0  0
 15 16  1  0  0  0
 16 17  2  0  0  0
 17 18  1  0  0  0
 18 19  2  0  0  0
 19 20  1  0  0  0
  9  1  1  0  0  0
 26 21  1  0  0  0
 19 11  1  0  0  0
  9  4  1  0  0  0
 33 28  2  0  0  0
 17 13  1  0  0  0
  3 10  1  0  0  0
M  END
> <minimizedAffinity>
11.87060

> <CNNscore>
0.4415197968

> <CNNaffinity>
7.1745705605

> <CNN_VS>
3.1677148342

> <CNNaffinity_variance>
1.0281231403

$$$$
[H]c1nc2c([H])c(C([H])([H])[H])c(-c3c(C([H])(C([H])([H])[H])C([H])([H])[H])c4c([H])c(C5([H])C([H])([H])C([H])([H])N(C([H])([H])c6c([H])nn(C([H])([H])[H])c6[H])C([H])([H])C5([H])[H])c([H])c([H])c4n3[H])c([H])n2n1


 36 41  0  0  0  0  0  0  0  0999 V2000
   -4.4920   -5.2178    7.2091 C   0  0  0  0  0  0  0  0  0  0  0  0
   -4.0444   -4.9516    8.5092 C   0  0  0  0  0  0  0  0  0  0  0  0
   -4.5243   -5.9303    9.2839 N   0  0  0  0  0  0  0  0  0  0  0  0
   -5.2455   -6.8058    8.5611 C   0  0  0  0  0  0  0  0  0  0  0  0
   -5.8981   -7.9467    8.9499 C   0  0  0  0  0  0  0  0  0  0  0  0
   -6.5834   -8.7179    8.0048 C   0  0  0  0  0  0  0  0  0  0  0  0
   -6.6118   -8.3460    6.6903 C   0  0  0  0  0  0  0  0  0  0  0  0
   -5.9331   -7.1746    6.3434 C   0  0  0  0  0  0  0  0  0  0  0  0
   -5.2496   -6.3965    7.2506 C   0  0  0  0  0  0  0  0  0  0  0  0
   -4.3721   -6.0531   10.3312 H   0  0  0  0  0  0  0  0  0  0  0  0
   -3.2425   -3.8201    9.0157 C   0  0  0  0  0  0  0  0  0  0  0  0
   -3.8491   -2.7306    9.6008 C   0  0  0  0  0  0  0  0  0  0  0  0
   -3.1027   -1.7489   10.1223 N   0  0  0  0  0  0  0  0  0  0  0  0
   -3.4333   -0.6048   10.7312 N   0  0  0  0  0  0  0  0  0  0  0  0
   -2.3209    0.0606   11.0782 C   0  0  0  0  0  0  0  0  0  0  0  0
   -1.2833   -0.6649   10.6870 N   0  0  0  0  0  0  0  0  0  0  0  0
   -1.7708   -1.7788   10.0982 C   0  0  0  0  0  0  0  0  0  0  0  0
   -1.1404   -2.8391    9.5266 C   0  0  0  0  0  0  0  0  0  0  0  0
   -1.8703   -3.8919    8.9687 C   0  0  0  0  0  0  0  0  0  0  0  0
   -1.0851   -5.0087    8.3917 C   0  0  0  0  0  0  0  0  0  0  0  0
   -7.2935   -9.1540    5.6753 C   0  0  0  0  0  0  0  0  0  0  0  0
   -6.9149   -8.6943    4.2612 C   0  0  0  0  0  0  0  0  0  0  0  0
   -7.7543   -9.4761    3.3074 C   0  0  0  0  0  0  0  0  0  0  0  0
   -8.3224  -10.6786    3.9855 N   0  0  0  0  0  0  0  0  0  0  0  0
   -9.3889  -10.1092    4.8024 C   0  0  0  0  0  0  0  0  0  0  0  0
   -8.7910   -9.0874    5.7481 C   0  0  0  0  0  0  0  0  0  0  0  0
   -8.7614  -11.5148    2.9322 C   0  0  0  0  0  0  0  0  0  0  0  0
   -8.3541  -12.9192    2.9589 C   0  0  0  0  0  0  0  0  0  0  0  0
   -8.2539  -13.9018    2.0172 C   0  0  0  0  0  0  0  0  0  0  0  0
   -7.8410  -15.0076    2.6252 N   0  0  0  0  0  0  0  0  0  0  0  0
   -7.6681  -14.8003    3.9088 N   0  0  0  0  0  0  0  0  0  0  0  0
   -7.2332  -15.7350    4.9324 C   0  0  0  0  0  0  0  0  0  0  0  0
   -7.9726  -13.5279    4.1537 C   0  0  0  0  0  0  0  0  0  0  0  0
   -3.3054   -4.7407    5.0251 C   0  0  0  0  0  0  0  0  0  0  0  0
   -4.3284   -4.3608    6.0443 C   0  0  0  0  0  0  0  0  0  0  0  0
   -5.7210   -4.3826    5.3123 C   0  0  0  0  0  0  0  0  0  0  0  0
 34 35  1  0  0  0
 35 36  1  0  0  0
 35  1  1  0  0  0
  1  2  2  0  0  0
  2  3  1  0  0  0
  3  4  1  0  0  0
  4  5  2  0  0  0
  5  6  1  0  0  0
  6  7  2  0  0  0
  7  8  1  0  0  0
  8  9  2  0  0  0
  7 21  1  0  0  0
 21 22  1  0  0  0
 22 23  1  0  0  0
 23 24  1  0  0  0
 24 27  1  0  0  0
 27 28  1  0  0  0
 28 29  1  0  0  0
 29 30  2  0  0  0
 30 31  1  0  0  0
 31 32  1  0  0  0
 31 33  1  0  0  0
 24 25  1  0  0  0
 25 26  1  0  0  0
  2 11  1  0  0  0
 11 12  2  0  0  0
 12 13  1  0  0  0
 13 14  1  0  0  0
 14 15  2  0  0  0
 15 16  1  0  0  0
 16 17  2  0  0  0
 17 18  1  0  0  0
 18 19  2  0  0  0
 19 20  1  0  0  0
  9  1  1  0  0  0
 26 21  1  0  0  0
 19 11  1  0  0  0
  9  4  1  0  0  0
 33 28  2  0  0  0
 17 13  1  0  0  0
  3 10  1  0  0  0
M  END
> <minimizedAffinity>
17.89586

> <CNNscore>
0.3192779124

> <CNNaffinity>
6.2634887695

> <CNN_VS>
1.9997936487

> <CNNaffinity_variance>
1.0869252682

$$$$
[H]c1nc2c([H])c(C([H])([H])[H])c(-c3c(C([H])(C([H])([H])[H])C([H])([H])[H])c4c([H])c(C5([H])C([H])([H])C([H])([H])N(C([H])([H])c6c([H])nn(C([H])([H])[H])c6[H])C([H])([H])C5([H])[H])c([H])c([H])c4n3[H])c([H])n2n1


 36 41  0  0  0  0  0  0  0  0999 V2000
   -7.0064   -8.7188    6.0681 C   0  0  0  0  0  0  0  0  0  0  0  0
   -7.7129   -9.5954    6.9011 C   0  0  0  0  0  0  0  0  0  0  0  0
   -7.4542   -9.2170    8.1573 N   0  0  0  0  0  0  0  0  0  0  0  0
   -6.6317   -8.1530    8.1793 C   0  0  0  0  0  0  0  0  0  0  0  0
   -6.1279   -7.4473    9.2408 C   0  0  0  0  0  0  0  0  0  0  0  0
   -5.2879   -6.3509    9.0173 C   0  0  0  0  0  0  0  0  0  0  0  0
   -4.9599   -5.9720    7.7461 C   0  0  0  0  0  0  0  0  0  0  0  0
   -5.4969   -6.7236    6.6973 C   0  0  0  0  0  0  0  0  0  0  0  0
   -6.3268   -7.8058    6.8864 C   0  0  0  0  0  0  0  0  0  0  0  0
   -7.8344   -9.6550    9.0509 H   0  0  0  0  0  0  0  0  0  0  0  0
   -8.5564  -10.7548    6.5486 C   0  0  0  0  0  0  0  0  0  0  0  0
   -7.9935  -11.9205    6.0776 C   0  0  0  0  0  0  0  0  0  0  0  0
   -8.7664  -12.9865    5.8350 N   0  0  0  0  0  0  0  0  0  0  0  0
   -8.4791  -14.2113    5.3807 N   0  0  0  0  0  0  0  0  0  0  0  0
   -9.6039  -14.9386    5.2988 C   0  0  0  0  0  0  0  0  0  0  0  0
  -10.6059  -14.1710    5.7022 N   0  0  0  0  0  0  0  0  0  0  0  0
  -10.0842  -12.9689    6.0311 C   0  0  0  0  0  0  0  0  0  0  0  0
  -10.6719  -11.8336    6.4937 C   0  0  0  0  0  0  0  0  0  0  0  0
   -9.9127  -10.6924    6.7650 C   0  0  0  0  0  0  0  0  0  0  0  0
  -10.6488   -9.5165    7.2867 C   0  0  0  0  0  0  0  0  0  0  0  0
   -4.1100   -4.8073    7.4841 C   0  0  0  0  0  0  0  0  0  0  0  0
   -2.6694   -5.0627    7.9466 C   0  0  0  0  0  0  0  0  0  0  0  0
   -1.9192   -3.7858    7.7671 C   0  0  0  0  0  0  0  0  0  0  0  0
   -2.6600   -2.8773    6.8427 N   0  0  0  0  0  0  0  0  0  0  0  0
   -3.7428   -2.3803    7.6851 C   0  0  0  0  0  0  0  0  0  0  0  0
   -4.5567   -3.5570    8.1839 C   0  0  0  0  0  0  0  0  0  0  0  0
   -1.7112   -1.9018    6.4560 C   0  0  0  0  0  0  0  0  0  0  0  0
   -1.9066   -0.5321    6.9298 C   0  0  0  0  0  0  0  0  0  0  0  0
   -1.0686    0.4691    7.3269 C   0  0  0  0  0  0  0  0  0  0  0  0
   -1.8150    1.5099    7.6767 N   0  0  0  0  0  0  0  0  0  0  0  0
   -3.0908    1.2422    7.5307 N   0  0  0  0  0  0  0  0  0  0  0  0
   -4.2372    2.0926    7.8015 C   0  0  0  0  0  0  0  0  0  0  0  0
   -3.1888   -0.0037    7.0727 C   0  0  0  0  0  0  0  0  0  0  0  0
   -8.1198   -8.9827    3.8106 C   0  0  0  0  0  0  0  0  0  0  0  0
   -6.8774   -8.8135    4.6216 C   0  0  0  0  0  0  0  0  0  0  0  0
   -6.2293   -7.4523    4.1712 C   0  0  0  0  0  0  0  0  0  0  0  0
 34 35  1  0  0  0
 35 36  1  0  0  0
 35  1  1  0  0  0
  1  2  2  0  0  0
  2  3  1  0  0  0
  3  4  1  0  0  0
  4  5  2  0  0  0
  5  6  1  0  0  0
  6  7  2  0  0  0
  7  8  1  0  0  0
  8  9  2  0  0  0
  7 21  1  0  0  0
 21 22  1  0  0  0
 22 23  1  0  0  0
 23 24  1  0  0  0
 24 27  1  0  0  0
 27 28  1  0  0  0
 28 29  1  0  0  0
 29 30  2  0  0  0
 30 31  1  0  0  0
 31 32  1  0  0  0
 31 33  1  0  0  0
 24 25  1  0  0  0
 25 26  1  0  0  0
  2 11  1  0  0  0
 11 12  2  0  0  0
 12 13  1  0  0  0
 13 14  1  0  0  0
 14 15  2  0  0  0
 15 16  1  0  0  0
 16 17  2  0  0  0
 17 18  1  0  0  0
 18 19  2  0  0  0
 19 20  1  0  0  0
  9  1  1  0  0  0
 26 21  1  0  0  0
 19 11  1  0  0  0
  9  4  1  0  0  0
 33 28  2  0  0  0
 17 13  1  0  0  0
  3 10  1  0  0  0
M  END
> <minimizedAffinity>
27.28426

> <CNNscore>
0.3003028333

> <CNNaffinity>
6.1321301460

> <CNN_VS>
1.8414961100

> <CNNaffinity_variance>
0.8671066165

$$$$
[H]c1nc2c([H])c(C([H])([H])[H])c(-c3c(C([H])(C([H])([H])[H])C([H])([H])[H])c4c([H])c(C5([H])C([H])([H])C([H])([H])N(C([H])([H])c6c([H])nn(C([H])([H])[H])c6[H])C([H])([H])C5([H])[H])c([H])c([H])c4n3[H])c([H])n2n1


 36 41  0  0  0  0  0  0  0  0999 V2000
  -10.9126   -6.7961    8.8764 C   0  0  0  0  0  0  0  0  0  0  0  0
  -11.5543   -7.4187    7.7983 C   0  0  0  0  0  0  0  0  0  0  0  0
  -10.5973   -7.7419    6.9220 N   0  0  0  0  0  0  0  0  0  0  0  0
   -9.3862   -7.3695    7.3734 C   0  0  0  0  0  0  0  0  0  0  0  0
   -8.1477   -7.5165    6.8050 C   0  0  0  0  0  0  0  0  0  0  0  0
   -7.0101   -7.0555    7.4764 C   0  0  0  0  0  0  0  0  0  0  0  0
   -7.1178   -6.4557    8.6993 C   0  0  0  0  0  0  0  0  0  0  0  0
   -8.4015   -6.3274    9.2366 C   0  0  0  0  0  0  0  0  0  0  0  0
   -9.5385   -6.7723    8.6003 C   0  0  0  0  0  0  0  0  0  0  0  0
  -10.7232   -8.2398    5.9886 H   0  0  0  0  0  0  0  0  0  0  0  0
  -12.9925   -7.6658    7.5738 C   0  0  0  0  0  0  0  0  0  0  0  0
  -13.7528   -6.7879    6.8332 C   0  0  0  0  0  0  0  0  0  0  0  0
  -15.0370   -7.0665    6.5763 N   0  0  0  0  0  0  0  0  0  0  0  0
  -15.9766   -6.3970    5.8998 N   0  0  0  0  0  0  0  0  0  0  0  0
  -17.1276   -7.0866    5.9220 C   0  0  0  0  0  0  0  0  0  0  0  0
  -16.9152   -8.1957    6.6153 N   0  0  0  0  0  0  0  0  0  0  0  0
  -15.6253   -8.1781    7.0166 C   0  0  0  0  0  0  0  0  0  0  0  0
  -14.9037   -9.0650    7.7520 C   0  0  0  0  0  0  0  0  0  0  0  0
  -13.5594   -8.8250    8.0482 C   0  0  0  0  0  0  0  0  0  0  0  0
  -12.8595   -9.8664    8.8371 C   0  0  0  0  0  0  0  0  0  0  0  0
   -5.9391   -5.9949    9.4382 C   0  0  0  0  0  0  0  0  0  0  0  0
   -4.7681   -5.7159    8.4868 C   0  0  0  0  0  0  0  0  0  0  0  0
   -3.5846   -5.3880    9.3338 C   0  0  0  0  0  0  0  0  0  0  0  0
   -4.0218   -5.0299   10.7155 N   0  0  0  0  0  0  0  0  0  0  0  0
   -4.3520   -6.3292   11.2915 C   0  0  0  0  0  0  0  0  0  0  0  0
   -5.4293   -6.9808   10.4485 C   0  0  0  0  0  0  0  0  0  0  0  0
   -2.9017   -4.3892   11.2953 C   0  0  0  0  0  0  0  0  0  0  0  0
   -2.8852   -4.2226   12.7482 C   0  0  0  0  0  0  0  0  0  0  0  0
   -3.3802   -4.9420   13.7969 C   0  0  0  0  0  0  0  0  0  0  0  0
   -3.0762   -4.2933   14.9149 N   0  0  0  0  0  0  0  0  0  0  0  0
   -2.4128   -3.1926   14.6528 N   0  0  0  0  0  0  0  0  0  0  0  0
   -1.8980   -2.1969   15.5769 C   0  0  0  0  0  0  0  0  0  0  0  0
   -2.2744   -3.1133   13.3313 C   0  0  0  0  0  0  0  0  0  0  0  0
  -12.4210   -4.9677    9.7638 C   0  0  0  0  0  0  0  0  0  0  0  0
  -11.5554   -6.1581   10.0156 C   0  0  0  0  0  0  0  0  0  0  0  0
  -12.4832   -7.2633   10.6430 C   0  0  0  0  0  0  0  0  0  0  0  0
 34 35  1  0  0  0
 35 36  1  0  0  0
 35  1  1  0  0  0
  1  2  2  0  0  0
  2  3  1  0  0  0
  3  4  1  0  0  0
  4  5  2  0  0  0
  5  6  1  0  0  0
  6  7  2  0  0  0
  7  8  1  0  0  0
  8  9  2  0  0  0
  7 21  1  0  0  0
 21 22  1  0  0  0
 22 23  1  0  0  0
 23 24  1  0  0  0
 24 27  1  0  0  0
 27 28  1  0  0  0
 28 29  1  0  0  0
 29 30  2  0  0  0
 30 31  1  0  0  0
 31 32  1  0  0  0
 31 33  1  0  0  0
 24 25  1  0  0  0
 25 26  1  0  0  0
  2 11  1  0  0  0
 11 12  2  0  0  0
 12 13  1  0  0  0
 13 14  1  0  0  0
 14 15  2  0  0  0
 15 16  1  0  0  0
 16 17  2  0  0  0
 17 18  1  0  0  0
 18 19  2  0  0  0
 19 20  1  0  0  0
  9  1  1  0  0  0
 26 21  1  0  0  0
 19 11  1  0  0  0
  9  4  1  0  0  0
 33 28  2  0  0  0
 17 13  1  0  0  0
  3 10  1  0  0  0
M  END
> <minimizedAffinity>
-0.72244

> <CNNscore>
0.2725632191

> <CNNaffinity>
6.9670472145

> <CNN_VS>
1.8989608288

> <CNNaffinity_variance>
0.5018419623

$$$$
[H]c1nc2c([H])c(C([H])([H])[H])c(-c3c(C([H])(C([H])([H])[H])C([H])([H])[H])c4c([H])c(C5([H])C([H])([H])C([H])([H])N(C([H])([H])c6c([H])nn(C([H])([H])[H])c6[H])C([H])([H])C5([H])[H])c([H])c([H])c4n3[H])c([H])n2n1


 36 41  0  0  0  0  0  0  0  0999 V2000
   -4.3468   -4.5884   11.2527 C   0  0  0  0  0  0  0  0  0  0  0  0
   -3.3937   -3.5745   11.4119 C   0  0  0  0  0  0  0  0  0  0  0  0
   -2.8519   -3.3700   10.2066 N   0  0  0  0  0  0  0  0  0  0  0  0
   -3.4008   -4.1850    9.2880 C   0  0  0  0  0  0  0  0  0  0  0  0
   -3.1506   -4.2985    7.9452 C   0  0  0  0  0  0  0  0  0  0  0  0
   -3.8656   -5.2225    7.1755 C   0  0  0  0  0  0  0  0  0  0  0  0
   -4.8161   -6.0196    7.7485 C   0  0  0  0  0  0  0  0  0  0  0  0
   -5.0338   -5.8680    9.1206 C   0  0  0  0  0  0  0  0  0  0  0  0
   -4.3471   -4.9669    9.9030 C   0  0  0  0  0  0  0  0  0  0  0  0
   -2.0979   -2.6612    9.9535 H   0  0  0  0  0  0  0  0  0  0  0  0
   -2.9771   -2.8573   12.6333 C   0  0  0  0  0  0  0  0  0  0  0  0
   -3.2524   -3.3698   13.8818 C   0  0  0  0  0  0  0  0  0  0  0  0
   -2.8010   -2.7446   14.9764 N   0  0  0  0  0  0  0  0  0  0  0  0
   -2.9275   -3.0232   16.2785 N   0  0  0  0  0  0  0  0  0  0  0  0
   -2.2964   -2.0876   17.0045 C   0  0  0  0  0  0  0  0  0  0  0  0
   -1.7694   -1.2141   16.1587 N   0  0  0  0  0  0  0  0  0  0  0  0
   -2.0837   -1.6236   14.9102 C   0  0  0  0  0  0  0  0  0  0  0  0
   -1.7956   -1.0902   13.6934 C   0  0  0  0  0  0  0  0  0  0  0  0
   -2.2403   -1.7022   12.5186 C   0  0  0  0  0  0  0  0  0  0  0  0
   -1.8519   -1.0508   11.2452 C   0  0  0  0  0  0  0  0  0  0  0  0
   -5.6024   -6.9711    6.9585 C   0  0  0  0  0  0  0  0  0  0  0  0
   -4.6947   -8.0085    6.2845 C   0  0  0  0  0  0  0  0  0  0  0  0
   -5.5622   -8.8412    5.4016 C   0  0  0  0  0  0  0  0  0  0  0  0
   -6.9957   -8.6810    5.7865 N   0  0  0  0  0  0  0  0  0  0  0  0
   -7.3258   -7.3672    5.2444 C   0  0  0  0  0  0  0  0  0  0  0  0
   -6.3994   -6.3362    5.8567 C   0  0  0  0  0  0  0  0  0  0  0  0
   -7.6605   -9.7649    5.1665 C   0  0  0  0  0  0  0  0  0  0  0  0
   -7.3942  -10.0102    3.7495 C   0  0  0  0  0  0  0  0  0  0  0  0
   -6.5483   -9.4634    2.8288 C   0  0  0  0  0  0  0  0  0  0  0  0
   -6.7541  -10.0792    1.6707 N   0  0  0  0  0  0  0  0  0  0  0  0
   -7.6865  -10.9946    1.7855 N   0  0  0  0  0  0  0  0  0  0  0  0
   -8.2178  -11.8867    0.7695 C   0  0  0  0  0  0  0  0  0  0  0  0
   -8.1050  -10.9838    3.0491 C   0  0  0  0  0  0  0  0  0  0  0  0
   -6.3073   -6.0378   11.9317 C   0  0  0  0  0  0  0  0  0  0  0  0
   -5.1043   -5.2389   12.3115 C   0  0  0  0  0  0  0  0  0  0  0  0
   -4.0969   -6.2393   12.9899 C   0  0  0  0  0  0  0  0  0  0  0  0
 34 35  1  0  0  0
 35 36  1  0  0  0
 35  1  1  0  0  0
  1  2  2  0  0  0
  2  3  1  0  0  0
  3  4  1  0  0  0
  4  5  2  0  0  0
  5  6  1  0  0  0
  6  7  2  0  0  0
  7  8  1  0  0  0
  8  9  2  0  0  0
  7 21  1  0  0  0
 21 22  1  0  0  0
 22 23  1  0  0  0
 23 24  1  0  0  0
 24 27  1  0  0  0
 27 28  1  0  0  0
 28 29  1  0  0  0
 29 30  2  0  0  0
 30 31  1  0  0  0
 31 32  1  0  0  0
 31 33  1  0  0  0
 24 25  1  0  0  0
 25 26  1  0  0  0
  2 11  1  0  0  0
 11 12  2  0  0  0
 12 13  1  0  0  0
 13 14  1  0  0  0
 14 15  2  0  0  0
 15 16  1  0  0  0
 16 17  2  0  0  0
 17 18  1  0  0  0
 18 19  2  0  0  0
 19 20  1  0  0  0
  9  1  1  0  0  0
 26 21  1  0  0  0
 19 11  1  0  0  0
  9  4  1  0  0  0
 33 28  2  0  0  0
 17 13  1  0  0  0
  3 10  1  0  0  0
M  END
> <minimizedAffinity>
4.81784

> <CNNscore>
0.2615540326

> <CNNaffinity>
6.0559878349

> <CNN_VS>
1.5839680433

> <CNNaffinity_variance>
0.9461022615

$$$$
[H]c1nc2c([H])c(C([H])([H])[H])c(-c3c(C([H])(C([H])([H])[H])C([H])([H])[H])c4c([H])c(C5([H])C([H])([H])C([H])([H])N(C([H])([H])c6c([H])nn(C([H])([H])[H])c6[H])C([H])([H])C5([H])[H])c([H])c([H])c4n3[H])c([H])n2n1


 36 41  0  0  0  0  0  0  0  0999 V2000
   -8.0904   -6.6489   10.0341 C   0  0  0  0  0  0  0  0  0  0  0  0
   -6.7068   -6.8581   10.0938 C   0  0  0  0  0  0  0  0  0  0  0  0
   -6.4272   -7.8077    9.1947 N   0  0  0  0  0  0  0  0  0  0  0  0
   -7.5425   -8.2146    8.5624 C   0  0  0  0  0  0  0  0  0  0  0  0
   -7.7066   -9.1498    7.5739 C   0  0  0  0  0  0  0  0  0  0  0  0
   -8.9801   -9.4001    7.0513 C   0  0  0  0  0  0  0  0  0  0  0  0
  -10.0704   -8.7208    7.5171 C   0  0  0  0  0  0  0  0  0  0  0  0
   -9.8525   -7.7788    8.5262 C   0  0  0  0  0  0  0  0  0  0  0  0
   -8.6114   -7.5103    9.0586 C   0  0  0  0  0  0  0  0  0  0  0  0
   -5.4683   -8.2097    8.9626 H   0  0  0  0  0  0  0  0  0  0  0  0
   -5.6974   -6.2346   10.9724 C   0  0  0  0  0  0  0  0  0  0  0  0
   -5.7045   -6.4645   12.3305 C   0  0  0  0  0  0  0  0  0  0  0  0
   -4.7369   -5.9521   13.1012 N   0  0  0  0  0  0  0  0  0  0  0  0
   -4.5163   -6.0201   14.4186 N   0  0  0  0  0  0  0  0  0  0  0  0
   -3.4060   -5.3326   14.7273 C   0  0  0  0  0  0  0  0  0  0  0  0
   -2.9231   -4.8277   13.6013 N   0  0  0  0  0  0  0  0  0  0  0  0
   -3.7474   -5.2121   12.6024 C   0  0  0  0  0  0  0  0  0  0  0  0
   -3.7115   -4.9648   11.2660 C   0  0  0  0  0  0  0  0  0  0  0  0
   -4.6950   -5.4762   10.4153 C   0  0  0  0  0  0  0  0  0  0  0  0
   -4.5493   -5.1658    8.9734 C   0  0  0  0  0  0  0  0  0  0  0  0
  -11.4094   -8.9398    6.9633 C   0  0  0  0  0  0  0  0  0  0  0  0
  -12.2453   -7.6544    7.0210 C   0  0  0  0  0  0  0  0  0  0  0  0
  -13.6221   -8.0070    6.5675 C   0  0  0  0  0  0  0  0  0  0  0  0
  -13.6073   -9.3079    5.8352 N   0  0  0  0  0  0  0  0  0  0  0  0
  -13.4753  -10.2797    6.9156 C   0  0  0  0  0  0  0  0  0  0  0  0
  -12.2046   -9.9868    7.6872 C   0  0  0  0  0  0  0  0  0  0  0  0
  -14.8415   -9.3491    5.1451 C   0  0  0  0  0  0  0  0  0  0  0  0
  -15.7441   -8.2074    5.2892 C   0  0  0  0  0  0  0  0  0  0  0  0
  -16.5858   -7.7745    6.2723 C   0  0  0  0  0  0  0  0  0  0  0  0
  -17.1799   -6.6681    5.8413 N   0  0  0  0  0  0  0  0  0  0  0  0
  -16.7734   -6.3575    4.6334 N   0  0  0  0  0  0  0  0  0  0  0  0
  -17.1711   -5.2377    3.7978 C   0  0  0  0  0  0  0  0  0  0  0  0
  -15.8895   -7.2796    4.2589 C   0  0  0  0  0  0  0  0  0  0  0  0
  -10.3650   -5.8515   10.8063 C   0  0  0  0  0  0  0  0  0  0  0  0
   -8.8767   -5.7993   10.9161 C   0  0  0  0  0  0  0  0  0  0  0  0
   -8.5175   -6.2677   12.3747 C   0  0  0  0  0  0  0  0  0  0  0  0
 34 35  1  0  0  0
 35 36  1  0  0  0
 35  1  1  0  0  0
  1  2  2  0  0  0
  2  3  1  0  0  0
  3  4  1  0  0  0
  4  5  2  0  0  0
  5  6  1  0  0  0
  6  7  2  0  0  0
  7  8  1  0  0  0
  8  9  2  0  0  0
  7 21  1  0  0  0
 21 22  1  0  0  0
 22 23  1  0  0  0
 23 24  1  0  0  0
 24 27  1  0  0  0
 27 28  1  0  0  0
 28 29  1  0  0  0
 29 30  2  0  0  0
 30 31  1  0  0  0
 31 32  1  0  0  0
 31 33  1  0  0  0
 24 25  1  0  0  0
 25 26  1  0  0  0
  2 11  1  0  0  0
 11 12  2  0  0  0
 12 13  1  0  0  0
 13 14  1  0  0  0
 14 15  2  0  0  0
 15 16  1  0  0  0
 16 17  2  0  0  0
 17 18  1  0  0  0
 18 19  2  0  0  0
 19 20  1  0  0  0
  9  1  1  0  0  0
 26 21  1  0  0  0
 19 11  1  0  0  0
  9  4  1  0  0  0
 33 28  2  0  0  0
 17 13  1  0  0  0
  3 10  1  0  0  0
M  END
> <minimizedAffinity>
6.56121

> <CNNscore>
0.2318991721

> <CNNaffinity>
6.8899550438

> <CNN_VS>
1.5977748632

> <CNNaffinity_variance>
0.4194155633

$$$$
[H]c1nc2c([H])c(C([H])([H])[H])c(-c3c(C([H])(C([H])([H])[H])C([H])([H])[H])c4c([H])c(C5([H])C([H])([H])C([H])([H])N(C([H])([H])c6c([H])nn(C([H])([H])[H])c6[H])C([H])([H])C5([H])[H])c([H])c([H])c4n3[H])c([H])n2n1


 36 41  0  0  0  0  0  0  0  0999 V2000
  -14.0076   -8.3212    6.5800 C   0  0  0  0  0  0  0  0  0  0  0  0
  -15.2427   -7.7906    6.9733 C   0  0  0  0  0  0  0  0  0  0  0  0
  -14.9857   -6.9136    7.9495 N   0  0  0  0  0  0  0  0  0  0  0  0
  -13.6661   -6.8474    8.2013 C   0  0  0  0  0  0  0  0  0  0  0  0
  -12.9761   -6.0801    9.1035 C   0  0  0  0  0  0  0  0  0  0  0  0
  -11.5820   -6.1722    9.1791 C   0  0  0  0  0  0  0  0  0  0  0  0
  -10.8943   -7.0233    8.3608 C   0  0  0  0  0  0  0  0  0  0  0  0
  -11.6422   -7.7855    7.4591 C   0  0  0  0  0  0  0  0  0  0  0  0
  -13.0137   -7.7153    7.3611 C   0  0  0  0  0  0  0  0  0  0  0  0
  -15.6916   -6.3140    8.4760 H   0  0  0  0  0  0  0  0  0  0  0  0
  -16.6014   -8.1122    6.4932 C   0  0  0  0  0  0  0  0  0  0  0  0
  -17.5011   -8.7662    7.3056 C   0  0  0  0  0  0  0  0  0  0  0  0
  -18.7524   -8.9820    6.8809 N   0  0  0  0  0  0  0  0  0  0  0  0
  -19.7988   -9.5827    7.4581 N   0  0  0  0  0  0  0  0  0  0  0  0
  -20.8511   -9.5562    6.6258 C   0  0  0  0  0  0  0  0  0  0  0  0
  -20.4687   -8.9370    5.5183 N   0  0  0  0  0  0  0  0  0  0  0  0
  -19.1744   -8.5856    5.6807 C   0  0  0  0  0  0  0  0  0  0  0  0
  -18.3111   -7.9388    4.8534 C   0  0  0  0  0  0  0  0  0  0  0  0
  -16.9943   -7.6859    5.2465 C   0  0  0  0  0  0  0  0  0  0  0  0
  -16.1435   -6.9545    4.2781 C   0  0  0  0  0  0  0  0  0  0  0  0
   -9.4321   -7.1136    8.3966 C   0  0  0  0  0  0  0  0  0  0  0  0
   -8.8010   -6.2557    7.2920 C   0  0  0  0  0  0  0  0  0  0  0  0
   -7.3325   -6.5169    7.3201 C   0  0  0  0  0  0  0  0  0  0  0  0
   -6.9444   -7.1439    8.6182 N   0  0  0  0  0  0  0  0  0  0  0  0
   -7.4098   -8.5177    8.4597 C   0  0  0  0  0  0  0  0  0  0  0  0
   -8.9023   -8.5037    8.1984 C   0  0  0  0  0  0  0  0  0  0  0  0
   -5.5392   -6.9957    8.6861 C   0  0  0  0  0  0  0  0  0  0  0  0
   -4.8602   -6.3824    7.5452 C   0  0  0  0  0  0  0  0  0  0  0  0
   -4.5232   -6.8086    6.2933 C   0  0  0  0  0  0  0  0  0  0  0  0
   -3.8900   -5.8146    5.6817 N   0  0  0  0  0  0  0  0  0  0  0  0
   -3.7951   -4.7667    6.4650 N   0  0  0  0  0  0  0  0  0  0  0  0
   -3.1783   -3.4795    6.1943 C   0  0  0  0  0  0  0  0  0  0  0  0
   -4.3803   -5.0756    7.6200 C   0  0  0  0  0  0  0  0  0  0  0  0
  -13.8549   -9.0961    4.1754 C   0  0  0  0  0  0  0  0  0  0  0  0
  -13.7928   -9.4067    5.6347 C   0  0  0  0  0  0  0  0  0  0  0  0
  -12.3356   -9.9264    5.9215 C   0  0  0  0  0  0  0  0  0  0  0  0
 34 35  1  0  0  0
 35 36  1  0  0  0
 35  1  1  0  0  0
  1  2  2  0  0  0
  2  3  1  0  0  0
  3  4  1  0  0  0
  4  5  2  0  0  0
  5  6  1  0  0  0
  6  7  2  0  0  0
  7  8  1  0  0  0
  8  9  2  0  0  0
  7 21  1  0  0  0
 21 22  1  0  0  0
 22 23  1  0  0  0
 23 24  1  0  0  0
 24 27  1  0  0  0
 27 28  1  0  0  0
 28 29  1  0  0  0
 29 30  2  0  0  0
 30 31  1  0  0  0
 31 32  1  0  0  0
 31 33  1  0  0  0
 24 25  1  0  0  0
 25 26  1  0  0  0
  2 11  1  0  0  0
 11 12  2  0  0  0
 12 13  1  0  0  0
 13 14  1  0  0  0
 14 15  2  0  0  0
 15 16  1  0  0  0
 16 17  2  0  0  0
 17 18  1  0  0  0
 18 19  2  0  0  0
 19 20  1  0  0  0
  9  1  1  0  0  0
 26 21  1  0  0  0
 19 11  1  0  0  0
  9  4  1  0  0  0
 33 28  2  0  0  0
 17 13  1  0  0  0
  3 10  1  0  0  0
M  END
> <minimizedAffinity>
-3.08600

> <CNNscore>
0.1715595275

> <CNNaffinity>
7.2457475662

> <CNN_VS>
1.2430770397

> <CNNaffinity_variance>
0.0600858852

$$$$
[H]c1nc2c([H])c(C([H])([H])[H])c(-c3c(C([H])(C([H])([H])[H])C([H])([H])[H])c4c([H])c(C5([H])C([H])([H])C([H])([H])N(C([H])([H])c6c([H])nn(C([H])([H])[H])c6[H])C([H])([H])C5([H])[H])c([H])c([H])c4n3[H])c([H])n2n1


 36 41  0  0  0  0  0  0  0  0999 V2000
   -3.1561   -1.5622    4.5872 C   0  0  0  0  0  0  0  0  0  0  0  0
   -3.5534   -2.1383    3.3740 C   0  0  0  0  0  0  0  0  0  0  0  0
   -3.9013   -3.3999    3.6486 N   0  0  0  0  0  0  0  0  0  0  0  0
   -3.7555   -3.6646    4.9593 C   0  0  0  0  0  0  0  0  0  0  0  0
   -4.0050   -4.8148    5.6617 C   0  0  0  0  0  0  0  0  0  0  0  0
   -3.7877   -4.8526    7.0433 C   0  0  0  0  0  0  0  0  0  0  0  0
   -3.3258   -3.7508    7.7065 C   0  0  0  0  0  0  0  0  0  0  0  0
   -3.0849   -2.6028    6.9467 C   0  0  0  0  0  0  0  0  0  0  0  0
   -3.2906   -2.5355    5.5870 C   0  0  0  0  0  0  0  0  0  0  0  0
   -4.2644   -4.1296    2.9625 H   0  0  0  0  0  0  0  0  0  0  0  0
   -3.5711   -1.5570    2.0169 C   0  0  0  0  0  0  0  0  0  0  0  0
   -2.8764   -2.1496    0.9857 C   0  0  0  0  0  0  0  0  0  0  0  0
   -2.9650   -1.6519   -0.2541 N   0  0  0  0  0  0  0  0  0  0  0  0
   -2.4025   -2.0274   -1.4081 N   0  0  0  0  0  0  0  0  0  0  0  0
   -2.7958   -1.2038   -2.3919 C   0  0  0  0  0  0  0  0  0  0  0  0
   -3.6093   -0.3042   -1.8581 N   0  0  0  0  0  0  0  0  0  0  0  0
   -3.7098   -0.5847   -0.5404 C   0  0  0  0  0  0  0  0  0  0  0  0
   -4.4070    0.0251    0.4547 C   0  0  0  0  0  0  0  0  0  0  0  0
   -4.3518   -0.4534    1.7664 C   0  0  0  0  0  0  0  0  0  0  0  0
   -5.1672    0.2711    2.7699 C   0  0  0  0  0  0  0  0  0  0  0  0
   -3.1223   -3.7538    9.1577 C   0  0  0  0  0  0  0  0  0  0  0  0
   -4.1642   -4.6367    9.8573 C   0  0  0  0  0  0  0  0  0  0  0  0
   -3.9643   -4.4694   11.3261 C   0  0  0  0  0  0  0  0  0  0  0  0
   -2.6188   -3.8839   11.6008 N   0  0  0  0  0  0  0  0  0  0  0  0
   -2.8028   -2.4816   11.2421 C   0  0  0  0  0  0  0  0  0  0  0  0
   -3.2322   -2.3978    9.7914 C   0  0  0  0  0  0  0  0  0  0  0  0
   -2.3944   -4.1217   12.9771 C   0  0  0  0  0  0  0  0  0  0  0  0
   -2.8618   -5.3893   13.5372 C   0  0  0  0  0  0  0  0  0  0  0  0
   -4.0060   -5.7922   14.1623 C   0  0  0  0  0  0  0  0  0  0  0  0
   -3.8679   -7.0747   14.4769 N   0  0  0  0  0  0  0  0  0  0  0  0
   -2.6986   -7.5285   14.0930 N   0  0  0  0  0  0  0  0  0  0  0  0
   -2.1443   -8.8627   14.2446 C   0  0  0  0  0  0  0  0  0  0  0  0
   -2.0502   -6.5225   13.5103 C   0  0  0  0  0  0  0  0  0  0  0  0
   -2.5805    0.3526    6.1389 C   0  0  0  0  0  0  0  0  0  0  0  0
   -2.5730   -0.2412    4.7688 C   0  0  0  0  0  0  0  0  0  0  0  0
   -1.0629   -0.3919    4.3531 C   0  0  0  0  0  0  0  0  0  0  0  0
 34 35  1  0  0  0
 35 36  1  0  0  0
 35  1  1  0  0  0
  1  2  2  0  0  0
  2  3  1  0  0  0
  3  4  1  0  0  0
  4  5  2  0  0  0
  5  6  1  0  0  0
  6  7  2  0  0  0
  7  8  1  0  0  0
  8  9  2  0  0  0
  7 21  1  0  0  0
 21 22  1  0  0  0
 22 23  1  0  0  0
 23 24  1  0  0  0
 24 27  1  0  0  0
 27 28  1  0  0  0
 28 29  1  0  0  0
 29 30  2  0  0  0
 30 31  1  0  0  0
 31 32  1  0  0  0
 31 33  1  0  0  0
 24 25  1  0  0  0
 25 26  1  0  0  0
  2 11  1  0  0  0
 11 12  2  0  0  0
 12 13  1  0  0  0
 13 14  1  0  0  0
 14 15  2  0  0  0
 15 16  1  0  0  0
 16 17  2  0  0  0
 17 18  1  0  0  0
 18 19  2  0  0  0
 19 20  1  0  0  0
  9  1  1  0  0  0
 26 21  1  0  0  0
 19 11  1  0  0  0
  9  4  1  0  0  0
 33 28  2  0  0  0
 17 13  1  0  0  0
  3 10  1  0  0  0
M  END
> <minimizedAffinity>
-4.24680

> <CNNscore>
0.1707911640

> <CNNaffinity>
5.8264074326

> <CNN_VS>
0.9950988889

> <CNNaffinity_variance>
0.1496583521

$$$$
[H]c1nc2c([H])c(C([H])([H])[H])c(-c3c(C([H])(C([H])([H])[H])C([H])([H])[H])c4c([H])c(C5([H])C([H])([H])C([H])([H])N(C([H])([H])c6c([H])nn(C([H])([H])[H])c6[H])C([H])([H])C5([H])[H])c([H])c([H])c4n3[H])c([H])n2n1


 36 41  0  0  0  0  0  0  0  0999 V2000
  -10.3515   -8.5445    7.4661 C   0  0  0  0  0  0  0  0  0  0  0  0
  -11.3024   -7.5339    7.6563 C   0  0  0  0  0  0  0  0  0  0  0  0
  -10.6189   -6.4016    7.8539 N   0  0  0  0  0  0  0  0  0  0  0  0
   -9.2935   -6.6240    7.7978 C   0  0  0  0  0  0  0  0  0  0  0  0
   -8.2447   -5.7520    7.9330 C   0  0  0  0  0  0  0  0  0  0  0  0
   -6.9295   -6.2162    7.8216 C   0  0  0  0  0  0  0  0  0  0  0  0
   -6.6747   -7.5365    7.5791 C   0  0  0  0  0  0  0  0  0  0  0  0
   -7.7767   -8.3863    7.4506 C   0  0  0  0  0  0  0  0  0  0  0  0
   -9.0812   -7.9583    7.5539 C   0  0  0  0  0  0  0  0  0  0  0  0
  -11.0215   -5.4296    8.0214 H   0  0  0  0  0  0  0  0  0  0  0  0
  -12.7758   -7.6222    7.6930 C   0  0  0  0  0  0  0  0  0  0  0  0
  -13.5245   -7.4110    6.5563 C   0  0  0  0  0  0  0  0  0  0  0  0
  -14.8535   -7.5696    6.5911 N   0  0  0  0  0  0  0  0  0  0  0  0
  -15.7935   -7.4271    5.6503 N   0  0  0  0  0  0  0  0  0  0  0  0
  -17.0003   -7.6951    6.1726 C   0  0  0  0  0  0  0  0  0  0  0  0
  -16.8228   -8.0077    7.4481 N   0  0  0  0  0  0  0  0  0  0  0  0
  -15.4980   -7.9284    7.7008 C   0  0  0  0  0  0  0  0  0  0  0  0
  -14.7891   -8.1431    8.8408 C   0  0  0  0  0  0  0  0  0  0  0  0
  -13.4000   -7.9934    8.8604 C   0  0  0  0  0  0  0  0  0  0  0  0
  -12.7224   -8.2734   10.1485 C   0  0  0  0  0  0  0  0  0  0  0  0
   -5.3078   -8.0418    7.4244 C   0  0  0  0  0  0  0  0  0  0  0  0
   -4.2883   -7.0606    8.0180 C   0  0  0  0  0  0  0  0  0  0  0  0
   -2.9317   -7.5898    7.6939 C   0  0  0  0  0  0  0  0  0  0  0  0
   -3.0168   -9.0307    7.3131 N   0  0  0  0  0  0  0  0  0  0  0  0
   -3.5592   -8.9707    5.9598 C   0  0  0  0  0  0  0  0  0  0  0  0
   -4.8959   -8.2582    5.9975 C   0  0  0  0  0  0  0  0  0  0  0  0
   -1.6880   -9.5078    7.4011 C   0  0  0  0  0  0  0  0  0  0  0  0
   -1.4492  -10.9228    7.1187 C   0  0  0  0  0  0  0  0  0  0  0  0
   -1.2009  -11.6411    5.9853 C   0  0  0  0  0  0  0  0  0  0  0  0
   -1.0824  -12.9177    6.3303 N   0  0  0  0  0  0  0  0  0  0  0  0
   -1.2406  -13.0707    7.6234 N   0  0  0  0  0  0  0  0  0  0  0  0
   -1.1952  -14.2919    8.4090 C   0  0  0  0  0  0  0  0  0  0  0  0
   -1.4675  -11.8669    8.1443 C   0  0  0  0  0  0  0  0  0  0  0  0
  -11.8241  -10.4007    6.5765 C   0  0  0  0  0  0  0  0  0  0  0  0
  -10.6160   -9.9701    7.3413 C   0  0  0  0  0  0  0  0  0  0  0  0
   -9.3703  -10.5599    6.5822 C   0  0  0  0  0  0  0  0  0  0  0  0
 34 35  1  0  0  0
 35 36  1  0  0  0
 35  1  1  0  0  0
  1  2  2  0  0  0
  2  3  1  0  0  0
  3  4  1  0  0  0
  4  5  2  0  0  0
  5  6  1  0  0  0
  6  7  2  0  0  0
  7  8  1  0  0  0
  8  9  2  0  0  0
  7 21  1  0  0  0
 21 22  1  0  0  0
 22 23  1  0  0  0
 23 24  1  0  0  0
 24 27  1  0  0  0
 27 28  1  0  0  0
 28 29  1  0  0  0
 29 30  2  0  0  0
 30 31  1  0  0  0
 31 32  1  0  0  0
 31 33  1  0  0  0
 24 25  1  0  0  0
 25 26  1  0  0  0
  2 11  1  0  0  0
 11 12  2  0  0  0
 12 13  1  0  0  0
 13 14  1  0  0  0
 14 15  2  0  0  0
 15 16  1  0  0  0
 16 17  2  0  0  0
 17 18  1  0  0  0
 18 19  2  0  0  0
 19 20  1  0  0  0
  9  1  1  0  0  0
 26 21  1  0  0  0
 19 11  1  0  0  0
  9  4  1  0  0  0
 33 28  2  0  0  0
 17 13  1  0  0  0
  3 10  1  0  0  0
M  END
> <minimizedAffinity>
-5.93972

> <CNNscore>
0.1705596149

> <CNNaffinity>
7.0807523727

> <CNN_VS>
1.2076903582

> <CNNaffinity_variance>
0.5024473071

$$$$
[H]c1nc2c([H])c([H])c([H])c([H])n2c1C(=O)N([H])c1c([H])c(N([H])C(=O)c2c([H])c([H])c(C([H])([H])N3C([H])([H])C([H])([H])N(C([H])([H])C([H])([H])[H])C([H])([H])C3([H])[H])c(C(F)(F)F)c2[H])c([H])c([H])c1C([H])([H])[H]


 43 47  0  0  0  0  0  0  0  0999 V2000
   -7.5092   -7.8655    7.8759 C   0  0  0  0  0  0  0  0  0  0  0  0
   -6.7535   -8.8593    7.8752 O   0  0  0  0  0  0  0  0  0  0  0  0
   -7.0060   -6.5672    7.8532 N   0  0  0  0  0  0  0  0  0  0  0  0
   -7.7432   -5.7903    7.8528 H   0  0  0  0  0  0  0  0  0  0  0  0
   -5.6608   -6.1384    7.8355 C   0  0  0  0  0  0  0  0  0  0  0  0
   -4.8896   -5.9282    8.9501 C   0  0  0  0  0  0  0  0  0  0  0  0
   -3.5695   -5.5213    8.8421 C   0  0  0  0  0  0  0  0  0  0  0  0
   -3.0131   -5.3218    7.5999 C   0  0  0  0  0  0  0  0  0  0  0  0
   -1.5990   -4.8828    7.5043 C   0  0  0  0  0  0  0  0  0  0  0  0
   -3.7560   -5.5219    6.4240 C   0  0  0  0  0  0  0  0  0  0  0  0
   -5.0415   -5.9194    6.5825 C   0  0  0  0  0  0  0  0  0  0  0  0
   -3.1293   -5.3017    5.1933 N   0  0  0  0  0  0  0  0  0  0  0  0
   -2.2001   -6.0905    4.5051 C   0  0  0  0  0  0  0  0  0  0  0  0
   -1.7807   -7.1664    4.9750 O   0  0  0  0  0  0  0  0  0  0  0  0
   -3.3701   -4.3645    4.7265 H   0  0  0  0  0  0  0  0  0  0  0  0
   -1.6649   -5.7018    3.2092 C   0  0  0  0  0  0  0  0  0  0  0  0
   -0.7615   -6.4871    2.4960 C   0  0  0  0  0  0  0  0  0  0  0  0
   -0.5057   -5.8638    1.3446 N   0  0  0  0  0  0  0  0  0  0  0  0
   -1.1988   -4.7139    1.2743 C   0  0  0  0  0  0  0  0  0  0  0  0
   -1.2796   -3.7422    0.2876 C   0  0  0  0  0  0  0  0  0  0  0  0
   -2.0893   -2.6412    0.4314 C   0  0  0  0  0  0  0  0  0  0  0  0
   -2.8083   -2.5584    1.5970 C   0  0  0  0  0  0  0  0  0  0  0  0
   -2.6929   -3.5651    2.5655 C   0  0  0  0  0  0  0  0  0  0  0  0
   -1.9040   -4.6344    2.4273 N   0  0  0  0  0  0  0  0  0  0  0  0
  -11.7307   -8.7771    7.9505 C   0  0  0  0  0  0  0  0  0  0  0  0
  -10.8257   -9.5006    7.1872 C   0  0  0  0  0  0  0  0  0  0  0  0
   -9.4722   -9.2011    7.1653 C   0  0  0  0  0  0  0  0  0  0  0  0
   -8.9506   -8.1644    7.9022 C   0  0  0  0  0  0  0  0  0  0  0  0
   -9.8340   -7.4439    8.6576 C   0  0  0  0  0  0  0  0  0  0  0  0
  -11.2092   -7.7258    8.6986 C   0  0  0  0  0  0  0  0  0  0  0  0
  -12.1039   -6.9007    9.5388 C   0  0  0  0  0  0  0  0  0  0  0  0
  -12.9447   -7.5945   10.3497 F   0  0  0  0  0  0  0  0  0  0  0  0
  -11.2846   -6.1259   10.3941 F   0  0  0  0  0  0  0  0  0  0  0  0
  -12.7678   -5.9242    8.7769 F   0  0  0  0  0  0  0  0  0  0  0  0
  -13.1837   -9.0442    7.9734 C   0  0  0  0  0  0  0  0  0  0  0  0
  -16.0147   -8.4885    5.4443 N   0  0  0  0  0  0  0  0  0  0  0  0
  -14.6573   -8.6069    5.0207 C   0  0  0  0  0  0  0  0  0  0  0  0
  -13.6647   -7.8826    5.8957 C   0  0  0  0  0  0  0  0  0  0  0  0
  -13.9157   -8.0331    7.2934 N   0  0  0  0  0  0  0  0  0  0  0  0
  -15.3067   -7.9658    7.6544 C   0  0  0  0  0  0  0  0  0  0  0  0
  -16.1150   -7.4749    6.4510 C   0  0  0  0  0  0  0  0  0  0  0  0
  -16.7779   -6.8223    3.8075 C   0  0  0  0  0  0  0  0  0  0  0  0
  -16.8959   -8.2407    4.3164 C   0  0  0  0  0  0  0  0  0  0  0  0
 42 43  1  0  0  0
 43 36  1  0  0  0
 36 37  1  0  0  0
 37 38  1  0  0  0
 38 39  1  0  0  0
 39 35  1  0  0  0
 35 25  1  0  0  0
 25 26  2  0  0  0
 26 27  1  0  0  0
 27 28  2  0  0  0
 28 29  1  0  0  0
 29 30  2  0  0  0
 30 31  1  0  0  0
 31 32  1  0  0  0
 31 33  1  0  0  0
 31 34  1  0  0  0
 28  1  1  0  0  0
  1  2  2  0  0  0
  1  3  1  0  0  0
  3  5  1  0  0  0
  5  6  2  0  0  0
  6  7  1  0  0  0
  7  8  2  0  0  0
  8  9  1  0  0  0
  8 10  1  0  0  0
 10 12  1  0  0  0
 12 13  1  0  0  0
 13 14  2  0  0  0
 13 16  1  0  0  0
 16 17  2  0  0  0
 17 18  1  0  0  0
 18 19  2  0  0  0
 19 20  1  0  0  0
 20 21  2  0  0  0
 21 22  1  0  0  0
 22 23  2  0  0  0
 23 24  1  0  0  0
 10 11  2  0  0  0
 39 40  1  0  0  0
 40 41  1  0  0  0
 41 36  1  0  0  0
 30 25  1  0  0  0
 11  5  1  0  0  0
 24 16  1  0  0  0
 24 19  1  0  0  0
  3  4  1  0  0  0
 12 15  1  0  0  0
M  END
> <minimizedAffinity>
-9.34306

> <CNNscore>
0.5985534191

> <CNNaffinity>
7.4942426682

> <CNN_VS>
4.4857044220

> <CNNaffinity_variance>
0.2612330914

$$$$
[H]c1nc2c([H])c([H])c([H])c([H])n2c1C(=O)N([H])c1c([H])c(N([H])C(=O)c2c([H])c([H])c(C([H])([H])N3C([H])([H])C([H])([H])N(C([H])([H])C([H])([H])[H])C([H])([H])C3([H])[H])c(C(F)(F)F)c2[H])c([H])c([H])c1C([H])([H])[H]


 43 47  0  0  0  0  0  0  0  0999 V2000
   -3.9106   -4.8901    5.4669 C   0  0  0  0  0  0  0  0  0  0  0  0
   -2.9621   -5.4627    6.0423 O   0  0  0  0  0  0  0  0  0  0  0  0
   -5.2100   -5.3866    5.5335 N   0  0  0  0  0  0  0  0  0  0  0  0
   -5.9462   -4.8151    5.0059 H   0  0  0  0  0  0  0  0  0  0  0  0
   -5.6852   -6.5395    6.1957 C   0  0  0  0  0  0  0  0  0  0  0  0
   -4.9484   -7.6739    6.4225 C   0  0  0  0  0  0  0  0  0  0  0  0
   -5.4891   -8.7572    7.0963 C   0  0  0  0  0  0  0  0  0  0  0  0
   -6.7867   -8.7043    7.5497 C   0  0  0  0  0  0  0  0  0  0  0  0
   -7.3495   -9.8754    8.2661 C   0  0  0  0  0  0  0  0  0  0  0  0
   -7.5880   -7.5679    7.3457 C   0  0  0  0  0  0  0  0  0  0  0  0
   -7.0138   -6.5357    6.6821 C   0  0  0  0  0  0  0  0  0  0  0  0
   -8.8988   -7.5797    7.8331 N   0  0  0  0  0  0  0  0  0  0  0  0
   -9.9544   -8.4539    7.5491 C   0  0  0  0  0  0  0  0  0  0  0  0
   -9.8262   -9.3918    6.7380 O   0  0  0  0  0  0  0  0  0  0  0  0
   -9.1403   -6.7692    8.4958 H   0  0  0  0  0  0  0  0  0  0  0  0
  -11.2608   -8.3180    8.1751 C   0  0  0  0  0  0  0  0  0  0  0  0
  -12.2476   -9.2980    8.0896 C   0  0  0  0  0  0  0  0  0  0  0  0
  -13.2966   -8.8780    8.7988 N   0  0  0  0  0  0  0  0  0  0  0  0
  -13.0395   -7.6749    9.3413 C   0  0  0  0  0  0  0  0  0  0  0  0
  -13.7963   -6.8491   10.1595 C   0  0  0  0  0  0  0  0  0  0  0  0
  -13.3054   -5.6501   10.6176 C   0  0  0  0  0  0  0  0  0  0  0  0
  -12.0335   -5.3189   10.2236 C   0  0  0  0  0  0  0  0  0  0  0  0
  -11.3076   -6.1859    9.3951 C   0  0  0  0  0  0  0  0  0  0  0  0
  -11.7854   -7.3504    8.9474 N   0  0  0  0  0  0  0  0  0  0  0  0
   -2.8792   -1.3257    3.2558 C   0  0  0  0  0  0  0  0  0  0  0  0
   -2.4799   -2.5926    2.8551 C   0  0  0  0  0  0  0  0  0  0  0  0
   -2.8118   -3.7326    3.5708 C   0  0  0  0  0  0  0  0  0  0  0  0
   -3.5580   -3.6691    4.7237 C   0  0  0  0  0  0  0  0  0  0  0  0
   -3.9561   -2.4250    5.1284 C   0  0  0  0  0  0  0  0  0  0  0  0
   -3.6345   -1.2543    4.4225 C   0  0  0  0  0  0  0  0  0  0  0  0
   -4.0999    0.0572    4.9233 C   0  0  0  0  0  0  0  0  0  0  0  0
   -4.8432    0.7840    4.0486 F   0  0  0  0  0  0  0  0  0  0  0  0
   -4.9358   -0.1887    6.0386 F   0  0  0  0  0  0  0  0  0  0  0  0
   -3.0445    0.7968    5.4837 F   0  0  0  0  0  0  0  0  0  0  0  0
   -2.5167   -0.0856    2.5391 C   0  0  0  0  0  0  0  0  0  0  0  0
   -3.6466   -2.0175   -0.5772 N   0  0  0  0  0  0  0  0  0  0  0  0
   -2.4073   -1.3107   -0.5542 C   0  0  0  0  0  0  0  0  0  0  0  0
   -2.4712    0.0401    0.1143 C   0  0  0  0  0  0  0  0  0  0  0  0
   -3.2359    0.0474    1.3202 N   0  0  0  0  0  0  0  0  0  0  0  0
   -4.4440   -0.7313    1.2582 C   0  0  0  0  0  0  0  0  0  0  0  0
   -4.7077   -1.1352   -0.1943 C   0  0  0  0  0  0  0  0  0  0  0  0
   -5.3480   -2.7362   -2.1980 C   0  0  0  0  0  0  0  0  0  0  0  0
   -3.8753   -2.6321   -1.8733 C   0  0  0  0  0  0  0  0  0  0  0  0
 42 43  1  0  0  0
 43 36  1  0  0  0
 36 37  1  0  0  0
 37 38  1  0  0  0
 38 39  1  0  0  0
 39 35  1  0  0  0
 35 25  1  0  0  0
 25 26  2  0  0  0
 26 27  1  0  0  0
 27 28  2  0  0  0
 28 29  1  0  0  0
 29 30  2  0  0  0
 30 31  1  0  0  0
 31 32  1  0  0  0
 31 33  1  0  0  0
 31 34  1  0  0  0
 28  1  1  0  0  0
  1  2  2  0  0  0
  1  3  1  0  0  0
  3  5  1  0  0  0
  5  6  2  0  0  0
  6  7  1  0  0  0
  7  8  2  0  0  0
  8  9  1  0  0  0
  8 10  1  0  0  0
 10 12  1  0  0  0
 12 13  1  0  0  0
 13 14  2  0  0  0
 13 16  1  0  0  0
 16 17  2  0  0  0
 17 18  1  0  0  0
 18 19  2  0  0  0
 19 20  1  0  0  0
 20 21  2  0  0  0
 21 22  1  0  0  0
 22 23  2  0  0  0
 23 24  1  0  0  0
 10 11  2  0  0  0
 39 40  1  0  0  0
 40 41  1  0  0  0
 41 36  1  0  0  0
 30 25  1  0  0  0
 11  5  1  0  0  0
 24 16  1  0  0  0
 24 19  1  0  0  0
  3  4  1  0  0  0
 12 15  1  0  0  0
M  END
> <minimizedAffinity>
-8.36473

> <CNNscore>
0.5758836269

> <CNNaffinity>
6.9793157578

> <CNN_VS>
4.0192737579

> <CNNaffinity_variance>
0.1185288578

$$$$
[H]c1nc2c([H])c([H])c([H])c([H])n2c1C(=O)N([H])c1c([H])c(N([H])C(=O)c2c([H])c([H])c(C([H])([H])N3C([H])([H])C([H])([H])N(C([H])([H])C([H])([H])[H])C([H])([H])C3([H])[H])c(C(F)(F)F)c2[H])c([H])c([H])c1C([H])([H])[H]


 43 47  0  0  0  0  0  0  0  0999 V2000
   -9.5971   -7.1011    8.2094 C   0  0  0  0  0  0  0  0  0  0  0  0
  -10.2299   -7.5826    7.2470 O   0  0  0  0  0  0  0  0  0  0  0  0
   -8.2074   -7.0127    8.1969 N   0  0  0  0  0  0  0  0  0  0  0  0
   -7.7682   -6.5802    9.0728 H   0  0  0  0  0  0  0  0  0  0  0  0
   -7.3027   -7.4188    7.1919 C   0  0  0  0  0  0  0  0  0  0  0  0
   -6.1338   -6.7723    6.8805 C   0  0  0  0  0  0  0  0  0  0  0  0
   -5.2936   -7.2489    5.8872 C   0  0  0  0  0  0  0  0  0  0  0  0
   -5.6283   -8.3898    5.1953 C   0  0  0  0  0  0  0  0  0  0  0  0
   -4.7177   -8.8831    4.1328 C   0  0  0  0  0  0  0  0  0  0  0  0
   -6.8132   -9.0930    5.4719 C   0  0  0  0  0  0  0  0  0  0  0  0
   -7.6007   -8.5869    6.4513 C   0  0  0  0  0  0  0  0  0  0  0  0
   -7.0931  -10.2459    4.7315 N   0  0  0  0  0  0  0  0  0  0  0  0
   -8.2487  -11.0351    4.7014 C   0  0  0  0  0  0  0  0  0  0  0  0
   -9.2362  -10.7757    5.4168 O   0  0  0  0  0  0  0  0  0  0  0  0
   -6.2804  -10.5995    4.1241 H   0  0  0  0  0  0  0  0  0  0  0  0
   -8.3649  -12.2038    3.8426 C   0  0  0  0  0  0  0  0  0  0  0  0
   -8.8019  -13.4434    4.3052 C   0  0  0  0  0  0  0  0  0  0  0  0
   -8.8276  -14.2769    3.2639 N   0  0  0  0  0  0  0  0  0  0  0  0
   -8.4302  -13.6400    2.1484 C   0  0  0  0  0  0  0  0  0  0  0  0
   -8.3062  -14.0671    0.8345 C   0  0  0  0  0  0  0  0  0  0  0  0
   -7.8937  -13.2133   -0.1602 C   0  0  0  0  0  0  0  0  0  0  0  0
   -7.6144  -11.9240    0.2169 C   0  0  0  0  0  0  0  0  0  0  0  0
   -7.7540  -11.5393    1.5576 C   0  0  0  0  0  0  0  0  0  0  0  0
   -8.1525  -12.3695    2.5254 N   0  0  0  0  0  0  0  0  0  0  0  0
  -11.9919   -5.7173   11.5273 C   0  0  0  0  0  0  0  0  0  0  0  0
  -10.7200   -5.2258   11.2705 C   0  0  0  0  0  0  0  0  0  0  0  0
   -9.9552   -5.6763   10.2054 C   0  0  0  0  0  0  0  0  0  0  0  0
  -10.4178   -6.6407    9.3418 C   0  0  0  0  0  0  0  0  0  0  0  0
  -11.6700   -7.1328    9.5863 C   0  0  0  0  0  0  0  0  0  0  0  0
  -12.4660   -6.6943   10.6569 C   0  0  0  0  0  0  0  0  0  0  0  0
  -13.8112   -7.2749   10.8588 C   0  0  0  0  0  0  0  0  0  0  0  0
  -13.9390   -8.0857   11.9415 F   0  0  0  0  0  0  0  0  0  0  0  0
  -14.7087   -6.2003   11.0654 F   0  0  0  0  0  0  0  0  0  0  0  0
  -14.2986   -7.8638    9.6795 F   0  0  0  0  0  0  0  0  0  0  0  0
  -12.8227   -5.2873   12.6709 C   0  0  0  0  0  0  0  0  0  0  0  0
  -10.8024   -3.1166   15.1053 N   0  0  0  0  0  0  0  0  0  0  0  0
  -10.1682   -3.8094   14.0312 C   0  0  0  0  0  0  0  0  0  0  0  0
  -10.6770   -5.2115   13.8056 C   0  0  0  0  0  0  0  0  0  0  0  0
  -12.0976   -5.3268   13.8929 N   0  0  0  0  0  0  0  0  0  0  0  0
  -12.6884   -4.5588   14.9563 C   0  0  0  0  0  0  0  0  0  0  0  0
  -11.5810   -4.0391   15.8760 C   0  0  0  0  0  0  0  0  0  0  0  0
   -8.8892   -1.5752   15.0645 C   0  0  0  0  0  0  0  0  0  0  0  0
   -9.8308   -2.3994   15.9125 C   0  0  0  0  0  0  0  0  0  0  0  0
 42 43  1  0  0  0
 43 36  1  0  0  0
 36 37  1  0  0  0
 37 38  1  0  0  0
 38 39  1  0  0  0
 39 35  1  0  0  0
 35 25  1  0  0  0
 25 26  2  0  0  0
 26 27  1  0  0  0
 27 28  2  0  0  0
 28 29  1  0  0  0
 29 30  2  0  0  0
 30 31  1  0  0  0
 31 32  1  0  0  0
 31 33  1  0  0  0
 31 34  1  0  0  0
 28  1  1  0  0  0
  1  2  2  0  0  0
  1  3  1  0  0  0
  3  5  1  0  0  0
  5  6  2  0  0  0
  6  7  1  0  0  0
  7  8  2  0  0  0
  8  9  1  0  0  0
  8 10  1  0  0  0
 10 12  1  0  0  0
 12 13  1  0  0  0
 13 14  2  0  0  0
 13 16  1  0  0  0
 16 17  2  0  0  0
 17 18  1  0  0  0
 18 19  2  0  0  0
 19 20  1  0  0  0
 20 21  2  0  0  0
 21 22  1  0  0  0
 22 23  2  0  0  0
 23 24  1  0  0  0
 10 11  2  0  0  0
 39 40  1  0  0  0
 40 41  1  0  0  0
 41 36  1  0  0  0
 30 25  1  0  0  0
 11  5  1  0  0  0
 24 16  1  0  0  0
 24 19  1  0  0  0
  3  4  1  0  0  0
 12 15  1  0  0  0
M  END
> <minimizedAffinity>
26.55168

> <CNNscore>
0.4526853859

> <CNNaffinity>
6.3773756027

> <CNN_VS>
2.8869447708

> <CNNaffinity_variance>
0.4279726148

$$$$
[H]c1nc2c([H])c([H])c([H])c([H])n2c1C(=O)N([H])c1c([H])c(N([H])C(=O)c2c([H])c([H])c(C([H])([H])N3C([H])([H])C([H])([H])N(C([H])([H])C([H])([H])[H])C([H])([H])C3([H])[H])c(C(F)(F)F)c2[H])c([H])c([H])c1C([H])([H])[H]


 43 47  0  0  0  0  0  0  0  0999 V2000
   -8.6013   -8.7666    7.6065 C   0  0  0  0  0  0  0  0  0  0  0  0
   -8.0253   -9.8314    7.9115 O   0  0  0  0  0  0  0  0  0  0  0  0
   -7.8881   -7.6463    7.1875 N   0  0  0  0  0  0  0  0  0  0  0  0
   -8.4826   -6.7882    6.9480 H   0  0  0  0  0  0  0  0  0  0  0  0
   -6.4928   -7.4879    7.0410 C   0  0  0  0  0  0  0  0  0  0  0  0
   -5.6292   -8.4743    6.6378 C   0  0  0  0  0  0  0  0  0  0  0  0
   -4.2720   -8.2287    6.5050 C   0  0  0  0  0  0  0  0  0  0  0  0
   -3.7718   -6.9770    6.7798 C   0  0  0  0  0  0  0  0  0  0  0  0
   -2.3153   -6.7339    6.6351 C   0  0  0  0  0  0  0  0  0  0  0  0
   -4.6099   -5.9287    7.1964 C   0  0  0  0  0  0  0  0  0  0  0  0
   -5.9282   -6.2191    7.3111 C   0  0  0  0  0  0  0  0  0  0  0  0
   -4.0366   -4.6804    7.4589 N   0  0  0  0  0  0  0  0  0  0  0  0
   -3.6996   -3.6445    6.5799 C   0  0  0  0  0  0  0  0  0  0  0  0
   -3.8758   -3.7475    5.3500 O   0  0  0  0  0  0  0  0  0  0  0  0
   -3.7806   -4.5097    8.4883 H   0  0  0  0  0  0  0  0  0  0  0  0
   -3.1201   -2.3935    7.0448 C   0  0  0  0  0  0  0  0  0  0  0  0
   -1.9113   -2.3287    7.7348 C   0  0  0  0  0  0  0  0  0  0  0  0
   -1.6533   -1.0425    7.9776 N   0  0  0  0  0  0  0  0  0  0  0  0
   -2.6336   -0.2693    7.4787 C   0  0  0  0  0  0  0  0  0  0  0  0
   -2.8085    1.1067    7.4638 C   0  0  0  0  0  0  0  0  0  0  0  0
   -3.9017    1.6832    6.8630 C   0  0  0  0  0  0  0  0  0  0  0  0
   -4.8032    0.8273    6.2823 C   0  0  0  0  0  0  0  0  0  0  0  0
   -4.5836   -0.5565    6.3236 C   0  0  0  0  0  0  0  0  0  0  0  0
   -3.5224   -1.1177    6.9098 N   0  0  0  0  0  0  0  0  0  0  0  0
  -12.9072   -8.8519    7.9382 C   0  0  0  0  0  0  0  0  0  0  0  0
  -12.2102   -9.6815    7.0716 C   0  0  0  0  0  0  0  0  0  0  0  0
  -10.8281   -9.6473    6.9677 C   0  0  0  0  0  0  0  0  0  0  0  0
  -10.0691   -8.7836    7.7213 C   0  0  0  0  0  0  0  0  0  0  0  0
  -10.7460   -7.9606    8.5782 C   0  0  0  0  0  0  0  0  0  0  0  0
  -12.1447   -7.9747    8.7037 C   0  0  0  0  0  0  0  0  0  0  0  0
  -12.8069   -7.0529    9.6519 C   0  0  0  0  0  0  0  0  0  0  0  0
  -13.6522   -7.6390   10.5395 F   0  0  0  0  0  0  0  0  0  0  0  0
  -11.7916   -6.4393   10.4236 F   0  0  0  0  0  0  0  0  0  0  0  0
  -13.3913   -5.9627    8.9848 F   0  0  0  0  0  0  0  0  0  0  0  0
  -14.3802   -8.8353    8.0521 C   0  0  0  0  0  0  0  0  0  0  0  0
  -16.7217   -8.3308    5.0550 N   0  0  0  0  0  0  0  0  0  0  0  0
  -15.3148   -8.4876    4.8762 C   0  0  0  0  0  0  0  0  0  0  0  0
  -14.4710   -7.7465    5.8833 C   0  0  0  0  0  0  0  0  0  0  0  0
  -14.9614   -7.8392    7.2212 N   0  0  0  0  0  0  0  0  0  0  0  0
  -16.3919   -7.7354    7.3344 C   0  0  0  0  0  0  0  0  0  0  0  0
  -16.9703   -7.2778    5.9933 C   0  0  0  0  0  0  0  0  0  0  0  0
  -18.3948   -6.9850    3.8602 C   0  0  0  0  0  0  0  0  0  0  0  0
  -17.3903   -8.1121    3.7842 C   0  0  0  0  0  0  0  0  0  0  0  0
 42 43  1  0  0  0
 43 36  1  0  0  0
 36 37  1  0  0  0
 37 38  1  0  0  0
 38 39  1  0  0  0
 39 35  1  0  0  0
 35 25  1  0  0  0
 25 26  2  0  0  0
 26 27  1  0  0  0
 27 28  2  0  0  0
 28 29  1  0  0  0
 29 30  2  0  0  0
 30 31  1  0  0  0
 31 32  1  0  0  0
 31 33  1  0  0  0
 31 34  1  0  0  0
 28  1  1  0  0  0
  1  2  2  0  0  0
  1  3  1  0  0  0
  3  5  1  0  0  0
  5  6  2  0  0  0
  6  7  1  0  0  0
  7  8  2  0  0  0
  8  9  1  0  0  0
  8 10  1  0  0  0
 10 12  1  0  0  0
 12 13  1  0  0  0
 13 14  2  0  0  0
 13 16  1  0  0  0
 16 17  2  0  0  0
 17 18  1  0  0  0
 18 19  2  0  0  0
 19 20  1  0  0  0
 20 21  2  0  0  0
 21 22  1  0  0  0
 22 23  2  0  0  0
 23 24  1  0  0  0
 10 11  2  0  0  0
 39 40  1  0  0  0
 40 41  1  0  0  0
 41 36  1  0  0  0
 30 25  1  0  0  0
 11  5  1  0  0  0
 24 16  1  0  0  0
 24 19  1  0  0  0
  3  4  1  0  0  0
 12 15  1  0  0  0
M  END
> <minimizedAffinity>
-10.44221

> <CNNscore>
0.4379763603

> <CNNaffinity>
7.3851509094

> <CNN_VS>
3.2345216274

> <CNNaffinity_variance>
0.0676069781

$$$$
[H]c1nc2c([H])c([H])c([H])c([H])n2c1C(=O)N([H])c1c([H])c(N([H])C(=O)c2c([H])c([H])c(C([H])([H])N3C([H])([H])C([H])([H])N(C([H])([H])C([H])([H])[H])C([H])([H])C3([H])[H])c(C(F)(F)F)c2[H])c([H])c([H])c1C([H])([H])[H]


 43 47  0  0  0  0  0  0  0  0999 V2000
   -8.4906   -8.7503    7.8097 C   0  0  0  0  0  0  0  0  0  0  0  0
   -7.9097   -9.8163    8.1009 O   0  0  0  0  0  0  0  0  0  0  0  0
   -7.7796   -7.6012    7.4730 N   0  0  0  0  0  0  0  0  0  0  0  0
   -8.3781   -6.7448    7.2379 H   0  0  0  0  0  0  0  0  0  0  0  0
   -6.3820   -7.4122    7.4047 C   0  0  0  0  0  0  0  0  0  0  0  0
   -5.5250   -8.1633    6.6413 C   0  0  0  0  0  0  0  0  0  0  0  0
   -4.1649   -7.8993    6.6205 C   0  0  0  0  0  0  0  0  0  0  0  0
   -3.6551   -6.8682    7.3750 C   0  0  0  0  0  0  0  0  0  0  0  0
   -2.1956   -6.6029    7.3424 C   0  0  0  0  0  0  0  0  0  0  0  0
   -4.4861   -6.0661    8.1755 C   0  0  0  0  0  0  0  0  0  0  0  0
   -5.8077   -6.3641    8.1618 C   0  0  0  0  0  0  0  0  0  0  0  0
   -3.9031   -5.0338    8.9175 N   0  0  0  0  0  0  0  0  0  0  0  0
   -4.0508   -4.7065   10.2703 C   0  0  0  0  0  0  0  0  0  0  0  0
   -4.8068   -5.3540   11.0208 O   0  0  0  0  0  0  0  0  0  0  0  0
   -3.2782   -4.3688    8.3504 H   0  0  0  0  0  0  0  0  0  0  0  0
   -3.3398   -3.5922   10.8785 C   0  0  0  0  0  0  0  0  0  0  0  0
   -2.6368   -3.7052   12.0762 C   0  0  0  0  0  0  0  0  0  0  0  0
   -2.0767   -2.5211   12.3290 N   0  0  0  0  0  0  0  0  0  0  0  0
   -2.3800   -1.6457   11.3547 C   0  0  0  0  0  0  0  0  0  0  0  0
   -2.0265   -0.3182   11.1618 C   0  0  0  0  0  0  0  0  0  0  0  0
   -2.4464    0.3813   10.0560 C   0  0  0  0  0  0  0  0  0  0  0  0
   -3.2285   -0.3026    9.1598 C   0  0  0  0  0  0  0  0  0  0  0  0
   -3.5601   -1.6435    9.3985 C   0  0  0  0  0  0  0  0  0  0  0  0
   -3.1542   -2.3233   10.4746 N   0  0  0  0  0  0  0  0  0  0  0  0
  -12.8052   -8.9260    7.9177 C   0  0  0  0  0  0  0  0  0  0  0  0
  -12.0472   -9.7362    7.0845 C   0  0  0  0  0  0  0  0  0  0  0  0
  -10.6626   -9.6729    7.0524 C   0  0  0  0  0  0  0  0  0  0  0  0
   -9.9617   -8.7982    7.8483 C   0  0  0  0  0  0  0  0  0  0  0  0
  -10.6989   -7.9941    8.6728 C   0  0  0  0  0  0  0  0  0  0  0  0
  -12.1016   -8.0377    8.7258 C   0  0  0  0  0  0  0  0  0  0  0  0
  -12.8310   -7.1351    9.6426 C   0  0  0  0  0  0  0  0  0  0  0  0
  -13.6937   -7.7455   10.4964 F   0  0  0  0  0  0  0  0  0  0  0  0
  -11.8681   -6.4885   10.4537 F   0  0  0  0  0  0  0  0  0  0  0  0
  -13.4208   -6.0651    8.9483 F   0  0  0  0  0  0  0  0  0  0  0  0
  -14.2821   -8.9404    7.9554 C   0  0  0  0  0  0  0  0  0  0  0  0
  -16.7040   -8.3427    5.0404 N   0  0  0  0  0  0  0  0  0  0  0  0
  -15.3153   -8.5775    4.8118 C   0  0  0  0  0  0  0  0  0  0  0  0
  -14.3955   -7.8723    5.7774 C   0  0  0  0  0  0  0  0  0  0  0  0
  -14.8397   -7.9234    7.1335 N   0  0  0  0  0  0  0  0  0  0  0  0
  -16.2572   -7.7409    7.2981 C   0  0  0  0  0  0  0  0  0  0  0  0
  -16.8601   -7.2674    5.9735 C   0  0  0  0  0  0  0  0  0  0  0  0
  -18.3048   -6.8886    3.8738 C   0  0  0  0  0  0  0  0  0  0  0  0
  -17.4071   -8.1020    3.7924 C   0  0  0  0  0  0  0  0  0  0  0  0
 42 43  1  0  0  0
 43 36  1  0  0  0
 36 37  1  0  0  0
 37 38  1  0  0  0
 38 39  1  0  0  0
 39 35  1  0  0  0
 35 25  1  0  0  0
 25 26  2  0  0  0
 26 27  1  0  0  0
 27 28  2  0  0  0
 28 29  1  0  0  0
 29 30  2  0  0  0
 30 31  1  0  0  0
 31 32  1  0  0  0
 31 33  1  0  0  0
 31 34  1  0  0  0
 28  1  1  0  0  0
  1  2  2  0  0  0
  1  3  1  0  0  0
  3  5  1  0  0  0
  5  6  2  0  0  0
  6  7  1  0  0  0
  7  8  2  0  0  0
  8  9  1  0  0  0
  8 10  1  0  0  0
 10 12  1  0  0  0
 12 13  1  0  0  0
 13 14  2  0  0  0
 13 16  1  0  0  0
 16 17  2  0  0  0
 17 18  1  0  0  0
 18 19  2  0  0  0
 19 20  1  0  0  0
 20 21  2  0  0  0
 21 22  1  0  0  0
 22 23  2  0  0  0
 23 24  1  0  0  0
 10 11  2  0  0  0
 39 40  1  0  0  0
 40 41  1  0  0  0
 41 36  1  0  0  0
 30 25  1  0  0  0
 11  5  1  0  0  0
 24 16  1  0  0  0
 24 19  1  0  0  0
  3  4  1  0  0  0
 12 15  1  0  0  0
M  END
> <minimizedAffinity>
-10.08907

> <CNNscore>
0.4054854810

> <CNNaffinity>
7.3466324806

> <CNN_VS>
2.9789528847

> <CNNaffinity_variance>
0.0806242973

$$$$
[H]c1nc2c([H])c([H])c([H])c([H])n2c1C(=O)N([H])c1c([H])c(N([H])C(=O)c2c([H])c([H])c(C([H])([H])N3C([H])([H])C([H])([H])N(C([H])([H])C([H])([H])[H])C([H])([H])C3([H])[H])c(C(F)(F)F)c2[H])c([H])c([H])c1C([H])([H])[H]


 43 47  0  0  0  0  0  0  0  0999 V2000
   -3.4734   -5.1372    5.2651 C   0  0  0  0  0  0  0  0  0  0  0  0
   -2.5901   -5.8897    5.7256 O   0  0  0  0  0  0  0  0  0  0  0  0
   -4.8275   -5.4026    5.4530 N   0  0  0  0  0  0  0  0  0  0  0  0
   -5.4985   -4.6900    5.0181 H   0  0  0  0  0  0  0  0  0  0  0  0
   -5.4330   -6.4822    6.1323 C   0  0  0  0  0  0  0  0  0  0  0  0
   -4.7912   -7.6376    6.4989 C   0  0  0  0  0  0  0  0  0  0  0  0
   -5.4586   -8.6435    7.1790 C   0  0  0  0  0  0  0  0  0  0  0  0
   -6.7883   -8.4907    7.4967 C   0  0  0  0  0  0  0  0  0  0  0  0
   -7.4871   -9.5802    8.2222 C   0  0  0  0  0  0  0  0  0  0  0  0
   -7.4961   -7.3284    7.1463 C   0  0  0  0  0  0  0  0  0  0  0  0
   -6.7995   -6.3745    6.4826 C   0  0  0  0  0  0  0  0  0  0  0  0
   -8.8460   -7.2371    7.5002 N   0  0  0  0  0  0  0  0  0  0  0  0
   -9.8588   -8.2009    7.4337 C   0  0  0  0  0  0  0  0  0  0  0  0
   -9.6434   -9.3459    6.9901 O   0  0  0  0  0  0  0  0  0  0  0  0
   -9.1587   -6.2658    7.8368 H   0  0  0  0  0  0  0  0  0  0  0  0
  -11.2191   -7.9248    7.8699 C   0  0  0  0  0  0  0  0  0  0  0  0
  -12.3230   -8.6367    7.4052 C   0  0  0  0  0  0  0  0  0  0  0  0
  -13.4024   -8.1600    8.0278 N   0  0  0  0  0  0  0  0  0  0  0  0
  -13.0539   -7.1752    8.8742 C   0  0  0  0  0  0  0  0  0  0  0  0
  -13.8029   -6.3944    9.7423 C   0  0  0  0  0  0  0  0  0  0  0  0
  -13.2129   -5.4453   10.5421 C   0  0  0  0  0  0  0  0  0  0  0  0
  -11.8513   -5.3153   10.4348 C   0  0  0  0  0  0  0  0  0  0  0  0
  -11.1372   -6.1268    9.5423 C   0  0  0  0  0  0  0  0  0  0  0  0
  -11.7106   -7.0479    8.7628 N   0  0  0  0  0  0  0  0  0  0  0  0
   -2.0375   -1.7197    3.0477 C   0  0  0  0  0  0  0  0  0  0  0  0
   -1.6575   -3.0188    2.7427 C   0  0  0  0  0  0  0  0  0  0  0  0
   -2.1197   -4.1114    3.4602 C   0  0  0  0  0  0  0  0  0  0  0  0
   -2.9838   -3.9658    4.5195 C   0  0  0  0  0  0  0  0  0  0  0  0
   -3.3642   -2.6894    4.8294 C   0  0  0  0  0  0  0  0  0  0  0  0
   -2.9119   -1.5654    4.1194 C   0  0  0  0  0  0  0  0  0  0  0  0
   -3.3664   -0.2146    4.5146 C   0  0  0  0  0  0  0  0  0  0  0  0
   -2.3913    0.7282    4.5926 F   0  0  0  0  0  0  0  0  0  0  0  0
   -4.2683    0.2353    3.5210 F   0  0  0  0  0  0  0  0  0  0  0  0
   -4.1707   -0.2598    5.6661 F   0  0  0  0  0  0  0  0  0  0  0  0
   -1.5402   -0.5286    2.3288 C   0  0  0  0  0  0  0  0  0  0  0  0
   -2.7547    1.5108   -0.6855 N   0  0  0  0  0  0  0  0  0  0  0  0
   -3.6670    0.7642    0.1183 C   0  0  0  0  0  0  0  0  0  0  0  0
   -3.1674   -0.5991    0.5275 C   0  0  0  0  0  0  0  0  0  0  0  0
   -1.7984   -0.6100    0.9333 N   0  0  0  0  0  0  0  0  0  0  0  0
   -0.9357    0.2085    0.1235 C   0  0  0  0  0  0  0  0  0  0  0  0
   -1.6955    0.6544   -1.1280 C   0  0  0  0  0  0  0  0  0  0  0  0
   -4.9338    2.2269   -1.5668 C   0  0  0  0  0  0  0  0  0  0  0  0
   -3.4398    2.1626   -1.7880 C   0  0  0  0  0  0  0  0  0  0  0  0
 42 43  1  0  0  0
 43 36  1  0  0  0
 36 37  1  0  0  0
 37 38  1  0  0  0
 38 39  1  0  0  0
 39 35  1  0  0  0
 35 25  1  0  0  0
 25 26  2  0  0  0
 26 27  1  0  0  0
 27 28  2  0  0  0
 28 29  1  0  0  0
 29 30  2  0  0  0
 30 31  1  0  0  0
 31 32  1  0  0  0
 31 33  1  0  0  0
 31 34  1  0  0  0
 28  1  1  0  0  0
  1  2  2  0  0  0
  1  3  1  0  0  0
  3  5  1  0  0  0
  5  6  2  0  0  0
  6  7  1  0  0  0
  7  8  2  0  0  0
  8  9  1  0  0  0
  8 10  1  0  0  0
 10 12  1  0  0  0
 12 13  1  0  0  0
 13 14  2  0  0  0
 13 16  1  0  0  0
 16 17  2  0  0  0
 17 18  1  0  0  0
 18 19  2  0  0  0
 19 20  1  0  0  0
 20 21  2  0  0  0
 21 22  1  0  0  0
 22 23  2  0  0  0
 23 24  1  0  0  0
 10 11  2  0  0  0
 39 40  1  0  0  0
 40 41  1  0  0  0
 41 36  1  0  0  0
 30 25  1  0  0  0
 11  5  1  0  0  0
 24 16  1  0  0  0
 24 19  1  0  0  0
  3  4  1  0  0  0
 12 15  1  0  0  0
M  END
> <minimizedAffinity>
-7.51249

> <CNNscore>
0.3678567708

> <CNNaffinity>
6.6667966843

> <CNN_VS>
2.4524261951

> <CNNaffinity_variance>
0.2758033872

$$$$
[H]c1nc2c([H])c([H])c([H])c([H])n2c1C(=O)N([H])c1c([H])c(N([H])C(=O)c2c([H])c([H])c(C([H])([H])N3C([H])([H])C([H])([H])N(C([H])([H])C([H])([H])[H])C([H])([H])C3([H])[H])c(C(F)(F)F)c2[H])c([H])c([H])c1C([H])([H])[H]


 43 47  0  0  0  0  0  0  0  0999 V2000
   -8.7226   -8.8487    7.7145 C   0  0  0  0  0  0  0  0  0  0  0  0
   -8.1634   -9.9484    7.9057 O   0  0  0  0  0  0  0  0  0  0  0  0
   -7.9893   -7.6927    7.4593 N   0  0  0  0  0  0  0  0  0  0  0  0
   -8.5703   -6.8060    7.3072 H   0  0  0  0  0  0  0  0  0  0  0  0
   -6.5889   -7.5314    7.3791 C   0  0  0  0  0  0  0  0  0  0  0  0
   -5.7449   -8.3444    6.6664 C   0  0  0  0  0  0  0  0  0  0  0  0
   -4.3807   -8.1046    6.6287 C   0  0  0  0  0  0  0  0  0  0  0  0
   -3.8535   -7.0352    7.3147 C   0  0  0  0  0  0  0  0  0  0  0  0
   -2.3899   -6.7964    7.2652 C   0  0  0  0  0  0  0  0  0  0  0  0
   -4.6706   -6.1692    8.0612 C   0  0  0  0  0  0  0  0  0  0  0  0
   -5.9969   -6.4459    8.0667 C   0  0  0  0  0  0  0  0  0  0  0  0
   -4.0702   -5.1006    8.7346 N   0  0  0  0  0  0  0  0  0  0  0  0
   -4.1515   -4.7287   10.0816 C   0  0  0  0  0  0  0  0  0  0  0  0
   -4.8523   -5.3638   10.8938 O   0  0  0  0  0  0  0  0  0  0  0  0
   -3.4908   -4.4442    8.1119 H   0  0  0  0  0  0  0  0  0  0  0  0
   -3.4322   -3.5804   10.6117 C   0  0  0  0  0  0  0  0  0  0  0  0
   -3.5617   -2.2966   10.0858 C   0  0  0  0  0  0  0  0  0  0  0  0
   -2.8030   -1.4810   10.8201 N   0  0  0  0  0  0  0  0  0  0  0  0
   -2.1887   -2.1711   11.7968 C   0  0  0  0  0  0  0  0  0  0  0  0
   -1.3263   -1.7733   12.8079 C   0  0  0  0  0  0  0  0  0  0  0  0
   -0.8327   -2.6718   13.7230 C   0  0  0  0  0  0  0  0  0  0  0  0
   -1.2388   -3.9748   13.5816 C   0  0  0  0  0  0  0  0  0  0  0  0
   -2.1111   -4.3290   12.5432 C   0  0  0  0  0  0  0  0  0  0  0  0
   -2.5893   -3.4563   11.6518 N   0  0  0  0  0  0  0  0  0  0  0  0
  -13.0375   -8.9324    7.8958 C   0  0  0  0  0  0  0  0  0  0  0  0
  -12.3114   -9.7563    7.0478 C   0  0  0  0  0  0  0  0  0  0  0  0
  -10.9265   -9.7226    6.9923 C   0  0  0  0  0  0  0  0  0  0  0  0
  -10.1935   -8.8652    7.7781 C   0  0  0  0  0  0  0  0  0  0  0  0
  -10.8992   -8.0478    8.6170 C   0  0  0  0  0  0  0  0  0  0  0  0
  -12.3014   -8.0616    8.6938 C   0  0  0  0  0  0  0  0  0  0  0  0
  -12.9955   -7.1461    9.6251 C   0  0  0  0  0  0  0  0  0  0  0  0
  -13.8732   -7.7375   10.4770 F   0  0  0  0  0  0  0  0  0  0  0  0
  -12.0074   -6.5410   10.4378 F   0  0  0  0  0  0  0  0  0  0  0  0
  -13.5535   -6.0493    8.9465 F   0  0  0  0  0  0  0  0  0  0  0  0
  -14.5135   -8.9153    7.9586 C   0  0  0  0  0  0  0  0  0  0  0  0
  -16.9227   -8.2326    5.0518 N   0  0  0  0  0  0  0  0  0  0  0  0
  -15.5347   -8.4701    4.8217 C   0  0  0  0  0  0  0  0  0  0  0  0
  -14.6138   -7.7940    5.8069 C   0  0  0  0  0  0  0  0  0  0  0  0
  -15.0625   -7.8753    7.1601 N   0  0  0  0  0  0  0  0  0  0  0  0
  -16.4795   -7.6884    7.3248 C   0  0  0  0  0  0  0  0  0  0  0  0
  -17.0754   -7.1794    6.0102 C   0  0  0  0  0  0  0  0  0  0  0  0
  -18.1525   -6.5435    3.7585 C   0  0  0  0  0  0  0  0  0  0  0  0
  -17.6205   -7.9575    3.8079 C   0  0  0  0  0  0  0  0  0  0  0  0
 42 43  1  0  0  0
 43 36  1  0  0  0
 36 37  1  0  0  0
 37 38  1  0  0  0
 38 39  1  0  0  0
 39 35  1  0  0  0
 35 25  1  0  0  0
 25 26  2  0  0  0
 26 27  1  0  0  0
 27 28  2  0  0  0
 28 29  1  0  0  0
 29 30  2  0  0  0
 30 31  1  0  0  0
 31 32  1  0  0  0
 31 33  1  0  0  0
 31 34  1  0  0  0
 28  1  1  0  0  0
  1  2  2  0  0  0
  1  3  1  0  0  0
  3  5  1  0  0  0
  5  6  2  0  0  0
  6  7  1  0  0  0
  7  8  2  0  0  0
  8  9  1  0  0  0
  8 10  1  0  0  0
 10 12  1  0  0  0
 12 13  1  0  0  0
 13 14  2  0  0  0
 13 16  1  0  0  0
 16 17  2  0  0  0
 17 18  1  0  0  0
 18 19  2  0  0  0
 19 20  1  0  0  0
 20 21  2  0  0  0
 21 22  1  0  0  0
 22 23  2  0  0  0
 23 24  1  0  0  0
 10 11  2  0  0  0
 39 40  1  0  0  0
 40 41  1  0  0  0
 41 36  1  0  0  0
 30 25  1  0  0  0
 11  5  1  0  0  0
 24 16  1  0  0  0
 24 19  1  0  0  0
  3  4  1  0  0  0
 12 15  1  0  0  0
M  END
> <minimizedAffinity>
-10.09363

> <CNNscore>
0.3637796044

> <CNNaffinity>
7.3050947189

> <CNN_VS>
2.6574444771

> <CNNaffinity_variance>
0.0821069330

$$$$
[H]c1nc2c([H])c([H])c([H])c([H])n2c1C(=O)N([H])c1c([H])c(N([H])C(=O)c2c([H])c([H])c(C([H])([H])N3C([H])([H])C([H])([H])N(C([H])([H])C([H])([H])[H])C([H])([H])C3([H])[H])c(C(F)(F)F)c2[H])c([H])c([H])c1C([H])([H])[H]


 43 47  0  0  0  0  0  0  0  0999 V2000
  -13.2375   -7.2441    8.4882 C   0  0  0  0  0  0  0  0  0  0  0  0
  -12.5493   -8.2834    8.5570 O   0  0  0  0  0  0  0  0  0  0  0  0
  -13.4068   -6.4078    9.5887 N   0  0  0  0  0  0  0  0  0  0  0  0
  -14.0139   -5.5424    9.4171 H   0  0  0  0  0  0  0  0  0  0  0  0
  -12.8924   -6.5485   10.8961 C   0  0  0  0  0  0  0  0  0  0  0  0
  -12.7733   -7.7381   11.5686 C   0  0  0  0  0  0  0  0  0  0  0  0
  -12.2415   -7.7886   12.8470 C   0  0  0  0  0  0  0  0  0  0  0  0
  -11.8227   -6.6314   13.4615 C   0  0  0  0  0  0  0  0  0  0  0  0
  -11.2590   -6.7049   14.8321 C   0  0  0  0  0  0  0  0  0  0  0  0
  -11.9207   -5.3848   12.8202 C   0  0  0  0  0  0  0  0  0  0  0  0
  -12.4473   -5.3880   11.5719 C   0  0  0  0  0  0  0  0  0  0  0  0
  -11.4760   -4.2472   13.5013 N   0  0  0  0  0  0  0  0  0  0  0  0
  -10.2824   -4.0277   14.1988 C   0  0  0  0  0  0  0  0  0  0  0  0
   -9.4176   -4.9187   14.3111 O   0  0  0  0  0  0  0  0  0  0  0  0
  -12.1769   -3.4332   13.5244 H   0  0  0  0  0  0  0  0  0  0  0  0
   -9.9826   -2.7552   14.8373 C   0  0  0  0  0  0  0  0  0  0  0  0
   -9.0127   -1.8770   14.3583 C   0  0  0  0  0  0  0  0  0  0  0  0
   -9.0191   -0.7998   15.1452 N   0  0  0  0  0  0  0  0  0  0  0  0
   -9.9455   -0.9344   16.1103 C   0  0  0  0  0  0  0  0  0  0  0  0
  -10.3361   -0.0919   17.1407 C   0  0  0  0  0  0  0  0  0  0  0  0
  -11.3426   -0.4409   18.0088 C   0  0  0  0  0  0  0  0  0  0  0  0
  -11.9355   -1.6604   17.7996 C   0  0  0  0  0  0  0  0  0  0  0  0
  -11.5058   -2.4778   16.7450 C   0  0  0  0  0  0  0  0  0  0  0  0
  -10.5256   -2.1400   15.9024 N   0  0  0  0  0  0  0  0  0  0  0  0
  -15.0175   -6.4142    4.6410 C   0  0  0  0  0  0  0  0  0  0  0  0
  -15.0265   -5.4946    5.6799 C   0  0  0  0  0  0  0  0  0  0  0  0
  -14.4560   -5.7682    6.9135 C   0  0  0  0  0  0  0  0  0  0  0  0
  -13.8477   -6.9728    7.1760 C   0  0  0  0  0  0  0  0  0  0  0  0
  -13.8339   -7.8870    6.1591 C   0  0  0  0  0  0  0  0  0  0  0  0
  -14.4036   -7.6360    4.9003 C   0  0  0  0  0  0  0  0  0  0  0  0
  -14.3510   -8.6751    3.8493 C   0  0  0  0  0  0  0  0  0  0  0  0
  -14.3530   -8.2121    2.5720 F   0  0  0  0  0  0  0  0  0  0  0  0
  -13.1328   -9.3774    4.0099 F   0  0  0  0  0  0  0  0  0  0  0  0
  -15.3157   -9.6739    4.0658 F   0  0  0  0  0  0  0  0  0  0  0  0
  -15.6442   -6.1723    3.3251 C   0  0  0  0  0  0  0  0  0  0  0  0
  -18.4566   -7.7138    5.4309 N   0  0  0  0  0  0  0  0  0  0  0  0
  -17.7918   -8.4686    4.4189 C   0  0  0  0  0  0  0  0  0  0  0  0
  -17.5200   -7.7043    3.1470 C   0  0  0  0  0  0  0  0  0  0  0  0
  -17.0508   -6.3737    3.3668 N   0  0  0  0  0  0  0  0  0  0  0  0
  -17.7157   -5.6824    4.4390 C   0  0  0  0  0  0  0  0  0  0  0  0
  -18.9429   -6.4882    4.8718 C   0  0  0  0  0  0  0  0  0  0  0  0
  -19.6846   -9.8420    5.4005 C   0  0  0  0  0  0  0  0  0  0  0  0
  -19.5083   -8.4934    6.0602 C   0  0  0  0  0  0  0  0  0  0  0  0
 42 43  1  0  0  0
 43 36  1  0  0  0
 36 37  1  0  0  0
 37 38  1  0  0  0
 38 39  1  0  0  0
 39 35  1  0  0  0
 35 25  1  0  0  0
 25 26  2  0  0  0
 26 27  1  0  0  0
 27 28  2  0  0  0
 28 29  1  0  0  0
 29 30  2  0  0  0
 30 31  1  0  0  0
 31 32  1  0  0  0
 31 33  1  0  0  0
 31 34  1  0  0  0
 28  1  1  0  0  0
  1  2  2  0  0  0
  1  3  1  0  0  0
  3  5  1  0  0  0
  5  6  2  0  0  0
  6  7  1  0  0  0
  7  8  2  0  0  0
  8  9  1  0  0  0
  8 10  1  0  0  0
 10 12  1  0  0  0
 12 13  1  0  0  0
 13 14  2  0  0  0
 13 16  1  0  0  0
 16 17  2  0  0  0
 17 18  1  0  0  0
 18 19  2  0  0  0
 19 20  1  0  0  0
 20 21  2  0  0  0
 21 22  1  0  0  0
 22 23  2  0  0  0
 23 24  1  0  0  0
 10 11  2  0  0  0
 39 40  1  0  0  0
 40 41  1  0  0  0
 41 36  1  0  0  0
 30 25  1  0  0  0
 11  5  1  0  0  0
 24 16  1  0  0  0
 24 19  1  0  0  0
  3  4  1  0  0  0
 12 15  1  0  0  0
M  END
> <minimizedAffinity>
15.07532

> <CNNscore>
0.3570054770

> <CNNaffinity>
6.8690199852

> <CNN_VS>
2.4522776604

> <CNNaffinity_variance>
0.5908907056

$$$$
[H]c1nc2c([H])c([H])c([H])c([H])n2c1C(=O)N([H])c1c([H])c(N([H])C(=O)c2c([H])c([H])c(C([H])([H])N3C([H])([H])C([H])([H])N(C([H])([H])C([H])([H])[H])C([H])([H])C3([H])[H])c(C(F)(F)F)c2[H])c([H])c([H])c1C([H])([H])[H]


 43 47  0  0  0  0  0  0  0  0999 V2000
  -14.0241   -6.2431    8.2133 C   0  0  0  0  0  0  0  0  0  0  0  0
  -13.5042   -7.3779    8.2359 O   0  0  0  0  0  0  0  0  0  0  0  0
  -13.8204   -5.3274    9.2425 N   0  0  0  0  0  0  0  0  0  0  0  0
  -14.3110   -4.3834    9.1193 H   0  0  0  0  0  0  0  0  0  0  0  0
  -13.0616   -5.4765   10.4239 C   0  0  0  0  0  0  0  0  0  0  0  0
  -12.4205   -4.4560   11.0786 C   0  0  0  0  0  0  0  0  0  0  0  0
  -11.7082   -4.6878   12.2443 C   0  0  0  0  0  0  0  0  0  0  0  0
  -11.6367   -5.9602   12.7623 C   0  0  0  0  0  0  0  0  0  0  0  0
  -10.8665   -6.1896   14.0096 C   0  0  0  0  0  0  0  0  0  0  0  0
  -12.2739   -7.0437   12.1339 C   0  0  0  0  0  0  0  0  0  0  0  0
  -12.9572   -6.7655   10.9975 C   0  0  0  0  0  0  0  0  0  0  0  0
  -12.1616   -8.3113   12.7137 N   0  0  0  0  0  0  0  0  0  0  0  0
  -13.0708   -9.3755   12.7288 C   0  0  0  0  0  0  0  0  0  0  0  0
  -14.1915   -9.2853   12.1902 O   0  0  0  0  0  0  0  0  0  0  0  0
  -11.2540   -8.4759   13.2647 H   0  0  0  0  0  0  0  0  0  0  0  0
  -12.7675  -10.6427   13.3761 C   0  0  0  0  0  0  0  0  0  0  0  0
  -13.0169  -11.8770   12.7796 C   0  0  0  0  0  0  0  0  0  0  0  0
  -12.5911  -12.8239   13.6174 N   0  0  0  0  0  0  0  0  0  0  0  0
  -12.0766  -12.2658   14.7272 C   0  0  0  0  0  0  0  0  0  0  0  0
  -11.5024  -12.8223   15.8606 C   0  0  0  0  0  0  0  0  0  0  0  0
  -11.0164  -12.0355   16.8772 C   0  0  0  0  0  0  0  0  0  0  0  0
  -11.1298  -10.6786   16.7084 C   0  0  0  0  0  0  0  0  0  0  0  0
  -11.7186  -10.1631   15.5455 C   0  0  0  0  0  0  0  0  0  0  0  0
  -12.1935  -10.9275   14.5581 N   0  0  0  0  0  0  0  0  0  0  0  0
  -16.4947   -5.3837    4.7759 C   0  0  0  0  0  0  0  0  0  0  0  0
  -16.9015   -6.2380    5.7908 C   0  0  0  0  0  0  0  0  0  0  0  0
  -16.1025   -6.5120    6.8902 C   0  0  0  0  0  0  0  0  0  0  0  0
  -14.8563   -5.9498    7.0346 C   0  0  0  0  0  0  0  0  0  0  0  0
  -14.4450   -5.1068    6.0395 C   0  0  0  0  0  0  0  0  0  0  0  0
  -15.2338   -4.8115    4.9158 C   0  0  0  0  0  0  0  0  0  0  0  0
  -14.7203   -3.8906    3.8787 C   0  0  0  0  0  0  0  0  0  0  0  0
  -15.6604   -3.3606    3.0534 F   0  0  0  0  0  0  0  0  0  0  0  0
  -14.1213   -2.7953    4.5454 F   0  0  0  0  0  0  0  0  0  0  0  0
  -13.6407   -4.4560    3.1789 F   0  0  0  0  0  0  0  0  0  0  0  0
  -17.3029   -5.0941    3.5735 C   0  0  0  0  0  0  0  0  0  0  0  0
  -16.9933   -8.9165    3.6869 N   0  0  0  0  0  0  0  0  0  0  0  0
  -16.0334   -8.1169    2.9975 C   0  0  0  0  0  0  0  0  0  0  0  0
  -16.6242   -6.9796    2.2019 C   0  0  0  0  0  0  0  0  0  0  0  0
  -17.6670   -6.2830    2.8847 N   0  0  0  0  0  0  0  0  0  0  0  0
  -18.5687   -7.1357    3.6125 C   0  0  0  0  0  0  0  0  0  0  0  0
  -18.3085   -8.5924    3.2219 C   0  0  0  0  0  0  0  0  0  0  0  0
  -15.7170  -10.5969    2.4279 C   0  0  0  0  0  0  0  0  0  0  0  0
  -16.6896  -10.3307    3.5540 C   0  0  0  0  0  0  0  0  0  0  0  0
 42 43  1  0  0  0
 43 36  1  0  0  0
 36 37  1  0  0  0
 37 38  1  0  0  0
 38 39  1  0  0  0
 39 35  1  0  0  0
 35 25  1  0  0  0
 25 26  2  0  0  0
 26 27  1  0  0  0
 27 28  2  0  0  0
 28 29  1  0  0  0
 29 30  2  0  0  0
 30 31  1  0  0  0
 31 32  1  0  0  0
 31 33  1  0  0  0
 31 34  1  0  0  0
 28  1  1  0  0  0
  1  2  2  0  0  0
  1  3  1  0  0  0
  3  5  1  0  0  0
  5  6  2  0  0  0
  6  7  1  0  0  0
  7  8  2  0  0  0
  8  9  1  0  0  0
  8 10  1  0  0  0
 10 12  1  0  0  0
 12 13  1  0  0  0
 13 14  2  0  0  0
 13 16  1  0  0  0
 16 17  2  0  0  0
 17 18  1  0  0  0
 18 19  2  0  0  0
 19 20  1  0  0  0
 20 21  2  0  0  0
 21 22  1  0  0  0
 22 23  2  0  0  0
 23 24  1  0  0  0
 10 11  2  0  0  0
 39 40  1  0  0  0
 40 41  1  0  0  0
 41 36  1  0  0  0
 30 25  1  0  0  0
 11  5  1  0  0  0
 24 16  1  0  0  0
 24 19  1  0  0  0
  3  4  1  0  0  0
 12 15  1  0  0  0
M  END
> <minimizedAffinity>
38.79646

> <CNNscore>
0.3521347344

> <CNNaffinity>
6.8077569008

> <CNN_VS>
2.3972475529

> <CNNaffinity_variance>
0.2531322539

$$$$
[H]O[C@]([H])(C([H])([H])[H])[C@]([H])(C(=O)N([H])[C@]([H])(C(=O)N1C([H])([H])C([H])([H])C([H])([H])[C@@]1([H])C(=O)N([H])[C@]([H])(C(=O)c1nc2c([H])c([H])c([H])c([H])c2s1)C([H])([H])C([H])([H])C([H])([H])N=C(N([H])[H])N([H])[H])C([H])([H])c1c([H])c([H])c([H])c([H])c1[H])N([H])[H]


 54 57  0  0  0  0  0  0  0  0999 V2000
   -7.3980   -6.7484    7.2878 C   0  0  0  0  0  0  0  0  0  0  0  0
   -8.2995   -5.8446    7.2911 O   0  0  0  0  0  0  0  0  0  0  0  0
   -7.7153   -8.1229    7.1270 N   0  0  0  0  0  0  0  0  0  0  0  0
   -6.6925   -9.1799    6.9704 C   0  0  0  0  0  0  0  0  0  0  0  0
   -7.1367  -10.1785    8.0023 C   0  0  0  0  0  0  0  0  0  0  0  0
   -8.6272  -10.2446    7.6594 C   0  0  0  0  0  0  0  0  0  0  0  0
   -8.9430   -8.8522    7.0678 C   0  0  0  0  0  0  0  0  0  0  0  0
  -10.0749   -8.3648    7.8501 C   0  0  0  0  0  0  0  0  0  0  0  0
   -9.9315   -7.5377    8.7761 O   0  0  0  0  0  0  0  0  0  0  0  0
  -11.3594   -8.8654    7.5211 N   0  0  0  0  0  0  0  0  0  0  0  0
  -11.4757   -9.5536    6.7783 H   0  0  0  0  0  0  0  0  0  0  0  0
  -12.5941   -8.4362    8.2182 C   0  0  0  0  0  0  0  0  0  0  0  0
  -13.7759   -8.9597    7.5895 C   0  0  0  0  0  0  0  0  0  0  0  0
  -14.1107  -10.1459    7.6604 O   0  0  0  0  0  0  0  0  0  0  0  0
  -14.6637   -8.0470    6.8235 C   0  0  0  0  0  0  0  0  0  0  0  0
  -14.3044   -7.0921    5.9854 N   0  0  0  0  0  0  0  0  0  0  0  0
  -15.2076   -6.3761    5.3818 C   0  0  0  0  0  0  0  0  0  0  0  0
  -14.9546   -5.3346    4.4637 C   0  0  0  0  0  0  0  0  0  0  0  0
  -15.9917   -4.6742    3.9039 C   0  0  0  0  0  0  0  0  0  0  0  0
  -17.3275   -4.9279    4.1508 C   0  0  0  0  0  0  0  0  0  0  0  0
  -17.5778   -5.9452    5.0496 C   0  0  0  0  0  0  0  0  0  0  0  0
  -16.5222   -6.6526    5.6500 C   0  0  0  0  0  0  0  0  0  0  0  0
  -16.3686   -7.9426    6.7700 S   0  0  0  0  0  0  0  0  0  0  0  0
  -12.5047   -6.9913    8.4816 C   0  0  0  0  0  0  0  0  0  0  0  0
  -13.4712   -6.3066    9.3477 C   0  0  0  0  0  0  0  0  0  0  0  0
  -13.0670   -5.0101    9.9842 C   0  0  0  0  0  0  0  0  0  0  0  0
  -12.6977   -5.2279   11.3843 N   0  0  0  0  0  0  0  0  0  0  0  0
  -11.5342   -5.5669   11.7742 C   0  0  0  0  0  0  0  0  0  0  0  0
  -11.3163   -5.7438   13.1656 N   0  0  0  0  0  0  0  0  0  0  0  0
  -10.4292   -5.7839   10.9064 N   0  0  0  0  0  0  0  0  0  0  0  0
  -11.5099   -4.9512   13.7960 H   0  0  0  0  0  0  0  0  0  0  0  0
  -10.9702   -6.6417   13.5500 H   0  0  0  0  0  0  0  0  0  0  0  0
   -9.9576   -6.7059   10.8416 H   0  0  0  0  0  0  0  0  0  0  0  0
  -10.0694   -5.0117   10.3114 H   0  0  0  0  0  0  0  0  0  0  0  0
   -6.0203   -6.2145    7.4650 C   0  0  0  0  0  0  0  0  0  0  0  0
   -4.6492   -5.3458    9.4281 C   0  0  0  0  0  0  0  0  0  0  0  0
   -3.9930   -4.5003    8.7669 O   0  0  0  0  0  0  0  0  0  0  0  0
   -5.6224   -6.1749    8.8586 N   0  0  0  0  0  0  0  0  0  0  0  0
   -6.1110   -6.8313    9.5338 H   0  0  0  0  0  0  0  0  0  0  0  0
   -4.3037   -5.3941   10.8888 C   0  0  0  0  0  0  0  0  0  0  0  0
   -4.9200   -4.3150   11.6248 N   0  0  0  0  0  0  0  0  0  0  0  0
   -5.3311   -3.6165   10.9841 H   0  0  0  0  0  0  0  0  0  0  0  0
   -5.6438   -4.6550   12.3060 H   0  0  0  0  0  0  0  0  0  0  0  0
   -2.3544   -5.5596   12.4469 C   0  0  0  0  0  0  0  0  0  0  0  0
   -2.7966   -5.1768   11.0590 C   0  0  0  0  0  0  0  0  0  0  0  0
   -2.0605   -5.9333   10.1524 O   0  0  0  0  0  0  0  0  0  0  0  0
   -1.6082   -6.6626   10.6109 H   0  0  0  0  0  0  0  0  0  0  0  0
   -4.9759   -6.9097    6.6472 C   0  0  0  0  0  0  0  0  0  0  0  0
   -4.1126   -5.9860    5.8587 C   0  0  0  0  0  0  0  0  0  0  0  0
   -4.5410   -4.7714    5.3758 C   0  0  0  0  0  0  0  0  0  0  0  0
   -3.7000   -3.9495    4.6404 C   0  0  0  0  0  0  0  0  0  0  0  0
   -2.4073   -4.3232    4.3699 C   0  0  0  0  0  0  0  0  0  0  0  0
   -1.9484   -5.5287    4.8376 C   0  0  0  0  0  0  0  0  0  0  0  0
   -2.7960   -6.3254    5.5608 C   0  0  0  0  0  0  0  0  0  0  0  0
 44 45  1  0  0  0
 45 46  1  0  0  0
 45 40  1  0  0  0
 40 41  1  0  0  0
 40 36  1  0  0  0
 36 37  2  0  0  0
 36 38  1  0  0  0
 38 35  1  0  0  0
 35 48  1  0  0  0
 48 49  1  0  0  0
 49 50  2  0  0  0
 50 51  1  0  0  0
 51 52  2  0  0  0
 52 53  1  0  0  0
 53 54  2  0  0  0
 35  1  1  0  0  0
  1  2  2  0  0  0
  1  3  1  0  0  0
  3  4  1  0  0  0
  4  5  1  0  0  0
  5  6  1  0  0  0
  6  7  1  0  0  0
  7  8  1  0  0  0
  8  9  2  0  0  0
  8 10  1  0  0  0
 10 12  1  0  0  0
 12 24  1  0  0  0
 24 25  1  0  0  0
 25 26  1  0  0  0
 26 27  1  0  0  0
 27 28  2  0  0  0
 28 29  1  0  0  0
 28 30  1  0  0  0
 12 13  1  0  0  0
 13 14  2  0  0  0
 13 15  1  0  0  0
 15 16  2  0  0  0
 16 17  1  0  0  0
 17 18  2  0  0  0
 18 19  1  0  0  0
 19 20  2  0  0  0
 20 21  1  0  0  0
 21 22  2  0  0  0
 22 23  1  0  0  0
 54 49  1  0  0  0
  7  3  1  0  0  0
 23 15  1  0  0  0
 22 17  1  0  0  0
 46 47  1  0  0  0
 41 42  1  0  0  0
 41 43  1  0  0  0
 38 39  1  0  0  0
 10 11  1  0  0  0
 29 31  1  0  0  0
 29 32  1  0  0  0
 30 33  1  0  0  0
 30 34  1  0  0  0
M  END
> <minimizedAffinity>
-6.97557

> <CNNscore>
0.3085037470

> <CNNaffinity>
7.6544179916

> <CNN_VS>
2.3614165783

> <CNNaffinity_variance>
0.1722901762

$$$$
[H]O[C@]([H])(C([H])([H])[H])[C@]([H])(C(=O)N([H])[C@]([H])(C(=O)N1C([H])([H])C([H])([H])C([H])([H])[C@@]1([H])C(=O)N([H])[C@]([H])(C(=O)c1nc2c([H])c([H])c([H])c([H])c2s1)C([H])([H])C([H])([H])C([H])([H])N=C(N([H])[H])N([H])[H])C([H])([H])c1c([H])c([H])c([H])c([H])c1[H])N([H])[H]


 54 57  0  0  0  0  0  0  0  0999 V2000
   -2.4474   -3.2516    4.2435 C   0  0  0  0  0  0  0  0  0  0  0  0
   -2.8688   -4.3301    3.7058 O   0  0  0  0  0  0  0  0  0  0  0  0
   -1.6892   -3.2590    5.4439 N   0  0  0  0  0  0  0  0  0  0  0  0
   -1.0606   -2.0481    6.0152 C   0  0  0  0  0  0  0  0  0  0  0  0
   -1.5382   -2.1092    7.4391 C   0  0  0  0  0  0  0  0  0  0  0  0
   -1.2212   -3.5751    7.7454 C   0  0  0  0  0  0  0  0  0  0  0  0
   -1.3238   -4.2805    6.3743 C   0  0  0  0  0  0  0  0  0  0  0  0
   -2.2560   -5.3823    6.5926 C   0  0  0  0  0  0  0  0  0  0  0  0
   -2.0406   -6.5293    6.1451 O   0  0  0  0  0  0  0  0  0  0  0  0
   -3.4288   -5.1067    7.3392 N   0  0  0  0  0  0  0  0  0  0  0  0
   -3.6148   -4.1676    7.6891 H   0  0  0  0  0  0  0  0  0  0  0  0
   -4.4443   -6.1383    7.6540 C   0  0  0  0  0  0  0  0  0  0  0  0
   -5.4539   -6.2274    6.6347 C   0  0  0  0  0  0  0  0  0  0  0  0
   -5.3397   -5.7046    5.5222 O   0  0  0  0  0  0  0  0  0  0  0  0
   -6.6989   -6.9932    6.9018 C   0  0  0  0  0  0  0  0  0  0  0  0
   -7.8486   -6.5266    7.3534 N   0  0  0  0  0  0  0  0  0  0  0  0
   -8.8571   -7.3292    7.5310 C   0  0  0  0  0  0  0  0  0  0  0  0
  -10.1341   -6.9554    8.0010 C   0  0  0  0  0  0  0  0  0  0  0  0
  -11.0960   -7.8947    8.1332 C   0  0  0  0  0  0  0  0  0  0  0  0
  -10.9473   -9.2373    7.8420 C   0  0  0  0  0  0  0  0  0  0  0  0
   -9.6985   -9.6060    7.3835 C   0  0  0  0  0  0  0  0  0  0  0  0
   -8.6754   -8.6541    7.2341 C   0  0  0  0  0  0  0  0  0  0  0  0
   -7.0414   -8.6567    6.7125 S   0  0  0  0  0  0  0  0  0  0  0  0
   -4.8572   -5.9758    9.0570 C   0  0  0  0  0  0  0  0  0  0  0  0
   -4.3305   -4.8905    9.8924 C   0  0  0  0  0  0  0  0  0  0  0  0
   -3.7934   -5.2309   11.2508 C   0  0  0  0  0  0  0  0  0  0  0  0
   -4.5081   -4.4745   12.2809 N   0  0  0  0  0  0  0  0  0  0  0  0
   -5.3930   -4.9706   13.0501 C   0  0  0  0  0  0  0  0  0  0  0  0
   -6.0065   -4.1196   14.0062 N   0  0  0  0  0  0  0  0  0  0  0  0
   -5.8143   -6.3281   13.0172 N   0  0  0  0  0  0  0  0  0  0  0  0
   -5.4039   -3.6357   14.6888 H   0  0  0  0  0  0  0  0  0  0  0  0
   -7.0331   -3.9811   14.0286 H   0  0  0  0  0  0  0  0  0  0  0  0
   -6.7954   -6.5912   12.8056 H   0  0  0  0  0  0  0  0  0  0  0  0
   -5.1365   -7.0927   13.2060 H   0  0  0  0  0  0  0  0  0  0  0  0
   -2.8285   -2.0247    3.4925 C   0  0  0  0  0  0  0  0  0  0  0  0
   -2.3031   -1.2884    1.1113 C   0  0  0  0  0  0  0  0  0  0  0  0
   -1.8813   -0.1433    1.4173 O   0  0  0  0  0  0  0  0  0  0  0  0
   -2.7558   -2.2154    2.0571 N   0  0  0  0  0  0  0  0  0  0  0  0
   -3.0690   -3.1494    1.6633 H   0  0  0  0  0  0  0  0  0  0  0  0
   -2.2805   -1.5844   -0.3608 C   0  0  0  0  0  0  0  0  0  0  0  0
   -3.2862   -0.8353   -1.0772 N   0  0  0  0  0  0  0  0  0  0  0  0
   -3.9435   -0.3783   -0.4241 H   0  0  0  0  0  0  0  0  0  0  0  0
   -2.8697   -0.1261   -1.7307 H   0  0  0  0  0  0  0  0  0  0  0  0
   -4.1232   -3.2007   -0.8579 C   0  0  0  0  0  0  0  0  0  0  0  0
   -2.6490   -3.0544   -0.5862 C   0  0  0  0  0  0  0  0  0  0  0  0
   -1.9598   -3.5998   -1.6649 O   0  0  0  0  0  0  0  0  0  0  0  0
   -2.5643   -3.7423   -2.4139 H   0  0  0  0  0  0  0  0  0  0  0  0
   -4.1596   -1.4534    3.8727 C   0  0  0  0  0  0  0  0  0  0  0  0
   -4.0830   -0.3744    4.8975 C   0  0  0  0  0  0  0  0  0  0  0  0
   -3.3695    0.7889    4.7249 C   0  0  0  0  0  0  0  0  0  0  0  0
   -3.3239    1.7613    5.7127 C   0  0  0  0  0  0  0  0  0  0  0  0
   -3.9927    1.5937    6.8995 C   0  0  0  0  0  0  0  0  0  0  0  0
   -4.7144    0.4448    7.1034 C   0  0  0  0  0  0  0  0  0  0  0  0
   -4.7450   -0.5031    6.1151 C   0  0  0  0  0  0  0  0  0  0  0  0
 44 45  1  0  0  0
 45 46  1  0  0  0
 45 40  1  0  0  0
 40 41  1  0  0  0
 40 36  1  0  0  0
 36 37  2  0  0  0
 36 38  1  0  0  0
 38 35  1  0  0  0
 35 48  1  0  0  0
 48 49  1  0  0  0
 49 50  2  0  0  0
 50 51  1  0  0  0
 51 52  2  0  0  0
 52 53  1  0  0  0
 53 54  2  0  0  0
 35  1  1  0  0  0
  1  2  2  0  0  0
  1  3  1  0  0  0
  3  4  1  0  0  0
  4  5  1  0  0  0
  5  6  1  0  0  0
  6  7  1  0  0  0
  7  8  1  0  0  0
  8  9  2  0  0  0
  8 10  1  0  0  0
 10 12  1  0  0  0
 12 24  1  0  0  0
 24 25  1  0  0  0
 25 26  1  0  0  0
 26 27  1  0  0  0
 27 28  2  0  0  0
 28 29  1  0  0  0
 28 30  1  0  0  0
 12 13  1  0  0  0
 13 14  2  0  0  0
 13 15  1  0  0  0
 15 16  2  0  0  0
 16 17  1  0  0  0
 17 18  2  0  0  0
 18 19  1  0  0  0
 19 20  2  0  0  0
 20 21  1  0  0  0
 21 22  2  0  0  0
 22 23  1  0  0  0
 54 49  1  0  0  0
  7  3  1  0  0  0
 23 15  1  0  0  0
 22 17  1  0  0  0
 46 47  1  0  0  0
 41 42  1  0  0  0
 41 43  1  0  0  0
 38 39  1  0  0  0
 10 11  1  0  0  0
 29 31  1  0  0  0
 29 32  1  0  0  0
 30 33  1  0  0  0
 30 34  1  0  0  0
M  END
> <minimizedAffinity>
-6.04880

> <CNNscore>
0.2651793361

> <CNNaffinity>
6.4327301979

> <CNN_VS>
1.7058271170

> <CNNaffinity_variance>
0.1799754053

$$$$
[H]O[C@]([H])(C([H])([H])[H])[C@]([H])(C(=O)N([H])[C@]([H])(C(=O)N1C([H])([H])C([H])([H])C([H])([H])[C@@]1([H])C(=O)N([H])[C@]([H])(C(=O)c1nc2c([H])c([H])c([H])c([H])c2s1)C([H])([H])C([H])([H])C([H])([H])N=C(N([H])[H])N([H])[H])C([H])([H])c1c([H])c([H])c([H])c([H])c1[H])N([H])[H]


 54 57  0  0  0  0  0  0  0  0999 V2000
   -6.3424   -6.8780    7.8256 C   0  0  0  0  0  0  0  0  0  0  0  0
   -6.8769   -5.7441    8.0669 O   0  0  0  0  0  0  0  0  0  0  0  0
   -7.1152   -8.0029    7.4342 N   0  0  0  0  0  0  0  0  0  0  0  0
   -6.5206   -9.2874    7.0049 C   0  0  0  0  0  0  0  0  0  0  0  0
   -7.2753  -10.2652    7.8616 C   0  0  0  0  0  0  0  0  0  0  0  0
   -8.6993   -9.7551    7.6263 C   0  0  0  0  0  0  0  0  0  0  0  0
   -8.5195   -8.2486    7.3323 C   0  0  0  0  0  0  0  0  0  0  0  0
   -9.4088   -7.5778    8.2756 C   0  0  0  0  0  0  0  0  0  0  0  0
   -9.0749   -6.5290    8.8678 O   0  0  0  0  0  0  0  0  0  0  0  0
  -10.6808   -8.1609    8.5011 N   0  0  0  0  0  0  0  0  0  0  0  0
  -10.9475   -9.0261    8.0328 H   0  0  0  0  0  0  0  0  0  0  0  0
  -11.6876   -7.5702    9.4131 C   0  0  0  0  0  0  0  0  0  0  0  0
  -12.9108   -8.3251    9.4248 C   0  0  0  0  0  0  0  0  0  0  0  0
  -13.2904   -8.9827   10.3981 O   0  0  0  0  0  0  0  0  0  0  0  0
  -13.7872   -8.3182    8.2249 C   0  0  0  0  0  0  0  0  0  0  0  0
  -13.4556   -8.6294    6.9853 N   0  0  0  0  0  0  0  0  0  0  0  0
  -14.3452   -8.5801    6.0371 C   0  0  0  0  0  0  0  0  0  0  0  0
  -14.1195   -8.8918    4.6794 C   0  0  0  0  0  0  0  0  0  0  0  0
  -15.1393   -8.8034    3.7977 C   0  0  0  0  0  0  0  0  0  0  0  0
  -16.4317   -8.4235    4.1061 C   0  0  0  0  0  0  0  0  0  0  0  0
  -16.6548   -8.1166    5.4333 C   0  0  0  0  0  0  0  0  0  0  0  0
  -15.6162   -8.1983    6.3766 C   0  0  0  0  0  0  0  0  0  0  0  0
  -15.4437   -7.9308    8.0621 S   0  0  0  0  0  0  0  0  0  0  0  0
  -11.7446   -6.1199    9.1710 C   0  0  0  0  0  0  0  0  0  0  0  0
  -12.2237   -5.1876   10.1978 C   0  0  0  0  0  0  0  0  0  0  0  0
  -12.3701   -5.6875   11.6043 C   0  0  0  0  0  0  0  0  0  0  0  0
  -11.0525   -5.8577   12.2199 N   0  0  0  0  0  0  0  0  0  0  0  0
  -10.7446   -5.4379   13.3817 C   0  0  0  0  0  0  0  0  0  0  0  0
   -9.4270   -5.6731   13.8544 N   0  0  0  0  0  0  0  0  0  0  0  0
  -11.6348   -4.7430   14.2453 N   0  0  0  0  0  0  0  0  0  0  0  0
   -9.0912   -6.6467   13.9035 H   0  0  0  0  0  0  0  0  0  0  0  0
   -8.8092   -4.8943   14.1468 H   0  0  0  0  0  0  0  0  0  0  0  0
  -11.4429   -3.7743   14.5640 H   0  0  0  0  0  0  0  0  0  0  0  0
  -12.5077   -5.1992   14.5768 H   0  0  0  0  0  0  0  0  0  0  0  0
   -4.8640   -6.8864    7.9951 C   0  0  0  0  0  0  0  0  0  0  0  0
   -2.9585   -8.1960    6.9264 C   0  0  0  0  0  0  0  0  0  0  0  0
   -2.2814   -8.3262    7.9786 O   0  0  0  0  0  0  0  0  0  0  0  0
   -4.1881   -7.5289    6.8850 N   0  0  0  0  0  0  0  0  0  0  0  0
   -4.6605   -7.5064    5.9353 H   0  0  0  0  0  0  0  0  0  0  0  0
   -2.3384   -8.8194    5.7090 C   0  0  0  0  0  0  0  0  0  0  0  0
   -1.7453  -10.1031    6.0030 N   0  0  0  0  0  0  0  0  0  0  0  0
   -1.7012  -10.2664    7.0222 H   0  0  0  0  0  0  0  0  0  0  0  0
   -2.2458  -10.8953    5.5284 H   0  0  0  0  0  0  0  0  0  0  0  0
   -1.0610   -7.9767    3.7309 C   0  0  0  0  0  0  0  0  0  0  0  0
   -1.1727   -7.9466    5.2325 C   0  0  0  0  0  0  0  0  0  0  0  0
   -1.3280   -6.6202    5.6227 O   0  0  0  0  0  0  0  0  0  0  0  0
   -1.5425   -6.0652    4.8529 H   0  0  0  0  0  0  0  0  0  0  0  0
   -4.2626   -5.5404    8.2592 C   0  0  0  0  0  0  0  0  0  0  0  0
   -3.7043   -5.3875    9.6322 C   0  0  0  0  0  0  0  0  0  0  0  0
   -2.3666   -5.5118    9.9273 C   0  0  0  0  0  0  0  0  0  0  0  0
   -1.8967   -5.3668   11.2241 C   0  0  0  0  0  0  0  0  0  0  0  0
   -2.7551   -5.0931   12.2594 C   0  0  0  0  0  0  0  0  0  0  0  0
   -4.0959   -4.9624   11.9990 C   0  0  0  0  0  0  0  0  0  0  0  0
   -4.5387   -5.1106   10.7114 C   0  0  0  0  0  0  0  0  0  0  0  0
 44 45  1  0  0  0
 45 46  1  0  0  0
 45 40  1  0  0  0
 40 41  1  0  0  0
 40 36  1  0  0  0
 36 37  2  0  0  0
 36 38  1  0  0  0
 38 35  1  0  0  0
 35 48  1  0  0  0
 48 49  1  0  0  0
 49 50  2  0  0  0
 50 51  1  0  0  0
 51 52  2  0  0  0
 52 53  1  0  0  0
 53 54  2  0  0  0
 35  1  1  0  0  0
  1  2  2  0  0  0
  1  3  1  0  0  0
  3  4  1  0  0  0
  4  5  1  0  0  0
  5  6  1  0  0  0
  6  7  1  0  0  0
  7  8  1  0  0  0
  8  9  2  0  0  0
  8 10  1  0  0  0
 10 12  1  0  0  0
 12 24  1  0  0  0
 24 25  1  0  0  0
 25 26  1  0  0  0
 26 27  1  0  0  0
 27 28  2  0  0  0
 28 29  1  0  0  0
 28 30  1  0  0  0
 12 13  1  0  0  0
 13 14  2  0  0  0
 13 15  1  0  0  0
 15 16  2  0  0  0
 16 17  1  0  0  0
 17 18  2  0  0  0
 18 19  1  0  0  0
 19 20  2  0  0  0
 20 21  1  0  0  0
 21 22  2  0  0  0
 22 23  1  0  0  0
 54 49  1  0  0  0
  7  3  1  0  0  0
 23 15  1  0  0  0
 22 17  1  0  0  0
 46 47  1  0  0  0
 41 42  1  0  0  0
 41 43  1  0  0  0
 38 39  1  0  0  0
 10 11  1  0  0  0
 29 31  1  0  0  0
 29 32  1  0  0  0
 30 33  1  0  0  0
 30 34  1  0  0  0
M  END
> <minimizedAffinity>
-4.42561

> <CNNscore>
0.2527346909

> <CNNaffinity>
7.2559990883

> <CNN_VS>
1.8338426352

> <CNNaffinity_variance>
0.0640000105

$$$$
[H]O[C@]([H])(C([H])([H])[H])[C@]([H])(C(=O)N([H])[C@]([H])(C(=O)N1C([H])([H])C([H])([H])C([H])([H])[C@@]1([H])C(=O)N([H])[C@]([H])(C(=O)c1nc2c([H])c([H])c([H])c([H])c2s1)C([H])([H])C([H])([H])C([H])([H])N=C(N([H])[H])N([H])[H])C([H])([H])c1c([H])c([H])c([H])c([H])c1[H])N([H])[H]


 54 57  0  0  0  0  0  0  0  0999 V2000
   -6.8951   -7.1851    7.4028 C   0  0  0  0  0  0  0  0  0  0  0  0
   -7.7113   -6.2108    7.2832 O   0  0  0  0  0  0  0  0  0  0  0  0
   -7.2985   -8.5305    7.1962 N   0  0  0  0  0  0  0  0  0  0  0  0
   -6.3539   -9.6687    7.1805 C   0  0  0  0  0  0  0  0  0  0  0  0
   -7.0172  -10.6185    8.1383 C   0  0  0  0  0  0  0  0  0  0  0  0
   -8.4461  -10.5660    7.5916 C   0  0  0  0  0  0  0  0  0  0  0  0
   -8.5617   -9.1579    6.9654 C   0  0  0  0  0  0  0  0  0  0  0  0
   -9.7474   -8.5730    7.5841 C   0  0  0  0  0  0  0  0  0  0  0  0
   -9.6721   -7.6127    8.3806 O   0  0  0  0  0  0  0  0  0  0  0  0
  -11.0040   -9.1356    7.2476 N   0  0  0  0  0  0  0  0  0  0  0  0
  -11.0656   -9.9303    6.6125 H   0  0  0  0  0  0  0  0  0  0  0  0
  -12.2860   -8.6225    7.7842 C   0  0  0  0  0  0  0  0  0  0  0  0
  -13.4044   -9.4174    7.3561 C   0  0  0  0  0  0  0  0  0  0  0  0
  -13.6161  -10.5628    7.7653 O   0  0  0  0  0  0  0  0  0  0  0  0
  -14.3769   -8.8512    6.3857 C   0  0  0  0  0  0  0  0  0  0  0  0
  -15.4259   -8.0935    6.6481 N   0  0  0  0  0  0  0  0  0  0  0  0
  -16.1847   -7.6675    5.6809 C   0  0  0  0  0  0  0  0  0  0  0  0
  -17.3262   -6.8510    5.8285 C   0  0  0  0  0  0  0  0  0  0  0  0
  -18.0221   -6.4755    4.7331 C   0  0  0  0  0  0  0  0  0  0  0  0
  -17.7143   -6.8249    3.4321 C   0  0  0  0  0  0  0  0  0  0  0  0
  -16.5989   -7.6248    3.2849 C   0  0  0  0  0  0  0  0  0  0  0  0
  -15.8523   -8.0334    4.4033 C   0  0  0  0  0  0  0  0  0  0  0  0
  -14.4501   -8.9810    4.6833 S   0  0  0  0  0  0  0  0  0  0  0  0
  -12.3268   -7.1651    7.5853 C   0  0  0  0  0  0  0  0  0  0  0  0
  -13.1869   -6.3017    8.4025 C   0  0  0  0  0  0  0  0  0  0  0  0
  -13.7742   -6.8651    9.6624 C   0  0  0  0  0  0  0  0  0  0  0  0
  -12.8264   -6.7228   10.7695 N   0  0  0  0  0  0  0  0  0  0  0  0
  -12.3460   -5.6116   11.1634 C   0  0  0  0  0  0  0  0  0  0  0  0
  -11.4349   -5.6209   12.2518 N   0  0  0  0  0  0  0  0  0  0  0  0
  -12.6597   -4.3518   10.5839 N   0  0  0  0  0  0  0  0  0  0  0  0
  -11.7458   -6.0272   13.1470 H   0  0  0  0  0  0  0  0  0  0  0  0
  -10.4792   -5.2309   12.1616 H   0  0  0  0  0  0  0  0  0  0  0  0
  -11.9333   -3.7570   10.1422 H   0  0  0  0  0  0  0  0  0  0  0  0
  -13.6373   -3.9995   10.5912 H   0  0  0  0  0  0  0  0  0  0  0  0
   -5.5162   -6.7635    7.7710 C   0  0  0  0  0  0  0  0  0  0  0  0
   -3.2655   -7.6508    6.9738 C   0  0  0  0  0  0  0  0  0  0  0  0
   -2.8052   -7.8914    8.1197 O   0  0  0  0  0  0  0  0  0  0  0  0
   -4.5436   -7.1232    6.7576 N   0  0  0  0  0  0  0  0  0  0  0  0
   -4.8111   -6.9841    5.7405 H   0  0  0  0  0  0  0  0  0  0  0  0
   -2.3278   -7.9789    5.8476 C   0  0  0  0  0  0  0  0  0  0  0  0
   -1.4558   -9.0824    6.1757 N   0  0  0  0  0  0  0  0  0  0  0  0
   -1.5180   -9.3183    7.1796 H   0  0  0  0  0  0  0  0  0  0  0  0
   -1.6458   -9.9330    5.5892 H   0  0  0  0  0  0  0  0  0  0  0  0
   -1.0901   -6.6314    4.1426 C   0  0  0  0  0  0  0  0  0  0  0  0
   -1.3888   -6.7918    5.6100 C   0  0  0  0  0  0  0  0  0  0  0  0
   -1.9396   -5.5984    6.0666 O   0  0  0  0  0  0  0  0  0  0  0  0
   -2.1987   -5.0374    5.3151 H   0  0  0  0  0  0  0  0  0  0  0  0
   -5.3846   -5.3142    8.1246 C   0  0  0  0  0  0  0  0  0  0  0  0
   -4.4054   -5.0453    9.2151 C   0  0  0  0  0  0  0  0  0  0  0  0
   -4.6456   -5.3287   10.5395 C   0  0  0  0  0  0  0  0  0  0  0  0
   -3.7034   -5.0531   11.5193 C   0  0  0  0  0  0  0  0  0  0  0  0
   -2.4955   -4.4865   11.1974 C   0  0  0  0  0  0  0  0  0  0  0  0
   -2.2241   -4.1918    9.8851 C   0  0  0  0  0  0  0  0  0  0  0  0
   -3.1690   -4.4712    8.9338 C   0  0  0  0  0  0  0  0  0  0  0  0
 44 45  1  0  0  0
 45 46  1  0  0  0
 45 40  1  0  0  0
 40 41  1  0  0  0
 40 36  1  0  0  0
 36 37  2  0  0  0
 36 38  1  0  0  0
 38 35  1  0  0  0
 35 48  1  0  0  0
 48 49  1  0  0  0
 49 50  2  0  0  0
 50 51  1  0  0  0
 51 52  2  0  0  0
 52 53  1  0  0  0
 53 54  2  0  0  0
 35  1  1  0  0  0
  1  2  2  0  0  0
  1  3  1  0  0  0
  3  4  1  0  0  0
  4  5  1  0  0  0
  5  6  1  0  0  0
  6  7  1  0  0  0
  7  8  1  0  0  0
  8  9  2  0  0  0
  8 10  1  0  0  0
 10 12  1  0  0  0
 12 24  1  0  0  0
 24 25  1  0  0  0
 25 26  1  0  0  0
 26 27  1  0  0  0
 27 28  2  0  0  0
 28 29  1  0  0  0
 28 30  1  0  0  0
 12 13  1  0  0  0
 13 14  2  0  0  0
 13 15  1  0  0  0
 15 16  2  0  0  0
 16 17  1  0  0  0
 17 18  2  0  0  0
 18 19  1  0  0  0
 19 20  2  0  0  0
 20 21  1  0  0  0
 21 22  2  0  0  0
 22 23  1  0  0  0
 54 49  1  0  0  0
  7  3  1  0  0  0
 23 15  1  0  0  0
 22 17  1  0  0  0
 46 47  1  0  0  0
 41 42  1  0  0  0
 41 43  1  0  0  0
 38 39  1  0  0  0
 10 11  1  0  0  0
 29 31  1  0  0  0
 29 32  1  0  0  0
 30 33  1  0  0  0
 30 34  1  0  0  0
M  END
> <minimizedAffinity>
-4.82967

> <CNNscore>
0.2479475439

> <CNNaffinity>
7.5372986794

> <CNN_VS>
1.8688546419

> <CNNaffinity_variance>
0.5279180408

$$$$
[H]O[C@]([H])(C([H])([H])[H])[C@]([H])(C(=O)N([H])[C@]([H])(C(=O)N1C([H])([H])C([H])([H])C([H])([H])[C@@]1([H])C(=O)N([H])[C@]([H])(C(=O)c1nc2c([H])c([H])c([H])c([H])c2s1)C([H])([H])C([H])([H])C([H])([H])N=C(N([H])[H])N([H])[H])C([H])([H])c1c([H])c([H])c([H])c([H])c1[H])N([H])[H]


 54 57  0  0  0  0  0  0  0  0999 V2000
   -7.0706   -6.8067    6.9275 C   0  0  0  0  0  0  0  0  0  0  0  0
   -8.0461   -6.0250    6.6687 O   0  0  0  0  0  0  0  0  0  0  0  0
   -7.2356   -8.2154    6.9919 N   0  0  0  0  0  0  0  0  0  0  0  0
   -6.1069   -9.1595    7.1421 C   0  0  0  0  0  0  0  0  0  0  0  0
   -6.5801  -10.0083    8.2888 C   0  0  0  0  0  0  0  0  0  0  0  0
   -8.0038  -10.3028    7.8096 C   0  0  0  0  0  0  0  0  0  0  0  0
   -8.3728   -9.0794    6.9405 C   0  0  0  0  0  0  0  0  0  0  0  0
   -9.6335   -8.5965    7.4957 C   0  0  0  0  0  0  0  0  0  0  0  0
   -9.6699   -7.7753    8.4372 O   0  0  0  0  0  0  0  0  0  0  0  0
  -10.8314   -9.0946    6.9248 N   0  0  0  0  0  0  0  0  0  0  0  0
  -10.8033   -9.7781    6.1692 H   0  0  0  0  0  0  0  0  0  0  0  0
  -12.1766   -8.6693    7.3765 C   0  0  0  0  0  0  0  0  0  0  0  0
  -13.2163   -9.1853    6.5286 C   0  0  0  0  0  0  0  0  0  0  0  0
  -13.4180  -10.3921    6.3639 O   0  0  0  0  0  0  0  0  0  0  0  0
  -14.1161   -8.2418    5.8159 C   0  0  0  0  0  0  0  0  0  0  0  0
  -14.0158   -6.9267    5.7541 N   0  0  0  0  0  0  0  0  0  0  0  0
  -14.8861   -6.2342    5.0789 C   0  0  0  0  0  0  0  0  0  0  0  0
  -14.8863   -4.8307    4.9319 C   0  0  0  0  0  0  0  0  0  0  0  0
  -15.8509   -4.2388    4.1942 C   0  0  0  0  0  0  0  0  0  0  0  0
  -16.8769   -4.8975    3.5438 C   0  0  0  0  0  0  0  0  0  0  0  0
  -16.8800   -6.2704    3.6872 C   0  0  0  0  0  0  0  0  0  0  0  0
  -15.8912   -6.9181    4.4474 C   0  0  0  0  0  0  0  0  0  0  0  0
  -15.5119   -8.5355    4.8746 S   0  0  0  0  0  0  0  0  0  0  0  0
  -12.1392   -7.2269    7.6649 C   0  0  0  0  0  0  0  0  0  0  0  0
  -12.7183   -6.6737    8.8944 C   0  0  0  0  0  0  0  0  0  0  0  0
  -13.7163   -7.5007    9.6491 C   0  0  0  0  0  0  0  0  0  0  0  0
  -15.0504   -7.3377    9.0679 N   0  0  0  0  0  0  0  0  0  0  0  0
  -15.7646   -8.2974    8.6324 C   0  0  0  0  0  0  0  0  0  0  0  0
  -17.0423   -7.9940    8.0938 N   0  0  0  0  0  0  0  0  0  0  0  0
  -15.3682   -9.6626    8.6465 N   0  0  0  0  0  0  0  0  0  0  0  0
  -17.7218   -7.5017    8.6930 H   0  0  0  0  0  0  0  0  0  0  0  0
  -17.2980   -8.2568    7.1246 H   0  0  0  0  0  0  0  0  0  0  0  0
  -15.2673  -10.2118    7.7719 H   0  0  0  0  0  0  0  0  0  0  0  0
  -15.1679  -10.1418    9.5465 H   0  0  0  0  0  0  0  0  0  0  0  0
   -5.7815   -6.0961    7.1463 C   0  0  0  0  0  0  0  0  0  0  0  0
   -4.5241   -5.1386    9.1440 C   0  0  0  0  0  0  0  0  0  0  0  0
   -3.9156   -4.2449    8.5008 O   0  0  0  0  0  0  0  0  0  0  0  0
   -5.4207   -6.0337    8.5492 N   0  0  0  0  0  0  0  0  0  0  0  0
   -5.8762   -6.7267    9.2108 H   0  0  0  0  0  0  0  0  0  0  0  0
   -4.2108   -5.1679   10.6124 C   0  0  0  0  0  0  0  0  0  0  0  0
   -4.9124   -4.1324   11.3345 N   0  0  0  0  0  0  0  0  0  0  0  0
   -5.3524   -3.4603   10.6847 H   0  0  0  0  0  0  0  0  0  0  0  0
   -5.6287   -4.5198   11.9980 H   0  0  0  0  0  0  0  0  0  0  0  0
   -2.5419   -3.8144   11.8920 C   0  0  0  0  0  0  0  0  0  0  0  0
   -2.7253   -4.8546   10.8184 C   0  0  0  0  0  0  0  0  0  0  0  0
   -2.0063   -5.9856   11.1924 O   0  0  0  0  0  0  0  0  0  0  0  0
   -1.7442   -5.9246   12.1274 H   0  0  0  0  0  0  0  0  0  0  0  0
   -4.6366   -6.6264    6.3397 C   0  0  0  0  0  0  0  0  0  0  0  0
   -3.9182   -5.5844    5.5533 C   0  0  0  0  0  0  0  0  0  0  0  0
   -2.5893   -5.6729    5.2092 C   0  0  0  0  0  0  0  0  0  0  0  0
   -1.9638   -4.6720    4.4810 C   0  0  0  0  0  0  0  0  0  0  0  0
   -2.6538   -3.5561    4.0779 C   0  0  0  0  0  0  0  0  0  0  0  0
   -3.9811   -3.4370    4.4042 C   0  0  0  0  0  0  0  0  0  0  0  0
   -4.5789   -4.4366    5.1250 C   0  0  0  0  0  0  0  0  0  0  0  0
 44 45  1  0  0  0
 45 46  1  0  0  0
 45 40  1  0  0  0
 40 41  1  0  0  0
 40 36  1  0  0  0
 36 37  2  0  0  0
 36 38  1  0  0  0
 38 35  1  0  0  0
 35 48  1  0  0  0
 48 49  1  0  0  0
 49 50  2  0  0  0
 50 51  1  0  0  0
 51 52  2  0  0  0
 52 53  1  0  0  0
 53 54  2  0  0  0
 35  1  1  0  0  0
  1  2  2  0  0  0
  1  3  1  0  0  0
  3  4  1  0  0  0
  4  5  1  0  0  0
  5  6  1  0  0  0
  6  7  1  0  0  0
  7  8  1  0  0  0
  8  9  2  0  0  0
  8 10  1  0  0  0
 10 12  1  0  0  0
 12 24  1  0  0  0
 24 25  1  0  0  0
 25 26  1  0  0  0
 26 27  1  0  0  0
 27 28  2  0  0  0
 28 29  1  0  0  0
 28 30  1  0  0  0
 12 13  1  0  0  0
 13 14  2  0  0  0
 13 15  1  0  0  0
 15 16  2  0  0  0
 16 17  1  0  0  0
 17 18  2  0  0  0
 18 19  1  0  0  0
 19 20  2  0  0  0
 20 21  1  0  0  0
 21 22  2  0  0  0
 22 23  1  0  0  0
 54 49  1  0  0  0
  7  3  1  0  0  0
 23 15  1  0  0  0
 22 17  1  0  0  0
 46 47  1  0  0  0
 41 42  1  0  0  0
 41 43  1  0  0  0
 38 39  1  0  0  0
 10 11  1  0  0  0
 29 31  1  0  0  0
 29 32  1  0  0  0
 30 33  1  0  0  0
 30 34  1  0  0  0
M  END
> <minimizedAffinity>
-6.62476

> <CNNscore>
0.2371334583

> <CNNaffinity>
7.4571394920

> <CNN_VS>
1.7683372498

> <CNNaffinity_variance>
0.0445120111

$$$$
[H]O[C@]([H])(C([H])([H])[H])[C@]([H])(C(=O)N([H])[C@]([H])(C(=O)N1C([H])([H])C([H])([H])C([H])([H])[C@@]1([H])C(=O)N([H])[C@]([H])(C(=O)c1nc2c([H])c([H])c([H])c([H])c2s1)C([H])([H])C([H])([H])C([H])([H])N=C(N([H])[H])N([H])[H])C([H])([H])c1c([H])c([H])c([H])c([H])c1[H])N([H])[H]


 54 57  0  0  0  0  0  0  0  0999 V2000
   -5.5313   -6.4736    8.1349 C   0  0  0  0  0  0  0  0  0  0  0  0
   -6.0415   -6.6469    9.2922 O   0  0  0  0  0  0  0  0  0  0  0  0
   -6.3306   -6.1728    7.0007 N   0  0  0  0  0  0  0  0  0  0  0  0
   -5.7664   -5.8211    5.6794 C   0  0  0  0  0  0  0  0  0  0  0  0
   -6.5215   -6.7552    4.7757 C   0  0  0  0  0  0  0  0  0  0  0  0
   -7.9407   -6.5110    5.2950 C   0  0  0  0  0  0  0  0  0  0  0  0
   -7.7405   -6.1126    6.7747 C   0  0  0  0  0  0  0  0  0  0  0  0
   -8.6003   -7.0239    7.5239 C   0  0  0  0  0  0  0  0  0  0  0  0
   -8.1753   -8.1054    7.9844 O   0  0  0  0  0  0  0  0  0  0  0  0
   -9.9503   -6.6377    7.7159 N   0  0  0  0  0  0  0  0  0  0  0  0
  -10.3030   -5.7647    7.3253 H   0  0  0  0  0  0  0  0  0  0  0  0
  -10.9220   -7.4567    8.4772 C   0  0  0  0  0  0  0  0  0  0  0  0
  -11.4361   -8.5469    7.6941 C   0  0  0  0  0  0  0  0  0  0  0  0
  -10.9879   -9.6955    7.7577 O   0  0  0  0  0  0  0  0  0  0  0  0
  -12.5722   -8.3105    6.7662 C   0  0  0  0  0  0  0  0  0  0  0  0
  -13.2071   -7.1740    6.5458 N   0  0  0  0  0  0  0  0  0  0  0  0
  -14.1867   -7.1259    5.6908 C   0  0  0  0  0  0  0  0  0  0  0  0
  -14.9382   -5.9771    5.3635 C   0  0  0  0  0  0  0  0  0  0  0  0
  -15.9286   -6.0679    4.4492 C   0  0  0  0  0  0  0  0  0  0  0  0
  -16.2923   -7.2189    3.7766 C   0  0  0  0  0  0  0  0  0  0  0  0
  -15.5598   -8.3445    4.0960 C   0  0  0  0  0  0  0  0  0  0  0  0
  -14.5226   -8.2849    5.0426 C   0  0  0  0  0  0  0  0  0  0  0  0
  -13.3906   -9.3830    5.7172 S   0  0  0  0  0  0  0  0  0  0  0  0
  -11.8671   -6.5538    9.1530 C   0  0  0  0  0  0  0  0  0  0  0  0
  -12.6049   -6.9702   10.3511 C   0  0  0  0  0  0  0  0  0  0  0  0
  -13.5431   -8.1354   10.2432 C   0  0  0  0  0  0  0  0  0  0  0  0
  -14.7809   -7.7275    9.5756 N   0  0  0  0  0  0  0  0  0  0  0  0
  -15.4380   -8.4642    8.7718 C   0  0  0  0  0  0  0  0  0  0  0  0
  -16.6243   -7.9394    8.1956 N   0  0  0  0  0  0  0  0  0  0  0  0
  -15.0631   -9.7861    8.4068 N   0  0  0  0  0  0  0  0  0  0  0  0
  -17.3753   -7.6207    8.8262 H   0  0  0  0  0  0  0  0  0  0  0  0
  -16.7450   -7.8744    7.1685 H   0  0  0  0  0  0  0  0  0  0  0  0
  -14.8472  -10.0418    7.4246 H   0  0  0  0  0  0  0  0  0  0  0  0
  -14.9961  -10.5309    9.1283 H   0  0  0  0  0  0  0  0  0  0  0  0
   -4.0502   -6.6171    8.1107 C   0  0  0  0  0  0  0  0  0  0  0  0
   -2.6673   -4.8890    9.3713 C   0  0  0  0  0  0  0  0  0  0  0  0
   -2.4439   -4.1491    8.3786 O   0  0  0  0  0  0  0  0  0  0  0  0
   -3.4259   -6.0627    9.2959 N   0  0  0  0  0  0  0  0  0  0  0  0
   -3.5490   -6.5831   10.2122 H   0  0  0  0  0  0  0  0  0  0  0  0
   -2.0518   -4.4080   10.6540 C   0  0  0  0  0  0  0  0  0  0  0  0
   -1.7218   -5.5019   11.5374 N   0  0  0  0  0  0  0  0  0  0  0  0
   -2.1326   -6.3878   11.2000 H   0  0  0  0  0  0  0  0  0  0  0  0
   -0.6859   -5.6096   11.6743 H   0  0  0  0  0  0  0  0  0  0  0  0
   -2.5571   -2.1854   11.6832 C   0  0  0  0  0  0  0  0  0  0  0  0
   -3.0796   -3.5743   11.4261 C   0  0  0  0  0  0  0  0  0  0  0  0
   -4.2780   -3.4575   10.7289 O   0  0  0  0  0  0  0  0  0  0  0  0
   -4.3835   -2.5519   10.3892 H   0  0  0  0  0  0  0  0  0  0  0  0
   -3.5666   -8.0149    7.8757 C   0  0  0  0  0  0  0  0  0  0  0  0
   -2.6952   -8.1585    6.6756 C   0  0  0  0  0  0  0  0  0  0  0  0
   -2.2915   -7.0983    5.8978 C   0  0  0  0  0  0  0  0  0  0  0  0
   -1.4846   -7.2848    4.7853 C   0  0  0  0  0  0  0  0  0  0  0  0
   -1.0607   -8.5390    4.4232 C   0  0  0  0  0  0  0  0  0  0  0  0
   -1.4451   -9.6182    5.1782 C   0  0  0  0  0  0  0  0  0  0  0  0
   -2.2431   -9.4116    6.2721 C   0  0  0  0  0  0  0  0  0  0  0  0
 44 45  1  0  0  0
 45 46  1  0  0  0
 45 40  1  0  0  0
 40 41  1  0  0  0
 40 36  1  0  0  0
 36 37  2  0  0  0
 36 38  1  0  0  0
 38 35  1  0  0  0
 35 48  1  0  0  0
 48 49  1  0  0  0
 49 50  2  0  0  0
 50 51  1  0  0  0
 51 52  2  0  0  0
 52 53  1  0  0  0
 53 54  2  0  0  0
 35  1  1  0  0  0
  1  2  2  0  0  0
  1  3  1  0  0  0
  3  4  1  0  0  0
  4  5  1  0  0  0
  5  6  1  0  0  0
  6  7  1  0  0  0
  7  8  1  0  0  0
  8  9  2  0  0  0
  8 10  1  0  0  0
 10 12  1  0  0  0
 12 24  1  0  0  0
 24 25  1  0  0  0
 25 26  1  0  0  0
 26 27  1  0  0  0
 27 28  2  0  0  0
 28 29  1  0  0  0
 28 30  1  0  0  0
 12 13  1  0  0  0
 13 14  2  0  0  0
 13 15  1  0  0  0
 15 16  2  0  0  0
 16 17  1  0  0  0
 17 18  2  0  0  0
 18 19  1  0  0  0
 19 20  2  0  0  0
 20 21  1  0  0  0
 21 22  2  0  0  0
 22 23  1  0  0  0
 54 49  1  0  0  0
  7  3  1  0  0  0
 23 15  1  0  0  0
 22 17  1  0  0  0
 46 47  1  0  0  0
 41 42  1  0  0  0
 41 43  1  0  0  0
 38 39  1  0  0  0
 10 11  1  0  0  0
 29 31  1  0  0  0
 29 32  1  0  0  0
 30 33  1  0  0  0
 30 34  1  0  0  0
M  END
> <minimizedAffinity>
-6.27974

> <CNNscore>
0.1968355179

> <CNNaffinity>
7.2185287476

> <CNN_VS>
1.4208627939

> <CNNaffinity_variance>
0.1075236946

$$$$
[H]O[C@]([H])(C([H])([H])[H])[C@]([H])(C(=O)N([H])[C@]([H])(C(=O)N1C([H])([H])C([H])([H])C([H])([H])[C@@]1([H])C(=O)N([H])[C@]([H])(C(=O)c1nc2c([H])c([H])c([H])c([H])c2s1)C([H])([H])C([H])([H])C([H])([H])N=C(N([H])[H])N([H])[H])C([H])([H])c1c([H])c([H])c([H])c([H])c1[H])N([H])[H]


 54 57  0  0  0  0  0  0  0  0999 V2000
   -6.9084   -6.9855    6.6361 C   0  0  0  0  0  0  0  0  0  0  0  0
   -7.8400   -6.1834    6.2922 O   0  0  0  0  0  0  0  0  0  0  0  0
   -7.1467   -8.3714    6.8318 N   0  0  0  0  0  0  0  0  0  0  0  0
   -6.0697   -9.3532    7.0850 C   0  0  0  0  0  0  0  0  0  0  0  0
   -6.5950  -10.0635    8.3011 C   0  0  0  0  0  0  0  0  0  0  0  0
   -8.0285  -10.3294    7.8343 C   0  0  0  0  0  0  0  0  0  0  0  0
   -8.3269   -9.1774    6.8485 C   0  0  0  0  0  0  0  0  0  0  0  0
   -9.5650   -8.5801    7.3396 C   0  0  0  0  0  0  0  0  0  0  0  0
   -9.5671   -7.5466    8.0427 O   0  0  0  0  0  0  0  0  0  0  0  0
  -10.7812   -9.2173    6.9884 N   0  0  0  0  0  0  0  0  0  0  0  0
  -10.7801  -10.0703    6.4304 H   0  0  0  0  0  0  0  0  0  0  0  0
  -12.1082   -8.7029    7.3993 C   0  0  0  0  0  0  0  0  0  0  0  0
  -13.1653   -9.2251    6.5772 C   0  0  0  0  0  0  0  0  0  0  0  0
  -13.3886  -10.4325    6.4490 O   0  0  0  0  0  0  0  0  0  0  0  0
  -14.0571   -8.2872    5.8472 C   0  0  0  0  0  0  0  0  0  0  0  0
  -13.9732   -6.9703    5.8003 N   0  0  0  0  0  0  0  0  0  0  0  0
  -14.8330   -6.2833    5.1064 C   0  0  0  0  0  0  0  0  0  0  0  0
  -14.8483   -4.8786    4.9722 C   0  0  0  0  0  0  0  0  0  0  0  0
  -15.7993   -4.2928    4.2122 C   0  0  0  0  0  0  0  0  0  0  0  0
  -16.7968   -4.9592    3.5262 C   0  0  0  0  0  0  0  0  0  0  0  0
  -16.7851   -6.3334    3.6570 C   0  0  0  0  0  0  0  0  0  0  0  0
  -15.8098   -6.9747    4.4398 C   0  0  0  0  0  0  0  0  0  0  0  0
  -15.4208   -8.5908    4.8631 S   0  0  0  0  0  0  0  0  0  0  0  0
  -12.0063   -7.2479    7.5941 C   0  0  0  0  0  0  0  0  0  0  0  0
  -12.6035   -6.5847    8.7588 C   0  0  0  0  0  0  0  0  0  0  0  0
  -13.6039   -7.3444    9.5784 C   0  0  0  0  0  0  0  0  0  0  0  0
  -14.9389   -7.2191    8.9899 N   0  0  0  0  0  0  0  0  0  0  0  0
  -15.6721   -8.2060    8.6597 C   0  0  0  0  0  0  0  0  0  0  0  0
  -16.9481   -7.9378    8.0987 N   0  0  0  0  0  0  0  0  0  0  0  0
  -15.2988   -9.5692    8.8135 N   0  0  0  0  0  0  0  0  0  0  0  0
  -17.6151   -7.3742    8.6468 H   0  0  0  0  0  0  0  0  0  0  0  0
  -17.2146   -8.2951    7.1633 H   0  0  0  0  0  0  0  0  0  0  0  0
  -15.2131  -10.2078    8.0001 H   0  0  0  0  0  0  0  0  0  0  0  0
  -15.1007   -9.9560    9.7574 H   0  0  0  0  0  0  0  0  0  0  0  0
   -5.5858   -6.3239    6.8025 C   0  0  0  0  0  0  0  0  0  0  0  0
   -4.2627   -4.7881    5.2602 C   0  0  0  0  0  0  0  0  0  0  0  0
   -3.1771   -5.4180    5.3462 O   0  0  0  0  0  0  0  0  0  0  0  0
   -5.4301   -5.1804    5.9250 N   0  0  0  0  0  0  0  0  0  0  0  0
   -6.2787   -4.5675    5.7520 H   0  0  0  0  0  0  0  0  0  0  0  0
   -4.2064   -3.5731    4.3793 C   0  0  0  0  0  0  0  0  0  0  0  0
   -3.0552   -3.5918    3.5073 N   0  0  0  0  0  0  0  0  0  0  0  0
   -2.3973   -4.3411    3.7779 H   0  0  0  0  0  0  0  0  0  0  0  0
   -3.3192   -3.6869    2.4951 H   0  0  0  0  0  0  0  0  0  0  0  0
   -2.6828   -1.6859    4.9892 C   0  0  0  0  0  0  0  0  0  0  0  0
   -4.0209   -2.3260    5.2499 C   0  0  0  0  0  0  0  0  0  0  0  0
   -5.0051   -1.3737    5.0039 O   0  0  0  0  0  0  0  0  0  0  0  0
   -4.6277   -0.6145    4.5265 H   0  0  0  0  0  0  0  0  0  0  0  0
   -5.2558   -5.9438    8.2130 C   0  0  0  0  0  0  0  0  0  0  0  0
   -3.8347   -6.1891    8.5878 C   0  0  0  0  0  0  0  0  0  0  0  0
   -3.1035   -5.3451    9.3908 C   0  0  0  0  0  0  0  0  0  0  0  0
   -1.7800   -5.6145    9.7058 C   0  0  0  0  0  0  0  0  0  0  0  0
   -1.1544   -6.7373    9.2244 C   0  0  0  0  0  0  0  0  0  0  0  0
   -1.8558   -7.6004    8.4209 C   0  0  0  0  0  0  0  0  0  0  0  0
   -3.1615   -7.3146    8.1214 C   0  0  0  0  0  0  0  0  0  0  0  0
 44 45  1  0  0  0
 45 46  1  0  0  0
 45 40  1  0  0  0
 40 41  1  0  0  0
 40 36  1  0  0  0
 36 37  2  0  0  0
 36 38  1  0  0  0
 38 35  1  0  0  0
 35 48  1  0  0  0
 48 49  1  0  0  0
 49 50  2  0  0  0
 50 51  1  0  0  0
 51 52  2  0  0  0
 52 53  1  0  0  0
 53 54  2  0  0  0
 35  1  1  0  0  0
  1  2  2  0  0  0
  1  3  1  0  0  0
  3  4  1  0  0  0
  4  5  1  0  0  0
  5  6  1  0  0  0
  6  7  1  0  0  0
  7  8  1  0  0  0
  8  9  2  0  0  0
  8 10  1  0  0  0
 10 12  1  0  0  0
 12 24  1  0  0  0
 24 25  1  0  0  0
 25 26  1  0  0  0
 26 27  1  0  0  0
 27 28  2  0  0  0
 28 29  1  0  0  0
 28 30  1  0  0  0
 12 13  1  0  0  0
 13 14  2  0  0  0
 13 15  1  0  0  0
 15 16  2  0  0  0
 16 17  1  0  0  0
 17 18  2  0  0  0
 18 19  1  0  0  0
 19 20  2  0  0  0
 20 21  1  0  0  0
 21 22  2  0  0  0
 22 23  1  0  0  0
 54 49  1  0  0  0
  7  3  1  0  0  0
 23 15  1  0  0  0
 22 17  1  0  0  0
 46 47  1  0  0  0
 41 42  1  0  0  0
 41 43  1  0  0  0
 38 39  1  0  0  0
 10 11  1  0  0  0
 29 31  1  0  0  0
 29 32  1  0  0  0
 30 33  1  0  0  0
 30 34  1  0  0  0
M  END
> <minimizedAffinity>
-6.10001

> <CNNscore>
0.1823064238

> <CNNaffinity>
7.4090905190

> <CNN_VS>
1.3507248163

> <CNNaffinity_variance>
0.0318971686

$$$$
[H]O[C@]([H])(C([H])([H])[H])[C@]([H])(C(=O)N([H])[C@]([H])(C(=O)N1C([H])([H])C([H])([H])C([H])([H])[C@@]1([H])C(=O)N([H])[C@]([H])(C(=O)c1nc2c([H])c([H])c([H])c([H])c2s1)C([H])([H])C([H])([H])C([H])([H])N=C(N([H])[H])N([H])[H])C([H])([H])c1c([H])c([H])c([H])c([H])c1[H])N([H])[H]


 54 57  0  0  0  0  0  0  0  0999 V2000
   -3.6711   -4.3832    4.7049 C   0  0  0  0  0  0  0  0  0  0  0  0
   -4.6783   -5.0947    4.3746 O   0  0  0  0  0  0  0  0  0  0  0  0
   -2.5510   -4.9369    5.3791 N   0  0  0  0  0  0  0  0  0  0  0  0
   -1.3080   -4.1808    5.6459 C   0  0  0  0  0  0  0  0  0  0  0  0
   -1.1149   -4.4353    7.1147 C   0  0  0  0  0  0  0  0  0  0  0  0
   -1.3237   -5.9517    7.1342 C   0  0  0  0  0  0  0  0  0  0  0  0
   -2.2752   -6.2195    5.9463 C   0  0  0  0  0  0  0  0  0  0  0  0
   -3.3844   -6.9737    6.5220 C   0  0  0  0  0  0  0  0  0  0  0  0
   -3.4090   -8.2234    6.5139 O   0  0  0  0  0  0  0  0  0  0  0  0
   -4.4467   -6.2340    7.0992 N   0  0  0  0  0  0  0  0  0  0  0  0
   -4.4367   -5.2148    7.0903 H   0  0  0  0  0  0  0  0  0  0  0  0
   -5.6197   -6.8740    7.7387 C   0  0  0  0  0  0  0  0  0  0  0  0
   -6.7804   -6.8374    6.8915 C   0  0  0  0  0  0  0  0  0  0  0  0
   -6.7372   -6.5225    5.6986 O   0  0  0  0  0  0  0  0  0  0  0  0
   -8.1069   -7.2066    7.4499 C   0  0  0  0  0  0  0  0  0  0  0  0
   -8.9678   -6.4175    8.0658 N   0  0  0  0  0  0  0  0  0  0  0  0
  -10.1002   -6.8923    8.4959 C   0  0  0  0  0  0  0  0  0  0  0  0
  -11.1027   -6.1550    9.1615 C   0  0  0  0  0  0  0  0  0  0  0  0
  -12.2381   -6.7755    9.5501 C   0  0  0  0  0  0  0  0  0  0  0  0
  -12.5261   -8.1124    9.3521 C   0  0  0  0  0  0  0  0  0  0  0  0
  -11.5465   -8.8364    8.7026 C   0  0  0  0  0  0  0  0  0  0  0  0
  -10.3536   -8.2219    8.2847 C   0  0  0  0  0  0  0  0  0  0  0  0
   -8.9241   -8.7073    7.4705 S   0  0  0  0  0  0  0  0  0  0  0  0
   -5.7272   -6.3798    9.1205 C   0  0  0  0  0  0  0  0  0  0  0  0
   -4.8079   -5.3647    9.6474 C   0  0  0  0  0  0  0  0  0  0  0  0
   -4.1839   -5.5950   10.9917 C   0  0  0  0  0  0  0  0  0  0  0  0
   -4.7897   -4.7097   11.9883 N   0  0  0  0  0  0  0  0  0  0  0  0
   -5.4609   -5.1134   12.9920 C   0  0  0  0  0  0  0  0  0  0  0  0
   -5.9919   -4.1422   13.8806 N   0  0  0  0  0  0  0  0  0  0  0  0
   -5.7192   -6.4800   13.2867 N   0  0  0  0  0  0  0  0  0  0  0  0
   -5.3395   -3.4849   14.3339 H   0  0  0  0  0  0  0  0  0  0  0  0
   -7.0076   -4.0860   14.0777 H   0  0  0  0  0  0  0  0  0  0  0  0
   -6.6846   -6.8589   13.3217 H   0  0  0  0  0  0  0  0  0  0  0  0
   -4.9338   -7.1342   13.4739 H   0  0  0  0  0  0  0  0  0  0  0  0
   -3.8000   -2.9530    4.3144 C   0  0  0  0  0  0  0  0  0  0  0  0
   -4.5319   -0.8627    5.5727 C   0  0  0  0  0  0  0  0  0  0  0  0
   -5.2447   -0.3947    4.6477 O   0  0  0  0  0  0  0  0  0  0  0  0
   -3.8344   -2.0713    5.4648 N   0  0  0  0  0  0  0  0  0  0  0  0
   -3.2842   -2.3562    6.3260 H   0  0  0  0  0  0  0  0  0  0  0  0
   -4.4899   -0.0157    6.8121 C   0  0  0  0  0  0  0  0  0  0  0  0
   -5.5431    0.9725    6.8261 N   0  0  0  0  0  0  0  0  0  0  0  0
   -6.0113    1.0284    5.9068 H   0  0  0  0  0  0  0  0  0  0  0  0
   -6.2488    0.7971    7.5842 H   0  0  0  0  0  0  0  0  0  0  0  0
   -2.9688    1.4276    8.1751 C   0  0  0  0  0  0  0  0  0  0  0  0
   -3.1894    0.7943    6.8266 C   0  0  0  0  0  0  0  0  0  0  0  0
   -2.0833   -0.0002    6.5417 O   0  0  0  0  0  0  0  0  0  0  0  0
   -1.5477   -0.1322    7.3433 H   0  0  0  0  0  0  0  0  0  0  0  0
   -2.7718   -2.4835    3.3319 C   0  0  0  0  0  0  0  0  0  0  0  0
   -3.3382   -2.0659    2.0185 C   0  0  0  0  0  0  0  0  0  0  0  0
   -3.8780   -2.9453    1.1090 C   0  0  0  0  0  0  0  0  0  0  0  0
   -4.3871   -2.5073   -0.1044 C   0  0  0  0  0  0  0  0  0  0  0  0
   -4.3690   -1.1761   -0.4382 C   0  0  0  0  0  0  0  0  0  0  0  0
   -3.8380   -0.2724    0.4471 C   0  0  0  0  0  0  0  0  0  0  0  0
   -3.3396   -0.7266    1.6393 C   0  0  0  0  0  0  0  0  0  0  0  0
 44 45  1  0  0  0
 45 46  1  0  0  0
 45 40  1  0  0  0
 40 41  1  0  0  0
 40 36  1  0  0  0
 36 37  2  0  0  0
 36 38  1  0  0  0
 38 35  1  0  0  0
 35 48  1  0  0  0
 48 49  1  0  0  0
 49 50  2  0  0  0
 50 51  1  0  0  0
 51 52  2  0  0  0
 52 53  1  0  0  0
 53 54  2  0  0  0
 35  1  1  0  0  0
  1  2  2  0  0  0
  1  3  1  0  0  0
  3  4  1  0  0  0
  4  5  1  0  0  0
  5  6  1  0  0  0
  6  7  1  0  0  0
  7  8  1  0  0  0
  8  9  2  0  0  0
  8 10  1  0  0  0
 10 12  1  0  0  0
 12 24  1  0  0  0
 24 25  1  0  0  0
 25 26  1  0  0  0
 26 27  1  0  0  0
 27 28  2  0  0  0
 28 29  1  0  0  0
 28 30  1  0  0  0
 12 13  1  0  0  0
 13 14  2  0  0  0
 13 15  1  0  0  0
 15 16  2  0  0  0
 16 17  1  0  0  0
 17 18  2  0  0  0
 18 19  1  0  0  0
 19 20  2  0  0  0
 20 21  1  0  0  0
 21 22  2  0  0  0
 22 23  1  0  0  0
 54 49  1  0  0  0
  7  3  1  0  0  0
 23 15  1  0  0  0
 22 17  1  0  0  0
 46 47  1  0  0  0
 41 42  1  0  0  0
 41 43  1  0  0  0
 38 39  1  0  0  0
 10 11  1  0  0  0
 29 31  1  0  0  0
 29 32  1  0  0  0
 30 33  1  0  0  0
 30 34  1  0  0  0
M  END
> <minimizedAffinity>
-5.95270

> <CNNscore>
0.1760482490

> <CNNaffinity>
6.5047760010

> <CNN_VS>
1.1451544762

> <CNNaffinity_variance>
0.2099293768

$$$$
[H]O[C@]([H])(C([H])([H])[H])[C@]([H])(C(=O)N([H])[C@]([H])(C(=O)N1C([H])([H])C([H])([H])C([H])([H])[C@@]1([H])C(=O)N([H])[C@]([H])(C(=O)c1nc2c([H])c([H])c([H])c([H])c2s1)C([H])([H])C([H])([H])C([H])([H])N=C(N([H])[H])N([H])[H])C([H])([H])c1c([H])c([H])c([H])c([H])c1[H])N([H])[H]


 54 57  0  0  0  0  0  0  0  0999 V2000
   -3.8342   -5.1519    5.8438 C   0  0  0  0  0  0  0  0  0  0  0  0
   -5.0442   -5.2370    5.4460 O   0  0  0  0  0  0  0  0  0  0  0  0
   -3.0765   -6.3015    6.1904 N   0  0  0  0  0  0  0  0  0  0  0  0
   -1.6335   -6.2567    6.5124 C   0  0  0  0  0  0  0  0  0  0  0  0
   -1.5953   -7.0123    7.8113 C   0  0  0  0  0  0  0  0  0  0  0  0
   -2.4407   -8.2264    7.4179 C   0  0  0  0  0  0  0  0  0  0  0  0
   -3.3933   -7.6884    6.3265 C   0  0  0  0  0  0  0  0  0  0  0  0
   -4.7297   -8.0500    6.7893 C   0  0  0  0  0  0  0  0  0  0  0  0
   -5.3756   -8.9891    6.2762 O   0  0  0  0  0  0  0  0  0  0  0  0
   -5.2788   -7.2926    7.8540 N   0  0  0  0  0  0  0  0  0  0  0  0
   -4.7608   -6.5149    8.2612 H   0  0  0  0  0  0  0  0  0  0  0  0
   -6.6131   -7.5692    8.4349 C   0  0  0  0  0  0  0  0  0  0  0  0
   -7.6744   -7.0585    7.6109 C   0  0  0  0  0  0  0  0  0  0  0  0
   -7.4788   -6.4775    6.5394 O   0  0  0  0  0  0  0  0  0  0  0  0
   -9.0858   -7.2388    8.0391 C   0  0  0  0  0  0  0  0  0  0  0  0
   -9.8146   -6.4176    8.7725 N   0  0  0  0  0  0  0  0  0  0  0  0
  -11.0480   -6.7157    9.0602 C   0  0  0  0  0  0  0  0  0  0  0  0
  -11.9291   -5.9238    9.8270 C   0  0  0  0  0  0  0  0  0  0  0  0
  -13.1915   -6.3530   10.0447 C   0  0  0  0  0  0  0  0  0  0  0  0
  -13.7259   -7.5364    9.5719 C   0  0  0  0  0  0  0  0  0  0  0  0
  -12.8656   -8.3137    8.8228 C   0  0  0  0  0  0  0  0  0  0  0  0
  -11.5461   -7.8968    8.5772 C   0  0  0  0  0  0  0  0  0  0  0  0
  -10.1862   -8.5091    7.7297 S   0  0  0  0  0  0  0  0  0  0  0  0
   -6.5840   -7.2166    9.8632 C   0  0  0  0  0  0  0  0  0  0  0  0
   -5.5537   -6.3295   10.4150 C   0  0  0  0  0  0  0  0  0  0  0  0
   -5.6353   -5.9550   11.8651 C   0  0  0  0  0  0  0  0  0  0  0  0
   -4.9378   -4.6893   12.1002 N   0  0  0  0  0  0  0  0  0  0  0  0
   -3.8531   -4.5800   12.7579 C   0  0  0  0  0  0  0  0  0  0  0  0
   -3.2849   -3.2880   12.9079 N   0  0  0  0  0  0  0  0  0  0  0  0
   -3.1664   -5.6703   13.3587 N   0  0  0  0  0  0  0  0  0  0  0  0
   -3.0517   -2.7541   12.0572 H   0  0  0  0  0  0  0  0  0  0  0  0
   -3.1030   -2.8814   13.8434 H   0  0  0  0  0  0  0  0  0  0  0  0
   -3.0118   -5.7213   14.3834 H   0  0  0  0  0  0  0  0  0  0  0  0
   -2.8026   -6.4481   12.7735 H   0  0  0  0  0  0  0  0  0  0  0  0
   -3.3240   -3.7550    5.9005 C   0  0  0  0  0  0  0  0  0  0  0  0
   -3.3031   -2.0192    7.7646 C   0  0  0  0  0  0  0  0  0  0  0  0
   -3.7370   -1.0684    7.0644 O   0  0  0  0  0  0  0  0  0  0  0  0
   -3.0970   -3.3087    7.2611 N   0  0  0  0  0  0  0  0  0  0  0  0
   -2.7424   -4.0193    7.9647 H   0  0  0  0  0  0  0  0  0  0  0  0
   -3.0232   -1.6583    9.1952 C   0  0  0  0  0  0  0  0  0  0  0  0
   -4.0368   -2.1685   10.0886 N   0  0  0  0  0  0  0  0  0  0  0  0
   -4.8496   -2.5271    9.5610 H   0  0  0  0  0  0  0  0  0  0  0  0
   -3.6668   -2.9091   10.7352 H   0  0  0  0  0  0  0  0  0  0  0  0
   -3.2769    0.2436   10.7994 C   0  0  0  0  0  0  0  0  0  0  0  0
   -3.0882   -0.1357    9.3541 C   0  0  0  0  0  0  0  0  0  0  0  0
   -1.9269    0.4808    8.8989 O   0  0  0  0  0  0  0  0  0  0  0  0
   -1.4086    0.8194    9.6495 H   0  0  0  0  0  0  0  0  0  0  0  0
   -2.1079   -3.5047    5.0631 C   0  0  0  0  0  0  0  0  0  0  0  0
   -2.3646   -3.5533    3.5961 C   0  0  0  0  0  0  0  0  0  0  0  0
   -1.7005   -4.3961    2.7355 C   0  0  0  0  0  0  0  0  0  0  0  0
   -1.9711   -4.3988    1.3753 C   0  0  0  0  0  0  0  0  0  0  0  0
   -2.9149   -3.5571    0.8417 C   0  0  0  0  0  0  0  0  0  0  0  0
   -3.5959   -2.7041    1.6730 C   0  0  0  0  0  0  0  0  0  0  0  0
   -3.3121   -2.7169    3.0129 C   0  0  0  0  0  0  0  0  0  0  0  0
 44 45  1  0  0  0
 45 46  1  0  0  0
 45 40  1  0  0  0
 40 41  1  0  0  0
 40 36  1  0  0  0
 36 37  2  0  0  0
 36 38  1  0  0  0
 38 35  1  0  0  0
 35 48  1  0  0  0
 48 49  1  0  0  0
 49 50  2  0  0  0
 50 51  1  0  0  0
 51 52  2  0  0  0
 52 53  1  0  0  0
 53 54  2  0  0  0
 35  1  1  0  0  0
  1  2  2  0  0  0
  1  3  1  0  0  0
  3  4  1  0  0  0
  4  5  1  0  0  0
  5  6  1  0  0  0
  6  7  1  0  0  0
  7  8  1  0  0  0
  8  9  2  0  0  0
  8 10  1  0  0  0
 10 12  1  0  0  0
 12 24  1  0  0  0
 24 25  1  0  0  0
 25 26  1  0  0  0
 26 27  1  0  0  0
 27 28  2  0  0  0
 28 29  1  0  0  0
 28 30  1  0  0  0
 12 13  1  0  0  0
 13 14  2  0  0  0
 13 15  1  0  0  0
 15 16  2  0  0  0
 16 17  1  0  0  0
 17 18  2  0  0  0
 18 19  1  0  0  0
 19 20  2  0  0  0
 20 21  1  0  0  0
 21 22  2  0  0  0
 22 23  1  0  0  0
 54 49  1  0  0  0
  7  3  1  0  0  0
 23 15  1  0  0  0
 22 17  1  0  0  0
 46 47  1  0  0  0
 41 42  1  0  0  0
 41 43  1  0  0  0
 38 39  1  0  0  0
 10 11  1  0  0  0
 29 31  1  0  0  0
 29 32  1  0  0  0
 30 33  1  0  0  0
 30 34  1  0  0  0
M  END
> <minimizedAffinity>
-5.78116

> <CNNscore>
0.1669769883

> <CNNaffinity>
6.3280591965

> <CNN_VS>
1.0566402674

> <CNNaffinity_variance>
0.2507621646

$$$$
[H]c1nc([H])c(Cl)c(N([H])C(=O)N([H])c2c([H])c(-c3c([H])c([H])c([H])c(-c4c([H])c([H])c([H])c(C(=O)N([H])C([H])([H])C([H])([H])N5C([H])([H])C([H])([H])C([H])([H])C5([H])[H])c4[H])c3[H])nn(C([H])([H])C([H])([H])[H])c2=O)c1Cl


 46 50  0  0  0  0  0  0  0  0999 V2000
   -9.9846   -6.9849    8.1745 N   0  0  0  0  0  0  0  0  0  0  0  0
   -9.7974   -6.5156    9.3830 N   0  0  0  0  0  0  0  0  0  0  0  0
  -10.7720   -6.6158   10.3393 C   0  0  0  0  0  0  0  0  0  0  0  0
  -11.9413   -7.2322    9.9530 C   0  0  0  0  0  0  0  0  0  0  0  0
  -12.1753   -7.7411    8.6837 C   0  0  0  0  0  0  0  0  0  0  0  0
  -11.1066   -7.5857    7.7751 C   0  0  0  0  0  0  0  0  0  0  0  0
  -11.2265   -8.0145    6.6045 O   0  0  0  0  0  0  0  0  0  0  0  0
  -13.3175   -8.3713    8.2168 N   0  0  0  0  0  0  0  0  0  0  0  0
  -14.1562   -7.9304    7.1838 C   0  0  0  0  0  0  0  0  0  0  0  0
  -13.9714   -6.8714    6.5298 O   0  0  0  0  0  0  0  0  0  0  0  0
  -15.3152   -8.6738    6.7877 N   0  0  0  0  0  0  0  0  0  0  0  0
  -13.6173   -9.2901    8.6702 H   0  0  0  0  0  0  0  0  0  0  0  0
  -15.5263   -9.5500    7.2797 H   0  0  0  0  0  0  0  0  0  0  0  0
  -16.1334   -8.2069    5.7526 C   0  0  0  0  0  0  0  0  0  0  0  0
  -15.7136   -8.3439    4.4315 C   0  0  0  0  0  0  0  0  0  0  0  0
  -14.1575   -9.1016    4.0808 Cl  0  0  0  0  0  0  0  0  0  0  0  0
  -16.5389   -7.8773    3.4459 C   0  0  0  0  0  0  0  0  0  0  0  0
  -17.7203   -7.3027    3.7206 N   0  0  0  0  0  0  0  0  0  0  0  0
  -18.1733   -7.1458    4.9760 C   0  0  0  0  0  0  0  0  0  0  0  0
  -17.3644   -7.6054    5.9891 C   0  0  0  0  0  0  0  0  0  0  0  0
  -17.9400   -7.4087    7.6480 Cl  0  0  0  0  0  0  0  0  0  0  0  0
  -10.5447   -6.0906   11.6638 C   0  0  0  0  0  0  0  0  0  0  0  0
  -11.5576   -5.8048   12.5261 C   0  0  0  0  0  0  0  0  0  0  0  0
  -11.2946   -5.2909   13.8110 C   0  0  0  0  0  0  0  0  0  0  0  0
   -9.9866   -5.0805   14.1843 C   0  0  0  0  0  0  0  0  0  0  0  0
   -8.9238   -5.3581   13.3371 C   0  0  0  0  0  0  0  0  0  0  0  0
   -9.2288   -5.8595   12.0895 C   0  0  0  0  0  0  0  0  0  0  0  0
   -7.5428   -5.1272   13.7438 C   0  0  0  0  0  0  0  0  0  0  0  0
   -7.2676   -4.6477   15.0087 C   0  0  0  0  0  0  0  0  0  0  0  0
   -5.9800   -4.4105   15.4412 C   0  0  0  0  0  0  0  0  0  0  0  0
   -4.9214   -4.6625   14.5754 C   0  0  0  0  0  0  0  0  0  0  0  0
   -5.1457   -5.1417   13.3032 C   0  0  0  0  0  0  0  0  0  0  0  0
   -6.4703   -5.3651   12.9141 C   0  0  0  0  0  0  0  0  0  0  0  0
   -4.0460   -5.4033   12.3920 C   0  0  0  0  0  0  0  0  0  0  0  0
   -3.0714   -6.0499   12.8314 O   0  0  0  0  0  0  0  0  0  0  0  0
   -4.0208   -4.9643   11.0332 N   0  0  0  0  0  0  0  0  0  0  0  0
   -4.8351   -4.4551   10.6874 H   0  0  0  0  0  0  0  0  0  0  0  0
   -2.8865   -5.2743   10.2213 C   0  0  0  0  0  0  0  0  0  0  0  0
   -2.9176   -4.6217    8.8937 C   0  0  0  0  0  0  0  0  0  0  0  0
   -3.1325   -5.4157    7.7553 N   0  0  0  0  0  0  0  0  0  0  0  0
   -4.3623   -5.4313    7.0944 C   0  0  0  0  0  0  0  0  0  0  0  0
   -4.4715   -6.8023    6.3899 C   0  0  0  0  0  0  0  0  0  0  0  0
   -3.6154   -7.7046    7.2529 C   0  0  0  0  0  0  0  0  0  0  0  0
   -2.6526   -6.7426    7.8592 C   0  0  0  0  0  0  0  0  0  0  0  0
   -7.8988   -7.9224    7.4837 C   0  0  0  0  0  0  0  0  0  0  0  0
   -8.9173   -6.8557    7.1889 C   0  0  0  0  0  0  0  0  0  0  0  0
 45 46  1  0  0  0
 46  1  1  0  0  0
  1  2  1  0  0  0
  2  3  2  0  0  0
  3  4  1  0  0  0
  4  5  2  0  0  0
  5  8  1  0  0  0
  8  9  1  0  0  0
  9 10  2  0  0  0
  9 11  1  0  0  0
 11 14  1  0  0  0
 14 15  2  0  0  0
 15 16  1  0  0  0
 15 17  1  0  0  0
 17 18  2  0  0  0
 18 19  1  0  0  0
 19 20  2  0  0  0
 20 21  1  0  0  0
  5  6  1  0  0  0
  6  7  2  0  0  0
  3 22  1  0  0  0
 22 23  2  0  0  0
 23 24  1  0  0  0
 24 25  2  0  0  0
 25 26  1  0  0  0
 26 27  2  0  0  0
 26 28  1  0  0  0
 28 29  2  0  0  0
 29 30  1  0  0  0
 30 31  2  0  0  0
 31 32  1  0  0  0
 32 33  2  0  0  0
 32 34  1  0  0  0
 34 35  2  0  0  0
 34 36  1  0  0  0
 36 38  1  0  0  0
 38 39  1  0  0  0
 39 40  1  0  0  0
 40 41  1  0  0  0
 41 42  1  0  0  0
 42 43  1  0  0  0
 43 44  1  0  0  0
  6  1  1  0  0  0
 27 22  1  0  0  0
 33 28  1  0  0  0
 44 40  1  0  0  0
 20 14  1  0  0  0
  8 12  1  0  0  0
 11 13  1  0  0  0
 36 37  1  0  0  0
M  END
> <minimizedAffinity>
1.51642

> <CNNscore>
0.5500198603

> <CNNaffinity>
7.6528482437

> <CNN_VS>
4.2092185020

> <CNNaffinity_variance>
0.5680857897

$$$$
[H]c1nc([H])c(Cl)c(N([H])C(=O)N([H])c2c([H])c(-c3c([H])c([H])c([H])c(-c4c([H])c([H])c([H])c(C(=O)N([H])C([H])([H])C([H])([H])N5C([H])([H])C([H])([H])C([H])([H])C5([H])[H])c4[H])c3[H])nn(C([H])([H])C([H])([H])[H])c2=O)c1Cl


 46 50  0  0  0  0  0  0  0  0999 V2000
  -11.2358   -6.2481    9.2024 N   0  0  0  0  0  0  0  0  0  0  0  0
  -10.0063   -6.5353    8.8535 N   0  0  0  0  0  0  0  0  0  0  0  0
   -9.7407   -7.5376    7.9594 C   0  0  0  0  0  0  0  0  0  0  0  0
  -10.8328   -8.2114    7.4599 C   0  0  0  0  0  0  0  0  0  0  0  0
  -12.1478   -7.9354    7.8055 C   0  0  0  0  0  0  0  0  0  0  0  0
  -12.3102   -6.8848    8.7337 C   0  0  0  0  0  0  0  0  0  0  0  0
  -13.4624   -6.5642    9.1054 O   0  0  0  0  0  0  0  0  0  0  0  0
  -13.2966   -8.5632    7.3516 N   0  0  0  0  0  0  0  0  0  0  0  0
  -14.2526   -8.0317    6.4749 C   0  0  0  0  0  0  0  0  0  0  0  0
  -14.1855   -6.8793    5.9741 O   0  0  0  0  0  0  0  0  0  0  0  0
  -15.4055   -8.7826    6.0753 N   0  0  0  0  0  0  0  0  0  0  0  0
  -13.5045   -9.5555    7.6862 H   0  0  0  0  0  0  0  0  0  0  0  0
  -15.5236   -9.7326    6.4464 H   0  0  0  0  0  0  0  0  0  0  0  0
  -16.3426   -8.2238    5.1985 C   0  0  0  0  0  0  0  0  0  0  0  0
  -17.5131   -7.6675    5.7092 C   0  0  0  0  0  0  0  0  0  0  0  0
  -17.7995   -7.6757    7.4517 Cl  0  0  0  0  0  0  0  0  0  0  0  0
  -18.4057   -7.1297    4.8235 C   0  0  0  0  0  0  0  0  0  0  0  0
  -18.1807   -7.1272    3.5003 N   0  0  0  0  0  0  0  0  0  0  0  0
  -17.0692   -7.6499    2.9551 C   0  0  0  0  0  0  0  0  0  0  0  0
  -16.1525   -8.1986    3.8214 C   0  0  0  0  0  0  0  0  0  0  0  0
  -14.6838   -8.8924    3.1261 Cl  0  0  0  0  0  0  0  0  0  0  0  0
   -8.3785   -7.8376    7.5905 C   0  0  0  0  0  0  0  0  0  0  0  0
   -7.9968   -9.0516    7.1089 C   0  0  0  0  0  0  0  0  0  0  0  0
   -6.6557   -9.3063    6.7616 C   0  0  0  0  0  0  0  0  0  0  0  0
   -5.7293   -8.3004    6.9180 C   0  0  0  0  0  0  0  0  0  0  0  0
   -6.0749   -7.0484    7.4052 C   0  0  0  0  0  0  0  0  0  0  0  0
   -7.3988   -6.8445    7.7320 C   0  0  0  0  0  0  0  0  0  0  0  0
   -5.0829   -5.9925    7.5693 C   0  0  0  0  0  0  0  0  0  0  0  0
   -4.5049   -5.7757    8.8040 C   0  0  0  0  0  0  0  0  0  0  0  0
   -3.5641   -4.7893    9.0125 C   0  0  0  0  0  0  0  0  0  0  0  0
   -3.1833   -3.9849    7.9441 C   0  0  0  0  0  0  0  0  0  0  0  0
   -3.7321   -4.1630    6.6928 C   0  0  0  0  0  0  0  0  0  0  0  0
   -4.6819   -5.1773    6.5351 C   0  0  0  0  0  0  0  0  0  0  0  0
   -3.3427   -3.3245    5.5732 C   0  0  0  0  0  0  0  0  0  0  0  0
   -2.1781   -2.8719    5.5664 O   0  0  0  0  0  0  0  0  0  0  0  0
   -4.2130   -2.9937    4.4903 N   0  0  0  0  0  0  0  0  0  0  0  0
   -5.1536   -3.3897    4.5039 H   0  0  0  0  0  0  0  0  0  0  0  0
   -3.7291   -2.1573    3.4375 C   0  0  0  0  0  0  0  0  0  0  0  0
   -3.3991   -2.8999    2.2010 C   0  0  0  0  0  0  0  0  0  0  0  0
   -3.6416   -2.2883    0.9602 N   0  0  0  0  0  0  0  0  0  0  0  0
   -4.2500   -1.0349    0.8677 C   0  0  0  0  0  0  0  0  0  0  0  0
   -4.9452   -0.9785   -0.5112 C   0  0  0  0  0  0  0  0  0  0  0  0
   -5.2497   -2.4319   -0.8056 C   0  0  0  0  0  0  0  0  0  0  0  0
   -4.1993   -3.1407   -0.0217 C   0  0  0  0  0  0  0  0  0  0  0  0
  -11.7658   -5.8059   11.4894 C   0  0  0  0  0  0  0  0  0  0  0  0
  -11.4702   -5.1716   10.1581 C   0  0  0  0  0  0  0  0  0  0  0  0
 45 46  1  0  0  0
 46  1  1  0  0  0
  1  2  1  0  0  0
  2  3  2  0  0  0
  3  4  1  0  0  0
  4  5  2  0  0  0
  5  8  1  0  0  0
  8  9  1  0  0  0
  9 10  2  0  0  0
  9 11  1  0  0  0
 11 14  1  0  0  0
 14 15  2  0  0  0
 15 16  1  0  0  0
 15 17  1  0  0  0
 17 18  2  0  0  0
 18 19  1  0  0  0
 19 20  2  0  0  0
 20 21  1  0  0  0
  5  6  1  0  0  0
  6  7  2  0  0  0
  3 22  1  0  0  0
 22 23  2  0  0  0
 23 24  1  0  0  0
 24 25  2  0  0  0
 25 26  1  0  0  0
 26 27  2  0  0  0
 26 28  1  0  0  0
 28 29  2  0  0  0
 29 30  1  0  0  0
 30 31  2  0  0  0
 31 32  1  0  0  0
 32 33  2  0  0  0
 32 34  1  0  0  0
 34 35  2  0  0  0
 34 36  1  0  0  0
 36 38  1  0  0  0
 38 39  1  0  0  0
 39 40  1  0  0  0
 40 41  1  0  0  0
 41 42  1  0  0  0
 42 43  1  0  0  0
 43 44  1  0  0  0
  6  1  1  0  0  0
 27 22  1  0  0  0
 33 28  1  0  0  0
 44 40  1  0  0  0
 20 14  1  0  0  0
  8 12  1  0  0  0
 11 13  1  0  0  0
 36 37  1  0  0  0
M  END
> <minimizedAffinity>
-8.88144

> <CNNscore>
0.5445674062

> <CNNaffinity>
7.7555503845

> <CNN_VS>
4.2234201431

> <CNNaffinity_variance>
0.0131150242

$$$$
[H]c1nc([H])c(Cl)c(N([H])C(=O)N([H])c2c([H])c(-c3c([H])c([H])c([H])c(-c4c([H])c([H])c([H])c(C(=O)N([H])C([H])([H])C([H])([H])N5C([H])([H])C([H])([H])C([H])([H])C5([H])[H])c4[H])c3[H])nn(C([H])([H])C([H])([H])[H])c2=O)c1Cl


 46 50  0  0  0  0  0  0  0  0999 V2000
  -11.1782   -6.8246    9.5633 N   0  0  0  0  0  0  0  0  0  0  0  0
   -9.9565   -6.9356    9.1040 N   0  0  0  0  0  0  0  0  0  0  0  0
   -9.6850   -7.6842    7.9903 C   0  0  0  0  0  0  0  0  0  0  0  0
  -10.7627   -8.3014    7.3955 C   0  0  0  0  0  0  0  0  0  0  0  0
  -12.0692   -8.2066    7.8527 C   0  0  0  0  0  0  0  0  0  0  0  0
  -12.2387   -7.4115    9.0063 C   0  0  0  0  0  0  0  0  0  0  0  0
  -13.3840   -7.2678    9.4922 O   0  0  0  0  0  0  0  0  0  0  0  0
  -13.2034   -8.7936    7.3154 N   0  0  0  0  0  0  0  0  0  0  0  0
  -14.1649   -8.1742    6.5049 C   0  0  0  0  0  0  0  0  0  0  0  0
  -14.1174   -6.9672    6.1525 O   0  0  0  0  0  0  0  0  0  0  0  0
  -15.3012   -8.8902    6.0060 N   0  0  0  0  0  0  0  0  0  0  0  0
  -13.3940   -9.8236    7.5218 H   0  0  0  0  0  0  0  0  0  0  0  0
  -15.4030   -9.8813    6.2546 H   0  0  0  0  0  0  0  0  0  0  0  0
  -16.2444   -8.2435    5.1991 C   0  0  0  0  0  0  0  0  0  0  0  0
  -17.3648   -7.6603    5.7863 C   0  0  0  0  0  0  0  0  0  0  0  0
  -17.5809   -7.7455    7.5369 Cl  0  0  0  0  0  0  0  0  0  0  0  0
  -18.2649   -7.0361    4.9674 C   0  0  0  0  0  0  0  0  0  0  0  0
  -18.0934   -6.9754    3.6377 N   0  0  0  0  0  0  0  0  0  0  0  0
  -17.0317   -7.5205    3.0201 C   0  0  0  0  0  0  0  0  0  0  0  0
  -16.1088   -8.1558    3.8180 C   0  0  0  0  0  0  0  0  0  0  0  0
  -14.7050   -8.8805    3.0269 Cl  0  0  0  0  0  0  0  0  0  0  0  0
   -8.3314   -7.7936    7.5028 C   0  0  0  0  0  0  0  0  0  0  0  0
   -7.9507   -8.7300    6.5920 C   0  0  0  0  0  0  0  0  0  0  0  0
   -6.6181   -8.8060    6.1420 C   0  0  0  0  0  0  0  0  0  0  0  0
   -5.6991   -7.9114    6.6417 C   0  0  0  0  0  0  0  0  0  0  0  0
   -6.0440   -6.9410    7.5710 C   0  0  0  0  0  0  0  0  0  0  0  0
   -7.3594   -6.9041    7.9826 C   0  0  0  0  0  0  0  0  0  0  0  0
   -5.0598   -6.0016    8.0950 C   0  0  0  0  0  0  0  0  0  0  0  0
   -4.2462   -5.3004    7.2278 C   0  0  0  0  0  0  0  0  0  0  0  0
   -3.2987   -4.4025    7.6722 C   0  0  0  0  0  0  0  0  0  0  0  0
   -3.1566   -4.1947    9.0398 C   0  0  0  0  0  0  0  0  0  0  0  0
   -3.9457   -4.8709    9.9445 C   0  0  0  0  0  0  0  0  0  0  0  0
   -4.8911   -5.7704    9.4416 C   0  0  0  0  0  0  0  0  0  0  0  0
   -3.8006   -4.6625   11.3741 C   0  0  0  0  0  0  0  0  0  0  0  0
   -2.6429   -4.5307   11.8253 O   0  0  0  0  0  0  0  0  0  0  0  0
   -4.9013   -4.6009   12.2819 N   0  0  0  0  0  0  0  0  0  0  0  0
   -5.8400   -4.6905   11.8912 H   0  0  0  0  0  0  0  0  0  0  0  0
   -4.6471   -4.3934   13.6728 C   0  0  0  0  0  0  0  0  0  0  0  0
   -5.8665   -4.4524   14.5087 C   0  0  0  0  0  0  0  0  0  0  0  0
   -5.7338   -4.3707   15.9044 N   0  0  0  0  0  0  0  0  0  0  0  0
   -5.2500   -3.2190   16.5282 C   0  0  0  0  0  0  0  0  0  0  0  0
   -4.6205   -3.6685   17.8658 C   0  0  0  0  0  0  0  0  0  0  0  0
   -4.1932   -5.0936   17.5863 C   0  0  0  0  0  0  0  0  0  0  0  0
   -5.1393   -5.5026   16.5103 C   0  0  0  0  0  0  0  0  0  0  0  0
  -12.3366   -4.8918   10.3563 C   0  0  0  0  0  0  0  0  0  0  0  0
  -11.4193   -6.0158   10.7528 C   0  0  0  0  0  0  0  0  0  0  0  0
 45 46  1  0  0  0
 46  1  1  0  0  0
  1  2  1  0  0  0
  2  3  2  0  0  0
  3  4  1  0  0  0
  4  5  2  0  0  0
  5  8  1  0  0  0
  8  9  1  0  0  0
  9 10  2  0  0  0
  9 11  1  0  0  0
 11 14  1  0  0  0
 14 15  2  0  0  0
 15 16  1  0  0  0
 15 17  1  0  0  0
 17 18  2  0  0  0
 18 19  1  0  0  0
 19 20  2  0  0  0
 20 21  1  0  0  0
  5  6  1  0  0  0
  6  7  2  0  0  0
  3 22  1  0  0  0
 22 23  2  0  0  0
 23 24  1  0  0  0
 24 25  2  0  0  0
 25 26  1  0  0  0
 26 27  2  0  0  0
 26 28  1  0  0  0
 28 29  2  0  0  0
 29 30  1  0  0  0
 30 31  2  0  0  0
 31 32  1  0  0  0
 32 33  2  0  0  0
 32 34  1  0  0  0
 34 35  2  0  0  0
 34 36  1  0  0  0
 36 38  1  0  0  0
 38 39  1  0  0  0
 39 40  1  0  0  0
 40 41  1  0  0  0
 41 42  1  0  0  0
 42 43  1  0  0  0
 43 44  1  0  0  0
  6  1  1  0  0  0
 27 22  1  0  0  0
 33 28  1  0  0  0
 44 40  1  0  0  0
 20 14  1  0  0  0
  8 12  1  0  0  0
 11 13  1  0  0  0
 36 37  1  0  0  0
M  END
> <minimizedAffinity>
-9.26357

> <CNNscore>
0.5436761379

> <CNNaffinity>
7.7846593857

> <CNN_VS>
4.2323336601

> <CNNaffinity_variance>
0.0321762338

$$$$
[H]c1nc([H])c(Cl)c(N([H])C(=O)N([H])c2c([H])c(-c3c([H])c([H])c([H])c(-c4c([H])c([H])c([H])c(C(=O)N([H])C([H])([H])C([H])([H])N5C([H])([H])C([H])([H])C([H])([H])C5([H])[H])c4[H])c3[H])nn(C([H])([H])C([H])([H])[H])c2=O)c1Cl


 46 50  0  0  0  0  0  0  0  0999 V2000
  -10.0101   -6.9464    8.5160 N   0  0  0  0  0  0  0  0  0  0  0  0
   -9.9106   -6.4193    9.7110 N   0  0  0  0  0  0  0  0  0  0  0  0
  -10.9510   -6.4784   10.5989 C   0  0  0  0  0  0  0  0  0  0  0  0
  -12.0889   -7.1180   10.1599 C   0  0  0  0  0  0  0  0  0  0  0  0
  -12.2307   -7.6877    8.9029 C   0  0  0  0  0  0  0  0  0  0  0  0
  -11.0999   -7.5708    8.0666 C   0  0  0  0  0  0  0  0  0  0  0  0
  -11.1351   -8.0554    6.9123 O   0  0  0  0  0  0  0  0  0  0  0  0
  -13.3357   -8.3448    8.3861 N   0  0  0  0  0  0  0  0  0  0  0  0
  -14.1465   -7.9165    7.3259 C   0  0  0  0  0  0  0  0  0  0  0  0
  -13.9672   -6.8457    6.6900 O   0  0  0  0  0  0  0  0  0  0  0  0
  -15.2678   -8.6879    6.8783 N   0  0  0  0  0  0  0  0  0  0  0  0
  -13.6263   -9.2766    8.8186 H   0  0  0  0  0  0  0  0  0  0  0  0
  -15.4725   -9.5750    7.3531 H   0  0  0  0  0  0  0  0  0  0  0  0
  -16.0589   -8.2331    5.8170 C   0  0  0  0  0  0  0  0  0  0  0  0
  -15.6006   -8.3762    4.5094 C   0  0  0  0  0  0  0  0  0  0  0  0
  -14.0307   -9.1266    4.2085 Cl  0  0  0  0  0  0  0  0  0  0  0  0
  -16.4003   -7.9214    3.4975 C   0  0  0  0  0  0  0  0  0  0  0  0
  -17.5925   -7.3523    3.7344 N   0  0  0  0  0  0  0  0  0  0  0  0
  -18.0821   -7.1898    4.9752 C   0  0  0  0  0  0  0  0  0  0  0  0
  -17.2998   -7.6375    6.0141 C   0  0  0  0  0  0  0  0  0  0  0  0
  -17.9238   -7.4333    7.6545 Cl  0  0  0  0  0  0  0  0  0  0  0  0
  -10.8198   -5.8898   11.9096 C   0  0  0  0  0  0  0  0  0  0  0  0
  -11.8893   -5.6256   12.7082 C   0  0  0  0  0  0  0  0  0  0  0  0
  -11.7198   -5.0478   13.9816 C   0  0  0  0  0  0  0  0  0  0  0  0
  -10.4455   -4.7521   14.4096 C   0  0  0  0  0  0  0  0  0  0  0  0
   -9.3275   -5.0047   13.6283 C   0  0  0  0  0  0  0  0  0  0  0  0
   -9.5414   -5.5709   12.3894 C   0  0  0  0  0  0  0  0  0  0  0  0
   -7.9832   -4.6833   14.0923 C   0  0  0  0  0  0  0  0  0  0  0  0
   -7.7517   -3.5032   14.7701 C   0  0  0  0  0  0  0  0  0  0  0  0
   -6.4993   -3.1515   15.2275 C   0  0  0  0  0  0  0  0  0  0  0  0
   -5.4322   -4.0135   14.9996 C   0  0  0  0  0  0  0  0  0  0  0  0
   -5.6137   -5.2027   14.3278 C   0  0  0  0  0  0  0  0  0  0  0  0
   -6.9036   -5.5118   13.8848 C   0  0  0  0  0  0  0  0  0  0  0  0
   -4.5037   -6.1060   14.0823 C   0  0  0  0  0  0  0  0  0  0  0  0
   -3.7812   -5.8787   13.0887 O   0  0  0  0  0  0  0  0  0  0  0  0
   -4.1982   -7.2295   14.9093 N   0  0  0  0  0  0  0  0  0  0  0  0
   -4.7879   -7.3866   15.7276 H   0  0  0  0  0  0  0  0  0  0  0  0
   -3.0820   -8.0574   14.5763 C   0  0  0  0  0  0  0  0  0  0  0  0
   -2.0472   -8.1021   15.6329 C   0  0  0  0  0  0  0  0  0  0  0  0
   -1.3249   -6.9327   15.9214 N   0  0  0  0  0  0  0  0  0  0  0  0
   -1.8265   -5.9556   16.7834 C   0  0  0  0  0  0  0  0  0  0  0  0
   -1.1764   -4.6175   16.3657 C   0  0  0  0  0  0  0  0  0  0  0  0
   -0.8882   -4.8170   14.8930 C   0  0  0  0  0  0  0  0  0  0  0  0
   -0.7514   -6.2974   14.7947 C   0  0  0  0  0  0  0  0  0  0  0  0
   -7.7650   -7.6920    8.1841 C   0  0  0  0  0  0  0  0  0  0  0  0
   -8.8751   -6.8594    7.6042 C   0  0  0  0  0  0  0  0  0  0  0  0
 45 46  1  0  0  0
 46  1  1  0  0  0
  1  2  1  0  0  0
  2  3  2  0  0  0
  3  4  1  0  0  0
  4  5  2  0  0  0
  5  8  1  0  0  0
  8  9  1  0  0  0
  9 10  2  0  0  0
  9 11  1  0  0  0
 11 14  1  0  0  0
 14 15  2  0  0  0
 15 16  1  0  0  0
 15 17  1  0  0  0
 17 18  2  0  0  0
 18 19  1  0  0  0
 19 20  2  0  0  0
 20 21  1  0  0  0
  5  6  1  0  0  0
  6  7  2  0  0  0
  3 22  1  0  0  0
 22 23  2  0  0  0
 23 24  1  0  0  0
 24 25  2  0  0  0
 25 26  1  0  0  0
 26 27  2  0  0  0
 26 28  1  0  0  0
 28 29  2  0  0  0
 29 30  1  0  0  0
 30 31  2  0  0  0
 31 32  1  0  0  0
 32 33  2  0  0  0
 32 34  1  0  0  0
 34 35  2  0  0  0
 34 36  1  0  0  0
 36 38  1  0  0  0
 38 39  1  0  0  0
 39 40  1  0  0  0
 40 41  1  0  0  0
 41 42  1  0  0  0
 42 43  1  0  0  0
 43 44  1  0  0  0
  6  1  1  0  0  0
 27 22  1  0  0  0
 33 28  1  0  0  0
 44 40  1  0  0  0
 20 14  1  0  0  0
  8 12  1  0  0  0
 11 13  1  0  0  0
 36 37  1  0  0  0
M  END
> <minimizedAffinity>
1.89421

> <CNNscore>
0.5140332580

> <CNNaffinity>
7.2786812782

> <CNN_VS>
3.7414841652

> <CNNaffinity_variance>
1.0447499752

$$$$
[H]c1nc([H])c(Cl)c(N([H])C(=O)N([H])c2c([H])c(-c3c([H])c([H])c([H])c(-c4c([H])c([H])c([H])c(C(=O)N([H])C([H])([H])C([H])([H])N5C([H])([H])C([H])([H])C([H])([H])C5([H])[H])c4[H])c3[H])nn(C([H])([H])C([H])([H])[H])c2=O)c1Cl


 46 50  0  0  0  0  0  0  0  0999 V2000
   -4.2886   -5.3681    7.5482 N   0  0  0  0  0  0  0  0  0  0  0  0
   -3.7681   -5.4552    8.7471 N   0  0  0  0  0  0  0  0  0  0  0  0
   -2.6365   -4.7597    9.0791 C   0  0  0  0  0  0  0  0  0  0  0  0
   -2.0918   -3.9761    8.0864 C   0  0  0  0  0  0  0  0  0  0  0  0
   -2.6145   -3.8588    6.8066 C   0  0  0  0  0  0  0  0  0  0  0  0
   -3.7810   -4.6169    6.5696 C   0  0  0  0  0  0  0  0  0  0  0  0
   -4.3245   -4.5743    5.4420 O   0  0  0  0  0  0  0  0  0  0  0  0
   -2.1295   -3.0971    5.7558 N   0  0  0  0  0  0  0  0  0  0  0  0
   -2.6898   -1.9177    5.2458 C   0  0  0  0  0  0  0  0  0  0  0  0
   -3.7388   -1.3856    5.6927 O   0  0  0  0  0  0  0  0  0  0  0  0
   -2.0922   -1.2145    4.1498 N   0  0  0  0  0  0  0  0  0  0  0  0
   -1.2380   -3.4146    5.2616 H   0  0  0  0  0  0  0  0  0  0  0  0
   -1.2321   -1.5930    3.7361 H   0  0  0  0  0  0  0  0  0  0  0  0
   -2.6761   -0.0394    3.6628 C   0  0  0  0  0  0  0  0  0  0  0  0
   -3.5175   -0.0999    2.5543 C   0  0  0  0  0  0  0  0  0  0  0  0
   -3.8346   -1.6545    1.7789 Cl  0  0  0  0  0  0  0  0  0  0  0  0
   -4.0712    1.0676    2.1064 C   0  0  0  0  0  0  0  0  0  0  0  0
   -3.8254    2.2453    2.7014 N   0  0  0  0  0  0  0  0  0  0  0  0
   -3.0225    2.3603    3.7728 C   0  0  0  0  0  0  0  0  0  0  0  0
   -2.4506    1.2024    4.2462 C   0  0  0  0  0  0  0  0  0  0  0  0
   -1.3905    1.3302    5.6540 Cl  0  0  0  0  0  0  0  0  0  0  0  0
   -2.0798   -4.8718   10.4054 C   0  0  0  0  0  0  0  0  0  0  0  0
   -1.6560   -6.0543   10.9283 C   0  0  0  0  0  0  0  0  0  0  0  0
   -1.1199   -6.1229   12.2290 C   0  0  0  0  0  0  0  0  0  0  0  0
   -1.0304   -4.9660   12.9695 C   0  0  0  0  0  0  0  0  0  0  0  0
   -1.4503   -3.7396   12.4757 C   0  0  0  0  0  0  0  0  0  0  0  0
   -1.9682   -3.7204   11.1980 C   0  0  0  0  0  0  0  0  0  0  0  0
   -1.3531   -2.5221   13.2719 C   0  0  0  0  0  0  0  0  0  0  0  0
   -0.4739   -1.5245   12.9014 C   0  0  0  0  0  0  0  0  0  0  0  0
   -0.3424   -0.3556   13.6210 C   0  0  0  0  0  0  0  0  0  0  0  0
   -1.1212   -0.1736   14.7586 C   0  0  0  0  0  0  0  0  0  0  0  0
   -2.0130   -1.1407   15.1683 C   0  0  0  0  0  0  0  0  0  0  0  0
   -2.1076   -2.3075   14.4032 C   0  0  0  0  0  0  0  0  0  0  0  0
   -2.8266   -0.9598   16.3572 C   0  0  0  0  0  0  0  0  0  0  0  0
   -2.9015    0.1910   16.8379 O   0  0  0  0  0  0  0  0  0  0  0  0
   -3.5385   -2.0185   16.9991 N   0  0  0  0  0  0  0  0  0  0  0  0
   -3.4810   -2.9472   16.5796 H   0  0  0  0  0  0  0  0  0  0  0  0
   -4.3098   -1.7319   18.1675 C   0  0  0  0  0  0  0  0  0  0  0  0
   -5.7674   -1.8808   17.9610 C   0  0  0  0  0  0  0  0  0  0  0  0
   -6.5996   -0.7741   18.1953 N   0  0  0  0  0  0  0  0  0  0  0  0
   -7.8309   -0.6341   17.5520 C   0  0  0  0  0  0  0  0  0  0  0  0
   -8.1331    0.8802   17.4942 C   0  0  0  0  0  0  0  0  0  0  0  0
   -6.7560    1.5089   17.4963 C   0  0  0  0  0  0  0  0  0  0  0  0
   -5.9376    0.4764   18.1922 C   0  0  0  0  0  0  0  0  0  0  0  0
   -5.5683   -7.2728    8.2122 C   0  0  0  0  0  0  0  0  0  0  0  0
   -5.4954   -6.1272    7.2405 C   0  0  0  0  0  0  0  0  0  0  0  0
 45 46  1  0  0  0
 46  1  1  0  0  0
  1  2  1  0  0  0
  2  3  2  0  0  0
  3  4  1  0  0  0
  4  5  2  0  0  0
  5  8  1  0  0  0
  8  9  1  0  0  0
  9 10  2  0  0  0
  9 11  1  0  0  0
 11 14  1  0  0  0
 14 15  2  0  0  0
 15 16  1  0  0  0
 15 17  1  0  0  0
 17 18  2  0  0  0
 18 19  1  0  0  0
 19 20  2  0  0  0
 20 21  1  0  0  0
  5  6  1  0  0  0
  6  7  2  0  0  0
  3 22  1  0  0  0
 22 23  2  0  0  0
 23 24  1  0  0  0
 24 25  2  0  0  0
 25 26  1  0  0  0
 26 27  2  0  0  0
 26 28  1  0  0  0
 28 29  2  0  0  0
 29 30  1  0  0  0
 30 31  2  0  0  0
 31 32  1  0  0  0
 32 33  2  0  0  0
 32 34  1  0  0  0
 34 35  2  0  0  0
 34 36  1  0  0  0
 36 38  1  0  0  0
 38 39  1  0  0  0
 39 40  1  0  0  0
 40 41  1  0  0  0
 41 42  1  0  0  0
 42 43  1  0  0  0
 43 44  1  0  0  0
  6  1  1  0  0  0
 27 22  1  0  0  0
 33 28  1  0  0  0
 44 40  1  0  0  0
 20 14  1  0  0  0
  8 12  1  0  0  0
 11 13  1  0  0  0
 36 37  1  0  0  0
M  END
> <minimizedAffinity>
-3.56322

> <CNNscore>
0.4445485771

> <CNNaffinity>
6.4818849564

> <CNN_VS>
2.8815126419

> <CNNaffinity_variance>
0.8110668063

$$$$
[H]c1nc([H])c(Cl)c(N([H])C(=O)N([H])c2c([H])c(-c3c([H])c([H])c([H])c(-c4c([H])c([H])c([H])c(C(=O)N([H])C([H])([H])C([H])([H])N5C([H])([H])C([H])([H])C([H])([H])C5([H])[H])c4[H])c3[H])nn(C([H])([H])C([H])([H])[H])c2=O)c1Cl


 46 50  0  0  0  0  0  0  0  0999 V2000
   -6.6562   -7.7619    5.6414 N   0  0  0  0  0  0  0  0  0  0  0  0
   -7.8285   -7.7346    6.2252 N   0  0  0  0  0  0  0  0  0  0  0  0
   -8.0295   -7.0188    7.3747 C   0  0  0  0  0  0  0  0  0  0  0  0
   -6.9367   -6.3409    7.8674 C   0  0  0  0  0  0  0  0  0  0  0  0
   -5.6812   -6.3462    7.2770 C   0  0  0  0  0  0  0  0  0  0  0  0
   -5.5826   -7.1148    6.0975 C   0  0  0  0  0  0  0  0  0  0  0  0
   -4.4868   -7.1792    5.4945 O   0  0  0  0  0  0  0  0  0  0  0  0
   -4.5360   -5.6954    7.7069 N   0  0  0  0  0  0  0  0  0  0  0  0
   -4.1905   -5.3918    9.0310 C   0  0  0  0  0  0  0  0  0  0  0  0
   -4.9010   -5.6810   10.0285 O   0  0  0  0  0  0  0  0  0  0  0  0
   -2.9708   -4.7122    9.3525 N   0  0  0  0  0  0  0  0  0  0  0  0
   -3.8225   -5.3790    6.9785 H   0  0  0  0  0  0  0  0  0  0  0  0
   -2.3419   -4.4464    8.5857 H   0  0  0  0  0  0  0  0  0  0  0  0
   -2.6542   -4.4227   10.6848 C   0  0  0  0  0  0  0  0  0  0  0  0
   -1.9334   -5.3488   11.4353 C   0  0  0  0  0  0  0  0  0  0  0  0
   -1.4311   -6.8729   10.6983 Cl  0  0  0  0  0  0  0  0  0  0  0  0
   -1.6410   -5.0322   12.7332 C   0  0  0  0  0  0  0  0  0  0  0  0
   -2.0263   -3.8715   13.2861 N   0  0  0  0  0  0  0  0  0  0  0  0
   -2.7226   -2.9436   12.6078 C   0  0  0  0  0  0  0  0  0  0  0  0
   -3.0320   -3.2342   11.2994 C   0  0  0  0  0  0  0  0  0  0  0  0
   -3.9479   -2.0285   10.3887 Cl  0  0  0  0  0  0  0  0  0  0  0  0
   -9.3290   -7.0040    8.0015 C   0  0  0  0  0  0  0  0  0  0  0  0
  -10.4555   -7.4329    7.3704 C   0  0  0  0  0  0  0  0  0  0  0  0
  -11.7069   -7.4005    8.0160 C   0  0  0  0  0  0  0  0  0  0  0  0
  -11.7738   -6.9246    9.3058 C   0  0  0  0  0  0  0  0  0  0  0  0
  -10.6507   -6.4777    9.9865 C   0  0  0  0  0  0  0  0  0  0  0  0
   -9.4474   -6.5279    9.3152 C   0  0  0  0  0  0  0  0  0  0  0  0
  -10.7359   -5.9726   11.3515 C   0  0  0  0  0  0  0  0  0  0  0  0
  -11.9695   -5.7964   11.9456 C   0  0  0  0  0  0  0  0  0  0  0  0
  -12.1046   -5.3198   13.2325 C   0  0  0  0  0  0  0  0  0  0  0  0
  -10.9607   -5.0057   13.9581 C   0  0  0  0  0  0  0  0  0  0  0  0
   -9.7074   -5.1648   13.4081 C   0  0  0  0  0  0  0  0  0  0  0  0
   -9.6258   -5.6514   12.0995 C   0  0  0  0  0  0  0  0  0  0  0  0
   -8.5085   -4.8352   14.1579 C   0  0  0  0  0  0  0  0  0  0  0  0
   -8.5757   -3.8884   14.9704 O   0  0  0  0  0  0  0  0  0  0  0  0
   -7.2689   -5.5301   14.0162 N   0  0  0  0  0  0  0  0  0  0  0  0
   -7.2398   -6.3134   13.3624 H   0  0  0  0  0  0  0  0  0  0  0  0
   -6.1473   -5.1226   14.8025 C   0  0  0  0  0  0  0  0  0  0  0  0
   -4.9127   -5.8813   14.5035 C   0  0  0  0  0  0  0  0  0  0  0  0
   -4.0890   -6.2788   15.5693 N   0  0  0  0  0  0  0  0  0  0  0  0
   -3.3221   -7.4440   15.5074 C   0  0  0  0  0  0  0  0  0  0  0  0
   -3.1103   -7.9151   16.9637 C   0  0  0  0  0  0  0  0  0  0  0  0
   -4.3265   -7.3729   17.6838 C   0  0  0  0  0  0  0  0  0  0  0  0
   -4.6914   -6.1955   16.8468 C   0  0  0  0  0  0  0  0  0  0  0  0
   -7.3419   -9.7707    4.5454 C   0  0  0  0  0  0  0  0  0  0  0  0
   -6.4895   -8.5382    4.4179 C   0  0  0  0  0  0  0  0  0  0  0  0
 45 46  1  0  0  0
 46  1  1  0  0  0
  1  2  1  0  0  0
  2  3  2  0  0  0
  3  4  1  0  0  0
  4  5  2  0  0  0
  5  8  1  0  0  0
  8  9  1  0  0  0
  9 10  2  0  0  0
  9 11  1  0  0  0
 11 14  1  0  0  0
 14 15  2  0  0  0
 15 16  1  0  0  0
 15 17  1  0  0  0
 17 18  2  0  0  0
 18 19  1  0  0  0
 19 20  2  0  0  0
 20 21  1  0  0  0
  5  6  1  0  0  0
  6  7  2  0  0  0
  3 22  1  0  0  0
 22 23  2  0  0  0
 23 24  1  0  0  0
 24 25  2  0  0  0
 25 26  1  0  0  0
 26 27  2  0  0  0
 26 28  1  0  0  0
 28 29  2  0  0  0
 29 30  1  0  0  0
 30 31  2  0  0  0
 31 32  1  0  0  0
 32 33  2  0  0  0
 32 34  1  0  0  0
 34 35  2  0  0  0
 34 36  1  0  0  0
 36 38  1  0  0  0
 38 39  1  0  0  0
 39 40  1  0  0  0
 40 41  1  0  0  0
 41 42  1  0  0  0
 42 43  1  0  0  0
 43 44  1  0  0  0
  6  1  1  0  0  0
 27 22  1  0  0  0
 33 28  1  0  0  0
 44 40  1  0  0  0
 20 14  1  0  0  0
  8 12  1  0  0  0
 11 13  1  0  0  0
 36 37  1  0  0  0
M  END
> <minimizedAffinity>
4.45594

> <CNNscore>
0.3959278166

> <CNNaffinity>
7.0338602066

> <CNN_VS>
2.7849009037

> <CNNaffinity_variance>
0.7918438911

$$$$
[H]c1nc([H])c(Cl)c(N([H])C(=O)N([H])c2c([H])c(-c3c([H])c([H])c([H])c(-c4c([H])c([H])c([H])c(C(=O)N([H])C([H])([H])C([H])([H])N5C([H])([H])C([H])([H])C([H])([H])C5([H])[H])c4[H])c3[H])nn(C([H])([H])C([H])([H])[H])c2=O)c1Cl


 46 50  0  0  0  0  0  0  0  0999 V2000
   -2.6769   -6.7755    5.8951 N   0  0  0  0  0  0  0  0  0  0  0  0
   -2.6721   -5.6480    5.2283 N   0  0  0  0  0  0  0  0  0  0  0  0
   -3.6914   -4.7437    5.3608 C   0  0  0  0  0  0  0  0  0  0  0  0
   -4.7039   -5.0920    6.2267 C   0  0  0  0  0  0  0  0  0  0  0  0
   -4.7430   -6.2756    6.9494 C   0  0  0  0  0  0  0  0  0  0  0  0
   -3.6446   -7.1365    6.7394 C   0  0  0  0  0  0  0  0  0  0  0  0
   -3.5933   -8.2292    7.3492 O   0  0  0  0  0  0  0  0  0  0  0  0
   -5.7200   -6.6997    7.8357 N   0  0  0  0  0  0  0  0  0  0  0  0
   -7.0138   -7.1325    7.5140 C   0  0  0  0  0  0  0  0  0  0  0  0
   -7.4657   -7.1914    6.3412 O   0  0  0  0  0  0  0  0  0  0  0  0
   -7.9395   -7.5502    8.5247 N   0  0  0  0  0  0  0  0  0  0  0  0
   -5.4955   -6.7093    8.8794 H   0  0  0  0  0  0  0  0  0  0  0  0
   -7.6363   -7.5281    9.5054 H   0  0  0  0  0  0  0  0  0  0  0  0
   -9.2250   -7.9767    8.1716 C   0  0  0  0  0  0  0  0  0  0  0  0
   -9.4135   -9.2775    7.7103 C   0  0  0  0  0  0  0  0  0  0  0  0
   -8.0313  -10.3684    7.5760 Cl  0  0  0  0  0  0  0  0  0  0  0  0
  -10.6830   -9.6603    7.3755 C   0  0  0  0  0  0  0  0  0  0  0  0
  -11.7284   -8.8252    7.4805 N   0  0  0  0  0  0  0  0  0  0  0  0
  -11.6028   -7.5613    7.9194 C   0  0  0  0  0  0  0  0  0  0  0  0
  -10.3372   -7.1474    8.2638 C   0  0  0  0  0  0  0  0  0  0  0  0
  -10.1486   -5.4888    8.8428 Cl  0  0  0  0  0  0  0  0  0  0  0  0
   -3.6661   -3.5086    4.6154 C   0  0  0  0  0  0  0  0  0  0  0  0
   -3.6349   -2.2876    5.2151 C   0  0  0  0  0  0  0  0  0  0  0  0
   -3.6130   -1.1039    4.4519 C   0  0  0  0  0  0  0  0  0  0  0  0
   -3.6238   -1.2016    3.0790 C   0  0  0  0  0  0  0  0  0  0  0  0
   -3.6552   -2.4254    2.4267 C   0  0  0  0  0  0  0  0  0  0  0  0
   -3.6757   -3.5571    3.2141 C   0  0  0  0  0  0  0  0  0  0  0  0
   -3.6698   -2.5148    0.9715 C   0  0  0  0  0  0  0  0  0  0  0  0
   -2.5918   -3.0600    0.3035 C   0  0  0  0  0  0  0  0  0  0  0  0
   -2.5551   -3.1655   -1.0709 C   0  0  0  0  0  0  0  0  0  0  0  0
   -3.6399   -2.7079   -1.8108 C   0  0  0  0  0  0  0  0  0  0  0  0
   -4.7389   -2.1562   -1.1892 C   0  0  0  0  0  0  0  0  0  0  0  0
   -4.7255   -2.0725    0.2068 C   0  0  0  0  0  0  0  0  0  0  0  0
   -5.8736   -1.6725   -1.9550 C   0  0  0  0  0  0  0  0  0  0  0  0
   -5.9189   -1.9634   -3.1693 O   0  0  0  0  0  0  0  0  0  0  0  0
   -6.9299   -0.8893   -1.3980 N   0  0  0  0  0  0  0  0  0  0  0  0
   -6.8851   -0.6793   -0.4001 H   0  0  0  0  0  0  0  0  0  0  0  0
   -8.0009   -0.4621   -2.2422 C   0  0  0  0  0  0  0  0  0  0  0  0
   -9.2742   -0.2550   -1.5175 C   0  0  0  0  0  0  0  0  0  0  0  0
   -9.7682    1.0524   -1.3792 N   0  0  0  0  0  0  0  0  0  0  0  0
   -9.8636    1.6714   -0.1314 C   0  0  0  0  0  0  0  0  0  0  0  0
  -10.9936    2.7198   -0.2400 C   0  0  0  0  0  0  0  0  0  0  0  0
  -11.8937    2.1492   -1.3150 C   0  0  0  0  0  0  0  0  0  0  0  0
  -10.9471    1.3210   -2.1140 C   0  0  0  0  0  0  0  0  0  0  0  0
   -0.7509   -7.2262    4.5557 C   0  0  0  0  0  0  0  0  0  0  0  0
   -1.5690   -7.7082    5.7221 C   0  0  0  0  0  0  0  0  0  0  0  0
 45 46  1  0  0  0
 46  1  1  0  0  0
  1  2  1  0  0  0
  2  3  2  0  0  0
  3  4  1  0  0  0
  4  5  2  0  0  0
  5  8  1  0  0  0
  8  9  1  0  0  0
  9 10  2  0  0  0
  9 11  1  0  0  0
 11 14  1  0  0  0
 14 15  2  0  0  0
 15 16  1  0  0  0
 15 17  1  0  0  0
 17 18  2  0  0  0
 18 19  1  0  0  0
 19 20  2  0  0  0
 20 21  1  0  0  0
  5  6  1  0  0  0
  6  7  2  0  0  0
  3 22  1  0  0  0
 22 23  2  0  0  0
 23 24  1  0  0  0
 24 25  2  0  0  0
 25 26  1  0  0  0
 26 27  2  0  0  0
 26 28  1  0  0  0
 28 29  2  0  0  0
 29 30  1  0  0  0
 30 31  2  0  0  0
 31 32  1  0  0  0
 32 33  2  0  0  0
 32 34  1  0  0  0
 34 35  2  0  0  0
 34 36  1  0  0  0
 36 38  1  0  0  0
 38 39  1  0  0  0
 39 40  1  0  0  0
 40 41  1  0  0  0
 41 42  1  0  0  0
 42 43  1  0  0  0
 43 44  1  0  0  0
  6  1  1  0  0  0
 27 22  1  0  0  0
 33 28  1  0  0  0
 44 40  1  0  0  0
 20 14  1  0  0  0
  8 12  1  0  0  0
 11 13  1  0  0  0
 36 37  1  0  0  0
M  END
> <minimizedAffinity>
-7.84933

> <CNNscore>
0.3944894671

> <CNNaffinity>
7.0409646034

> <CNN_VS>
2.7775864601

> <CNNaffinity_variance>
0.0290928073

$$$$
[H]c1nc([H])c(Cl)c(N([H])C(=O)N([H])c2c([H])c(-c3c([H])c([H])c([H])c(-c4c([H])c([H])c([H])c(C(=O)N([H])C([H])([H])C([H])([H])N5C([H])([H])C([H])([H])C([H])([H])C5([H])[H])c4[H])c3[H])nn(C([H])([H])C([H])([H])[H])c2=O)c1Cl


 46 50  0  0  0  0  0  0  0  0999 V2000
  -11.3777   -6.2485    9.2325 N   0  0  0  0  0  0  0  0  0  0  0  0
  -10.1494   -6.5536    8.8949 N   0  0  0  0  0  0  0  0  0  0  0  0
   -9.8898   -7.5667    8.0113 C   0  0  0  0  0  0  0  0  0  0  0  0
  -10.9865   -8.2315    7.5097 C   0  0  0  0  0  0  0  0  0  0  0  0
  -12.3005   -7.9365    7.8435 C   0  0  0  0  0  0  0  0  0  0  0  0
  -12.4565   -6.8760    8.7615 C   0  0  0  0  0  0  0  0  0  0  0  0
  -13.6073   -6.5382    9.1222 O   0  0  0  0  0  0  0  0  0  0  0  0
  -13.4536   -8.5541    7.3868 N   0  0  0  0  0  0  0  0  0  0  0  0
  -14.3862   -8.0266    6.4830 C   0  0  0  0  0  0  0  0  0  0  0  0
  -14.2904   -6.8880    5.9561 O   0  0  0  0  0  0  0  0  0  0  0  0
  -15.5466   -8.7659    6.0834 N   0  0  0  0  0  0  0  0  0  0  0  0
  -13.6848   -9.5342    7.7415 H   0  0  0  0  0  0  0  0  0  0  0  0
  -15.6878   -9.7045    6.4750 H   0  0  0  0  0  0  0  0  0  0  0  0
  -16.4599   -8.2115    5.1792 C   0  0  0  0  0  0  0  0  0  0  0  0
  -17.6276   -7.6221    5.6582 C   0  0  0  0  0  0  0  0  0  0  0  0
  -17.9404   -7.5835    7.3957 Cl  0  0  0  0  0  0  0  0  0  0  0  0
  -18.4966   -7.0897    4.7462 C   0  0  0  0  0  0  0  0  0  0  0  0
  -18.2515   -7.1229    3.4271 N   0  0  0  0  0  0  0  0  0  0  0  0
  -17.1417   -7.6784    2.9117 C   0  0  0  0  0  0  0  0  0  0  0  0
  -16.2485   -8.2227    3.8050 C   0  0  0  0  0  0  0  0  0  0  0  0
  -14.7825   -8.9592    3.1492 Cl  0  0  0  0  0  0  0  0  0  0  0  0
   -8.5288   -7.8865    7.6547 C   0  0  0  0  0  0  0  0  0  0  0  0
   -8.1605   -9.1057    7.1758 C   0  0  0  0  0  0  0  0  0  0  0  0
   -6.8201   -9.3799    6.8407 C   0  0  0  0  0  0  0  0  0  0  0  0
   -5.8806   -8.3878    7.0064 C   0  0  0  0  0  0  0  0  0  0  0  0
   -6.2122   -7.1311    7.4913 C   0  0  0  0  0  0  0  0  0  0  0  0
   -7.5359   -6.9080    7.8061 C   0  0  0  0  0  0  0  0  0  0  0  0
   -5.2064   -6.0900    7.6654 C   0  0  0  0  0  0  0  0  0  0  0  0
   -4.6181   -5.8995    8.8995 C   0  0  0  0  0  0  0  0  0  0  0  0
   -3.6640   -4.9279    9.1172 C   0  0  0  0  0  0  0  0  0  0  0  0
   -3.2801   -4.1117    8.0589 C   0  0  0  0  0  0  0  0  0  0  0  0
   -3.8387   -4.2637    6.8086 C   0  0  0  0  0  0  0  0  0  0  0  0
   -4.8019   -5.2638    6.6413 C   0  0  0  0  0  0  0  0  0  0  0  0
   -3.4461   -3.4127    5.6996 C   0  0  0  0  0  0  0  0  0  0  0  0
   -2.3377   -3.6316    5.1661 O   0  0  0  0  0  0  0  0  0  0  0  0
   -4.2530   -2.3492    5.1922 N   0  0  0  0  0  0  0  0  0  0  0  0
   -5.1636   -2.1994    5.6282 H   0  0  0  0  0  0  0  0  0  0  0  0
   -3.7702   -1.5697    4.0961 C   0  0  0  0  0  0  0  0  0  0  0  0
   -4.5299   -0.3176    3.8854 C   0  0  0  0  0  0  0  0  0  0  0  0
   -4.1270    0.8407    4.5699 N   0  0  0  0  0  0  0  0  0  0  0  0
   -4.5174    1.0860    5.8878 C   0  0  0  0  0  0  0  0  0  0  0  0
   -4.4998    2.6193    6.0790 C   0  0  0  0  0  0  0  0  0  0  0  0
   -4.7587    3.1456    4.6834 C   0  0  0  0  0  0  0  0  0  0  0  0
   -4.2457    2.0392    3.8274 C   0  0  0  0  0  0  0  0  0  0  0  0
  -11.6756   -5.7649   11.5529 C   0  0  0  0  0  0  0  0  0  0  0  0
  -11.6056   -5.1609   10.1773 C   0  0  0  0  0  0  0  0  0  0  0  0
 45 46  1  0  0  0
 46  1  1  0  0  0
  1  2  1  0  0  0
  2  3  2  0  0  0
  3  4  1  0  0  0
  4  5  2  0  0  0
  5  8  1  0  0  0
  8  9  1  0  0  0
  9 10  2  0  0  0
  9 11  1  0  0  0
 11 14  1  0  0  0
 14 15  2  0  0  0
 15 16  1  0  0  0
 15 17  1  0  0  0
 17 18  2  0  0  0
 18 19  1  0  0  0
 19 20  2  0  0  0
 20 21  1  0  0  0
  5  6  1  0  0  0
  6  7  2  0  0  0
  3 22  1  0  0  0
 22 23  2  0  0  0
 23 24  1  0  0  0
 24 25  2  0  0  0
 25 26  1  0  0  0
 26 27  2  0  0  0
 26 28  1  0  0  0
 28 29  2  0  0  0
 29 30  1  0  0  0
 30 31  2  0  0  0
 31 32  1  0  0  0
 32 33  2  0  0  0
 32 34  1  0  0  0
 34 35  2  0  0  0
 34 36  1  0  0  0
 36 38  1  0  0  0
 38 39  1  0  0  0
 39 40  1  0  0  0
 40 41  1  0  0  0
 41 42  1  0  0  0
 42 43  1  0  0  0
 43 44  1  0  0  0
  6  1  1  0  0  0
 27 22  1  0  0  0
 33 28  1  0  0  0
 44 40  1  0  0  0
 20 14  1  0  0  0
  8 12  1  0  0  0
 11 13  1  0  0  0
 36 37  1  0  0  0
M  END
> <minimizedAffinity>
-8.60189

> <CNNscore>
0.3888104260

> <CNNaffinity>
7.5232858658

> <CNN_VS>
2.9251320362

> <CNNaffinity_variance>
0.0605255291

$$$$
[H]c1nc([H])c(Cl)c(N([H])C(=O)N([H])c2c([H])c(-c3c([H])c([H])c([H])c(-c4c([H])c([H])c([H])c(C(=O)N([H])C([H])([H])C([H])([H])N5C([H])([H])C([H])([H])C([H])([H])C5([H])[H])c4[H])c3[H])nn(C([H])([H])C([H])([H])[H])c2=O)c1Cl


 46 50  0  0  0  0  0  0  0  0999 V2000
   -3.8824   -7.6868    7.2020 N   0  0  0  0  0  0  0  0  0  0  0  0
   -3.3151   -6.8645    8.0492 N   0  0  0  0  0  0  0  0  0  0  0  0
   -4.0372   -5.8836    8.6742 C   0  0  0  0  0  0  0  0  0  0  0  0
   -5.3762   -5.8204    8.3587 C   0  0  0  0  0  0  0  0  0  0  0  0
   -6.0113   -6.6731    7.4675 C   0  0  0  0  0  0  0  0  0  0  0  0
   -5.1762   -7.6470    6.8794 C   0  0  0  0  0  0  0  0  0  0  0  0
   -5.6617   -8.4615    6.0612 O   0  0  0  0  0  0  0  0  0  0  0  0
   -7.3463   -6.6758    7.0967 N   0  0  0  0  0  0  0  0  0  0  0  0
   -8.4062   -7.2855    7.7821 C   0  0  0  0  0  0  0  0  0  0  0  0
   -8.2738   -7.9290    8.8552 O   0  0  0  0  0  0  0  0  0  0  0  0
   -9.7527   -7.2180    7.2970 N   0  0  0  0  0  0  0  0  0  0  0  0
   -7.6301   -6.1699    6.2004 H   0  0  0  0  0  0  0  0  0  0  0  0
   -9.9336   -6.7072    6.4248 H   0  0  0  0  0  0  0  0  0  0  0  0
  -10.7895   -7.8377    8.0040 C   0  0  0  0  0  0  0  0  0  0  0  0
  -11.4494   -7.1354    9.0097 C   0  0  0  0  0  0  0  0  0  0  0  0
  -10.9694   -5.4768    9.3798 Cl  0  0  0  0  0  0  0  0  0  0  0  0
  -12.4581   -7.7719    9.6789 C   0  0  0  0  0  0  0  0  0  0  0  0
  -12.8171   -9.0328    9.3916 N   0  0  0  0  0  0  0  0  0  0  0  0
  -12.2146   -9.7551    8.4319 C   0  0  0  0  0  0  0  0  0  0  0  0
  -11.1956   -9.1414    7.7414 C   0  0  0  0  0  0  0  0  0  0  0  0
  -10.3887  -10.0730    6.4754 Cl  0  0  0  0  0  0  0  0  0  0  0  0
   -3.3913   -4.9881    9.6029 C   0  0  0  0  0  0  0  0  0  0  0  0
   -2.7015   -5.4275   10.6903 C   0  0  0  0  0  0  0  0  0  0  0  0
   -2.0861   -4.5208   11.5753 C   0  0  0  0  0  0  0  0  0  0  0  0
   -2.1940   -3.1722   11.3216 C   0  0  0  0  0  0  0  0  0  0  0  0
   -2.8875   -2.6809   10.2252 C   0  0  0  0  0  0  0  0  0  0  0  0
   -3.4734   -3.6051    9.3863 C   0  0  0  0  0  0  0  0  0  0  0  0
   -2.9972   -1.2497    9.9699 C   0  0  0  0  0  0  0  0  0  0  0  0
   -3.2606   -0.7954    8.6932 C   0  0  0  0  0  0  0  0  0  0  0  0
   -3.3717    0.5471    8.3987 C   0  0  0  0  0  0  0  0  0  0  0  0
   -3.2137    1.4764    9.4211 C   0  0  0  0  0  0  0  0  0  0  0  0
   -2.9498    1.0715   10.7114 C   0  0  0  0  0  0  0  0  0  0  0  0
   -2.8467   -0.3015   10.9565 C   0  0  0  0  0  0  0  0  0  0  0  0
   -2.7793    2.0358   11.7834 C   0  0  0  0  0  0  0  0  0  0  0  0
   -1.6706    2.6036   11.8806 O   0  0  0  0  0  0  0  0  0  0  0  0
   -3.8030    2.3657   12.7230 N   0  0  0  0  0  0  0  0  0  0  0  0
   -4.7080    1.9062   12.6146 H   0  0  0  0  0  0  0  0  0  0  0  0
   -3.5294    3.3289   13.7426 C   0  0  0  0  0  0  0  0  0  0  0  0
   -3.3073    2.7271   15.0759 C   0  0  0  0  0  0  0  0  0  0  0  0
   -4.2701    1.8411   15.5863 N   0  0  0  0  0  0  0  0  0  0  0  0
   -5.1417    2.2168   16.6104 C   0  0  0  0  0  0  0  0  0  0  0  0
   -5.5455    0.9208   17.3487 C   0  0  0  0  0  0  0  0  0  0  0  0
   -4.3589    0.0086   17.1221 C   0  0  0  0  0  0  0  0  0  0  0  0
   -3.7936    0.5348   15.8479 C   0  0  0  0  0  0  0  0  0  0  0  0
   -1.9225   -9.0242    7.4795 C   0  0  0  0  0  0  0  0  0  0  0  0
   -3.0728   -8.7166    6.5606 C   0  0  0  0  0  0  0  0  0  0  0  0
 45 46  1  0  0  0
 46  1  1  0  0  0
  1  2  1  0  0  0
  2  3  2  0  0  0
  3  4  1  0  0  0
  4  5  2  0  0  0
  5  8  1  0  0  0
  8  9  1  0  0  0
  9 10  2  0  0  0
  9 11  1  0  0  0
 11 14  1  0  0  0
 14 15  2  0  0  0
 15 16  1  0  0  0
 15 17  1  0  0  0
 17 18  2  0  0  0
 18 19  1  0  0  0
 19 20  2  0  0  0
 20 21  1  0  0  0
  5  6  1  0  0  0
  6  7  2  0  0  0
  3 22  1  0  0  0
 22 23  2  0  0  0
 23 24  1  0  0  0
 24 25  2  0  0  0
 25 26  1  0  0  0
 26 27  2  0  0  0
 26 28  1  0  0  0
 28 29  2  0  0  0
 29 30  1  0  0  0
 30 31  2  0  0  0
 31 32  1  0  0  0
 32 33  2  0  0  0
 32 34  1  0  0  0
 34 35  2  0  0  0
 34 36  1  0  0  0
 36 38  1  0  0  0
 38 39  1  0  0  0
 39 40  1  0  0  0
 40 41  1  0  0  0
 41 42  1  0  0  0
 42 43  1  0  0  0
 43 44  1  0  0  0
  6  1  1  0  0  0
 27 22  1  0  0  0
 33 28  1  0  0  0
 44 40  1  0  0  0
 20 14  1  0  0  0
  8 12  1  0  0  0
 11 13  1  0  0  0
 36 37  1  0  0  0
M  END
> <minimizedAffinity>
-6.22957

> <CNNscore>
0.3381538689

> <CNNaffinity>
6.8461470604

> <CNN_VS>
2.3150510788

> <CNNaffinity_variance>
0.0373284146

$$$$
[H]c1nc([H])c(-c2nc3c([H])c(N([H])C(=O)[C@@]([H])(Oc4c([H])c([H])c([H])c5c([H])c([H])c([H])c([H])c45)C([H])([H])[H])c([H])c([H])c3o2)o1


 31 35  0  0  0  0  0  0  0  0999 V2000
  -12.9633   -7.8311    8.3133 C   0  0  0  0  0  0  0  0  0  0  0  0
  -12.9460   -8.7097    9.1932 O   0  0  0  0  0  0  0  0  0  0  0  0
  -11.8911   -7.4508    7.4994 N   0  0  0  0  0  0  0  0  0  0  0  0
  -12.0941   -6.6719    6.7948 H   0  0  0  0  0  0  0  0  0  0  0  0
  -10.5697   -7.9648    7.4879 C   0  0  0  0  0  0  0  0  0  0  0  0
  -10.2446   -9.3006    7.4253 C   0  0  0  0  0  0  0  0  0  0  0  0
   -8.9058   -9.7151    7.4185 C   0  0  0  0  0  0  0  0  0  0  0  0
   -7.8691   -8.8190    7.4731 C   0  0  0  0  0  0  0  0  0  0  0  0
   -6.5596   -8.8961    7.4826 O   0  0  0  0  0  0  0  0  0  0  0  0
   -5.9998   -7.7338    7.5455 C   0  0  0  0  0  0  0  0  0  0  0  0
   -6.9831   -6.8247    7.5803 N   0  0  0  0  0  0  0  0  0  0  0  0
   -8.1783   -7.4857    7.5357 C   0  0  0  0  0  0  0  0  0  0  0  0
   -9.4838   -7.0741    7.5427 C   0  0  0  0  0  0  0  0  0  0  0  0
   -4.5686   -7.4329    7.5747 C   0  0  0  0  0  0  0  0  0  0  0  0
   -3.5757   -8.0338    6.8179 C   0  0  0  0  0  0  0  0  0  0  0  0
   -2.3859   -7.4870    7.1270 N   0  0  0  0  0  0  0  0  0  0  0  0
   -2.6553   -6.5542    8.0709 C   0  0  0  0  0  0  0  0  0  0  0  0
   -3.9443   -6.5452    8.3134 O   0  0  0  0  0  0  0  0  0  0  0  0
  -15.3832   -8.1270    8.5260 C   0  0  0  0  0  0  0  0  0  0  0  0
  -14.2955   -7.1253    8.1356 C   0  0  0  0  0  0  0  0  0  0  0  0
  -14.4029   -6.7051    6.8303 O   0  0  0  0  0  0  0  0  0  0  0  0
  -14.8849   -7.3798    5.7281 C   0  0  0  0  0  0  0  0  0  0  0  0
  -14.3015   -8.5190    5.2208 C   0  0  0  0  0  0  0  0  0  0  0  0
  -14.8406   -9.1363    4.1173 C   0  0  0  0  0  0  0  0  0  0  0  0
  -15.9596   -8.6121    3.5267 C   0  0  0  0  0  0  0  0  0  0  0  0
  -16.5415   -7.4747    4.0338 C   0  0  0  0  0  0  0  0  0  0  0  0
  -17.6813   -6.9385    3.4342 C   0  0  0  0  0  0  0  0  0  0  0  0
  -18.2590   -5.7981    3.9482 C   0  0  0  0  0  0  0  0  0  0  0  0
  -17.7568   -5.1479    5.0469 C   0  0  0  0  0  0  0  0  0  0  0  0
  -16.6167   -5.7036    5.6283 C   0  0  0  0  0  0  0  0  0  0  0  0
  -16.0337   -6.8432    5.1203 C   0  0  0  0  0  0  0  0  0  0  0  0
 19 20  1  0  0  0
 20 21  1  0  0  0
 21 22  1  0  0  0
 22 23  2  0  0  0
 23 24  1  0  0  0
 24 25  2  0  0  0
 25 26  1  0  0  0
 26 27  2  0  0  0
 27 28  1  0  0  0
 28 29  2  0  0  0
 29 30  1  0  0  0
 30 31  2  0  0  0
 20  1  1  0  0  0
  1  2  2  0  0  0
  1  3  1  0  0  0
  3  5  1  0  0  0
  5  6  2  0  0  0
  6  7  1  0  0  0
  7  8  2  0  0  0
  8  9  1  0  0  0
  9 10  1  0  0  0
 10 11  2  0  0  0
 11 12  1  0  0  0
 12 13  2  0  0  0
 10 14  1  0  0  0
 14 15  2  0  0  0
 15 16  1  0  0  0
 16 17  2  0  0  0
 17 18  1  0  0  0
 31 22  1  0  0  0
 13  5  1  0  0  0
 18 14  1  0  0  0
 31 26  1  0  0  0
 12  8  1  0  0  0
  3  4  1  0  0  0
M  END
> <minimizedAffinity>
-10.05414

> <CNNscore>
0.4941243231

> <CNNaffinity>
6.8944234848

> <CNN_VS>
3.4067022800

> <CNNaffinity_variance>
0.1165688783

$$$$
[H]c1nc([H])c(-c2nc3c([H])c(N([H])C(=O)[C@@]([H])(Oc4c([H])c([H])c([H])c5c([H])c([H])c([H])c([H])c45)C([H])([H])[H])c([H])c([H])c3o2)o1


 31 35  0  0  0  0  0  0  0  0999 V2000
  -12.8845   -7.4255    8.3235 C   0  0  0  0  0  0  0  0  0  0  0  0
  -12.5425   -7.1478    9.4864 O   0  0  0  0  0  0  0  0  0  0  0  0
  -12.0678   -7.9674    7.3255 N   0  0  0  0  0  0  0  0  0  0  0  0
  -12.5386   -8.1402    6.3806 H   0  0  0  0  0  0  0  0  0  0  0  0
  -10.6960   -8.3174    7.4050 C   0  0  0  0  0  0  0  0  0  0  0  0
  -10.2085   -9.6041    7.3771 C   0  0  0  0  0  0  0  0  0  0  0  0
   -8.8319   -9.8532    7.4613 C   0  0  0  0  0  0  0  0  0  0  0  0
   -7.9170   -8.8378    7.5741 C   0  0  0  0  0  0  0  0  0  0  0  0
   -6.6111   -8.7556    7.6694 O   0  0  0  0  0  0  0  0  0  0  0  0
   -6.2013   -7.5339    7.7567 C   0  0  0  0  0  0  0  0  0  0  0  0
   -7.2874   -6.7506    7.7185 N   0  0  0  0  0  0  0  0  0  0  0  0
   -8.3885   -7.5518    7.6031 C   0  0  0  0  0  0  0  0  0  0  0  0
   -9.7317   -7.3015    7.5212 C   0  0  0  0  0  0  0  0  0  0  0  0
   -4.8220   -7.0616    7.8758 C   0  0  0  0  0  0  0  0  0  0  0  0
   -4.4024   -5.8240    8.3361 C   0  0  0  0  0  0  0  0  0  0  0  0
   -3.0588   -5.7648    8.2967 N   0  0  0  0  0  0  0  0  0  0  0  0
   -2.6619   -6.9656    7.8130 C   0  0  0  0  0  0  0  0  0  0  0  0
   -3.7183   -7.7057    7.5751 O   0  0  0  0  0  0  0  0  0  0  0  0
  -15.1830   -8.1028    8.8201 C   0  0  0  0  0  0  0  0  0  0  0  0
  -14.3371   -7.1333    7.9933 C   0  0  0  0  0  0  0  0  0  0  0  0
  -14.5226   -7.2870    6.6391 O   0  0  0  0  0  0  0  0  0  0  0  0
  -15.1278   -6.4398    5.7345 C   0  0  0  0  0  0  0  0  0  0  0  0
  -14.6244   -5.2031    5.3991 C   0  0  0  0  0  0  0  0  0  0  0  0
  -15.2852   -4.4144    4.4876 C   0  0  0  0  0  0  0  0  0  0  0  0
  -16.4452   -4.8656    3.9163 C   0  0  0  0  0  0  0  0  0  0  0  0
  -16.9472   -6.1004    4.2517 C   0  0  0  0  0  0  0  0  0  0  0  0
  -18.1286   -6.5625    3.6713 C   0  0  0  0  0  0  0  0  0  0  0  0
  -18.6256   -7.8015    4.0125 C   0  0  0  0  0  0  0  0  0  0  0  0
  -18.0013   -8.6232    4.9164 C   0  0  0  0  0  0  0  0  0  0  0  0
  -16.8219   -8.1385    5.4828 C   0  0  0  0  0  0  0  0  0  0  0  0
  -16.3189   -6.9013    5.1468 C   0  0  0  0  0  0  0  0  0  0  0  0
 19 20  1  0  0  0
 20 21  1  0  0  0
 21 22  1  0  0  0
 22 23  2  0  0  0
 23 24  1  0  0  0
 24 25  2  0  0  0
 25 26  1  0  0  0
 26 27  2  0  0  0
 27 28  1  0  0  0
 28 29  2  0  0  0
 29 30  1  0  0  0
 30 31  2  0  0  0
 20  1  1  0  0  0
  1  2  2  0  0  0
  1  3  1  0  0  0
  3  5  1  0  0  0
  5  6  2  0  0  0
  6  7  1  0  0  0
  7  8  2  0  0  0
  8  9  1  0  0  0
  9 10  1  0  0  0
 10 11  2  0  0  0
 11 12  1  0  0  0
 12 13  2  0  0  0
 10 14  1  0  0  0
 14 15  2  0  0  0
 15 16  1  0  0  0
 16 17  2  0  0  0
 17 18  1  0  0  0
 31 22  1  0  0  0
 13  5  1  0  0  0
 18 14  1  0  0  0
 31 26  1  0  0  0
 12  8  1  0  0  0
  3  4  1  0  0  0
M  END
> <minimizedAffinity>
-10.18423

> <CNNscore>
0.4667664468

> <CNNaffinity>
6.9144515991

> <CNN_VS>
3.2274339199

> <CNNaffinity_variance>
0.1799853593

$$$$
[H]c1nc([H])c(-c2nc3c([H])c(N([H])C(=O)[C@@]([H])(Oc4c([H])c([H])c([H])c5c([H])c([H])c([H])c([H])c45)C([H])([H])[H])c([H])c([H])c3o2)o1


 31 35  0  0  0  0  0  0  0  0999 V2000
  -10.0415  -10.0109    6.8076 C   0  0  0  0  0  0  0  0  0  0  0  0
   -9.4317   -8.9501    7.0297 O   0  0  0  0  0  0  0  0  0  0  0  0
  -11.4284  -10.1659    6.7102 N   0  0  0  0  0  0  0  0  0  0  0  0
  -11.7737  -11.1591    6.5137 H   0  0  0  0  0  0  0  0  0  0  0  0
  -12.4354   -9.1760    6.8385 C   0  0  0  0  0  0  0  0  0  0  0  0
  -12.5444   -8.2948    7.8899 C   0  0  0  0  0  0  0  0  0  0  0  0
  -13.5767   -7.3477    7.9300 C   0  0  0  0  0  0  0  0  0  0  0  0
  -14.5156   -7.2560    6.9346 C   0  0  0  0  0  0  0  0  0  0  0  0
  -15.5630   -6.5027    6.6969 O   0  0  0  0  0  0  0  0  0  0  0  0
  -16.1477   -6.8108    5.5872 C   0  0  0  0  0  0  0  0  0  0  0  0
  -15.4589   -7.8253    5.0478 N   0  0  0  0  0  0  0  0  0  0  0  0
  -14.4191   -8.1273    5.8816 C   0  0  0  0  0  0  0  0  0  0  0  0
  -13.4133   -9.0547    5.8363 C   0  0  0  0  0  0  0  0  0  0  0  0
  -17.3365   -6.1906    5.0026 C   0  0  0  0  0  0  0  0  0  0  0  0
  -17.7485   -4.8762    5.1515 C   0  0  0  0  0  0  0  0  0  0  0  0
  -18.8880   -4.6845    4.4623 N   0  0  0  0  0  0  0  0  0  0  0  0
  -19.1685   -5.8815    3.8948 C   0  0  0  0  0  0  0  0  0  0  0  0
  -18.2405   -6.7459    4.2295 O   0  0  0  0  0  0  0  0  0  0  0  0
   -7.8039  -10.8965    7.2515 C   0  0  0  0  0  0  0  0  0  0  0  0
   -9.1603  -11.2343    6.6309 C   0  0  0  0  0  0  0  0  0  0  0  0
   -9.0736  -11.5271    5.2898 O   0  0  0  0  0  0  0  0  0  0  0  0
   -8.7814  -12.7242    4.6700 C   0  0  0  0  0  0  0  0  0  0  0  0
   -8.8487  -13.9437    5.3052 C   0  0  0  0  0  0  0  0  0  0  0  0
   -8.5421  -15.0953    4.6201 C   0  0  0  0  0  0  0  0  0  0  0  0
   -8.1699  -15.0219    3.3041 C   0  0  0  0  0  0  0  0  0  0  0  0
   -8.1029  -13.8040    2.6706 C   0  0  0  0  0  0  0  0  0  0  0  0
   -7.7240  -13.7263    1.3303 C   0  0  0  0  0  0  0  0  0  0  0  0
   -7.6592  -12.5018    0.7020 C   0  0  0  0  0  0  0  0  0  0  0  0
   -7.9558  -11.3266    1.3446 C   0  0  0  0  0  0  0  0  0  0  0  0
   -8.3319  -11.4307    2.6842 C   0  0  0  0  0  0  0  0  0  0  0  0
   -8.3991  -12.6510    3.3189 C   0  0  0  0  0  0  0  0  0  0  0  0
 19 20  1  0  0  0
 20 21  1  0  0  0
 21 22  1  0  0  0
 22 23  2  0  0  0
 23 24  1  0  0  0
 24 25  2  0  0  0
 25 26  1  0  0  0
 26 27  2  0  0  0
 27 28  1  0  0  0
 28 29  2  0  0  0
 29 30  1  0  0  0
 30 31  2  0  0  0
 20  1  1  0  0  0
  1  2  2  0  0  0
  1  3  1  0  0  0
  3  5  1  0  0  0
  5  6  2  0  0  0
  6  7  1  0  0  0
  7  8  2  0  0  0
  8  9  1  0  0  0
  9 10  1  0  0  0
 10 11  2  0  0  0
 11 12  1  0  0  0
 12 13  2  0  0  0
 10 14  1  0  0  0
 14 15  2  0  0  0
 15 16  1  0  0  0
 16 17  2  0  0  0
 17 18  1  0  0  0
 31 22  1  0  0  0
 13  5  1  0  0  0
 18 14  1  0  0  0
 31 26  1  0  0  0
 12  8  1  0  0  0
  3  4  1  0  0  0
M  END
> <minimizedAffinity>
4.48746

> <CNNscore>
0.4646323919

> <CNNaffinity>
6.4114050865

> <CNN_VS>
2.9789464474

> <CNNaffinity_variance>
0.5684968829

$$$$
[H]c1nc([H])c(-c2nc3c([H])c(N([H])C(=O)[C@@]([H])(Oc4c([H])c([H])c([H])c5c([H])c([H])c([H])c([H])c45)C([H])([H])[H])c([H])c([H])c3o2)o1


 31 35  0  0  0  0  0  0  0  0999 V2000
   -7.7573   -6.2706    6.9307 C   0  0  0  0  0  0  0  0  0  0  0  0
   -8.0482   -5.1712    6.4276 O   0  0  0  0  0  0  0  0  0  0  0  0
   -8.6121   -7.0990    7.6653 N   0  0  0  0  0  0  0  0  0  0  0  0
   -8.1838   -8.0123    8.0214 H   0  0  0  0  0  0  0  0  0  0  0  0
   -9.9734   -6.8843    7.9987 C   0  0  0  0  0  0  0  0  0  0  0  0
  -10.4166   -6.0635    9.0106 C   0  0  0  0  0  0  0  0  0  0  0  0
  -11.7863   -5.9131    9.2664 C   0  0  0  0  0  0  0  0  0  0  0  0
  -12.7380   -6.5694    8.5285 C   0  0  0  0  0  0  0  0  0  0  0  0
  -14.0484   -6.6307    8.5263 O   0  0  0  0  0  0  0  0  0  0  0  0
  -14.5016   -7.4157    7.6062 C   0  0  0  0  0  0  0  0  0  0  0  0
  -13.4415   -7.9101    6.9534 N   0  0  0  0  0  0  0  0  0  0  0  0
  -12.3109   -7.3899    7.5179 C   0  0  0  0  0  0  0  0  0  0  0  0
  -10.9746   -7.5412    7.2627 C   0  0  0  0  0  0  0  0  0  0  0  0
  -15.8993   -7.7272    7.3075 C   0  0  0  0  0  0  0  0  0  0  0  0
  -16.5478   -7.5641    6.0941 C   0  0  0  0  0  0  0  0  0  0  0  0
  -17.8274   -7.9620    6.2145 N   0  0  0  0  0  0  0  0  0  0  0  0
  -17.9566   -8.3670    7.5001 C   0  0  0  0  0  0  0  0  0  0  0  0
  -16.8088   -8.2176    8.1172 O   0  0  0  0  0  0  0  0  0  0  0  0
   -5.8039   -5.9500    5.4919 C   0  0  0  0  0  0  0  0  0  0  0  0
   -6.3261   -6.7230    6.7038 C   0  0  0  0  0  0  0  0  0  0  0  0
   -6.3180   -8.0847    6.5100 O   0  0  0  0  0  0  0  0  0  0  0  0
   -6.9449   -8.8366    5.5384 C   0  0  0  0  0  0  0  0  0  0  0  0
   -6.5696   -8.8296    4.2138 C   0  0  0  0  0  0  0  0  0  0  0  0
   -7.2439   -9.6073    3.3027 C   0  0  0  0  0  0  0  0  0  0  0  0
   -8.2892  -10.3875    3.7199 C   0  0  0  0  0  0  0  0  0  0  0  0
   -8.6632  -10.3940    5.0426 C   0  0  0  0  0  0  0  0  0  0  0  0
   -9.7276  -11.1878    5.4704 C   0  0  0  0  0  0  0  0  0  0  0  0
  -10.0967  -11.1891    6.7978 C   0  0  0  0  0  0  0  0  0  0  0  0
   -9.4539  -10.4301    7.7427 C   0  0  0  0  0  0  0  0  0  0  0  0
   -8.3931   -9.6449    7.2900 C   0  0  0  0  0  0  0  0  0  0  0  0
   -8.0183   -9.6385    5.9648 C   0  0  0  0  0  0  0  0  0  0  0  0
 19 20  1  0  0  0
 20 21  1  0  0  0
 21 22  1  0  0  0
 22 23  2  0  0  0
 23 24  1  0  0  0
 24 25  2  0  0  0
 25 26  1  0  0  0
 26 27  2  0  0  0
 27 28  1  0  0  0
 28 29  2  0  0  0
 29 30  1  0  0  0
 30 31  2  0  0  0
 20  1  1  0  0  0
  1  2  2  0  0  0
  1  3  1  0  0  0
  3  5  1  0  0  0
  5  6  2  0  0  0
  6  7  1  0  0  0
  7  8  2  0  0  0
  8  9  1  0  0  0
  9 10  1  0  0  0
 10 11  2  0  0  0
 11 12  1  0  0  0
 12 13  2  0  0  0
 10 14  1  0  0  0
 14 15  2  0  0  0
 15 16  1  0  0  0
 16 17  2  0  0  0
 17 18  1  0  0  0
 31 22  1  0  0  0
 13  5  1  0  0  0
 18 14  1  0  0  0
 31 26  1  0  0  0
 12  8  1  0  0  0
  3  4  1  0  0  0
M  END
> <minimizedAffinity>
5.90351

> <CNNscore>
0.4064601064

> <CNNaffinity>
6.6543035507

> <CNN_VS>
2.7047088146

> <CNNaffinity_variance>
0.9701067209

$$$$
[H]c1nc([H])c(-c2nc3c([H])c(N([H])C(=O)[C@@]([H])(Oc4c([H])c([H])c([H])c5c([H])c([H])c([H])c([H])c45)C([H])([H])[H])c([H])c([H])c3o2)o1


 31 35  0  0  0  0  0  0  0  0999 V2000
   -4.1295   -5.9242    6.1019 C   0  0  0  0  0  0  0  0  0  0  0  0
   -3.4920   -6.9820    5.9570 O   0  0  0  0  0  0  0  0  0  0  0  0
   -5.4727   -5.8095    6.4754 N   0  0  0  0  0  0  0  0  0  0  0  0
   -5.8523   -4.8121    6.5497 H   0  0  0  0  0  0  0  0  0  0  0  0
   -6.3959   -6.8450    6.7683 C   0  0  0  0  0  0  0  0  0  0  0  0
   -6.0667   -8.1714    6.9299 C   0  0  0  0  0  0  0  0  0  0  0  0
   -7.0509   -9.1263    7.2192 C   0  0  0  0  0  0  0  0  0  0  0  0
   -8.3729   -8.7871    7.3534 C   0  0  0  0  0  0  0  0  0  0  0  0
   -9.4867   -9.4302    7.6122 O   0  0  0  0  0  0  0  0  0  0  0  0
  -10.5126   -8.6459    7.6346 C   0  0  0  0  0  0  0  0  0  0  0  0
  -10.0679   -7.4087    7.3774 N   0  0  0  0  0  0  0  0  0  0  0  0
   -8.7149   -7.4699    7.1951 C   0  0  0  0  0  0  0  0  0  0  0  0
   -7.7586   -6.5322    6.9125 C   0  0  0  0  0  0  0  0  0  0  0  0
  -11.9070   -9.0073    7.8890 C   0  0  0  0  0  0  0  0  0  0  0  0
  -12.8147   -8.3199    8.6784 C   0  0  0  0  0  0  0  0  0  0  0  0
  -13.9958   -8.9642    8.6654 N   0  0  0  0  0  0  0  0  0  0  0  0
  -13.8063  -10.0424    7.8685 C   0  0  0  0  0  0  0  0  0  0  0  0
  -12.5710  -10.0414    7.4273 O   0  0  0  0  0  0  0  0  0  0  0  0
   -2.5475   -4.8861    4.5501 C   0  0  0  0  0  0  0  0  0  0  0  0
   -3.3385   -4.6555    5.8385 C   0  0  0  0  0  0  0  0  0  0  0  0
   -2.5291   -4.4058    6.9222 O   0  0  0  0  0  0  0  0  0  0  0  0
   -2.8717   -4.0467    8.2091 C   0  0  0  0  0  0  0  0  0  0  0  0
   -3.0988   -4.9576    9.2160 C   0  0  0  0  0  0  0  0  0  0  0  0
   -3.4368   -4.5224   10.4754 C   0  0  0  0  0  0  0  0  0  0  0  0
   -3.5460   -3.1797   10.7216 C   0  0  0  0  0  0  0  0  0  0  0  0
   -3.3191   -2.2708    9.7158 C   0  0  0  0  0  0  0  0  0  0  0  0
   -3.4297   -0.9024    9.9638 C   0  0  0  0  0  0  0  0  0  0  0  0
   -3.2007    0.0026    8.9504 C   0  0  0  0  0  0  0  0  0  0  0  0
   -2.8611   -0.3844    7.6788 C   0  0  0  0  0  0  0  0  0  0  0  0
   -2.7569   -1.7578    7.4561 C   0  0  0  0  0  0  0  0  0  0  0  0
   -2.9843   -2.6685    8.4639 C   0  0  0  0  0  0  0  0  0  0  0  0
 19 20  1  0  0  0
 20 21  1  0  0  0
 21 22  1  0  0  0
 22 23  2  0  0  0
 23 24  1  0  0  0
 24 25  2  0  0  0
 25 26  1  0  0  0
 26 27  2  0  0  0
 27 28  1  0  0  0
 28 29  2  0  0  0
 29 30  1  0  0  0
 30 31  2  0  0  0
 20  1  1  0  0  0
  1  2  2  0  0  0
  1  3  1  0  0  0
  3  5  1  0  0  0
  5  6  2  0  0  0
  6  7  1  0  0  0
  7  8  2  0  0  0
  8  9  1  0  0  0
  9 10  1  0  0  0
 10 11  2  0  0  0
 11 12  1  0  0  0
 12 13  2  0  0  0
 10 14  1  0  0  0
 14 15  2  0  0  0
 15 16  1  0  0  0
 16 17  2  0  0  0
 17 18  1  0  0  0
 31 22  1  0  0  0
 13  5  1  0  0  0
 18 14  1  0  0  0
 31 26  1  0  0  0
 12  8  1  0  0  0
  3  4  1  0  0  0
M  END
> <minimizedAffinity>
-6.92605

> <CNNscore>
0.3576345444

> <CNNaffinity>
5.9988088608

> <CNN_VS>
2.1453812122

> <CNNaffinity_variance>
0.0615434870

$$$$
[H]c1nc([H])c(-c2nc3c([H])c(N([H])C(=O)[C@@]([H])(Oc4c([H])c([H])c([H])c5c([H])c([H])c([H])c([H])c45)C([H])([H])[H])c([H])c([H])c3o2)o1


 31 35  0  0  0  0  0  0  0  0999 V2000
  -10.2642  -11.7626    6.3066 C   0  0  0  0  0  0  0  0  0  0  0  0
  -11.1861  -12.4945    6.7075 O   0  0  0  0  0  0  0  0  0  0  0  0
  -10.1055  -10.4008    6.5844 N   0  0  0  0  0  0  0  0  0  0  0  0
   -9.2466   -9.9336    6.1505 H   0  0  0  0  0  0  0  0  0  0  0  0
  -10.9365   -9.5598    7.3671 C   0  0  0  0  0  0  0  0  0  0  0  0
  -12.1274   -9.9426    7.9409 C   0  0  0  0  0  0  0  0  0  0  0  0
  -12.8825   -9.0389    8.7007 C   0  0  0  0  0  0  0  0  0  0  0  0
  -12.4743   -7.7457    8.9055 C   0  0  0  0  0  0  0  0  0  0  0  0
  -12.9451   -6.7016    9.5453 O   0  0  0  0  0  0  0  0  0  0  0  0
  -12.1713   -5.6727    9.4421 C   0  0  0  0  0  0  0  0  0  0  0  0
  -11.1235   -6.0416    8.6935 N   0  0  0  0  0  0  0  0  0  0  0  0
  -11.2905   -7.3511    8.3400 C   0  0  0  0  0  0  0  0  0  0  0  0
  -10.5482   -8.2287    7.5967 C   0  0  0  0  0  0  0  0  0  0  0  0
  -12.3716   -4.3438   10.0200 C   0  0  0  0  0  0  0  0  0  0  0  0
  -11.3889   -3.4402   10.3905 C   0  0  0  0  0  0  0  0  0  0  0  0
  -11.9663   -2.3288   10.8820 N   0  0  0  0  0  0  0  0  0  0  0  0
  -13.2992   -2.5566   10.8102 C   0  0  0  0  0  0  0  0  0  0  0  0
  -13.5068   -3.7472   10.3003 O   0  0  0  0  0  0  0  0  0  0  0  0
   -7.9788  -12.6373    6.2921 C   0  0  0  0  0  0  0  0  0  0  0  0
   -9.2304  -12.4505    5.4334 C   0  0  0  0  0  0  0  0  0  0  0  0
   -9.0019  -11.6729    4.3221 O   0  0  0  0  0  0  0  0  0  0  0  0
   -8.4938  -12.0299    3.0905 C   0  0  0  0  0  0  0  0  0  0  0  0
   -8.4222  -11.1670    2.0202 C   0  0  0  0  0  0  0  0  0  0  0  0
   -7.9020  -11.5965    0.8225 C   0  0  0  0  0  0  0  0  0  0  0  0
   -7.4563  -12.8858    0.7009 C   0  0  0  0  0  0  0  0  0  0  0  0
   -7.5282  -13.7467    1.7700 C   0  0  0  0  0  0  0  0  0  0  0  0
   -7.0750  -15.0605    1.6489 C   0  0  0  0  0  0  0  0  0  0  0  0
   -7.1502  -15.9177    2.7250 C   0  0  0  0  0  0  0  0  0  0  0  0
   -7.6611  -15.5342    3.9390 C   0  0  0  0  0  0  0  0  0  0  0  0
   -8.1077  -14.2158    4.0348 C   0  0  0  0  0  0  0  0  0  0  0  0
   -8.0357  -13.3532    2.9636 C   0  0  0  0  0  0  0  0  0  0  0  0
 19 20  1  0  0  0
 20 21  1  0  0  0
 21 22  1  0  0  0
 22 23  2  0  0  0
 23 24  1  0  0  0
 24 25  2  0  0  0
 25 26  1  0  0  0
 26 27  2  0  0  0
 27 28  1  0  0  0
 28 29  2  0  0  0
 29 30  1  0  0  0
 30 31  2  0  0  0
 20  1  1  0  0  0
  1  2  2  0  0  0
  1  3  1  0  0  0
  3  5  1  0  0  0
  5  6  2  0  0  0
  6  7  1  0  0  0
  7  8  2  0  0  0
  8  9  1  0  0  0
  9 10  1  0  0  0
 10 11  2  0  0  0
 11 12  1  0  0  0
 12 13  2  0  0  0
 10 14  1  0  0  0
 14 15  2  0  0  0
 15 16  1  0  0  0
 16 17  2  0  0  0
 17 18  1  0  0  0
 31 22  1  0  0  0
 13  5  1  0  0  0
 18 14  1  0  0  0
 31 26  1  0  0  0
 12  8  1  0  0  0
  3  4  1  0  0  0
M  END
> <minimizedAffinity>
23.59681

> <CNNscore>
0.3537033200

> <CNNaffinity>
5.8961195946

> <CNN_VS>
2.0854771137

> <CNNaffinity_variance>
1.0351897478

$$$$
[H]c1nc([H])c(-c2nc3c([H])c(N([H])C(=O)[C@@]([H])(Oc4c([H])c([H])c([H])c5c([H])c([H])c([H])c([H])c45)C([H])([H])[H])c([H])c([H])c3o2)o1


 31 35  0  0  0  0  0  0  0  0999 V2000
  -11.4814   -6.3941    9.2251 C   0  0  0  0  0  0  0  0  0  0  0  0
  -10.8350   -6.3001   10.2833 O   0  0  0  0  0  0  0  0  0  0  0  0
  -11.0209   -6.9260    8.0161 N   0  0  0  0  0  0  0  0  0  0  0  0
  -11.7226   -6.9239    7.2086 H   0  0  0  0  0  0  0  0  0  0  0  0
   -9.7438   -7.4676    7.7228 C   0  0  0  0  0  0  0  0  0  0  0  0
   -9.4521   -8.8114    7.6667 C   0  0  0  0  0  0  0  0  0  0  0  0
   -8.1562   -9.2538    7.3678 C   0  0  0  0  0  0  0  0  0  0  0  0
   -7.1303   -8.3781    7.1200 C   0  0  0  0  0  0  0  0  0  0  0  0
   -5.8567   -8.4822    6.8233 O   0  0  0  0  0  0  0  0  0  0  0  0
   -5.2901   -7.3303    6.6804 C   0  0  0  0  0  0  0  0  0  0  0  0
   -6.2306   -6.4002    6.8918 N   0  0  0  0  0  0  0  0  0  0  0  0
   -7.4066   -7.0372    7.1726 C   0  0  0  0  0  0  0  0  0  0  0  0
   -8.6700   -6.5984    7.4639 C   0  0  0  0  0  0  0  0  0  0  0  0
   -3.8911   -7.0586    6.3508 C   0  0  0  0  0  0  0  0  0  0  0  0
   -3.3467   -5.8435    5.9678 C   0  0  0  0  0  0  0  0  0  0  0  0
   -2.0275   -5.9937    5.7504 N   0  0  0  0  0  0  0  0  0  0  0  0
   -1.7700   -7.2992    6.0012 C   0  0  0  0  0  0  0  0  0  0  0  0
   -2.8827   -7.8991    6.3514 O   0  0  0  0  0  0  0  0  0  0  0  0
  -13.0562   -5.1721   10.6446 C   0  0  0  0  0  0  0  0  0  0  0  0
  -12.9045   -5.8698    9.2922 C   0  0  0  0  0  0  0  0  0  0  0  0
  -13.7727   -6.9254    9.1378 O   0  0  0  0  0  0  0  0  0  0  0  0
  -13.7341   -7.9687    8.2364 C   0  0  0  0  0  0  0  0  0  0  0  0
  -13.2936   -9.2329    8.5576 C   0  0  0  0  0  0  0  0  0  0  0  0
  -13.2847  -10.2224    7.6035 C   0  0  0  0  0  0  0  0  0  0  0  0
  -13.7160   -9.9435    6.3339 C   0  0  0  0  0  0  0  0  0  0  0  0
  -14.1558   -8.6811    6.0141 C   0  0  0  0  0  0  0  0  0  0  0  0
  -14.5957   -8.3941    4.7217 C   0  0  0  0  0  0  0  0  0  0  0  0
  -15.0351   -7.1263    4.4087 C   0  0  0  0  0  0  0  0  0  0  0  0
  -15.0621   -6.1074    5.3269 C   0  0  0  0  0  0  0  0  0  0  0  0
  -14.6172   -6.4195    6.6120 C   0  0  0  0  0  0  0  0  0  0  0  0
  -14.1766   -7.6843    6.9325 C   0  0  0  0  0  0  0  0  0  0  0  0
 19 20  1  0  0  0
 20 21  1  0  0  0
 21 22  1  0  0  0
 22 23  2  0  0  0
 23 24  1  0  0  0
 24 25  2  0  0  0
 25 26  1  0  0  0
 26 27  2  0  0  0
 27 28  1  0  0  0
 28 29  2  0  0  0
 29 30  1  0  0  0
 30 31  2  0  0  0
 20  1  1  0  0  0
  1  2  2  0  0  0
  1  3  1  0  0  0
  3  5  1  0  0  0
  5  6  2  0  0  0
  6  7  1  0  0  0
  7  8  2  0  0  0
  8  9  1  0  0  0
  9 10  1  0  0  0
 10 11  2  0  0  0
 11 12  1  0  0  0
 12 13  2  0  0  0
 10 14  1  0  0  0
 14 15  2  0  0  0
 15 16  1  0  0  0
 16 17  2  0  0  0
 17 18  1  0  0  0
 31 22  1  0  0  0
 13  5  1  0  0  0
 18 14  1  0  0  0
 31 26  1  0  0  0
 12  8  1  0  0  0
  3  4  1  0  0  0
M  END
> <minimizedAffinity>
-9.73194

> <CNNscore>
0.3418497145

> <CNNaffinity>
6.7145071030

> <CNN_VS>
2.2953522205

> <CNNaffinity_variance>
0.2414374650

$$$$
[H]c1nc([H])c(-c2nc3c([H])c(N([H])C(=O)[C@@]([H])(Oc4c([H])c([H])c([H])c5c([H])c([H])c([H])c([H])c45)C([H])([H])[H])c([H])c([H])c3o2)o1


 31 35  0  0  0  0  0  0  0  0999 V2000
  -13.5498   -7.9841    8.2000 C   0  0  0  0  0  0  0  0  0  0  0  0
  -13.2632   -7.8592    9.4036 O   0  0  0  0  0  0  0  0  0  0  0  0
  -12.6699   -8.3305    7.1692 N   0  0  0  0  0  0  0  0  0  0  0  0
  -13.0985   -8.3903    6.1909 H   0  0  0  0  0  0  0  0  0  0  0  0
  -11.2830   -8.6127    7.2540 C   0  0  0  0  0  0  0  0  0  0  0  0
  -10.7248   -9.8644    7.1294 C   0  0  0  0  0  0  0  0  0  0  0  0
   -9.3386  -10.0464    7.2277 C   0  0  0  0  0  0  0  0  0  0  0  0
   -8.4837   -8.9974    7.4499 C   0  0  0  0  0  0  0  0  0  0  0  0
   -7.1867   -8.8544    7.5855 O   0  0  0  0  0  0  0  0  0  0  0  0
   -6.8467   -7.6247    7.7869 C   0  0  0  0  0  0  0  0  0  0  0  0
   -7.9733   -6.8999    7.7874 N   0  0  0  0  0  0  0  0  0  0  0  0
   -9.0259   -7.7455    7.5759 C   0  0  0  0  0  0  0  0  0  0  0  0
  -10.3788   -7.5608    7.4810 C   0  0  0  0  0  0  0  0  0  0  0  0
   -5.4984   -7.0919    7.9813 C   0  0  0  0  0  0  0  0  0  0  0  0
   -4.3165   -7.6144    7.4816 C   0  0  0  0  0  0  0  0  0  0  0  0
   -3.2858   -6.8445    7.8756 N   0  0  0  0  0  0  0  0  0  0  0  0
   -3.8408   -5.8546    8.6143 C   0  0  0  0  0  0  0  0  0  0  0  0
   -5.1405   -6.0259    8.6587 O   0  0  0  0  0  0  0  0  0  0  0  0
  -15.8446   -8.5396    8.8434 C   0  0  0  0  0  0  0  0  0  0  0  0
  -15.0059   -7.7272    7.8558 C   0  0  0  0  0  0  0  0  0  0  0  0
  -15.2223   -8.0926    6.5475 O   0  0  0  0  0  0  0  0  0  0  0  0
  -16.2345   -7.7195    5.6880 C   0  0  0  0  0  0  0  0  0  0  0  0
  -17.3380   -8.5012    5.4306 C   0  0  0  0  0  0  0  0  0  0  0  0
  -18.3066   -8.0607    4.5605 C   0  0  0  0  0  0  0  0  0  0  0  0
  -18.1673   -6.8415    3.9523 C   0  0  0  0  0  0  0  0  0  0  0  0
  -17.0652   -6.0615    4.2098 C   0  0  0  0  0  0  0  0  0  0  0  0
  -16.9206   -4.8193    3.5917 C   0  0  0  0  0  0  0  0  0  0  0  0
  -15.8131   -4.0431    3.8549 C   0  0  0  0  0  0  0  0  0  0  0  0
  -14.8213   -4.4407    4.7153 C   0  0  0  0  0  0  0  0  0  0  0  0
  -14.9890   -5.6866    5.3207 C   0  0  0  0  0  0  0  0  0  0  0  0
  -16.0932   -6.4681    5.0627 C   0  0  0  0  0  0  0  0  0  0  0  0
 19 20  1  0  0  0
 20 21  1  0  0  0
 21 22  1  0  0  0
 22 23  2  0  0  0
 23 24  1  0  0  0
 24 25  2  0  0  0
 25 26  1  0  0  0
 26 27  2  0  0  0
 27 28  1  0  0  0
 28 29  2  0  0  0
 29 30  1  0  0  0
 30 31  2  0  0  0
 20  1  1  0  0  0
  1  2  2  0  0  0
  1  3  1  0  0  0
  3  5  1  0  0  0
  5  6  2  0  0  0
  6  7  1  0  0  0
  7  8  2  0  0  0
  8  9  1  0  0  0
  9 10  1  0  0  0
 10 11  2  0  0  0
 11 12  1  0  0  0
 12 13  2  0  0  0
 10 14  1  0  0  0
 14 15  2  0  0  0
 15 16  1  0  0  0
 16 17  2  0  0  0
 17 18  1  0  0  0
 31 22  1  0  0  0
 13  5  1  0  0  0
 18 14  1  0  0  0
 31 26  1  0  0  0
 12  8  1  0  0  0
  3  4  1  0  0  0
M  END
> <minimizedAffinity>
-10.04413

> <CNNscore>
0.3402346373

> <CNNaffinity>
6.8422789574

> <CNN_VS>
2.3279802799

> <CNNaffinity_variance>
0.1521003544

$$$$
[H]c1nc([H])c(-c2nc3c([H])c(N([H])C(=O)[C@@]([H])(Oc4c([H])c([H])c([H])c5c([H])c([H])c([H])c([H])c45)C([H])([H])[H])c([H])c([H])c3o2)o1


 31 35  0  0  0  0  0  0  0  0999 V2000
   -4.3384   -5.8644    6.2423 C   0  0  0  0  0  0  0  0  0  0  0  0
   -4.1180   -5.7991    7.4644 O   0  0  0  0  0  0  0  0  0  0  0  0
   -5.4329   -6.4827    5.6286 N   0  0  0  0  0  0  0  0  0  0  0  0
   -5.4546   -6.4380    4.5600 H   0  0  0  0  0  0  0  0  0  0  0  0
   -6.5174   -7.1609    6.2404 C   0  0  0  0  0  0  0  0  0  0  0  0
   -6.6283   -8.5279    6.3537 C   0  0  0  0  0  0  0  0  0  0  0  0
   -7.7406   -9.1096    6.9772 C   0  0  0  0  0  0  0  0  0  0  0  0
   -8.7585   -8.3522    7.4976 C   0  0  0  0  0  0  0  0  0  0  0  0
   -9.8888   -8.5953    8.1177 O   0  0  0  0  0  0  0  0  0  0  0  0
  -10.5258   -7.5131    8.4197 C   0  0  0  0  0  0  0  0  0  0  0  0
   -9.7868   -6.4858    7.9804 N   0  0  0  0  0  0  0  0  0  0  0  0
   -8.6610   -6.9896    7.3918 C   0  0  0  0  0  0  0  0  0  0  0  0
   -7.5774   -6.4151    6.7840 C   0  0  0  0  0  0  0  0  0  0  0  0
  -11.8106   -7.3965    9.1092 C   0  0  0  0  0  0  0  0  0  0  0  0
  -12.7221   -8.4120    9.3489 C   0  0  0  0  0  0  0  0  0  0  0  0
  -13.7828   -7.9135   10.0097 N   0  0  0  0  0  0  0  0  0  0  0  0
  -13.5162   -6.5958   10.1717 C   0  0  0  0  0  0  0  0  0  0  0  0
  -12.3520   -6.3215    9.6332 O   0  0  0  0  0  0  0  0  0  0  0  0
   -2.1348   -6.1829    5.2269 C   0  0  0  0  0  0  0  0  0  0  0  0
   -3.2955   -5.1967    5.3642 C   0  0  0  0  0  0  0  0  0  0  0  0
   -2.9190   -4.0100    5.9491 O   0  0  0  0  0  0  0  0  0  0  0  0
   -3.4642   -2.7508    5.8092 C   0  0  0  0  0  0  0  0  0  0  0  0
   -4.1026   -2.3231    4.6669 C   0  0  0  0  0  0  0  0  0  0  0  0
   -4.6212   -1.0517    4.6025 C   0  0  0  0  0  0  0  0  0  0  0  0
   -4.4992   -0.2148    5.6797 C   0  0  0  0  0  0  0  0  0  0  0  0
   -3.8617   -0.6426    6.8198 C   0  0  0  0  0  0  0  0  0  0  0  0
   -3.7359    0.2078    7.9185 C   0  0  0  0  0  0  0  0  0  0  0  0
   -3.0955   -0.2282    9.0579 C   0  0  0  0  0  0  0  0  0  0  0  0
   -2.5625   -1.4874    9.1684 C   0  0  0  0  0  0  0  0  0  0  0  0
   -2.7011   -2.3187    8.0564 C   0  0  0  0  0  0  0  0  0  0  0  0
   -3.3399   -1.8901    6.9140 C   0  0  0  0  0  0  0  0  0  0  0  0
 19 20  1  0  0  0
 20 21  1  0  0  0
 21 22  1  0  0  0
 22 23  2  0  0  0
 23 24  1  0  0  0
 24 25  2  0  0  0
 25 26  1  0  0  0
 26 27  2  0  0  0
 27 28  1  0  0  0
 28 29  2  0  0  0
 29 30  1  0  0  0
 30 31  2  0  0  0
 20  1  1  0  0  0
  1  2  2  0  0  0
  1  3  1  0  0  0
  3  5  1  0  0  0
  5  6  2  0  0  0
  6  7  1  0  0  0
  7  8  2  0  0  0
  8  9  1  0  0  0
  9 10  1  0  0  0
 10 11  2  0  0  0
 11 12  1  0  0  0
 12 13  2  0  0  0
 10 14  1  0  0  0
 14 15  2  0  0  0
 15 16  1  0  0  0
 16 17  2  0  0  0
 17 18  1  0  0  0
 31 22  1  0  0  0
 13  5  1  0  0  0
 18 14  1  0  0  0
 31 26  1  0  0  0
 12  8  1  0  0  0
  3  4  1  0  0  0
M  END
> <minimizedAffinity>
-7.17760

> <CNNscore>
0.3332340121

> <CNNaffinity>
5.9033541679

> <CNN_VS>
1.9671983719

> <CNNaffinity_variance>
0.0472698249

$$$$
[H]c1nc(Cl)c([H])c([H])c1N1C([H])([H])C([H])([H])[C@@]2([H])C([H])([H])N([H])C([H])([H])[C@]2([H])C1([H])[H]


 17 19  0  0  0  0  0  0  0  0999 V2000
  -10.4748   -7.9443    7.9588 N   0  0  0  0  0  0  0  0  0  0  0  0
  -11.0410   -6.8680    8.6921 C   0  0  0  0  0  0  0  0  0  0  0  0
  -12.3192   -7.1292    9.4129 C   0  0  0  0  0  0  0  0  0  0  0  0
  -13.0477   -8.3271    8.9499 C   0  0  0  0  0  0  0  0  0  0  0  0
  -14.5261   -8.1769    8.7469 C   0  0  0  0  0  0  0  0  0  0  0  0
  -14.8937   -9.2702    7.8473 N   0  0  0  0  0  0  0  0  0  0  0  0
  -13.6594   -9.7760    7.2607 C   0  0  0  0  0  0  0  0  0  0  0  0
  -12.6617   -8.7051    7.5097 C   0  0  0  0  0  0  0  0  0  0  0  0
  -11.2203   -9.1182    7.4742 C   0  0  0  0  0  0  0  0  0  0  0  0
  -15.3549  -10.0132    8.4394 H   0  0  0  0  0  0  0  0  0  0  0  0
   -4.6735   -7.7948    6.5802 Cl  0  0  0  0  0  0  0  0  0  0  0  0
   -6.3687   -7.8911    6.9919 C   0  0  0  0  0  0  0  0  0  0  0  0
   -6.9938   -9.0728    7.3046 C   0  0  0  0  0  0  0  0  0  0  0  0
   -8.3561   -9.0904    7.6270 C   0  0  0  0  0  0  0  0  0  0  0  0
   -9.0923   -7.9303    7.6369 C   0  0  0  0  0  0  0  0  0  0  0  0
   -8.4050   -6.7744    7.3132 C   0  0  0  0  0  0  0  0  0  0  0  0
   -7.0839   -6.7752    7.0030 N   0  0  0  0  0  0  0  0  0  0  0  0
 11 12  1  0  0  0
 12 13  2  0  0  0
 13 14  1  0  0  0
 14 15  2  0  0  0
 15 16  1  0  0  0
 16 17  2  0  0  0
 15  1  1  0  0  0
  1  2  1  0  0  0
  2  3  1  0  0  0
  3  4  1  0  0  0
  4  5  1  0  0  0
  5  6  1  0  0  0
  6  7  1  0  0  0
  7  8  1  0  0  0
  8  9  1  0  0  0
 17 12  1  0  0  0
  9  1  1  0  0  0
  8  4  1  0  0  0
  6 10  1  0  0  0
M  END
> <minimizedAffinity>
-7.28316

> <CNNscore>
0.6921507120

> <CNNaffinity>
6.1282820702

> <CNN_VS>
4.2416949272

> <CNNaffinity_variance>
0.1074965969

$$$$
[H]c1nc(Cl)c([H])c([H])c1N1C([H])([H])C([H])([H])[C@@]2([H])C([H])([H])N([H])C([H])([H])[C@]2([H])C1([H])[H]


 17 19  0  0  0  0  0  0  0  0999 V2000
   -7.0729   -9.1808    5.0080 N   0  0  0  0  0  0  0  0  0  0  0  0
   -5.8817   -8.4226    5.1594 C   0  0  0  0  0  0  0  0  0  0  0  0
   -5.4610   -8.0798    6.5475 C   0  0  0  0  0  0  0  0  0  0  0  0
   -6.5294   -8.2071    7.5586 C   0  0  0  0  0  0  0  0  0  0  0  0
   -6.6548   -7.0864    8.5475 C   0  0  0  0  0  0  0  0  0  0  0  0
   -8.0189   -7.1939    9.0645 N   0  0  0  0  0  0  0  0  0  0  0  0
   -8.7541   -8.0648    8.1565 C   0  0  0  0  0  0  0  0  0  0  0  0
   -7.9269   -8.1027    6.9242 C   0  0  0  0  0  0  0  0  0  0  0  0
   -8.1466   -9.2727    6.0118 C   0  0  0  0  0  0  0  0  0  0  0  0
   -7.9503   -7.6309   10.0236 H   0  0  0  0  0  0  0  0  0  0  0  0
   -7.9561  -12.2089   -0.0543 Cl  0  0  0  0  0  0  0  0  0  0  0  0
   -7.7331  -11.3533    1.4525 C   0  0  0  0  0  0  0  0  0  0  0  0
   -8.4345  -11.6571    2.5930 C   0  0  0  0  0  0  0  0  0  0  0  0
   -8.2144  -10.9372    3.7735 C   0  0  0  0  0  0  0  0  0  0  0  0
   -7.2959   -9.9161    3.8145 C   0  0  0  0  0  0  0  0  0  0  0  0
   -6.6228   -9.6596    2.6337 C   0  0  0  0  0  0  0  0  0  0  0  0
   -6.8484  -10.3674    1.4980 N   0  0  0  0  0  0  0  0  0  0  0  0
 11 12  1  0  0  0
 12 13  2  0  0  0
 13 14  1  0  0  0
 14 15  2  0  0  0
 15 16  1  0  0  0
 16 17  2  0  0  0
 15  1  1  0  0  0
  1  2  1  0  0  0
  2  3  1  0  0  0
  3  4  1  0  0  0
  4  5  1  0  0  0
  5  6  1  0  0  0
  6  7  1  0  0  0
  7  8  1  0  0  0
  8  9  1  0  0  0
 17 12  1  0  0  0
  9  1  1  0  0  0
  8  4  1  0  0  0
  6 10  1  0  0  0
M  END
> <minimizedAffinity>
7.53210

> <CNNscore>
0.6058361530

> <CNNaffinity>
5.1072974205

> <CNN_VS>
3.0941853523

> <CNNaffinity_variance>
0.7099364400

$$$$
[H]c1nc(Cl)c([H])c([H])c1N1C([H])([H])C([H])([H])[C@@]2([H])C([H])([H])N([H])C([H])([H])[C@]2([H])C1([H])[H]


 17 19  0  0  0  0  0  0  0  0999 V2000
   -7.0747   -8.7833    5.7414 N   0  0  0  0  0  0  0  0  0  0  0  0
   -8.3449   -9.3650    5.9963 C   0  0  0  0  0  0  0  0  0  0  0  0
   -8.7041  -10.5883    5.2245 C   0  0  0  0  0  0  0  0  0  0  0  0
   -7.8897  -10.8070    4.0124 C   0  0  0  0  0  0  0  0  0  0  0  0
   -8.6298  -11.1972    2.7677 C   0  0  0  0  0  0  0  0  0  0  0  0
   -7.7229  -10.8590    1.6710 N   0  0  0  0  0  0  0  0  0  0  0  0
   -6.6997   -9.9770    2.2174 C   0  0  0  0  0  0  0  0  0  0  0  0
   -7.2689   -9.4956    3.5014 C   0  0  0  0  0  0  0  0  0  0  0  0
   -6.2873   -8.9836    4.5132 C   0  0  0  0  0  0  0  0  0  0  0  0
   -7.2931  -11.7644    1.3377 H   0  0  0  0  0  0  0  0  0  0  0  0
   -4.5163   -5.1729    9.7410 Cl  0  0  0  0  0  0  0  0  0  0  0  0
   -5.2956   -6.2510    8.6085 C   0  0  0  0  0  0  0  0  0  0  0  0
   -6.2474   -7.1661    8.9847 C   0  0  0  0  0  0  0  0  0  0  0  0
   -6.8390   -8.0056    8.0332 C   0  0  0  0  0  0  0  0  0  0  0  0
   -6.4806   -7.9310    6.7088 C   0  0  0  0  0  0  0  0  0  0  0  0
   -5.5173   -6.9896    6.3944 C   0  0  0  0  0  0  0  0  0  0  0  0
   -4.9539   -6.1836    7.3296 N   0  0  0  0  0  0  0  0  0  0  0  0
 11 12  1  0  0  0
 12 13  2  0  0  0
 13 14  1  0  0  0
 14 15  2  0  0  0
 15 16  1  0  0  0
 16 17  2  0  0  0
 15  1  1  0  0  0
  1  2  1  0  0  0
  2  3  1  0  0  0
  3  4  1  0  0  0
  4  5  1  0  0  0
  5  6  1  0  0  0
  6  7  1  0  0  0
  7  8  1  0  0  0
  8  9  1  0  0  0
 17 12  1  0  0  0
  9  1  1  0  0  0
  8  4  1  0  0  0
  6 10  1  0  0  0
M  END
> <minimizedAffinity>
10.27415

> <CNNscore>
0.4916705191

> <CNNaffinity>
4.9433007240

> <CNN_VS>
2.4304752350

> <CNNaffinity_variance>
0.6441205740

$$$$
[H]c1nc(Cl)c([H])c([H])c1N1C([H])([H])C([H])([H])[C@@]2([H])C([H])([H])N([H])C([H])([H])[C@]2([H])C1([H])[H]


 17 19  0  0  0  0  0  0  0  0999 V2000
  -16.0261   -6.8318    4.2768 N   0  0  0  0  0  0  0  0  0  0  0  0
  -17.0655   -6.2137    5.0215 C   0  0  0  0  0  0  0  0  0  0  0  0
  -17.2084   -4.7352    4.8992 C   0  0  0  0  0  0  0  0  0  0  0  0
  -16.0182   -4.0492    4.3578 C   0  0  0  0  0  0  0  0  0  0  0  0
  -15.5871   -2.7969    5.0614 C   0  0  0  0  0  0  0  0  0  0  0  0
  -14.1845   -2.6201    4.6860 N   0  0  0  0  0  0  0  0  0  0  0  0
  -13.7276   -3.8858    4.1269 C   0  0  0  0  0  0  0  0  0  0  0  0
  -14.7395   -4.8771    4.5715 C   0  0  0  0  0  0  0  0  0  0  0  0
  -14.8273   -6.1422    3.7707 C   0  0  0  0  0  0  0  0  0  0  0  0
  -14.1561   -1.8592    3.9540 H   0  0  0  0  0  0  0  0  0  0  0  0
  -16.2517  -12.6470    2.9696 Cl  0  0  0  0  0  0  0  0  0  0  0  0
  -16.2320  -10.9485    3.3782 C   0  0  0  0  0  0  0  0  0  0  0  0
  -17.2422  -10.3390    4.0803 C   0  0  0  0  0  0  0  0  0  0  0  0
  -17.1733   -8.9731    4.3799 C   0  0  0  0  0  0  0  0  0  0  0  0
  -16.0978   -8.2178    3.9791 C   0  0  0  0  0  0  0  0  0  0  0  0
  -15.1144   -8.8901    3.2761 C   0  0  0  0  0  0  0  0  0  0  0  0
  -15.1970  -10.2149    2.9941 N   0  0  0  0  0  0  0  0  0  0  0  0
 11 12  1  0  0  0
 12 13  2  0  0  0
 13 14  1  0  0  0
 14 15  2  0  0  0
 15 16  1  0  0  0
 16 17  2  0  0  0
 15  1  1  0  0  0
  1  2  1  0  0  0
  2  3  1  0  0  0
  3  4  1  0  0  0
  4  5  1  0  0  0
  5  6  1  0  0  0
  6  7  1  0  0  0
  7  8  1  0  0  0
  8  9  1  0  0  0
 17 12  1  0  0  0
  9  1  1  0  0  0
  8  4  1  0  0  0
  6 10  1  0  0  0
M  END
> <minimizedAffinity>
11.00597

> <CNNscore>
0.4646257758

> <CNNaffinity>
6.0799040794

> <CNN_VS>
2.8248801231

> <CNNaffinity_variance>
1.4254567623

$$$$
[H]c1nc(Cl)c([H])c([H])c1N1C([H])([H])C([H])([H])[C@@]2([H])C([H])([H])N([H])C([H])([H])[C@]2([H])C1([H])[H]


 17 19  0  0  0  0  0  0  0  0999 V2000
  -12.7583   -8.2799    7.6133 N   0  0  0  0  0  0  0  0  0  0  0  0
  -13.3243   -7.6705    8.7644 C   0  0  0  0  0  0  0  0  0  0  0  0
  -14.7794   -7.8843    9.0059 C   0  0  0  0  0  0  0  0  0  0  0  0
  -15.5332   -8.3469    7.8237 C   0  0  0  0  0  0  0  0  0  0  0  0
  -16.8471   -7.6735    7.5595 C   0  0  0  0  0  0  0  0  0  0  0  0
  -17.1186   -7.9241    6.1442 N   0  0  0  0  0  0  0  0  0  0  0  0
  -15.8694   -8.3695    5.5404 C   0  0  0  0  0  0  0  0  0  0  0  0
  -14.8214   -7.9699    6.5132 C   0  0  0  0  0  0  0  0  0  0  0  0
  -13.5181   -8.7069    6.4263 C   0  0  0  0  0  0  0  0  0  0  0  0
  -17.8450   -8.6896    6.1018 H   0  0  0  0  0  0  0  0  0  0  0  0
   -6.8627   -9.1493    7.3618 Cl  0  0  0  0  0  0  0  0  0  0  0  0
   -8.5968   -8.9456    7.4219 C   0  0  0  0  0  0  0  0  0  0  0  0
   -9.4768   -9.9570    7.1257 C   0  0  0  0  0  0  0  0  0  0  0  0
  -10.8579   -9.7367    7.1906 C   0  0  0  0  0  0  0  0  0  0  0  0
  -11.3588   -8.5089    7.5506 C   0  0  0  0  0  0  0  0  0  0  0  0
  -10.4214   -7.5328    7.8365 C   0  0  0  0  0  0  0  0  0  0  0  0
   -9.0857   -7.7634    7.7685 N   0  0  0  0  0  0  0  0  0  0  0  0
 11 12  1  0  0  0
 12 13  2  0  0  0
 13 14  1  0  0  0
 14 15  2  0  0  0
 15 16  1  0  0  0
 16 17  2  0  0  0
 15  1  1  0  0  0
  1  2  1  0  0  0
  2  3  1  0  0  0
  3  4  1  0  0  0
  4  5  1  0  0  0
  5  6  1  0  0  0
  6  7  1  0  0  0
  7  8  1  0  0  0
  8  9  1  0  0  0
 17 12  1  0  0  0
  9  1  1  0  0  0
  8  4  1  0  0  0
  6 10  1  0  0  0
M  END
> <minimizedAffinity>
-6.99142

> <CNNscore>
0.4603585303

> <CNNaffinity>
6.0173087120

> <CNN_VS>
2.7701194286

> <CNNaffinity_variance>
0.0716799945

$$$$
[H]c1nc(Cl)c([H])c([H])c1N1C([H])([H])C([H])([H])[C@@]2([H])C([H])([H])N([H])C([H])([H])[C@]2([H])C1([H])[H]


 17 19  0  0  0  0  0  0  0  0999 V2000
  -16.4046   -6.6262    5.5733 N   0  0  0  0  0  0  0  0  0  0  0  0
  -16.9627   -6.2840    6.8335 C   0  0  0  0  0  0  0  0  0  0  0  0
  -17.5148   -7.3938    7.6611 C   0  0  0  0  0  0  0  0  0  0  0  0
  -17.7890   -8.6363    6.9120 C   0  0  0  0  0  0  0  0  0  0  0  0
  -19.0982   -9.3129    7.1903 C   0  0  0  0  0  0  0  0  0  0  0  0
  -19.3374  -10.1609    6.0227 N   0  0  0  0  0  0  0  0  0  0  0  0
  -18.4326   -9.7102    4.9731 C   0  0  0  0  0  0  0  0  0  0  0  0
  -17.9938   -8.3616    5.4124 C   0  0  0  0  0  0  0  0  0  0  0  0
  -16.7122   -7.8543    4.8210 C   0  0  0  0  0  0  0  0  0  0  0  0
  -19.1084  -11.1510    6.3103 H   0  0  0  0  0  0  0  0  0  0  0  0
  -12.5817   -2.8615    2.9676 Cl  0  0  0  0  0  0  0  0  0  0  0  0
  -13.6748   -4.0049    3.7093 C   0  0  0  0  0  0  0  0  0  0  0  0
  -13.5702   -5.3617    3.5274 C   0  0  0  0  0  0  0  0  0  0  0  0
  -14.4751   -6.2319    4.1471 C   0  0  0  0  0  0  0  0  0  0  0  0
  -15.4823   -5.7478    4.9467 C   0  0  0  0  0  0  0  0  0  0  0  0
  -15.5337   -4.3730    5.0897 C   0  0  0  0  0  0  0  0  0  0  0  0
  -14.6483   -3.5437    4.4816 N   0  0  0  0  0  0  0  0  0  0  0  0
 11 12  1  0  0  0
 12 13  2  0  0  0
 13 14  1  0  0  0
 14 15  2  0  0  0
 15 16  1  0  0  0
 16 17  2  0  0  0
 15  1  1  0  0  0
  1  2  1  0  0  0
  2  3  1  0  0  0
  3  4  1  0  0  0
  4  5  1  0  0  0
  5  6  1  0  0  0
  6  7  1  0  0  0
  7  8  1  0  0  0
  8  9  1  0  0  0
 17 12  1  0  0  0
  9  1  1  0  0  0
  8  4  1  0  0  0
  6 10  1  0  0  0
M  END
> <minimizedAffinity>
15.76975

> <CNNscore>
0.4477923214

> <CNNaffinity>
5.9401712418

> <CNN_VS>
2.6599631310

> <CNNaffinity_variance>
1.9053933620

$$$$
[H]c1nc(Cl)c([H])c([H])c1N1C([H])([H])C([H])([H])[C@@]2([H])C([H])([H])N([H])C([H])([H])[C@]2([H])C1([H])[H]


 17 19  0  0  0  0  0  0  0  0999 V2000
  -12.9302   -8.6875    6.8942 N   0  0  0  0  0  0  0  0  0  0  0  0
  -13.4523   -8.9541    5.6007 C   0  0  0  0  0  0  0  0  0  0  0  0
  -14.7495   -8.3141    5.2416 C   0  0  0  0  0  0  0  0  0  0  0  0
  -15.5295   -7.8250    6.3959 C   0  0  0  0  0  0  0  0  0  0  0  0
  -16.9966   -8.1365    6.3952 C   0  0  0  0  0  0  0  0  0  0  0  0
  -17.4061   -8.0146    7.7941 N   0  0  0  0  0  0  0  0  0  0  0  0
  -16.1911   -8.0196    8.5985 C   0  0  0  0  0  0  0  0  0  0  0  0
  -15.1459   -8.5587    7.6923 C   0  0  0  0  0  0  0  0  0  0  0  0
  -13.7257   -8.2313    8.0465 C   0  0  0  0  0  0  0  0  0  0  0  0
  -17.9092   -7.0906    7.8874 H   0  0  0  0  0  0  0  0  0  0  0  0
   -7.1186   -9.5320    7.9382 Cl  0  0  0  0  0  0  0  0  0  0  0  0
   -8.8163   -9.2353    7.6519 C   0  0  0  0  0  0  0  0  0  0  0  0
   -9.4327   -8.0538    7.9825 C   0  0  0  0  0  0  0  0  0  0  0  0
  -10.7975   -7.8713    7.7297 C   0  0  0  0  0  0  0  0  0  0  0  0
  -11.5451   -8.8667    7.1481 C   0  0  0  0  0  0  0  0  0  0  0  0
  -10.8663  -10.0316    6.8392 C   0  0  0  0  0  0  0  0  0  0  0  0
   -9.5425  -10.1920    7.0912 N   0  0  0  0  0  0  0  0  0  0  0  0
 11 12  1  0  0  0
 12 13  2  0  0  0
 13 14  1  0  0  0
 14 15  2  0  0  0
 15 16  1  0  0  0
 16 17  2  0  0  0
 15  1  1  0  0  0
  1  2  1  0  0  0
  2  3  1  0  0  0
  3  4  1  0  0  0
  4  5  1  0  0  0
  5  6  1  0  0  0
  6  7  1  0  0  0
  7  8  1  0  0  0
  8  9  1  0  0  0
 17 12  1  0  0  0
  9  1  1  0  0  0
  8  4  1  0  0  0
  6 10  1  0  0  0
M  END
> <minimizedAffinity>
-6.37838

> <CNNscore>
0.3589043021

> <CNNaffinity>
5.9895462990

> <CNN_VS>
2.1496739388

> <CNNaffinity_variance>
0.1146044135

$$$$
[H]c1nc(Cl)c([H])c([H])c1N1C([H])([H])C([H])([H])[C@@]2([H])C([H])([H])N([H])C([H])([H])[C@]2([H])C1([H])[H]


 17 19  0  0  0  0  0  0  0  0999 V2000
  -14.0601   -6.8992    7.1689 N   0  0  0  0  0  0  0  0  0  0  0  0
  -14.9235   -5.9167    6.6157 C   0  0  0  0  0  0  0  0  0  0  0  0
  -15.9846   -6.3872    5.6807 C   0  0  0  0  0  0  0  0  0  0  0  0
  -15.7557   -7.7363    5.1261 C   0  0  0  0  0  0  0  0  0  0  0  0
  -15.9897   -7.9057    3.6544 C   0  0  0  0  0  0  0  0  0  0  0  0
  -15.2380   -9.1068    3.2913 N   0  0  0  0  0  0  0  0  0  0  0  0
  -14.3199   -9.3857    4.3879 C   0  0  0  0  0  0  0  0  0  0  0  0
  -14.2663   -8.1193    5.1610 C   0  0  0  0  0  0  0  0  0  0  0  0
  -13.8153   -8.2297    6.5872 C   0  0  0  0  0  0  0  0  0  0  0  0
  -15.9403   -9.8888    3.1871 H   0  0  0  0  0  0  0  0  0  0  0  0
  -11.0260   -5.8141   12.1883 Cl  0  0  0  0  0  0  0  0  0  0  0  0
  -11.9490   -6.0934   10.7315 C   0  0  0  0  0  0  0  0  0  0  0  0
  -13.0927   -5.3969   10.4287 C   0  0  0  0  0  0  0  0  0  0  0  0
  -13.7926   -5.6631    9.2457 C   0  0  0  0  0  0  0  0  0  0  0  0
  -13.3510   -6.6230    8.3672 C   0  0  0  0  0  0  0  0  0  0  0  0
  -12.1940   -7.2887    8.7295 C   0  0  0  0  0  0  0  0  0  0  0  0
  -11.5278   -7.0181    9.8804 N   0  0  0  0  0  0  0  0  0  0  0  0
 11 12  1  0  0  0
 12 13  2  0  0  0
 13 14  1  0  0  0
 14 15  2  0  0  0
 15 16  1  0  0  0
 16 17  2  0  0  0
 15  1  1  0  0  0
  1  2  1  0  0  0
  2  3  1  0  0  0
  3  4  1  0  0  0
  4  5  1  0  0  0
  5  6  1  0  0  0
  6  7  1  0  0  0
  7  8  1  0  0  0
  8  9  1  0  0  0
 17 12  1  0  0  0
  9  1  1  0  0  0
  8  4  1  0  0  0
  6 10  1  0  0  0
M  END
> <minimizedAffinity>
-4.08398

> <CNNscore>
0.3574857414

> <CNNaffinity>
5.8080372810

> <CNN_VS>
2.0762906075

> <CNNaffinity_variance>
0.1390968859

$$$$
[H]c1nc(Cl)c([H])c([H])c1N1C([H])([H])C([H])([H])[C@@]2([H])C([H])([H])N([H])C([H])([H])[C@]2([H])C1([H])[H]


 17 19  0  0  0  0  0  0  0  0999 V2000
   -8.3792   -6.9654    7.4224 N   0  0  0  0  0  0  0  0  0  0  0  0
   -8.2927   -6.3416    6.1496 C   0  0  0  0  0  0  0  0  0  0  0  0
   -7.0346   -6.5389    5.3753 C   0  0  0  0  0  0  0  0  0  0  0  0
   -5.8878   -7.0030    6.1813 C   0  0  0  0  0  0  0  0  0  0  0  0
   -4.5756   -6.3185    5.9382 C   0  0  0  0  0  0  0  0  0  0  0  0
   -3.7891   -6.5771    7.1440 N   0  0  0  0  0  0  0  0  0  0  0  0
   -4.7157   -7.0396    8.1692 C   0  0  0  0  0  0  0  0  0  0  0  0
   -6.0556   -6.6431    7.6674 C   0  0  0  0  0  0  0  0  0  0  0  0
   -7.2253   -7.3938    8.2310 C   0  0  0  0  0  0  0  0  0  0  0  0
   -3.0953   -7.3356    6.9014 H   0  0  0  0  0  0  0  0  0  0  0  0
  -13.7082   -7.9133    9.9285 Cl  0  0  0  0  0  0  0  0  0  0  0  0
  -12.1524   -7.6817    9.1681 C   0  0  0  0  0  0  0  0  0  0  0  0
  -11.6014   -8.5957    8.3044 C   0  0  0  0  0  0  0  0  0  0  0  0
  -10.3499   -8.3574    7.7237 C   0  0  0  0  0  0  0  0  0  0  0  0
   -9.6503   -7.2088    8.0054 C   0  0  0  0  0  0  0  0  0  0  0  0
  -10.2590   -6.3290    8.8821 C   0  0  0  0  0  0  0  0  0  0  0  0
  -11.4730   -6.5756    9.4361 N   0  0  0  0  0  0  0  0  0  0  0  0
 11 12  1  0  0  0
 12 13  2  0  0  0
 13 14  1  0  0  0
 14 15  2  0  0  0
 15 16  1  0  0  0
 16 17  2  0  0  0
 15  1  1  0  0  0
  1  2  1  0  0  0
  2  3  1  0  0  0
  3  4  1  0  0  0
  4  5  1  0  0  0
  5  6  1  0  0  0
  6  7  1  0  0  0
  7  8  1  0  0  0
  8  9  1  0  0  0
 17 12  1  0  0  0
  9  1  1  0  0  0
  8  4  1  0  0  0
  6 10  1  0  0  0
M  END
> <minimizedAffinity>
-5.90699

> <CNNscore>
0.3454250693

> <CNNaffinity>
5.0938062668

> <CNN_VS>
1.7595283985

> <CNNaffinity_variance>
0.1249416247

$$$$
[H]OC(=O)[C@@]([H])(N([H])C(=O)[C@@]([H])(N([H])C(=O)[C@@]([H])(N([H])C(=O)OC([H])([H])c1c([H])c([H])c([H])c([H])c1[H])C([H])([H])c1c([H])nc([H])n1[H])C([H])([H])C([H])(C([H])([H])[H])C([H])([H])[H])C([H])([H])C([H])([H])SC([H])([H])[H]


 42 43  0  0  0  0  0  0  0  0999 V2000
  -15.5293   -8.9014    5.7019 N   0  0  0  0  0  0  0  0  0  0  0  0
  -14.1629   -9.1673    5.7898 C   0  0  0  0  0  0  0  0  0  0  0  0
  -13.5034   -9.3276    4.7084 O   0  0  0  0  0  0  0  0  0  0  0  0
  -16.1641   -8.7544    6.5107 H   0  0  0  0  0  0  0  0  0  0  0  0
  -16.2371   -8.7965    4.3718 C   0  0  0  0  0  0  0  0  0  0  0  0
  -16.2363   -6.2721    4.8535 N   0  0  0  0  0  0  0  0  0  0  0  0
  -16.2513   -7.3980    3.9904 C   0  0  0  0  0  0  0  0  0  0  0  0
  -16.2902   -7.1500    2.7329 O   0  0  0  0  0  0  0  0  0  0  0  0
  -16.2010   -6.3606    5.8952 H   0  0  0  0  0  0  0  0  0  0  0  0
  -16.2723   -4.9330    4.2326 C   0  0  0  0  0  0  0  0  0  0  0  0
  -14.9997   -4.2419    4.4969 C   0  0  0  0  0  0  0  0  0  0  0  0
  -14.7639   -2.9629    4.0146 O   0  0  0  0  0  0  0  0  0  0  0  0
  -14.0975   -4.8308    5.1760 O   0  0  0  0  0  0  0  0  0  0  0  0
  -14.6956   -2.7763    3.0119 H   0  0  0  0  0  0  0  0  0  0  0  0
  -17.4657   -4.2154    4.8772 C   0  0  0  0  0  0  0  0  0  0  0  0
  -18.7513   -4.7201    4.2965 C   0  0  0  0  0  0  0  0  0  0  0  0
  -19.5370   -2.6142    6.2181 C   0  0  0  0  0  0  0  0  0  0  0  0
  -20.0665   -3.5198    4.7290 S   0  0  0  0  0  0  0  0  0  0  0  0
  -17.5011   -9.5522    4.4982 C   0  0  0  0  0  0  0  0  0  0  0  0
  -18.6104   -8.8964    5.2140 C   0  0  0  0  0  0  0  0  0  0  0  0
  -19.7527   -9.7706    5.6103 C   0  0  0  0  0  0  0  0  0  0  0  0
  -19.1154   -7.6929    4.4039 C   0  0  0  0  0  0  0  0  0  0  0  0
  -13.5050   -9.2614    7.0934 C   0  0  0  0  0  0  0  0  0  0  0  0
  -12.2873   -8.4860    7.1819 N   0  0  0  0  0  0  0  0  0  0  0  0
  -11.0455   -9.2230    7.1652 C   0  0  0  0  0  0  0  0  0  0  0  0
  -11.0331  -10.4713    7.0846 O   0  0  0  0  0  0  0  0  0  0  0  0
  -12.3166   -7.4509    7.2544 H   0  0  0  0  0  0  0  0  0  0  0  0
   -9.8012   -8.5778    7.2382 O   0  0  0  0  0  0  0  0  0  0  0  0
   -8.6377   -9.3238    7.3891 C   0  0  0  0  0  0  0  0  0  0  0  0
   -7.3789   -8.5877    7.3813 C   0  0  0  0  0  0  0  0  0  0  0  0
   -6.4690   -8.5989    6.3521 C   0  0  0  0  0  0  0  0  0  0  0  0
   -5.2764   -7.8635    6.4167 C   0  0  0  0  0  0  0  0  0  0  0  0
   -4.9685   -7.0968    7.5207 C   0  0  0  0  0  0  0  0  0  0  0  0
   -5.8904   -7.0876    8.5591 C   0  0  0  0  0  0  0  0  0  0  0  0
   -7.0551   -7.8051    8.4971 C   0  0  0  0  0  0  0  0  0  0  0  0
  -14.4647   -8.8326    8.2250 C   0  0  0  0  0  0  0  0  0  0  0  0
  -13.8774   -7.7381    9.0395 C   0  0  0  0  0  0  0  0  0  0  0  0
  -13.9382   -6.3996    8.7183 C   0  0  0  0  0  0  0  0  0  0  0  0
  -13.2958   -5.7306    9.6873 N   0  0  0  0  0  0  0  0  0  0  0  0
  -12.8622   -6.6439   10.5652 C   0  0  0  0  0  0  0  0  0  0  0  0
  -13.2096   -7.8827   10.1852 N   0  0  0  0  0  0  0  0  0  0  0  0
  -12.9682   -8.7502   10.7317 H   0  0  0  0  0  0  0  0  0  0  0  0
 17 18  1  0  0  0
 18 16  1  0  0  0
 16 15  1  0  0  0
 15 10  1  0  0  0
 10  6  1  0  0  0
  6  7  1  0  0  0
  7  8  2  0  0  0
  7  5  1  0  0  0
  5 19  1  0  0  0
 19 20  1  0  0  0
 20 21  1  0  0  0
 20 22  1  0  0  0
  5  1  1  0  0  0
  1  2  1  0  0  0
  2  3  2  0  0  0
  2 23  1  0  0  0
 23 36  1  0  0  0
 36 37  1  0  0  0
 37 38  2  0  0  0
 38 39  1  0  0  0
 39 40  2  0  0  0
 40 41  1  0  0  0
 23 24  1  0  0  0
 24 25  1  0  0  0
 25 26  2  0  0  0
 25 28  1  0  0  0
 28 29  1  0  0  0
 29 30  1  0  0  0
 30 31  2  0  0  0
 31 32  1  0  0  0
 32 33  2  0  0  0
 33 34  1  0  0  0
 34 35  2  0  0  0
 10 11  1  0  0  0
 11 12  1  0  0  0
 11 13  2  0  0  0
 41 37  1  0  0  0
 35 30  1  0  0  0
  6  9  1  0  0  0
  1  4  1  0  0  0
 41 42  1  0  0  0
 24 27  1  0  0  0
 12 14  1  0  0  0
M  END
> <minimizedAffinity>
-1.41174

> <CNNscore>
0.2599596679

> <CNNaffinity>
6.9642791748

> <CNN_VS>
1.8104317188

> <CNNaffinity_variance>
0.2413874865

$$$$
[H]OC(=O)[C@@]([H])(N([H])C(=O)[C@@]([H])(N([H])C(=O)[C@@]([H])(N([H])C(=O)OC([H])([H])c1c([H])c([H])c([H])c([H])c1[H])C([H])([H])c1c([H])nc([H])n1[H])C([H])([H])C([H])(C([H])([H])[H])C([H])([H])[H])C([H])([H])C([H])([H])SC([H])([H])[H]


 42 43  0  0  0  0  0  0  0  0999 V2000
   -9.0328   -7.8498    7.8759 N   0  0  0  0  0  0  0  0  0  0  0  0
  -10.0547   -8.7737    7.6576 C   0  0  0  0  0  0  0  0  0  0  0  0
   -9.7369   -9.9856    7.4118 O   0  0  0  0  0  0  0  0  0  0  0  0
   -9.1713   -6.8414    8.0829 H   0  0  0  0  0  0  0  0  0  0  0  0
   -7.5762   -8.2468    7.8320 C   0  0  0  0  0  0  0  0  0  0  0  0
   -5.4799   -6.9456    8.5510 N   0  0  0  0  0  0  0  0  0  0  0  0
   -6.7871   -7.0436    8.0086 C   0  0  0  0  0  0  0  0  0  0  0  0
   -7.3344   -5.9435    7.6416 O   0  0  0  0  0  0  0  0  0  0  0  0
   -4.9408   -7.7805    8.8775 H   0  0  0  0  0  0  0  0  0  0  0  0
   -4.8779   -5.6009    8.6477 C   0  0  0  0  0  0  0  0  0  0  0  0
   -4.0830   -5.3375    7.4370 C   0  0  0  0  0  0  0  0  0  0  0  0
   -4.6835   -4.9019    6.2650 O   0  0  0  0  0  0  0  0  0  0  0  0
   -2.8226   -5.5178    7.4648 O   0  0  0  0  0  0  0  0  0  0  0  0
   -5.3356   -5.4958    5.7483 H   0  0  0  0  0  0  0  0  0  0  0  0
   -4.0116   -5.6309    9.9140 C   0  0  0  0  0  0  0  0  0  0  0  0
   -4.3078   -4.4410   10.7748 C   0  0  0  0  0  0  0  0  0  0  0  0
   -3.8346   -4.4161   13.6938 C   0  0  0  0  0  0  0  0  0  0  0  0
   -4.9262   -5.0593   12.3851 S   0  0  0  0  0  0  0  0  0  0  0  0
   -7.3982   -9.0909    6.6319 C   0  0  0  0  0  0  0  0  0  0  0  0
   -6.4407   -8.6226    5.6137 C   0  0  0  0  0  0  0  0  0  0  0  0
   -5.0154   -8.5174    6.0422 C   0  0  0  0  0  0  0  0  0  0  0  0
   -6.9195   -7.2888    5.0210 C   0  0  0  0  0  0  0  0  0  0  0  0
  -11.4570   -8.3589    7.7084 C   0  0  0  0  0  0  0  0  0  0  0  0
  -12.3152   -9.1185    6.8262 N   0  0  0  0  0  0  0  0  0  0  0  0
  -13.4973   -8.4496    6.3356 C   0  0  0  0  0  0  0  0  0  0  0  0
  -13.7618   -7.2730    6.6679 O   0  0  0  0  0  0  0  0  0  0  0  0
  -12.0833  -10.0962    6.5658 H   0  0  0  0  0  0  0  0  0  0  0  0
  -14.4001   -9.0839    5.4681 O   0  0  0  0  0  0  0  0  0  0  0  0
  -14.6922   -8.5185    4.2320 C   0  0  0  0  0  0  0  0  0  0  0  0
  -15.8600   -7.6475    4.1667 C   0  0  0  0  0  0  0  0  0  0  0  0
  -15.8183   -6.2746    4.1942 C   0  0  0  0  0  0  0  0  0  0  0  0
  -16.9868   -5.5018    4.1272 C   0  0  0  0  0  0  0  0  0  0  0  0
  -18.2294   -6.0920    4.0308 C   0  0  0  0  0  0  0  0  0  0  0  0
  -18.2679   -7.4798    4.0031 C   0  0  0  0  0  0  0  0  0  0  0  0
  -17.1278   -8.2353    4.0684 C   0  0  0  0  0  0  0  0  0  0  0  0
  -12.0038   -8.4468    9.1502 C   0  0  0  0  0  0  0  0  0  0  0  0
  -12.3383   -7.0999    9.6793 C   0  0  0  0  0  0  0  0  0  0  0  0
  -11.4134   -6.1643   10.0890 C   0  0  0  0  0  0  0  0  0  0  0  0
  -12.0970   -5.0865   10.5016 N   0  0  0  0  0  0  0  0  0  0  0  0
  -13.3962   -5.3689   10.3430 C   0  0  0  0  0  0  0  0  0  0  0  0
  -13.5649   -6.6007    9.8389 N   0  0  0  0  0  0  0  0  0  0  0  0
  -14.5077   -7.0242    9.6360 H   0  0  0  0  0  0  0  0  0  0  0  0
 17 18  1  0  0  0
 18 16  1  0  0  0
 16 15  1  0  0  0
 15 10  1  0  0  0
 10  6  1  0  0  0
  6  7  1  0  0  0
  7  8  2  0  0  0
  7  5  1  0  0  0
  5 19  1  0  0  0
 19 20  1  0  0  0
 20 21  1  0  0  0
 20 22  1  0  0  0
  5  1  1  0  0  0
  1  2  1  0  0  0
  2  3  2  0  0  0
  2 23  1  0  0  0
 23 36  1  0  0  0
 36 37  1  0  0  0
 37 38  2  0  0  0
 38 39  1  0  0  0
 39 40  2  0  0  0
 40 41  1  0  0  0
 23 24  1  0  0  0
 24 25  1  0  0  0
 25 26  2  0  0  0
 25 28  1  0  0  0
 28 29  1  0  0  0
 29 30  1  0  0  0
 30 31  2  0  0  0
 31 32  1  0  0  0
 32 33  2  0  0  0
 33 34  1  0  0  0
 34 35  2  0  0  0
 10 11  1  0  0  0
 11 12  1  0  0  0
 11 13  2  0  0  0
 41 37  1  0  0  0
 35 30  1  0  0  0
  6  9  1  0  0  0
  1  4  1  0  0  0
 41 42  1  0  0  0
 24 27  1  0  0  0
 12 14  1  0  0  0
M  END
> <minimizedAffinity>
-7.21044

> <CNNscore>
0.2557288408

> <CNNaffinity>
6.8891854286

> <CNN_VS>
1.7617634535

> <CNNaffinity_variance>
0.0283463895

$$$$
[H]OC(=O)[C@@]([H])(N([H])C(=O)[C@@]([H])(N([H])C(=O)[C@@]([H])(N([H])C(=O)OC([H])([H])c1c([H])c([H])c([H])c([H])c1[H])C([H])([H])c1c([H])nc([H])n1[H])C([H])([H])C([H])(C([H])([H])[H])C([H])([H])[H])C([H])([H])C([H])([H])SC([H])([H])[H]


 42 43  0  0  0  0  0  0  0  0999 V2000
  -10.5541   -7.0435    7.1899 N   0  0  0  0  0  0  0  0  0  0  0  0
   -9.2839   -6.8432    7.7305 C   0  0  0  0  0  0  0  0  0  0  0  0
   -9.1361   -6.9530    8.9938 O   0  0  0  0  0  0  0  0  0  0  0  0
  -10.7925   -6.9797    6.1810 H   0  0  0  0  0  0  0  0  0  0  0  0
  -11.7436   -7.3869    8.0550 C   0  0  0  0  0  0  0  0  0  0  0  0
  -13.9434   -7.1093    6.7555 N   0  0  0  0  0  0  0  0  0  0  0  0
  -12.8060   -7.8431    7.1805 C   0  0  0  0  0  0  0  0  0  0  0  0
  -12.7124   -9.0470    6.7492 O   0  0  0  0  0  0  0  0  0  0  0  0
  -14.1158   -6.1188    7.0445 H   0  0  0  0  0  0  0  0  0  0  0  0
  -14.9075   -7.7926    5.8703 C   0  0  0  0  0  0  0  0  0  0  0  0
  -14.6720   -7.3706    4.4798 C   0  0  0  0  0  0  0  0  0  0  0  0
  -14.6588   -8.2917    3.4427 O   0  0  0  0  0  0  0  0  0  0  0  0
  -14.4719   -6.1389    4.2253 O   0  0  0  0  0  0  0  0  0  0  0  0
  -13.9377   -9.0137    3.3811 H   0  0  0  0  0  0  0  0  0  0  0  0
  -16.2945   -7.3737    6.3756 C   0  0  0  0  0  0  0  0  0  0  0  0
  -17.3651   -8.0773    5.5988 C   0  0  0  0  0  0  0  0  0  0  0  0
  -17.8141   -5.2226    4.9715 C   0  0  0  0  0  0  0  0  0  0  0  0
  -17.9808   -6.9161    4.3220 S   0  0  0  0  0  0  0  0  0  0  0  0
  -11.9593   -6.2398    8.9618 C   0  0  0  0  0  0  0  0  0  0  0  0
  -12.5973   -6.5179   10.2612 C   0  0  0  0  0  0  0  0  0  0  0  0
  -13.6108   -7.6127   10.2817 C   0  0  0  0  0  0  0  0  0  0  0  0
  -13.1963   -5.2254   10.8360 C   0  0  0  0  0  0  0  0  0  0  0  0
   -8.1504   -6.5131    6.8660 C   0  0  0  0  0  0  0  0  0  0  0  0
   -6.9993   -6.0184    7.5885 N   0  0  0  0  0  0  0  0  0  0  0  0
   -5.7645   -5.9109    6.8475 C   0  0  0  0  0  0  0  0  0  0  0  0
   -5.7010   -6.2382    5.6418 O   0  0  0  0  0  0  0  0  0  0  0  0
   -7.0688   -5.7571    8.5908 H   0  0  0  0  0  0  0  0  0  0  0  0
   -4.5842   -5.4370    7.4411 O   0  0  0  0  0  0  0  0  0  0  0  0
   -3.8904   -6.2342    8.3444 C   0  0  0  0  0  0  0  0  0  0  0  0
   -3.4583   -5.6000    9.5844 C   0  0  0  0  0  0  0  0  0  0  0  0
   -4.2761   -4.8900   10.4297 C   0  0  0  0  0  0  0  0  0  0  0  0
   -3.7874   -4.3068   11.6080 C   0  0  0  0  0  0  0  0  0  0  0  0
   -2.4609   -4.4232   11.9661 C   0  0  0  0  0  0  0  0  0  0  0  0
   -1.6372   -5.1414   11.1095 C   0  0  0  0  0  0  0  0  0  0  0  0
   -2.1132   -5.7114    9.9590 C   0  0  0  0  0  0  0  0  0  0  0  0
   -7.7326   -7.7345    6.0182 C   0  0  0  0  0  0  0  0  0  0  0  0
   -7.9922   -9.0043    6.7437 C   0  0  0  0  0  0  0  0  0  0  0  0
   -7.1702   -9.5388    7.7118 C   0  0  0  0  0  0  0  0  0  0  0  0
   -7.7360  -10.6830    8.1237 N   0  0  0  0  0  0  0  0  0  0  0  0
   -8.8665  -10.8297    7.4214 C   0  0  0  0  0  0  0  0  0  0  0  0
   -9.0417   -9.8089    6.5687 N   0  0  0  0  0  0  0  0  0  0  0  0
   -9.8669   -9.7256    5.9195 H   0  0  0  0  0  0  0  0  0  0  0  0
 17 18  1  0  0  0
 18 16  1  0  0  0
 16 15  1  0  0  0
 15 10  1  0  0  0
 10  6  1  0  0  0
  6  7  1  0  0  0
  7  8  2  0  0  0
  7  5  1  0  0  0
  5 19  1  0  0  0
 19 20  1  0  0  0
 20 21  1  0  0  0
 20 22  1  0  0  0
  5  1  1  0  0  0
  1  2  1  0  0  0
  2  3  2  0  0  0
  2 23  1  0  0  0
 23 36  1  0  0  0
 36 37  1  0  0  0
 37 38  2  0  0  0
 38 39  1  0  0  0
 39 40  2  0  0  0
 40 41  1  0  0  0
 23 24  1  0  0  0
 24 25  1  0  0  0
 25 26  2  0  0  0
 25 28  1  0  0  0
 28 29  1  0  0  0
 29 30  1  0  0  0
 30 31  2  0  0  0
 31 32  1  0  0  0
 32 33  2  0  0  0
 33 34  1  0  0  0
 34 35  2  0  0  0
 10 11  1  0  0  0
 11 12  1  0  0  0
 11 13  2  0  0  0
 41 37  1  0  0  0
 35 30  1  0  0  0
  6  9  1  0  0  0
  1  4  1  0  0  0
 41 42  1  0  0  0
 24 27  1  0  0  0
 12 14  1  0  0  0
M  END
> <minimizedAffinity>
-5.37105

> <CNNscore>
0.2463434935

> <CNNaffinity>
6.7815580368

> <CNN_VS>
1.6705926657

> <CNNaffinity_variance>
0.0752457827

$$$$
[H]OC(=O)[C@@]([H])(N([H])C(=O)[C@@]([H])(N([H])C(=O)[C@@]([H])(N([H])C(=O)OC([H])([H])c1c([H])c([H])c([H])c([H])c1[H])C([H])([H])c1c([H])nc([H])n1[H])C([H])([H])C([H])(C([H])([H])[H])C([H])([H])[H])C([H])([H])C([H])([H])SC([H])([H])[H]


 42 43  0  0  0  0  0  0  0  0999 V2000
   -6.2095   -5.9178    7.7507 N   0  0  0  0  0  0  0  0  0  0  0  0
   -5.0777   -5.3777    7.1402 C   0  0  0  0  0  0  0  0  0  0  0  0
   -4.7549   -5.7964    5.9780 O   0  0  0  0  0  0  0  0  0  0  0  0
   -6.5659   -5.6555    8.6904 H   0  0  0  0  0  0  0  0  0  0  0  0
   -7.0539   -6.9718    7.0744 C   0  0  0  0  0  0  0  0  0  0  0  0
   -9.2748   -7.0960    8.3615 N   0  0  0  0  0  0  0  0  0  0  0  0
   -8.4450   -6.6364    7.3066 C   0  0  0  0  0  0  0  0  0  0  0  0
   -8.9893   -5.8423    6.4596 O   0  0  0  0  0  0  0  0  0  0  0  0
   -8.9313   -7.7430    9.1083 H   0  0  0  0  0  0  0  0  0  0  0  0
  -10.6750   -6.6281    8.3846 C   0  0  0  0  0  0  0  0  0  0  0  0
  -10.8893   -5.7990    9.5819 C   0  0  0  0  0  0  0  0  0  0  0  0
  -11.2106   -6.3720   10.8036 O   0  0  0  0  0  0  0  0  0  0  0  0
  -10.7827   -4.5330    9.4933 O   0  0  0  0  0  0  0  0  0  0  0  0
  -12.0956   -6.8638   10.9446 H   0  0  0  0  0  0  0  0  0  0  0  0
  -11.5313   -7.9013    8.4010 C   0  0  0  0  0  0  0  0  0  0  0  0
  -12.9864   -7.5501    8.3359 C   0  0  0  0  0  0  0  0  0  0  0  0
  -15.3823   -8.2099    6.7332 C   0  0  0  0  0  0  0  0  0  0  0  0
  -13.5811   -7.9523    6.6500 S   0  0  0  0  0  0  0  0  0  0  0  0
   -6.5187   -8.2840    7.4943 C   0  0  0  0  0  0  0  0  0  0  0  0
   -5.7359   -9.0422    6.5017 C   0  0  0  0  0  0  0  0  0  0  0  0
   -4.2626   -8.8063    6.4985 C   0  0  0  0  0  0  0  0  0  0  0  0
   -6.3155   -8.8170    5.0971 C   0  0  0  0  0  0  0  0  0  0  0  0
   -4.2806   -4.3563    7.8203 C   0  0  0  0  0  0  0  0  0  0  0  0
   -3.6135   -4.8420    9.0081 N   0  0  0  0  0  0  0  0  0  0  0  0
   -3.5826   -3.9523   10.1452 C   0  0  0  0  0  0  0  0  0  0  0  0
   -4.1039   -2.8162   10.0942 O   0  0  0  0  0  0  0  0  0  0  0  0
   -3.1810   -5.7853    9.0306 H   0  0  0  0  0  0  0  0  0  0  0  0
   -2.9699   -4.3175   11.3540 O   0  0  0  0  0  0  0  0  0  0  0  0
   -3.7382   -4.4905   12.4997 C   0  0  0  0  0  0  0  0  0  0  0  0
   -3.4412   -5.6587   13.3205 C   0  0  0  0  0  0  0  0  0  0  0  0
   -4.3089   -6.2264   14.2217 C   0  0  0  0  0  0  0  0  0  0  0  0
   -3.9514   -7.3525   14.9777 C   0  0  0  0  0  0  0  0  0  0  0  0
   -2.7094   -7.9368   14.8458 C   0  0  0  0  0  0  0  0  0  0  0  0
   -1.8349   -7.3606   13.9339 C   0  0  0  0  0  0  0  0  0  0  0  0
   -2.1829   -6.2613   13.1953 C   0  0  0  0  0  0  0  0  0  0  0  0
   -3.2336   -3.7483    6.8614 C   0  0  0  0  0  0  0  0  0  0  0  0
   -3.7220   -2.4750    6.2728 C   0  0  0  0  0  0  0  0  0  0  0  0
   -3.5484   -1.2303    6.8377 C   0  0  0  0  0  0  0  0  0  0  0  0
   -4.1273   -0.3397    6.0185 N   0  0  0  0  0  0  0  0  0  0  0  0
   -4.6337   -1.0325    4.9906 C   0  0  0  0  0  0  0  0  0  0  0  0
   -4.3949   -2.3455    5.1283 N   0  0  0  0  0  0  0  0  0  0  0  0
   -4.7072   -3.0717    4.4323 H   0  0  0  0  0  0  0  0  0  0  0  0
 17 18  1  0  0  0
 18 16  1  0  0  0
 16 15  1  0  0  0
 15 10  1  0  0  0
 10  6  1  0  0  0
  6  7  1  0  0  0
  7  8  2  0  0  0
  7  5  1  0  0  0
  5 19  1  0  0  0
 19 20  1  0  0  0
 20 21  1  0  0  0
 20 22  1  0  0  0
  5  1  1  0  0  0
  1  2  1  0  0  0
  2  3  2  0  0  0
  2 23  1  0  0  0
 23 36  1  0  0  0
 36 37  1  0  0  0
 37 38  2  0  0  0
 38 39  1  0  0  0
 39 40  2  0  0  0
 40 41  1  0  0  0
 23 24  1  0  0  0
 24 25  1  0  0  0
 25 26  2  0  0  0
 25 28  1  0  0  0
 28 29  1  0  0  0
 29 30  1  0  0  0
 30 31  2  0  0  0
 31 32  1  0  0  0
 32 33  2  0  0  0
 33 34  1  0  0  0
 34 35  2  0  0  0
 10 11  1  0  0  0
 11 12  1  0  0  0
 11 13  2  0  0  0
 41 37  1  0  0  0
 35 30  1  0  0  0
  6  9  1  0  0  0
  1  4  1  0  0  0
 41 42  1  0  0  0
 24 27  1  0  0  0
 12 14  1  0  0  0
M  END
> <minimizedAffinity>
-4.13595

> <CNNscore>
0.2446078956

> <CNNaffinity>
6.1190695763

> <CNN_VS>
1.4967727661

> <CNNaffinity_variance>
1.1928887367

$$$$
[H]OC(=O)[C@@]([H])(N([H])C(=O)[C@@]([H])(N([H])C(=O)[C@@]([H])(N([H])C(=O)OC([H])([H])c1c([H])c([H])c([H])c([H])c1[H])C([H])([H])c1c([H])nc([H])n1[H])C([H])([H])C([H])(C([H])([H])[H])C([H])([H])[H])C([H])([H])C([H])([H])SC([H])([H])[H]


 42 43  0  0  0  0  0  0  0  0999 V2000
  -10.7168   -7.1015    7.1859 N   0  0  0  0  0  0  0  0  0  0  0  0
   -9.4763   -6.8290    7.7624 C   0  0  0  0  0  0  0  0  0  0  0  0
   -9.3727   -6.8766    9.0340 O   0  0  0  0  0  0  0  0  0  0  0  0
  -10.9189   -7.0920    6.1671 H   0  0  0  0  0  0  0  0  0  0  0  0
  -11.9250   -7.4511    8.0221 C   0  0  0  0  0  0  0  0  0  0  0  0
  -14.1401   -7.2877    6.7292 N   0  0  0  0  0  0  0  0  0  0  0  0
  -12.9501   -7.9500    7.1265 C   0  0  0  0  0  0  0  0  0  0  0  0
  -12.7654   -9.1244    6.6461 O   0  0  0  0  0  0  0  0  0  0  0  0
  -14.3871   -6.3259    7.0584 H   0  0  0  0  0  0  0  0  0  0  0  0
  -15.0498   -8.0049    5.8138 C   0  0  0  0  0  0  0  0  0  0  0  0
  -14.7251   -7.6415    4.4247 C   0  0  0  0  0  0  0  0  0  0  0  0
  -14.6256   -8.6078    3.4345 O   0  0  0  0  0  0  0  0  0  0  0  0
  -14.5272   -6.4189    4.1280 O   0  0  0  0  0  0  0  0  0  0  0  0
  -13.8907   -9.3181    3.4558 H   0  0  0  0  0  0  0  0  0  0  0  0
  -16.4638   -7.5624    6.2128 C   0  0  0  0  0  0  0  0  0  0  0  0
  -17.4823   -8.2217    5.3338 C   0  0  0  0  0  0  0  0  0  0  0  0
  -17.7944   -5.3150    4.8886 C   0  0  0  0  0  0  0  0  0  0  0  0
  -18.1134   -6.9570    4.1677 S   0  0  0  0  0  0  0  0  0  0  0  0
  -12.1928   -6.2888    8.8950 C   0  0  0  0  0  0  0  0  0  0  0  0
  -12.7241   -6.5649   10.2420 C   0  0  0  0  0  0  0  0  0  0  0  0
  -13.8111   -7.5830   10.3303 C   0  0  0  0  0  0  0  0  0  0  0  0
  -13.1661   -5.2531   10.9079 C   0  0  0  0  0  0  0  0  0  0  0  0
   -8.3235   -6.4948    6.9254 C   0  0  0  0  0  0  0  0  0  0  0  0
   -7.1717   -6.0531    7.6802 N   0  0  0  0  0  0  0  0  0  0  0  0
   -5.9036   -6.0526    6.9892 C   0  0  0  0  0  0  0  0  0  0  0  0
   -5.8139   -6.4242    5.7981 O   0  0  0  0  0  0  0  0  0  0  0  0
   -7.2636   -5.7539    8.6700 H   0  0  0  0  0  0  0  0  0  0  0  0
   -4.7189   -5.6379    7.6173 O   0  0  0  0  0  0  0  0  0  0  0  0
   -3.6061   -5.3038    6.8537 C   0  0  0  0  0  0  0  0  0  0  0  0
   -3.5564   -3.9464    6.3228 C   0  0  0  0  0  0  0  0  0  0  0  0
   -3.2403   -2.8279    7.0552 C   0  0  0  0  0  0  0  0  0  0  0  0
   -3.2129   -1.5517    6.4738 C   0  0  0  0  0  0  0  0  0  0  0  0
   -3.5037   -1.3684    5.1384 C   0  0  0  0  0  0  0  0  0  0  0  0
   -3.8226   -2.5011    4.4012 C   0  0  0  0  0  0  0  0  0  0  0  0
   -3.8496   -3.7475    4.9676 C   0  0  0  0  0  0  0  0  0  0  0  0
   -7.9218   -7.6948    6.0398 C   0  0  0  0  0  0  0  0  0  0  0  0
   -8.1125   -8.9797    6.7601 C   0  0  0  0  0  0  0  0  0  0  0  0
   -7.2585   -9.4769    7.7204 C   0  0  0  0  0  0  0  0  0  0  0  0
   -7.7633  -10.6503    8.1296 N   0  0  0  0  0  0  0  0  0  0  0  0
   -8.8894  -10.8503    7.4333 C   0  0  0  0  0  0  0  0  0  0  0  0
   -9.1211   -9.8353    6.5872 N   0  0  0  0  0  0  0  0  0  0  0  0
   -9.9536   -9.7905    5.9434 H   0  0  0  0  0  0  0  0  0  0  0  0
 17 18  1  0  0  0
 18 16  1  0  0  0
 16 15  1  0  0  0
 15 10  1  0  0  0
 10  6  1  0  0  0
  6  7  1  0  0  0
  7  8  2  0  0  0
  7  5  1  0  0  0
  5 19  1  0  0  0
 19 20  1  0  0  0
 20 21  1  0  0  0
 20 22  1  0  0  0
  5  1  1  0  0  0
  1  2  1  0  0  0
  2  3  2  0  0  0
  2 23  1  0  0  0
 23 36  1  0  0  0
 36 37  1  0  0  0
 37 38  2  0  0  0
 38 39  1  0  0  0
 39 40  2  0  0  0
 40 41  1  0  0  0
 23 24  1  0  0  0
 24 25  1  0  0  0
 25 26  2  0  0  0
 25 28  1  0  0  0
 28 29  1  0  0  0
 29 30  1  0  0  0
 30 31  2  0  0  0
 31 32  1  0  0  0
 32 33  2  0  0  0
 33 34  1  0  0  0
 34 35  2  0  0  0
 10 11  1  0  0  0
 11 12  1  0  0  0
 11 13  2  0  0  0
 41 37  1  0  0  0
 35 30  1  0  0  0
  6  9  1  0  0  0
  1  4  1  0  0  0
 41 42  1  0  0  0
 24 27  1  0  0  0
 12 14  1  0  0  0
M  END
> <minimizedAffinity>
-5.52442

> <CNNscore>
0.2384677827

> <CNNaffinity>
6.6590409279

> <CNN_VS>
1.5879666805

> <CNNaffinity_variance>
0.1311037838

$$$$
[H]OC(=O)[C@@]([H])(N([H])C(=O)[C@@]([H])(N([H])C(=O)[C@@]([H])(N([H])C(=O)OC([H])([H])c1c([H])c([H])c([H])c([H])c1[H])C([H])([H])c1c([H])nc([H])n1[H])C([H])([H])C([H])(C([H])([H])[H])C([H])([H])[H])C([H])([H])C([H])([H])SC([H])([H])[H]


 42 43  0  0  0  0  0  0  0  0999 V2000
  -11.5575   -7.7303    8.7098 N   0  0  0  0  0  0  0  0  0  0  0  0
  -12.3773   -7.9010    7.5942 C   0  0  0  0  0  0  0  0  0  0  0  0
  -12.4899   -6.9338    6.7684 O   0  0  0  0  0  0  0  0  0  0  0  0
  -11.3912   -8.4443    9.4456 H   0  0  0  0  0  0  0  0  0  0  0  0
  -10.8062   -6.4438    8.9578 C   0  0  0  0  0  0  0  0  0  0  0  0
   -8.4425   -7.4250    8.7239 N   0  0  0  0  0  0  0  0  0  0  0  0
   -9.5036   -6.5680    8.3338 C   0  0  0  0  0  0  0  0  0  0  0  0
   -9.2820   -5.8132    7.3211 O   0  0  0  0  0  0  0  0  0  0  0  0
   -8.5181   -8.0839    9.5329 H   0  0  0  0  0  0  0  0  0  0  0  0
   -7.1921   -7.3664    7.9410 C   0  0  0  0  0  0  0  0  0  0  0  0
   -6.2156   -6.5229    8.6497 C   0  0  0  0  0  0  0  0  0  0  0  0
   -6.0301   -6.6362   10.0197 O   0  0  0  0  0  0  0  0  0  0  0  0
   -5.5329   -5.6708    7.9942 O   0  0  0  0  0  0  0  0  0  0  0  0
   -6.7714   -6.3907   10.6794 H   0  0  0  0  0  0  0  0  0  0  0  0
   -7.5883   -6.7758    6.5813 C   0  0  0  0  0  0  0  0  0  0  0  0
   -6.5810   -7.1514    5.5379 C   0  0  0  0  0  0  0  0  0  0  0  0
   -3.9247   -8.1674    6.3482 C   0  0  0  0  0  0  0  0  0  0  0  0
   -5.6758   -8.6251    6.1432 S   0  0  0  0  0  0  0  0  0  0  0  0
  -10.9210   -6.1522   10.4023 C   0  0  0  0  0  0  0  0  0  0  0  0
  -11.9643   -5.1969   10.8168 C   0  0  0  0  0  0  0  0  0  0  0  0
  -12.3192   -5.1900   12.2661 C   0  0  0  0  0  0  0  0  0  0  0  0
  -13.2237   -5.3948    9.9600 C   0  0  0  0  0  0  0  0  0  0  0  0
  -13.0912   -9.1602    7.3804 C   0  0  0  0  0  0  0  0  0  0  0  0
  -14.4680   -8.9808    6.9756 N   0  0  0  0  0  0  0  0  0  0  0  0
  -15.3264   -8.2668    7.8915 C   0  0  0  0  0  0  0  0  0  0  0  0
  -14.8935   -7.8342    8.9825 O   0  0  0  0  0  0  0  0  0  0  0  0
  -14.8116   -9.3519    6.0691 H   0  0  0  0  0  0  0  0  0  0  0  0
  -16.6787   -8.0260    7.6031 O   0  0  0  0  0  0  0  0  0  0  0  0
  -17.1012   -7.9211    6.2827 C   0  0  0  0  0  0  0  0  0  0  0  0
  -16.6949   -6.7241    5.5554 C   0  0  0  0  0  0  0  0  0  0  0  0
  -17.5339   -5.6926    5.2099 C   0  0  0  0  0  0  0  0  0  0  0  0
  -17.0695   -4.5704    4.5083 C   0  0  0  0  0  0  0  0  0  0  0  0
  -15.7466   -4.4576    4.1357 C   0  0  0  0  0  0  0  0  0  0  0  0
  -14.9014   -5.5020    4.4865 C   0  0  0  0  0  0  0  0  0  0  0  0
  -15.3536   -6.5980    5.1716 C   0  0  0  0  0  0  0  0  0  0  0  0
  -12.3631  -10.0334    6.3350 C   0  0  0  0  0  0  0  0  0  0  0  0
  -10.9160  -10.1500    6.6489 C   0  0  0  0  0  0  0  0  0  0  0  0
   -9.9221  -10.3439    5.7145 C   0  0  0  0  0  0  0  0  0  0  0  0
   -8.7589  -10.4008    6.3800 N   0  0  0  0  0  0  0  0  0  0  0  0
   -9.0485  -10.2450    7.6780 C   0  0  0  0  0  0  0  0  0  0  0  0
  -10.3680  -10.0893    7.8635 N   0  0  0  0  0  0  0  0  0  0  0  0
  -10.8124   -9.9520    8.8085 H   0  0  0  0  0  0  0  0  0  0  0  0
 17 18  1  0  0  0
 18 16  1  0  0  0
 16 15  1  0  0  0
 15 10  1  0  0  0
 10  6  1  0  0  0
  6  7  1  0  0  0
  7  8  2  0  0  0
  7  5  1  0  0  0
  5 19  1  0  0  0
 19 20  1  0  0  0
 20 21  1  0  0  0
 20 22  1  0  0  0
  5  1  1  0  0  0
  1  2  1  0  0  0
  2  3  2  0  0  0
  2 23  1  0  0  0
 23 36  1  0  0  0
 36 37  1  0  0  0
 37 38  2  0  0  0
 38 39  1  0  0  0
 39 40  2  0  0  0
 40 41  1  0  0  0
 23 24  1  0  0  0
 24 25  1  0  0  0
 25 26  2  0  0  0
 25 28  1  0  0  0
 28 29  1  0  0  0
 29 30  1  0  0  0
 30 31  2  0  0  0
 31 32  1  0  0  0
 32 33  2  0  0  0
 33 34  1  0  0  0
 34 35  2  0  0  0
 10 11  1  0  0  0
 11 12  1  0  0  0
 11 13  2  0  0  0
 41 37  1  0  0  0
 35 30  1  0  0  0
  6  9  1  0  0  0
  1  4  1  0  0  0
 41 42  1  0  0  0
 24 27  1  0  0  0
 12 14  1  0  0  0
M  END
> <minimizedAffinity>
-4.60934

> <CNNscore>
0.2312612385

> <CNNaffinity>
6.9484262466

> <CNN_VS>
1.6069016457

> <CNNaffinity_variance>
0.0774854273

$$$$
[H]OC(=O)[C@@]([H])(N([H])C(=O)[C@@]([H])(N([H])C(=O)[C@@]([H])(N([H])C(=O)OC([H])([H])c1c([H])c([H])c([H])c([H])c1[H])C([H])([H])c1c([H])nc([H])n1[H])C([H])([H])C([H])(C([H])([H])[H])C([H])([H])[H])C([H])([H])C([H])([H])SC([H])([H])[H]


 42 43  0  0  0  0  0  0  0  0999 V2000
   -7.4259   -6.8391    8.0660 N   0  0  0  0  0  0  0  0  0  0  0  0
   -8.4639   -7.7403    8.3024 C   0  0  0  0  0  0  0  0  0  0  0  0
   -8.1673   -8.9505    8.5809 O   0  0  0  0  0  0  0  0  0  0  0  0
   -7.5468   -5.8345    7.8312 H   0  0  0  0  0  0  0  0  0  0  0  0
   -5.9761   -7.2568    8.1348 C   0  0  0  0  0  0  0  0  0  0  0  0
   -5.0444   -5.8722   10.0892 N   0  0  0  0  0  0  0  0  0  0  0  0
   -5.2285   -6.1568    8.7116 C   0  0  0  0  0  0  0  0  0  0  0  0
   -4.6792   -5.3450    7.8848 O   0  0  0  0  0  0  0  0  0  0  0  0
   -5.4455   -6.4712   10.8473 H   0  0  0  0  0  0  0  0  0  0  0  0
   -4.2509   -4.6780   10.4414 C   0  0  0  0  0  0  0  0  0  0  0  0
   -2.8298   -4.9402   10.1607 C   0  0  0  0  0  0  0  0  0  0  0  0
   -2.1885   -4.3427    9.0856 O   0  0  0  0  0  0  0  0  0  0  0  0
   -2.1792   -5.7334   10.9152 O   0  0  0  0  0  0  0  0  0  0  0  0
   -2.4531   -4.5572    8.1217 H   0  0  0  0  0  0  0  0  0  0  0  0
   -4.5117   -4.4396   11.9347 C   0  0  0  0  0  0  0  0  0  0  0  0
   -5.4414   -5.4839   12.4732 C   0  0  0  0  0  0  0  0  0  0  0  0
   -5.0967   -5.1474   15.3908 C   0  0  0  0  0  0  0  0  0  0  0  0
   -6.2142   -4.8111   13.9923 S   0  0  0  0  0  0  0  0  0  0  0  0
   -5.6198   -7.7888    6.8027 C   0  0  0  0  0  0  0  0  0  0  0  0
   -6.6708   -7.7794    5.7693 C   0  0  0  0  0  0  0  0  0  0  0  0
   -6.6851   -8.9364    4.8273 C   0  0  0  0  0  0  0  0  0  0  0  0
   -6.6244   -6.4568    4.9893 C   0  0  0  0  0  0  0  0  0  0  0  0
   -9.8590   -7.3050    8.2299 C   0  0  0  0  0  0  0  0  0  0  0  0
  -10.8018   -8.3191    8.6477 N   0  0  0  0  0  0  0  0  0  0  0  0
  -11.2466   -9.2485    7.6359 C   0  0  0  0  0  0  0  0  0  0  0  0
  -10.8366   -9.1688    6.4567 O   0  0  0  0  0  0  0  0  0  0  0  0
  -11.1361   -8.3665    9.6293 H   0  0  0  0  0  0  0  0  0  0  0  0
  -12.1546  -10.2789    7.9254 O   0  0  0  0  0  0  0  0  0  0  0  0
  -13.5191  -10.0150    7.9610 C   0  0  0  0  0  0  0  0  0  0  0  0
  -14.0606   -9.2041    6.8766 C   0  0  0  0  0  0  0  0  0  0  0  0
  -13.9054   -9.4768    5.5392 C   0  0  0  0  0  0  0  0  0  0  0  0
  -14.4567   -8.6482    4.5508 C   0  0  0  0  0  0  0  0  0  0  0  0
  -15.1793   -7.5220    4.8839 C   0  0  0  0  0  0  0  0  0  0  0  0
  -15.3343   -7.2494    6.2366 C   0  0  0  0  0  0  0  0  0  0  0  0
  -14.7966   -8.0576    7.2024 C   0  0  0  0  0  0  0  0  0  0  0  0
  -10.0800   -6.0279    9.0699 C   0  0  0  0  0  0  0  0  0  0  0  0
  -11.4614   -5.9764    9.6133 C   0  0  0  0  0  0  0  0  0  0  0  0
  -11.7803   -5.7020   10.9254 C   0  0  0  0  0  0  0  0  0  0  0  0
  -13.1169   -5.7504   11.0262 N   0  0  0  0  0  0  0  0  0  0  0  0
  -13.5858   -6.0458    9.8073 C   0  0  0  0  0  0  0  0  0  0  0  0
  -12.5846   -6.1882    8.9257 N   0  0  0  0  0  0  0  0  0  0  0  0
  -12.7308   -6.4221    7.9092 H   0  0  0  0  0  0  0  0  0  0  0  0
 17 18  1  0  0  0
 18 16  1  0  0  0
 16 15  1  0  0  0
 15 10  1  0  0  0
 10  6  1  0  0  0
  6  7  1  0  0  0
  7  8  2  0  0  0
  7  5  1  0  0  0
  5 19  1  0  0  0
 19 20  1  0  0  0
 20 21  1  0  0  0
 20 22  1  0  0  0
  5  1  1  0  0  0
  1  2  1  0  0  0
  2  3  2  0  0  0
  2 23  1  0  0  0
 23 36  1  0  0  0
 36 37  1  0  0  0
 37 38  2  0  0  0
 38 39  1  0  0  0
 39 40  2  0  0  0
 40 41  1  0  0  0
 23 24  1  0  0  0
 24 25  1  0  0  0
 25 26  2  0  0  0
 25 28  1  0  0  0
 28 29  1  0  0  0
 29 30  1  0  0  0
 30 31  2  0  0  0
 31 32  1  0  0  0
 32 33  2  0  0  0
 33 34  1  0  0  0
 34 35  2  0  0  0
 10 11  1  0  0  0
 11 12  1  0  0  0
 11 13  2  0  0  0
 41 37  1  0  0  0
 35 30  1  0  0  0
  6  9  1  0  0  0
  1  4  1  0  0  0
 41 42  1  0  0  0
 24 27  1  0  0  0
 12 14  1  0  0  0
M  END
> <minimizedAffinity>
-5.79015

> <CNNscore>
0.2297305912

> <CNNaffinity>
6.4662904739

> <CNN_VS>
1.4855047464

> <CNNaffinity_variance>
0.2003966570

$$$$
[H]OC(=O)[C@@]([H])(N([H])C(=O)[C@@]([H])(N([H])C(=O)[C@@]([H])(N([H])C(=O)OC([H])([H])c1c([H])c([H])c([H])c([H])c1[H])C([H])([H])c1c([H])nc([H])n1[H])C([H])([H])C([H])(C([H])([H])[H])C([H])([H])[H])C([H])([H])C([H])([H])SC([H])([H])[H]


 42 43  0  0  0  0  0  0  0  0999 V2000
   -6.4869   -6.9307    8.8724 N   0  0  0  0  0  0  0  0  0  0  0  0
   -7.5069   -6.7288    7.9426 C   0  0  0  0  0  0  0  0  0  0  0  0
   -7.2162   -6.1695    6.8323 O   0  0  0  0  0  0  0  0  0  0  0  0
   -6.6053   -7.3730    9.8046 H   0  0  0  0  0  0  0  0  0  0  0  0
   -5.0625   -6.5107    8.5970 C   0  0  0  0  0  0  0  0  0  0  0  0
   -4.8566   -5.5606   10.9760 N   0  0  0  0  0  0  0  0  0  0  0  0
   -4.7091   -5.4926    9.5666 C   0  0  0  0  0  0  0  0  0  0  0  0
   -4.2159   -4.4055    9.0983 O   0  0  0  0  0  0  0  0  0  0  0  0
   -5.2442   -6.4016   11.4625 H   0  0  0  0  0  0  0  0  0  0  0  0
   -4.4389   -4.3849   11.7655 C   0  0  0  0  0  0  0  0  0  0  0  0
   -2.9722   -4.2677   11.7214 C   0  0  0  0  0  0  0  0  0  0  0  0
   -2.3578   -3.1368   11.2042 O   0  0  0  0  0  0  0  0  0  0  0  0
   -2.2548   -5.2237   12.1612 O   0  0  0  0  0  0  0  0  0  0  0  0
   -2.4407   -2.8911   10.2153 H   0  0  0  0  0  0  0  0  0  0  0  0
   -4.9568   -4.6420   13.1869 C   0  0  0  0  0  0  0  0  0  0  0  0
   -5.3945   -6.0677   13.3308 C   0  0  0  0  0  0  0  0  0  0  0  0
   -3.5098   -5.5847   15.5578 C   0  0  0  0  0  0  0  0  0  0  0  0
   -4.2632   -6.8797   14.5218 S   0  0  0  0  0  0  0  0  0  0  0  0
   -4.9707   -6.2309    7.1486 C   0  0  0  0  0  0  0  0  0  0  0  0
   -3.8923   -6.9004    6.3992 C   0  0  0  0  0  0  0  0  0  0  0  0
   -3.6605   -8.3402    6.7145 C   0  0  0  0  0  0  0  0  0  0  0  0
   -2.5855   -6.1057    6.5426 C   0  0  0  0  0  0  0  0  0  0  0  0
   -8.8773   -7.1483    8.2378 C   0  0  0  0  0  0  0  0  0  0  0  0
   -9.6099   -6.1978    9.0450 N   0  0  0  0  0  0  0  0  0  0  0  0
  -10.8136   -6.6783    9.6819 C   0  0  0  0  0  0  0  0  0  0  0  0
  -11.1999   -7.8586    9.5319 O   0  0  0  0  0  0  0  0  0  0  0  0
   -9.2778   -5.2203    9.1535 H   0  0  0  0  0  0  0  0  0  0  0  0
  -11.6024   -5.8491   10.4945 O   0  0  0  0  0  0  0  0  0  0  0  0
  -12.8398   -5.4047   10.0425 C   0  0  0  0  0  0  0  0  0  0  0  0
  -13.6334   -6.3486    9.2641 C   0  0  0  0  0  0  0  0  0  0  0  0
  -13.8219   -6.2823    7.9049 C   0  0  0  0  0  0  0  0  0  0  0  0
  -14.6009   -7.2291    7.2235 C   0  0  0  0  0  0  0  0  0  0  0  0
  -15.2110   -8.2682    7.8938 C   0  0  0  0  0  0  0  0  0  0  0  0
  -15.0183   -8.3322    9.2675 C   0  0  0  0  0  0  0  0  0  0  0  0
  -14.2580   -7.4086    9.9337 C   0  0  0  0  0  0  0  0  0  0  0  0
   -9.6610   -7.4201    6.9350 C   0  0  0  0  0  0  0  0  0  0  0  0
  -10.2292   -8.7924    6.9281 C   0  0  0  0  0  0  0  0  0  0  0  0
   -9.4891   -9.9491    6.8152 C   0  0  0  0  0  0  0  0  0  0  0  0
  -10.3522  -10.9756    6.8445 N   0  0  0  0  0  0  0  0  0  0  0  0
  -11.5761  -10.4477    6.9717 C   0  0  0  0  0  0  0  0  0  0  0  0
  -11.5216   -9.1083    7.0250 N   0  0  0  0  0  0  0  0  0  0  0  0
  -12.3708   -8.4930    7.1235 H   0  0  0  0  0  0  0  0  0  0  0  0
 17 18  1  0  0  0
 18 16  1  0  0  0
 16 15  1  0  0  0
 15 10  1  0  0  0
 10  6  1  0  0  0
  6  7  1  0  0  0
  7  8  2  0  0  0
  7  5  1  0  0  0
  5 19  1  0  0  0
 19 20  1  0  0  0
 20 21  1  0  0  0
 20 22  1  0  0  0
  5  1  1  0  0  0
  1  2  1  0  0  0
  2  3  2  0  0  0
  2 23  1  0  0  0
 23 36  1  0  0  0
 36 37  1  0  0  0
 37 38  2  0  0  0
 38 39  1  0  0  0
 39 40  2  0  0  0
 40 41  1  0  0  0
 23 24  1  0  0  0
 24 25  1  0  0  0
 25 26  2  0  0  0
 25 28  1  0  0  0
 28 29  1  0  0  0
 29 30  1  0  0  0
 30 31  2  0  0  0
 31 32  1  0  0  0
 32 33  2  0  0  0
 33 34  1  0  0  0
 34 35  2  0  0  0
 10 11  1  0  0  0
 11 12  1  0  0  0
 11 13  2  0  0  0
 41 37  1  0  0  0
 35 30  1  0  0  0
  6  9  1  0  0  0
  1  4  1  0  0  0
 41 42  1  0  0  0
 24 27  1  0  0  0
 12 14  1  0  0  0
M  END
> <minimizedAffinity>
-4.30292

> <CNNscore>
0.2289164960

> <CNNaffinity>
6.4995398521

> <CNN_VS>
1.4878518581

> <CNNaffinity_variance>
0.0345172696

$$$$
[H]OC(=O)[C@@]([H])(N([H])C(=O)[C@@]([H])(N([H])C(=O)[C@@]([H])(N([H])C(=O)OC([H])([H])c1c([H])c([H])c([H])c([H])c1[H])C([H])([H])c1c([H])nc([H])n1[H])C([H])([H])C([H])(C([H])([H])[H])C([H])([H])[H])C([H])([H])C([H])([H])SC([H])([H])[H]


 42 43  0  0  0  0  0  0  0  0999 V2000
   -6.4733   -7.1432    8.1935 N   0  0  0  0  0  0  0  0  0  0  0  0
   -5.5592   -6.1872    7.7507 C   0  0  0  0  0  0  0  0  0  0  0  0
   -5.7371   -5.6621    6.6007 O   0  0  0  0  0  0  0  0  0  0  0  0
   -6.4295   -7.6359    9.1069 H   0  0  0  0  0  0  0  0  0  0  0  0
   -7.6569   -7.5633    7.3546 C   0  0  0  0  0  0  0  0  0  0  0  0
  -10.1803   -7.7415    7.8079 N   0  0  0  0  0  0  0  0  0  0  0  0
   -8.8388   -7.4828    8.1902 C   0  0  0  0  0  0  0  0  0  0  0  0
   -8.6527   -7.1303    9.4090 O   0  0  0  0  0  0  0  0  0  0  0  0
  -10.4435   -8.0390    6.8402 H   0  0  0  0  0  0  0  0  0  0  0  0
  -11.2285   -7.5777    8.8347 C   0  0  0  0  0  0  0  0  0  0  0  0
  -11.9676   -8.8426    8.9790 C   0  0  0  0  0  0  0  0  0  0  0  0
  -12.8044   -9.0653   10.0625 O   0  0  0  0  0  0  0  0  0  0  0  0
  -11.8322   -9.7503    8.0960 O   0  0  0  0  0  0  0  0  0  0  0  0
  -12.4369   -9.1326   11.0141 H   0  0  0  0  0  0  0  0  0  0  0  0
  -12.1232   -6.4388    8.3275 C   0  0  0  0  0  0  0  0  0  0  0  0
  -13.5676   -6.7879    8.5189 C   0  0  0  0  0  0  0  0  0  0  0  0
  -14.8440   -5.9702    5.9798 C   0  0  0  0  0  0  0  0  0  0  0  0
  -14.2098   -7.3988    6.9152 S   0  0  0  0  0  0  0  0  0  0  0  0
   -7.2873   -8.8353    6.6988 C   0  0  0  0  0  0  0  0  0  0  0  0
   -6.5934   -8.7486    5.4012 C   0  0  0  0  0  0  0  0  0  0  0  0
   -5.1086   -8.8924    5.4321 C   0  0  0  0  0  0  0  0  0  0  0  0
   -6.9889   -7.4494    4.6834 C   0  0  0  0  0  0  0  0  0  0  0  0
   -4.4230   -5.7996    8.5874 C   0  0  0  0  0  0  0  0  0  0  0  0
   -4.8074   -5.3309    9.9004 N   0  0  0  0  0  0  0  0  0  0  0  0
   -4.1197   -4.1634   10.4002 C   0  0  0  0  0  0  0  0  0  0  0  0
   -3.2316   -3.5958    9.7264 O   0  0  0  0  0  0  0  0  0  0  0  0
   -5.5424   -5.8180   10.4482 H   0  0  0  0  0  0  0  0  0  0  0  0
   -4.4132   -3.6137   11.6579 O   0  0  0  0  0  0  0  0  0  0  0  0
   -3.4981   -3.7276   12.6983 C   0  0  0  0  0  0  0  0  0  0  0  0
   -3.7162   -4.8107   13.6502 C   0  0  0  0  0  0  0  0  0  0  0  0
   -3.6745   -6.1485   13.3406 C   0  0  0  0  0  0  0  0  0  0  0  0
   -3.8952   -7.1355   14.3124 C   0  0  0  0  0  0  0  0  0  0  0  0
   -4.1640   -6.8008   15.6227 C   0  0  0  0  0  0  0  0  0  0  0  0
   -4.2053   -5.4477   15.9322 C   0  0  0  0  0  0  0  0  0  0  0  0
   -3.9899   -4.4833   14.9844 C   0  0  0  0  0  0  0  0  0  0  0  0
   -3.4265   -6.9701    8.7365 C   0  0  0  0  0  0  0  0  0  0  0  0
   -2.5704   -7.1019    7.5299 C   0  0  0  0  0  0  0  0  0  0  0  0
   -2.1811   -6.0542    6.7240 C   0  0  0  0  0  0  0  0  0  0  0  0
   -1.4247   -6.5692    5.7433 N   0  0  0  0  0  0  0  0  0  0  0  0
   -1.3626   -7.8897    5.9562 C   0  0  0  0  0  0  0  0  0  0  0  0
   -2.0596   -8.2363    7.0488 N   0  0  0  0  0  0  0  0  0  0  0  0
   -2.1439   -9.2266    7.3976 H   0  0  0  0  0  0  0  0  0  0  0  0
 17 18  1  0  0  0
 18 16  1  0  0  0
 16 15  1  0  0  0
 15 10  1  0  0  0
 10  6  1  0  0  0
  6  7  1  0  0  0
  7  8  2  0  0  0
  7  5  1  0  0  0
  5 19  1  0  0  0
 19 20  1  0  0  0
 20 21  1  0  0  0
 20 22  1  0  0  0
  5  1  1  0  0  0
  1  2  1  0  0  0
  2  3  2  0  0  0
  2 23  1  0  0  0
 23 36  1  0  0  0
 36 37  1  0  0  0
 37 38  2  0  0  0
 38 39  1  0  0  0
 39 40  2  0  0  0
 40 41  1  0  0  0
 23 24  1  0  0  0
 24 25  1  0  0  0
 25 26  2  0  0  0
 25 28  1  0  0  0
 28 29  1  0  0  0
 29 30  1  0  0  0
 30 31  2  0  0  0
 31 32  1  0  0  0
 32 33  2  0  0  0
 33 34  1  0  0  0
 34 35  2  0  0  0
 10 11  1  0  0  0
 11 12  1  0  0  0
 11 13  2  0  0  0
 41 37  1  0  0  0
 35 30  1  0  0  0
  6  9  1  0  0  0
  1  4  1  0  0  0
 41 42  1  0  0  0
 24 27  1  0  0  0
 12 14  1  0  0  0
M  END
> <minimizedAffinity>
-3.16139

> <CNNscore>
0.2173029482

> <CNNaffinity>
6.0123128891

> <CNN_VS>
1.3064932823

> <CNNaffinity_variance>
0.5949124098

$$$$
[H]O[C@@]([H])(C([H])([H])[H])[C@]([H])(c1nnc(-c2c([H])c([H])c(C#N)c([H])c2[H])o1)N([H])c1c([H])c([H])c([N+]#[C-])c(Cl)c1C([H])([H])[H]


 30 32  0  0  0  0  0  0  0  0999 V2000
  -10.8997   -9.9755    7.0083 C   0  0  0  0  0  0  0  0  0  0  0  0
  -11.0902   -8.6854    7.7636 C   0  0  0  0  0  0  0  0  0  0  0  0
  -11.4462   -7.5107    7.2079 N   0  0  0  0  0  0  0  0  0  0  0  0
  -11.5277   -6.5849    8.1262 N   0  0  0  0  0  0  0  0  0  0  0  0
  -11.2098   -7.2076    9.2995 C   0  0  0  0  0  0  0  0  0  0  0  0
  -10.9605   -8.4452    9.0283 O   0  0  0  0  0  0  0  0  0  0  0  0
  -11.1894   -6.4940   10.5735 C   0  0  0  0  0  0  0  0  0  0  0  0
  -12.3540   -5.9823   11.1042 C   0  0  0  0  0  0  0  0  0  0  0  0
  -12.3570   -5.2971   12.3199 C   0  0  0  0  0  0  0  0  0  0  0  0
  -11.1921   -5.1083   13.0332 C   0  0  0  0  0  0  0  0  0  0  0  0
  -10.0264   -5.6196   12.5036 C   0  0  0  0  0  0  0  0  0  0  0  0
  -10.0369   -6.2950   11.3008 C   0  0  0  0  0  0  0  0  0  0  0  0
  -11.1964   -4.3960   14.2966 C   0  0  0  0  0  0  0  0  0  0  0  0
  -11.2181   -3.8337   15.3048 N   0  0  0  0  0  0  0  0  0  0  0  0
  -12.6936   -9.4844    5.2697 C   0  0  0  0  0  0  0  0  0  0  0  0
  -12.2078  -10.3115    6.3954 C   0  0  0  0  0  0  0  0  0  0  0  0
  -13.2350  -10.4264    7.3432 O   0  0  0  0  0  0  0  0  0  0  0  0
  -14.0980  -10.1985    6.9229 H   0  0  0  0  0  0  0  0  0  0  0  0
   -9.7765   -9.8799    6.1463 N   0  0  0  0  0  0  0  0  0  0  0  0
   -9.2108   -8.9649    6.2507 H   0  0  0  0  0  0  0  0  0  0  0  0
   -9.2924  -10.7708    5.1942 C   0  0  0  0  0  0  0  0  0  0  0  0
   -8.8335  -10.3409    3.9809 C   0  0  0  0  0  0  0  0  0  0  0  0
   -8.3754  -11.2192    2.9951 C   0  0  0  0  0  0  0  0  0  0  0  0
   -8.3760  -12.5635    3.2254 C   0  0  0  0  0  0  0  0  0  0  0  0
   -8.8327  -13.0121    4.4337 C   0  0  0  0  0  0  0  0  0  0  0  0
   -8.8315  -14.7611    4.7271 Cl  0  0  0  0  0  0  0  0  0  0  0  0
   -9.2872  -12.1503    5.4150 C   0  0  0  0  0  0  0  0  0  0  0  0
   -9.7584  -12.7224    6.6810 C   0  0  0  0  0  0  0  0  0  0  0  0
   -7.9333  -13.4648    2.2816 N   0  0  0  0  0  0  0  0  0  0  0  0
   -7.5769  -14.2320    1.4776 C   0  0  0  0  0  0  0  0  0  0  0  0
 15 16  1  0  0  0
 16 17  1  0  0  0
 16  1  1  0  0  0
  1 19  1  0  0  0
 19 21  1  0  0  0
 21 22  2  0  0  0
 22 23  1  0  0  0
 23 24  2  0  0  0
 24 29  1  0  0  0
 29 30  3  0  0  0
 24 25  1  0  0  0
 25 26  1  0  0  0
 25 27  2  0  0  0
 27 28  1  0  0  0
  1  2  1  0  0  0
  2  3  2  0  0  0
  3  4  1  0  0  0
  4  5  2  0  0  0
  5  6  1  0  0  0
  5  7  1  0  0  0
  7  8  2  0  0  0
  8  9  1  0  0  0
  9 10  2  0  0  0
 10 11  1  0  0  0
 11 12  2  0  0  0
 10 13  1  0  0  0
 13 14  3  0  0  0
 27 21  1  0  0  0
  6  2  1  0  0  0
 12  7  1  0  0  0
 17 18  1  0  0  0
 19 20  1  0  0  0
M  CHG 1  29   1
M  CHG 1  30  -1
M  END
> <minimizedAffinity>
19.39248

> <CNNscore>
0.5361051559

> <CNNaffinity>
6.2191629410

> <CNN_VS>
3.3341252804

> <CNNaffinity_variance>
1.5554174185

$$$$
[H]O[C@@]([H])(C([H])([H])[H])[C@]([H])(c1nnc(-c2c([H])c([H])c(C#N)c([H])c2[H])o1)N([H])c1c([H])c([H])c([N+]#[C-])c(Cl)c1C([H])([H])[H]


 30 32  0  0  0  0  0  0  0  0999 V2000
  -13.6232   -7.0496    7.7972 C   0  0  0  0  0  0  0  0  0  0  0  0
  -12.2514   -7.4196    7.2948 C   0  0  0  0  0  0  0  0  0  0  0  0
  -12.0055   -8.1679    6.2016 N   0  0  0  0  0  0  0  0  0  0  0  0
  -10.7175   -8.3090    6.0334 N   0  0  0  0  0  0  0  0  0  0  0  0
  -10.1391   -7.6217    7.0622 C   0  0  0  0  0  0  0  0  0  0  0  0
  -11.0892   -7.1168    7.7760 O   0  0  0  0  0  0  0  0  0  0  0  0
   -8.6896   -7.5432    7.2220 C   0  0  0  0  0  0  0  0  0  0  0  0
   -8.1090   -7.7947    8.4465 C   0  0  0  0  0  0  0  0  0  0  0  0
   -6.7262   -7.7251    8.6213 C   0  0  0  0  0  0  0  0  0  0  0  0
   -5.8918   -7.4017    7.5721 C   0  0  0  0  0  0  0  0  0  0  0  0
   -6.4712   -7.1499    6.3467 C   0  0  0  0  0  0  0  0  0  0  0  0
   -7.8395   -7.2220    6.1871 C   0  0  0  0  0  0  0  0  0  0  0  0
   -4.4548   -7.3297    7.7549 C   0  0  0  0  0  0  0  0  0  0  0  0
   -3.3120   -7.2862    7.9133 N   0  0  0  0  0  0  0  0  0  0  0  0
  -14.1307   -9.2743    6.6682 C   0  0  0  0  0  0  0  0  0  0  0  0
  -14.5883   -7.9374    7.1045 C   0  0  0  0  0  0  0  0  0  0  0  0
  -15.2239   -7.3067    6.0251 O   0  0  0  0  0  0  0  0  0  0  0  0
  -15.4766   -7.9819    5.3515 H   0  0  0  0  0  0  0  0  0  0  0  0
  -13.6418   -7.0406    9.2162 N   0  0  0  0  0  0  0  0  0  0  0  0
  -13.7951   -6.0643    9.6540 H   0  0  0  0  0  0  0  0  0  0  0  0
  -13.4939   -8.0819   10.1264 C   0  0  0  0  0  0  0  0  0  0  0  0
  -12.6855   -9.1519    9.8635 C   0  0  0  0  0  0  0  0  0  0  0  0
  -12.5482  -10.2265   10.7464 C   0  0  0  0  0  0  0  0  0  0  0  0
  -13.2371  -10.2345   11.9236 C   0  0  0  0  0  0  0  0  0  0  0  0
  -14.0517   -9.1725   12.2031 C   0  0  0  0  0  0  0  0  0  0  0  0
  -14.9451   -9.1889   13.7349 Cl  0  0  0  0  0  0  0  0  0  0  0  0
  -14.1932   -8.1048   11.3356 C   0  0  0  0  0  0  0  0  0  0  0  0
  -15.0897   -7.0091   11.7199 C   0  0  0  0  0  0  0  0  0  0  0  0
  -13.1312  -11.2735   12.8227 N   0  0  0  0  0  0  0  0  0  0  0  0
  -13.0375  -12.1655   13.5694 C   0  0  0  0  0  0  0  0  0  0  0  0
 15 16  1  0  0  0
 16 17  1  0  0  0
 16  1  1  0  0  0
  1 19  1  0  0  0
 19 21  1  0  0  0
 21 22  2  0  0  0
 22 23  1  0  0  0
 23 24  2  0  0  0
 24 29  1  0  0  0
 29 30  3  0  0  0
 24 25  1  0  0  0
 25 26  1  0  0  0
 25 27  2  0  0  0
 27 28  1  0  0  0
  1  2  1  0  0  0
  2  3  2  0  0  0
  3  4  1  0  0  0
  4  5  2  0  0  0
  5  6  1  0  0  0
  5  7  1  0  0  0
  7  8  2  0  0  0
  8  9  1  0  0  0
  9 10  2  0  0  0
 10 11  1  0  0  0
 11 12  2  0  0  0
 10 13  1  0  0  0
 13 14  3  0  0  0
 27 21  1  0  0  0
  6  2  1  0  0  0
 12  7  1  0  0  0
 17 18  1  0  0  0
 19 20  1  0  0  0
M  CHG 1  29   1
M  CHG 1  30  -1
M  END
> <minimizedAffinity>
13.93135

> <CNNscore>
0.4869636297

> <CNNaffinity>
6.6972184181

> <CNN_VS>
3.2613017559

> <CNNaffinity_variance>
1.3047165871

$$$$
[H]O[C@@]([H])(C([H])([H])[H])[C@]([H])(c1nnc(-c2c([H])c([H])c(C#N)c([H])c2[H])o1)N([H])c1c([H])c([H])c([N+]#[C-])c(Cl)c1C([H])([H])[H]


 30 32  0  0  0  0  0  0  0  0999 V2000
   -2.1288   -8.5290    6.0148 C   0  0  0  0  0  0  0  0  0  0  0  0
   -2.4202   -7.0515    5.9593 C   0  0  0  0  0  0  0  0  0  0  0  0
   -3.1143   -6.4377    4.9810 N   0  0  0  0  0  0  0  0  0  0  0  0
   -3.1937   -5.1560    5.2219 N   0  0  0  0  0  0  0  0  0  0  0  0
   -2.5228   -4.9644    6.3961 C   0  0  0  0  0  0  0  0  0  0  0  0
   -2.0870   -6.1151    6.7876 O   0  0  0  0  0  0  0  0  0  0  0  0
   -2.3889   -3.6435    7.0042 C   0  0  0  0  0  0  0  0  0  0  0  0
   -1.2495   -2.8951    6.8009 C   0  0  0  0  0  0  0  0  0  0  0  0
   -1.1008   -1.6307    7.3725 C   0  0  0  0  0  0  0  0  0  0  0  0
   -2.0915   -1.0859    8.1620 C   0  0  0  0  0  0  0  0  0  0  0  0
   -3.2318   -1.8333    8.3663 C   0  0  0  0  0  0  0  0  0  0  0  0
   -3.3664   -3.0820    7.7955 C   0  0  0  0  0  0  0  0  0  0  0  0
   -1.9359    0.2283    8.7556 C   0  0  0  0  0  0  0  0  0  0  0  0
   -1.8290    1.2725    9.2366 N   0  0  0  0  0  0  0  0  0  0  0  0
   -1.3408  -10.3275    4.3944 C   0  0  0  0  0  0  0  0  0  0  0  0
   -1.8866   -8.9717    4.6203 C   0  0  0  0  0  0  0  0  0  0  0  0
   -1.1224   -8.0528    3.8866 O   0  0  0  0  0  0  0  0  0  0  0  0
   -0.6165   -8.5297    3.1866 H   0  0  0  0  0  0  0  0  0  0  0  0
   -1.1164   -8.7953    6.9729 N   0  0  0  0  0  0  0  0  0  0  0  0
   -0.1611   -8.3416    6.7500 H   0  0  0  0  0  0  0  0  0  0  0  0
   -1.1584   -9.5437    8.1446 C   0  0  0  0  0  0  0  0  0  0  0  0
   -1.0939   -8.9508    9.3742 C   0  0  0  0  0  0  0  0  0  0  0  0
   -1.0986   -9.6834   10.5643 C   0  0  0  0  0  0  0  0  0  0  0  0
   -1.1686  -11.0451   10.5269 C   0  0  0  0  0  0  0  0  0  0  0  0
   -1.2327  -11.6557    9.3051 C   0  0  0  0  0  0  0  0  0  0  0  0
   -1.3230  -13.4263    9.2630 Cl  0  0  0  0  0  0  0  0  0  0  0  0
   -1.2291  -10.9387    8.1227 C   0  0  0  0  0  0  0  0  0  0  0  0
   -1.3013  -11.6795    6.8585 C   0  0  0  0  0  0  0  0  0  0  0  0
   -1.1758  -11.8062   11.6757 N   0  0  0  0  0  0  0  0  0  0  0  0
   -1.1806  -12.4670   12.6377 C   0  0  0  0  0  0  0  0  0  0  0  0
 15 16  1  0  0  0
 16 17  1  0  0  0
 16  1  1  0  0  0
  1 19  1  0  0  0
 19 21  1  0  0  0
 21 22  2  0  0  0
 22 23  1  0  0  0
 23 24  2  0  0  0
 24 29  1  0  0  0
 29 30  3  0  0  0
 24 25  1  0  0  0
 25 26  1  0  0  0
 25 27  2  0  0  0
 27 28  1  0  0  0
  1  2  1  0  0  0
  2  3  2  0  0  0
  3  4  1  0  0  0
  4  5  2  0  0  0
  5  6  1  0  0  0
  5  7  1  0  0  0
  7  8  2  0  0  0
  8  9  1  0  0  0
  9 10  2  0  0  0
 10 11  1  0  0  0
 11 12  2  0  0  0
 10 13  1  0  0  0
 13 14  3  0  0  0
 27 21  1  0  0  0
  6  2  1  0  0  0
 12  7  1  0  0  0
 17 18  1  0  0  0
 19 20  1  0  0  0
M  CHG 1  29   1
M  CHG 1  30  -1
M  END
> <minimizedAffinity>
-1.98352

> <CNNscore>
0.4611268938

> <CNNaffinity>
5.4908227921

> <CNN_VS>
2.5319659710

> <CNNaffinity_variance>
1.3596050739

$$$$
[H]O[C@@]([H])(C([H])([H])[H])[C@]([H])(c1nnc(-c2c([H])c([H])c(C#N)c([H])c2[H])o1)N([H])c1c([H])c([H])c([N+]#[C-])c(Cl)c1C([H])([H])[H]


 30 32  0  0  0  0  0  0  0  0999 V2000
   -8.5728   -6.9028    6.7758 C   0  0  0  0  0  0  0  0  0  0  0  0
  -10.0120   -7.0402    7.2013 C   0  0  0  0  0  0  0  0  0  0  0  0
  -11.0767   -6.7559    6.4260 N   0  0  0  0  0  0  0  0  0  0  0  0
  -12.1839   -6.9784    7.0831 N   0  0  0  0  0  0  0  0  0  0  0  0
  -11.7930   -7.4184    8.3157 C   0  0  0  0  0  0  0  0  0  0  0  0
  -10.5020   -7.4358    8.3314 O   0  0  0  0  0  0  0  0  0  0  0  0
  -12.7583   -7.7763    9.3514 C   0  0  0  0  0  0  0  0  0  0  0  0
  -12.3265   -8.2146   10.5848 C   0  0  0  0  0  0  0  0  0  0  0  0
  -13.2316   -8.5617   11.5886 C   0  0  0  0  0  0  0  0  0  0  0  0
  -14.5921   -8.4778   11.3800 C   0  0  0  0  0  0  0  0  0  0  0  0
  -15.0255   -8.0396   10.1468 C   0  0  0  0  0  0  0  0  0  0  0  0
  -14.1204   -7.6994    9.1629 C   0  0  0  0  0  0  0  0  0  0  0  0
  -15.5319   -8.8389   12.4241 C   0  0  0  0  0  0  0  0  0  0  0  0
  -16.2664   -9.1364   13.2637 N   0  0  0  0  0  0  0  0  0  0  0  0
   -9.3518   -5.0852    5.1723 C   0  0  0  0  0  0  0  0  0  0  0  0
   -8.4162   -5.5344    6.2259 C   0  0  0  0  0  0  0  0  0  0  0  0
   -7.1054   -5.2681    5.8047 O   0  0  0  0  0  0  0  0  0  0  0  0
   -7.1220   -4.6010    5.0780 H   0  0  0  0  0  0  0  0  0  0  0  0
   -7.7081   -7.2880    7.8331 N   0  0  0  0  0  0  0  0  0  0  0  0
   -8.1984   -7.8103    8.6424 H   0  0  0  0  0  0  0  0  0  0  0  0
   -6.3391   -7.0999    7.9921 C   0  0  0  0  0  0  0  0  0  0  0  0
   -5.8415   -6.1591    8.8492 C   0  0  0  0  0  0  0  0  0  0  0  0
   -4.4716   -5.9275    8.9999 C   0  0  0  0  0  0  0  0  0  0  0  0
   -3.5732   -6.6537    8.2747 C   0  0  0  0  0  0  0  0  0  0  0  0
   -4.0530   -7.5990    7.4111 C   0  0  0  0  0  0  0  0  0  0  0  0
   -2.8800   -8.5396    6.4707 Cl  0  0  0  0  0  0  0  0  0  0  0  0
   -5.4067   -7.8352    7.2561 C   0  0  0  0  0  0  0  0  0  0  0  0
   -5.8291   -8.8701    6.3060 C   0  0  0  0  0  0  0  0  0  0  0  0
   -2.2141   -6.4581    8.3920 N   0  0  0  0  0  0  0  0  0  0  0  0
   -1.0609   -6.2977    8.4727 C   0  0  0  0  0  0  0  0  0  0  0  0
 15 16  1  0  0  0
 16 17  1  0  0  0
 16  1  1  0  0  0
  1 19  1  0  0  0
 19 21  1  0  0  0
 21 22  2  0  0  0
 22 23  1  0  0  0
 23 24  2  0  0  0
 24 29  1  0  0  0
 29 30  3  0  0  0
 24 25  1  0  0  0
 25 26  1  0  0  0
 25 27  2  0  0  0
 27 28  1  0  0  0
  1  2  1  0  0  0
  2  3  2  0  0  0
  3  4  1  0  0  0
  4  5  2  0  0  0
  5  6  1  0  0  0
  5  7  1  0  0  0
  7  8  2  0  0  0
  8  9  1  0  0  0
  9 10  2  0  0  0
 10 11  1  0  0  0
 11 12  2  0  0  0
 10 13  1  0  0  0
 13 14  3  0  0  0
 27 21  1  0  0  0
  6  2  1  0  0  0
 12  7  1  0  0  0
 17 18  1  0  0  0
 19 20  1  0  0  0
M  CHG 1  29   1
M  CHG 1  30  -1
M  END
> <minimizedAffinity>
8.99684

> <CNNscore>
0.4183097780

> <CNNaffinity>
6.0597462654

> <CNN_VS>
2.5348510742

> <CNNaffinity_variance>
0.8245142698

$$$$
[H]O[C@@]([H])(C([H])([H])[H])[C@]([H])(c1nnc(-c2c([H])c([H])c(C#N)c([H])c2[H])o1)N([H])c1c([H])c([H])c([N+]#[C-])c(Cl)c1C([H])([H])[H]


 30 32  0  0  0  0  0  0  0  0999 V2000
  -12.6168   -8.7022    8.9565 C   0  0  0  0  0  0  0  0  0  0  0  0
  -11.2945   -8.9509    8.2778 C   0  0  0  0  0  0  0  0  0  0  0  0
  -11.0400   -9.9689    7.4326 N   0  0  0  0  0  0  0  0  0  0  0  0
   -9.8037   -9.9079    7.0143 N   0  0  0  0  0  0  0  0  0  0  0  0
   -9.2677   -8.8090    7.6229 C   0  0  0  0  0  0  0  0  0  0  0  0
  -10.1900   -8.2818    8.3569 O   0  0  0  0  0  0  0  0  0  0  0  0
   -7.8825   -8.4016    7.4039 C   0  0  0  0  0  0  0  0  0  0  0  0
   -7.2018   -7.6970    8.3735 C   0  0  0  0  0  0  0  0  0  0  0  0
   -5.8780   -7.2979    8.1848 C   0  0  0  0  0  0  0  0  0  0  0  0
   -5.2043   -7.5957    7.0190 C   0  0  0  0  0  0  0  0  0  0  0  0
   -5.8839   -8.3005    6.0483 C   0  0  0  0  0  0  0  0  0  0  0  0
   -7.1925   -8.6892    6.2472 C   0  0  0  0  0  0  0  0  0  0  0  0
   -3.8284   -7.1804    6.8240 C   0  0  0  0  0  0  0  0  0  0  0  0
   -2.7291   -6.8670    6.6618 N   0  0  0  0  0  0  0  0  0  0  0  0
  -13.7390   -6.7475   10.1405 C   0  0  0  0  0  0  0  0  0  0  0  0
  -12.7018   -7.2434    9.2102 C   0  0  0  0  0  0  0  0  0  0  0  0
  -12.7640   -6.4921    8.0276 O   0  0  0  0  0  0  0  0  0  0  0  0
  -13.2530   -5.6520    8.1965 H   0  0  0  0  0  0  0  0  0  0  0  0
  -13.6697   -9.3021    8.2180 N   0  0  0  0  0  0  0  0  0  0  0  0
  -13.7528  -10.3718    8.3487 H   0  0  0  0  0  0  0  0  0  0  0  0
  -14.6043   -8.7355    7.3577 C   0  0  0  0  0  0  0  0  0  0  0  0
  -15.7459   -8.1497    7.8279 C   0  0  0  0  0  0  0  0  0  0  0  0
  -16.7161   -7.6054    6.9821 C   0  0  0  0  0  0  0  0  0  0  0  0
  -16.5433   -7.6475    5.6297 C   0  0  0  0  0  0  0  0  0  0  0  0
  -15.4072   -8.2308    5.1411 C   0  0  0  0  0  0  0  0  0  0  0  0
  -15.1885   -8.2829    3.3820 Cl  0  0  0  0  0  0  0  0  0  0  0  0
  -14.4419   -8.7713    5.9707 C   0  0  0  0  0  0  0  0  0  0  0  0
  -13.2550   -9.3766    5.3565 C   0  0  0  0  0  0  0  0  0  0  0  0
  -17.4743   -7.1231    4.7595 N   0  0  0  0  0  0  0  0  0  0  0  0
  -18.2759   -6.6917    4.0291 C   0  0  0  0  0  0  0  0  0  0  0  0
 15 16  1  0  0  0
 16 17  1  0  0  0
 16  1  1  0  0  0
  1 19  1  0  0  0
 19 21  1  0  0  0
 21 22  2  0  0  0
 22 23  1  0  0  0
 23 24  2  0  0  0
 24 29  1  0  0  0
 29 30  3  0  0  0
 24 25  1  0  0  0
 25 26  1  0  0  0
 25 27  2  0  0  0
 27 28  1  0  0  0
  1  2  1  0  0  0
  2  3  2  0  0  0
  3  4  1  0  0  0
  4  5  2  0  0  0
  5  6  1  0  0  0
  5  7  1  0  0  0
  7  8  2  0  0  0
  8  9  1  0  0  0
  9 10  2  0  0  0
 10 11  1  0  0  0
 11 12  2  0  0  0
 10 13  1  0  0  0
 13 14  3  0  0  0
 27 21  1  0  0  0
  6  2  1  0  0  0
 12  7  1  0  0  0
 17 18  1  0  0  0
 19 20  1  0  0  0
M  CHG 1  29   1
M  CHG 1  30  -1
M  END
> <minimizedAffinity>
-8.58188

> <CNNscore>
0.3740696609

> <CNNaffinity>
7.0525627136

> <CNN_VS>
2.6381497383

> <CNNaffinity_variance>
0.0516152568

$$$$
[H]O[C@@]([H])(C([H])([H])[H])[C@]([H])(c1nnc(-c2c([H])c([H])c(C#N)c([H])c2[H])o1)N([H])c1c([H])c([H])c([N+]#[C-])c(Cl)c1C([H])([H])[H]


 30 32  0  0  0  0  0  0  0  0999 V2000
  -13.4680   -7.5219    6.5086 C   0  0  0  0  0  0  0  0  0  0  0  0
  -12.1262   -8.1117    6.8589 C   0  0  0  0  0  0  0  0  0  0  0  0
  -11.9230   -9.3798    7.2667 N   0  0  0  0  0  0  0  0  0  0  0  0
  -10.6518   -9.5819    7.4912 N   0  0  0  0  0  0  0  0  0  0  0  0
  -10.0398   -8.3932    7.2124 C   0  0  0  0  0  0  0  0  0  0  0  0
  -10.9556   -7.5608    6.8439 O   0  0  0  0  0  0  0  0  0  0  0  0
   -8.5963   -8.2162    7.3450 C   0  0  0  0  0  0  0  0  0  0  0  0
   -7.7476   -8.6390    6.3447 C   0  0  0  0  0  0  0  0  0  0  0  0
   -6.3654   -8.4797    6.4510 C   0  0  0  0  0  0  0  0  0  0  0  0
   -5.8003   -7.8924    7.5634 C   0  0  0  0  0  0  0  0  0  0  0  0
   -6.6479   -7.4690    8.5649 C   0  0  0  0  0  0  0  0  0  0  0  0
   -8.0127   -7.6323    8.4475 C   0  0  0  0  0  0  0  0  0  0  0  0
   -4.3634   -7.7274    7.6729 C   0  0  0  0  0  0  0  0  0  0  0  0
   -3.2187   -7.5937    7.7412 N   0  0  0  0  0  0  0  0  0  0  0  0
  -15.1338   -8.2833    4.7403 C   0  0  0  0  0  0  0  0  0  0  0  0
  -14.2679   -8.6091    5.8941 C   0  0  0  0  0  0  0  0  0  0  0  0
  -15.0247   -9.3215    6.8356 O   0  0  0  0  0  0  0  0  0  0  0  0
  -15.8314   -9.6871    6.4010 H   0  0  0  0  0  0  0  0  0  0  0  0
  -14.0212   -6.8553    7.6326 N   0  0  0  0  0  0  0  0  0  0  0  0
  -15.0376   -6.5148    7.4934 H   0  0  0  0  0  0  0  0  0  0  0  0
  -13.4660   -6.5716    8.8759 C   0  0  0  0  0  0  0  0  0  0  0  0
  -12.7372   -5.4357    9.0911 C   0  0  0  0  0  0  0  0  0  0  0  0
  -12.1401   -5.1461   10.3210 C   0  0  0  0  0  0  0  0  0  0  0  0
  -12.2727   -6.0140   11.3648 C   0  0  0  0  0  0  0  0  0  0  0  0
  -12.9977   -7.1564   11.1676 C   0  0  0  0  0  0  0  0  0  0  0  0
  -13.1660   -8.2811   12.5284 Cl  0  0  0  0  0  0  0  0  0  0  0  0
  -13.5923   -7.4507    9.9543 C   0  0  0  0  0  0  0  0  0  0  0  0
  -14.3518   -8.7002    9.8355 C   0  0  0  0  0  0  0  0  0  0  0  0
  -11.7007   -5.7679   12.5942 N   0  0  0  0  0  0  0  0  0  0  0  0
  -11.2341   -5.5594   13.6435 C   0  0  0  0  0  0  0  0  0  0  0  0
 15 16  1  0  0  0
 16 17  1  0  0  0
 16  1  1  0  0  0
  1 19  1  0  0  0
 19 21  1  0  0  0
 21 22  2  0  0  0
 22 23  1  0  0  0
 23 24  2  0  0  0
 24 29  1  0  0  0
 29 30  3  0  0  0
 24 25  1  0  0  0
 25 26  1  0  0  0
 25 27  2  0  0  0
 27 28  1  0  0  0
  1  2  1  0  0  0
  2  3  2  0  0  0
  3  4  1  0  0  0
  4  5  2  0  0  0
  5  6  1  0  0  0
  5  7  1  0  0  0
  7  8  2  0  0  0
  8  9  1  0  0  0
  9 10  2  0  0  0
 10 11  1  0  0  0
 11 12  2  0  0  0
 10 13  1  0  0  0
 13 14  3  0  0  0
 27 21  1  0  0  0
  6  2  1  0  0  0
 12  7  1  0  0  0
 17 18  1  0  0  0
 19 20  1  0  0  0
M  CHG 1  29   1
M  CHG 1  30  -1
M  END
> <minimizedAffinity>
-1.66259

> <CNNscore>
0.2846197188

> <CNNaffinity>
6.5993528366

> <CNN_VS>
1.8783059120

> <CNNaffinity_variance>
0.1425379068

$$$$
[H]O[C@@]([H])(C([H])([H])[H])[C@]([H])(c1nnc(-c2c([H])c([H])c(C#N)c([H])c2[H])o1)N([H])c1c([H])c([H])c([N+]#[C-])c(Cl)c1C([H])([H])[H]


 30 32  0  0  0  0  0  0  0  0999 V2000
   -8.7488   -7.0209    7.0800 C   0  0  0  0  0  0  0  0  0  0  0  0
  -10.1420   -7.0896    7.6502 C   0  0  0  0  0  0  0  0  0  0  0  0
  -10.4561   -6.8978    8.9464 N   0  0  0  0  0  0  0  0  0  0  0  0
  -11.7448   -7.0241    9.1205 N   0  0  0  0  0  0  0  0  0  0  0  0
  -12.2529   -7.3055    7.8844 C   0  0  0  0  0  0  0  0  0  0  0  0
  -11.2644   -7.3324    7.0541 O   0  0  0  0  0  0  0  0  0  0  0  0
  -13.6808   -7.5186    7.6648 C   0  0  0  0  0  0  0  0  0  0  0  0
  -14.3413   -6.8380    6.6647 C   0  0  0  0  0  0  0  0  0  0  0  0
  -15.7052   -7.0265    6.4378 C   0  0  0  0  0  0  0  0  0  0  0  0
  -16.4403   -7.9024    7.2085 C   0  0  0  0  0  0  0  0  0  0  0  0
  -15.7811   -8.5839    8.2094 C   0  0  0  0  0  0  0  0  0  0  0  0
  -14.4324   -8.3886    8.4233 C   0  0  0  0  0  0  0  0  0  0  0  0
  -17.8579   -8.0975    6.9718 C   0  0  0  0  0  0  0  0  0  0  0  0
  -18.9835   -8.2716    6.7827 N   0  0  0  0  0  0  0  0  0  0  0  0
   -9.8784   -5.5657    5.3227 C   0  0  0  0  0  0  0  0  0  0  0  0
   -8.7086   -5.8387    6.1854 C   0  0  0  0  0  0  0  0  0  0  0  0
   -7.5501   -5.7976    5.3961 O   0  0  0  0  0  0  0  0  0  0  0  0
   -7.7419   -5.3201    4.5543 H   0  0  0  0  0  0  0  0  0  0  0  0
   -7.7869   -7.0888    8.1212 N   0  0  0  0  0  0  0  0  0  0  0  0
   -8.2000   -7.3043    9.0965 H   0  0  0  0  0  0  0  0  0  0  0  0
   -6.4065   -6.9217    8.0857 C   0  0  0  0  0  0  0  0  0  0  0  0
   -5.7932   -5.8960    8.7484 C   0  0  0  0  0  0  0  0  0  0  0  0
   -4.4123   -5.6868    8.6990 C   0  0  0  0  0  0  0  0  0  0  0  0
   -3.6214   -6.5233    7.9675 C   0  0  0  0  0  0  0  0  0  0  0  0
   -4.2179   -7.5549    7.2969 C   0  0  0  0  0  0  0  0  0  0  0  0
   -3.1844   -8.6388    6.3472 Cl  0  0  0  0  0  0  0  0  0  0  0  0
   -5.5833   -7.7696    7.3406 C   0  0  0  0  0  0  0  0  0  0  0  0
   -6.1349   -8.9025    6.5893 C   0  0  0  0  0  0  0  0  0  0  0  0
   -2.2559   -6.3538    7.8913 N   0  0  0  0  0  0  0  0  0  0  0  0
   -1.0997   -6.2179    7.8087 C   0  0  0  0  0  0  0  0  0  0  0  0
 15 16  1  0  0  0
 16 17  1  0  0  0
 16  1  1  0  0  0
  1 19  1  0  0  0
 19 21  1  0  0  0
 21 22  2  0  0  0
 22 23  1  0  0  0
 23 24  2  0  0  0
 24 29  1  0  0  0
 29 30  3  0  0  0
 24 25  1  0  0  0
 25 26  1  0  0  0
 25 27  2  0  0  0
 27 28  1  0  0  0
  1  2  1  0  0  0
  2  3  2  0  0  0
  3  4  1  0  0  0
  4  5  2  0  0  0
  5  6  1  0  0  0
  5  7  1  0  0  0
  7  8  2  0  0  0
  8  9  1  0  0  0
  9 10  2  0  0  0
 10 11  1  0  0  0
 11 12  2  0  0  0
 10 13  1  0  0  0
 13 14  3  0  0  0
 27 21  1  0  0  0
  6  2  1  0  0  0
 12  7  1  0  0  0
 17 18  1  0  0  0
 19 20  1  0  0  0
M  CHG 1  29   1
M  CHG 1  30  -1
M  END
> <minimizedAffinity>
-0.98559

> <CNNscore>
0.2806789875

> <CNNaffinity>
6.1976351738

> <CNN_VS>
1.7395459414

> <CNNaffinity_variance>
0.2914361358

$$$$
[H]O[C@@]([H])(C([H])([H])[H])[C@]([H])(c1nnc(-c2c([H])c([H])c(C#N)c([H])c2[H])o1)N([H])c1c([H])c([H])c([N+]#[C-])c(Cl)c1C([H])([H])[H]


 30 32  0  0  0  0  0  0  0  0999 V2000
   -9.1367   -6.9315    6.4644 C   0  0  0  0  0  0  0  0  0  0  0  0
  -10.3812   -6.9293    7.3142 C   0  0  0  0  0  0  0  0  0  0  0  0
  -10.5792   -6.1443    8.3912 N   0  0  0  0  0  0  0  0  0  0  0  0
  -11.7554   -6.3796    8.9094 N   0  0  0  0  0  0  0  0  0  0  0  0
  -12.3112   -7.3490    8.1241 C   0  0  0  0  0  0  0  0  0  0  0  0
  -11.4583   -7.6366    7.1983 O   0  0  0  0  0  0  0  0  0  0  0  0
  -13.6435   -7.8868    8.3853 C   0  0  0  0  0  0  0  0  0  0  0  0
  -14.7643   -7.1259    8.1311 C   0  0  0  0  0  0  0  0  0  0  0  0
  -16.0466   -7.6202    8.3735 C   0  0  0  0  0  0  0  0  0  0  0  0
  -16.2363   -8.8899    8.8769 C   0  0  0  0  0  0  0  0  0  0  0  0
  -15.1162   -9.6522    9.1318 C   0  0  0  0  0  0  0  0  0  0  0  0
  -13.8541   -9.1518    8.8877 C   0  0  0  0  0  0  0  0  0  0  0  0
  -17.5696   -9.4026    9.1286 C   0  0  0  0  0  0  0  0  0  0  0  0
  -18.6380   -9.7936    9.3249 N   0  0  0  0  0  0  0  0  0  0  0  0
   -9.0636   -4.5555    5.5528 C   0  0  0  0  0  0  0  0  0  0  0  0
   -8.5749   -5.5602    6.5218 C   0  0  0  0  0  0  0  0  0  0  0  0
   -7.1726   -5.5498    6.5095 O   0  0  0  0  0  0  0  0  0  0  0  0
   -6.8529   -4.7087    6.1050 H   0  0  0  0  0  0  0  0  0  0  0  0
   -8.2870   -8.0048    6.8387 N   0  0  0  0  0  0  0  0  0  0  0  0
   -8.7828   -8.7980    7.3802 H   0  0  0  0  0  0  0  0  0  0  0  0
   -6.9265   -8.1956    6.6214 C   0  0  0  0  0  0  0  0  0  0  0  0
   -6.4392   -8.5295    5.3891 C   0  0  0  0  0  0  0  0  0  0  0  0
   -5.0812   -8.7609    5.1539 C   0  0  0  0  0  0  0  0  0  0  0  0
   -4.1845   -8.6574    6.1765 C   0  0  0  0  0  0  0  0  0  0  0  0
   -4.6542   -8.3250    7.4169 C   0  0  0  0  0  0  0  0  0  0  0  0
   -3.4836   -8.1924    8.7425 Cl  0  0  0  0  0  0  0  0  0  0  0  0
   -5.9960   -8.0938    7.6585 C   0  0  0  0  0  0  0  0  0  0  0  0
   -6.4080   -7.7421    9.0218 C   0  0  0  0  0  0  0  0  0  0  0  0
   -2.8370   -8.8770    5.9891 N   0  0  0  0  0  0  0  0  0  0  0  0
   -1.6964   -9.0515    5.8145 C   0  0  0  0  0  0  0  0  0  0  0  0
 15 16  1  0  0  0
 16 17  1  0  0  0
 16  1  1  0  0  0
  1 19  1  0  0  0
 19 21  1  0  0  0
 21 22  2  0  0  0
 22 23  1  0  0  0
 23 24  2  0  0  0
 24 29  1  0  0  0
 29 30  3  0  0  0
 24 25  1  0  0  0
 25 26  1  0  0  0
 25 27  2  0  0  0
 27 28  1  0  0  0
  1  2  1  0  0  0
  2  3  2  0  0  0
  3  4  1  0  0  0
  4  5  2  0  0  0
  5  6  1  0  0  0
  5  7  1  0  0  0
  7  8  2  0  0  0
  8  9  1  0  0  0
  9 10  2  0  0  0
 10 11  1  0  0  0
 11 12  2  0  0  0
 10 13  1  0  0  0
 13 14  3  0  0  0
 27 21  1  0  0  0
  6  2  1  0  0  0
 12  7  1  0  0  0
 17 18  1  0  0  0
 19 20  1  0  0  0
M  CHG 1  29   1
M  CHG 1  30  -1
M  END
> <minimizedAffinity>
12.66745

> <CNNscore>
0.2694429457

> <CNNaffinity>
6.0379643440

> <CNN_VS>
1.6268868446

> <CNNaffinity_variance>
0.9875262976

$$$$
[H]O[C@@]([H])(C([H])([H])[H])[C@]([H])(c1nnc(-c2c([H])c([H])c(C#N)c([H])c2[H])o1)N([H])c1c([H])c([H])c([N+]#[C-])c(Cl)c1C([H])([H])[H]


 30 32  0  0  0  0  0  0  0  0999 V2000
   -7.6873   -7.9051    6.4036 C   0  0  0  0  0  0  0  0  0  0  0  0
   -6.4227   -7.3426    6.9998 C   0  0  0  0  0  0  0  0  0  0  0  0
   -5.4178   -8.0784    7.5139 N   0  0  0  0  0  0  0  0  0  0  0  0
   -4.4659   -7.2972    7.9505 N   0  0  0  0  0  0  0  0  0  0  0  0
   -4.8951   -6.0253    7.6984 C   0  0  0  0  0  0  0  0  0  0  0  0
   -6.0547   -6.1098    7.1369 O   0  0  0  0  0  0  0  0  0  0  0  0
   -4.0946   -4.8550    8.0480 C   0  0  0  0  0  0  0  0  0  0  0  0
   -3.6610   -3.9891    7.0672 C   0  0  0  0  0  0  0  0  0  0  0  0
   -2.8951   -2.8650    7.3792 C   0  0  0  0  0  0  0  0  0  0  0  0
   -2.5453   -2.5818    8.6826 C   0  0  0  0  0  0  0  0  0  0  0  0
   -2.9783   -3.4470    9.6648 C   0  0  0  0  0  0  0  0  0  0  0  0
   -3.7349   -4.5548    9.3431 C   0  0  0  0  0  0  0  0  0  0  0  0
   -1.7492   -1.4132    9.0058 C   0  0  0  0  0  0  0  0  0  0  0  0
   -1.1025   -0.4943    9.2710 N   0  0  0  0  0  0  0  0  0  0  0  0
   -7.9417   -9.9939    4.9705 C   0  0  0  0  0  0  0  0  0  0  0  0
   -7.2876   -8.6893    5.2100 C   0  0  0  0  0  0  0  0  0  0  0  0
   -5.8989   -8.8600    5.1158 O   0  0  0  0  0  0  0  0  0  0  0  0
   -5.7019   -9.6990    4.6356 H   0  0  0  0  0  0  0  0  0  0  0  0
   -8.4483   -8.5694    7.4003 N   0  0  0  0  0  0  0  0  0  0  0  0
   -7.8590   -9.1340    8.1089 H   0  0  0  0  0  0  0  0  0  0  0  0
   -9.8232   -8.6095    7.6075 C   0  0  0  0  0  0  0  0  0  0  0  0
  -10.5928   -9.6201    7.1037 C   0  0  0  0  0  0  0  0  0  0  0  0
  -11.9799   -9.6637    7.2684 C   0  0  0  0  0  0  0  0  0  0  0  0
  -12.6171   -8.6713    7.9536 C   0  0  0  0  0  0  0  0  0  0  0  0
  -11.8630   -7.6512    8.4640 C   0  0  0  0  0  0  0  0  0  0  0  0
  -12.6971   -6.3636    9.3535 Cl  0  0  0  0  0  0  0  0  0  0  0  0
  -10.4901   -7.6003    8.3063 C   0  0  0  0  0  0  0  0  0  0  0  0
   -9.7634   -6.4670    8.8891 C   0  0  0  0  0  0  0  0  0  0  0  0
  -13.9826   -8.6747    8.1394 N   0  0  0  0  0  0  0  0  0  0  0  0
  -15.1409   -8.6888    8.2809 C   0  0  0  0  0  0  0  0  0  0  0  0
 15 16  1  0  0  0
 16 17  1  0  0  0
 16  1  1  0  0  0
  1 19  1  0  0  0
 19 21  1  0  0  0
 21 22  2  0  0  0
 22 23  1  0  0  0
 23 24  2  0  0  0
 24 29  1  0  0  0
 29 30  3  0  0  0
 24 25  1  0  0  0
 25 26  1  0  0  0
 25 27  2  0  0  0
 27 28  1  0  0  0
  1  2  1  0  0  0
  2  3  2  0  0  0
  3  4  1  0  0  0
  4  5  2  0  0  0
  5  6  1  0  0  0
  5  7  1  0  0  0
  7  8  2  0  0  0
  8  9  1  0  0  0
  9 10  2  0  0  0
 10 11  1  0  0  0
 11 12  2  0  0  0
 10 13  1  0  0  0
 13 14  3  0  0  0
 27 21  1  0  0  0
  6  2  1  0  0  0
 12  7  1  0  0  0
 17 18  1  0  0  0
 19 20  1  0  0  0
M  CHG 1  29   1
M  CHG 1  30  -1
M  END
> <minimizedAffinity>
-3.24732

> <CNNscore>
0.2283395827

> <CNNaffinity>
6.2210187912

> <CNN_VS>
1.4205048084

> <CNNaffinity_variance>
0.3751965463

$$$$
[H]C([H])=C([H])C(=O)N([H])c1sc(N([H])c2c([H])c([H])c3c([H])c([H])c([H])c([H])c3c2[H])nc1C(=O)N([H])[H]


 28 30  0  0  0  0  0  0  0  0999 V2000
  -14.5618   -8.6859    7.6551 C   0  0  0  0  0  0  0  0  0  0  0  0
  -13.3617   -8.9311    8.0800 N   0  0  0  0  0  0  0  0  0  0  0  0
  -12.4093   -9.3212    7.2946 C   0  0  0  0  0  0  0  0  0  0  0  0
  -13.2422   -9.3650    5.7707 S   0  0  0  0  0  0  0  0  0  0  0  0
  -14.8040   -8.8527    6.3266 C   0  0  0  0  0  0  0  0  0  0  0  0
  -17.0054   -8.2519    8.2341 N   0  0  0  0  0  0  0  0  0  0  0  0
  -15.6177   -8.2413    8.5947 C   0  0  0  0  0  0  0  0  0  0  0  0
  -15.3674   -7.8342    9.7467 O   0  0  0  0  0  0  0  0  0  0  0  0
  -17.3769   -7.4554    7.6913 H   0  0  0  0  0  0  0  0  0  0  0  0
  -17.6482   -9.0280    8.4977 H   0  0  0  0  0  0  0  0  0  0  0  0
  -15.9491   -8.6915    5.5035 N   0  0  0  0  0  0  0  0  0  0  0  0
  -16.2007   -7.4693    4.8321 C   0  0  0  0  0  0  0  0  0  0  0  0
  -15.3965   -6.5226    4.9719 O   0  0  0  0  0  0  0  0  0  0  0  0
  -16.6211   -9.4545    5.3751 H   0  0  0  0  0  0  0  0  0  0  0  0
  -17.3624   -7.2839    3.9881 C   0  0  0  0  0  0  0  0  0  0  0  0
  -18.0770   -6.1817    4.0311 C   0  0  0  0  0  0  0  0  0  0  0  0
  -11.0407   -9.6512    7.4900 N   0  0  0  0  0  0  0  0  0  0  0  0
  -10.8366  -10.6815    7.6683 H   0  0  0  0  0  0  0  0  0  0  0  0
   -9.9416   -8.7832    7.4748 C   0  0  0  0  0  0  0  0  0  0  0  0
   -9.9881   -7.4479    7.7864 C   0  0  0  0  0  0  0  0  0  0  0  0
   -8.8555   -6.6299    7.7534 C   0  0  0  0  0  0  0  0  0  0  0  0
   -7.6283   -7.1362    7.4022 C   0  0  0  0  0  0  0  0  0  0  0  0
   -6.4953   -6.3384    7.3646 C   0  0  0  0  0  0  0  0  0  0  0  0
   -5.2622   -6.8390    7.0136 C   0  0  0  0  0  0  0  0  0  0  0  0
   -5.1886   -8.1711    6.6976 C   0  0  0  0  0  0  0  0  0  0  0  0
   -6.3089   -8.9720    6.7320 C   0  0  0  0  0  0  0  0  0  0  0  0
   -7.5480   -8.4735    7.0837 C   0  0  0  0  0  0  0  0  0  0  0  0
   -8.6714   -9.2591    7.1222 C   0  0  0  0  0  0  0  0  0  0  0  0
  6  7  1  0  0  0
  7  8  2  0  0  0
  7  1  1  0  0  0
  1  2  1  0  0  0
  2  3  2  0  0  0
  3 17  1  0  0  0
 17 19  1  0  0  0
 19 20  2  0  0  0
 20 21  1  0  0  0
 21 22  2  0  0  0
 22 23  1  0  0  0
 23 24  2  0  0  0
 24 25  1  0  0  0
 25 26  2  0  0  0
 26 27  1  0  0  0
 27 28  2  0  0  0
  3  4  1  0  0  0
  4  5  1  0  0  0
  5 11  1  0  0  0
 11 12  1  0  0  0
 12 13  2  0  0  0
 12 15  1  0  0  0
 15 16  2  0  0  0
  5  1  2  0  0  0
 28 19  1  0  0  0
 27 22  1  0  0  0
  6  9  1  0  0  0
  6 10  1  0  0  0
 17 18  1  0  0  0
 11 14  1  0  0  0
M  END
> <minimizedAffinity>
-8.32497

> <CNNscore>
0.6227657199

> <CNNaffinity>
6.6933302879

> <CNN_VS>
4.1683764458

> <CNNaffinity_variance>
0.0895560384

$$$$
[H]C([H])=C([H])C(=O)N([H])c1sc(N([H])c2c([H])c([H])c3c([H])c([H])c([H])c([H])c3c2[H])nc1C(=O)N([H])[H]


 28 30  0  0  0  0  0  0  0  0999 V2000
  -11.2713   -7.7858    8.3484 C   0  0  0  0  0  0  0  0  0  0  0  0
  -12.4457   -8.0303    7.8563 N   0  0  0  0  0  0  0  0  0  0  0  0
  -12.6685   -9.0046    7.0333 C   0  0  0  0  0  0  0  0  0  0  0  0
  -11.0773   -9.6890    6.9013 S   0  0  0  0  0  0  0  0  0  0  0  0
  -10.2494   -8.6002    7.9689 C   0  0  0  0  0  0  0  0  0  0  0  0
  -10.1815   -5.5719    8.9853 N   0  0  0  0  0  0  0  0  0  0  0  0
  -11.0677   -6.6578    9.2873 C   0  0  0  0  0  0  0  0  0  0  0  0
  -11.6490   -6.5837   10.3882 O   0  0  0  0  0  0  0  0  0  0  0  0
   -9.1726   -5.6971    9.1685 H   0  0  0  0  0  0  0  0  0  0  0  0
  -10.5154   -4.6676    8.5906 H   0  0  0  0  0  0  0  0  0  0  0  0
   -8.8651   -8.6570    8.2774 N   0  0  0  0  0  0  0  0  0  0  0  0
   -7.9371   -7.8001    7.6351 C   0  0  0  0  0  0  0  0  0  0  0  0
   -8.3521   -6.9837    6.7844 O   0  0  0  0  0  0  0  0  0  0  0  0
   -8.5036   -9.3186    8.9715 H   0  0  0  0  0  0  0  0  0  0  0  0
   -6.5213   -7.8418    7.9350 C   0  0  0  0  0  0  0  0  0  0  0  0
   -5.6220   -8.0208    6.9934 C   0  0  0  0  0  0  0  0  0  0  0  0
  -13.8251   -9.4845    6.3608 N   0  0  0  0  0  0  0  0  0  0  0  0
  -14.0629  -10.5094    6.5285 H   0  0  0  0  0  0  0  0  0  0  0  0
  -14.6784   -8.7691    5.5113 C   0  0  0  0  0  0  0  0  0  0  0  0
  -14.8202   -8.9945    4.1654 C   0  0  0  0  0  0  0  0  0  0  0  0
  -15.6896   -8.2464    3.3669 C   0  0  0  0  0  0  0  0  0  0  0  0
  -16.4510   -7.2378    3.9044 C   0  0  0  0  0  0  0  0  0  0  0  0
  -17.3180   -6.4866    3.1262 C   0  0  0  0  0  0  0  0  0  0  0  0
  -18.0842   -5.4744    3.6580 C   0  0  0  0  0  0  0  0  0  0  0  0
  -17.9610   -5.2288    5.0012 C   0  0  0  0  0  0  0  0  0  0  0  0
  -17.1021   -5.9699    5.7827 C   0  0  0  0  0  0  0  0  0  0  0  0
  -16.3316   -6.9863    5.2530 C   0  0  0  0  0  0  0  0  0  0  0  0
  -15.4727   -7.7320    6.0190 C   0  0  0  0  0  0  0  0  0  0  0  0
  6  7  1  0  0  0
  7  8  2  0  0  0
  7  1  1  0  0  0
  1  2  1  0  0  0
  2  3  2  0  0  0
  3 17  1  0  0  0
 17 19  1  0  0  0
 19 20  2  0  0  0
 20 21  1  0  0  0
 21 22  2  0  0  0
 22 23  1  0  0  0
 23 24  2  0  0  0
 24 25  1  0  0  0
 25 26  2  0  0  0
 26 27  1  0  0  0
 27 28  2  0  0  0
  3  4  1  0  0  0
  4  5  1  0  0  0
  5 11  1  0  0  0
 11 12  1  0  0  0
 12 13  2  0  0  0
 12 15  1  0  0  0
 15 16  2  0  0  0
  5  1  2  0  0  0
 28 19  1  0  0  0
 27 22  1  0  0  0
  6  9  1  0  0  0
  6 10  1  0  0  0
 17 18  1  0  0  0
 11 14  1  0  0  0
M  END
> <minimizedAffinity>
-8.21497

> <CNNscore>
0.5592830181

> <CNNaffinity>
6.6059279442

> <CNN_VS>
3.6945834160

> <CNNaffinity_variance>
0.1183187217

$$$$
[H]C([H])=C([H])C(=O)N([H])c1sc(N([H])c2c([H])c([H])c3c([H])c([H])c([H])c([H])c3c2[H])nc1C(=O)N([H])[H]


 28 30  0  0  0  0  0  0  0  0999 V2000
   -9.6573   -7.7831    7.8678 C   0  0  0  0  0  0  0  0  0  0  0  0
   -8.7486   -7.9456    6.9573 N   0  0  0  0  0  0  0  0  0  0  0  0
   -8.6959   -8.9970    6.2037 C   0  0  0  0  0  0  0  0  0  0  0  0
  -10.0582   -9.8940    6.8013 S   0  0  0  0  0  0  0  0  0  0  0  0
  -10.5806   -8.7714    8.0169 C   0  0  0  0  0  0  0  0  0  0  0  0
   -8.8371   -6.4228    9.8606 N   0  0  0  0  0  0  0  0  0  0  0  0
   -9.6748   -6.5609    8.7052 C   0  0  0  0  0  0  0  0  0  0  0  0
  -10.4123   -5.5858    8.4595 O   0  0  0  0  0  0  0  0  0  0  0  0
   -9.1544   -6.8430   10.7493 H   0  0  0  0  0  0  0  0  0  0  0  0
   -7.9263   -5.9178    9.8368 H   0  0  0  0  0  0  0  0  0  0  0  0
  -11.6963   -8.9596    8.8741 N   0  0  0  0  0  0  0  0  0  0  0  0
  -12.9308   -8.3121    8.6198 C   0  0  0  0  0  0  0  0  0  0  0  0
  -13.0311   -7.5650    7.6227 O   0  0  0  0  0  0  0  0  0  0  0  0
  -11.6359   -9.5676    9.6967 H   0  0  0  0  0  0  0  0  0  0  0  0
  -14.0809   -8.4903    9.4812 C   0  0  0  0  0  0  0  0  0  0  0  0
  -14.6535   -7.4735   10.0859 C   0  0  0  0  0  0  0  0  0  0  0  0
   -7.8317   -9.4199    5.1574 N   0  0  0  0  0  0  0  0  0  0  0  0
   -6.9396   -8.8498    5.0386 H   0  0  0  0  0  0  0  0  0  0  0  0
   -8.0193  -10.4905    4.2741 C   0  0  0  0  0  0  0  0  0  0  0  0
   -8.6537  -11.6665    4.5853 C   0  0  0  0  0  0  0  0  0  0  0  0
   -8.8111  -12.7018    3.6598 C   0  0  0  0  0  0  0  0  0  0  0  0
   -8.3298  -12.5838    2.3791 C   0  0  0  0  0  0  0  0  0  0  0  0
   -8.4777  -13.6012    1.4493 C   0  0  0  0  0  0  0  0  0  0  0  0
   -7.9979  -13.4899    0.1640 C   0  0  0  0  0  0  0  0  0  0  0  0
   -7.3596  -12.3241   -0.1725 C   0  0  0  0  0  0  0  0  0  0  0  0
   -7.2077  -11.3074    0.7445 C   0  0  0  0  0  0  0  0  0  0  0  0
   -7.6877  -11.4152    2.0351 C   0  0  0  0  0  0  0  0  0  0  0  0
   -7.5436  -10.4113    2.9582 C   0  0  0  0  0  0  0  0  0  0  0  0
  6  7  1  0  0  0
  7  8  2  0  0  0
  7  1  1  0  0  0
  1  2  1  0  0  0
  2  3  2  0  0  0
  3 17  1  0  0  0
 17 19  1  0  0  0
 19 20  2  0  0  0
 20 21  1  0  0  0
 21 22  2  0  0  0
 22 23  1  0  0  0
 23 24  2  0  0  0
 24 25  1  0  0  0
 25 26  2  0  0  0
 26 27  1  0  0  0
 27 28  2  0  0  0
  3  4  1  0  0  0
  4  5  1  0  0  0
  5 11  1  0  0  0
 11 12  1  0  0  0
 12 13  2  0  0  0
 12 15  1  0  0  0
 15 16  2  0  0  0
  5  1  2  0  0  0
 28 19  1  0  0  0
 27 22  1  0  0  0
  6  9  1  0  0  0
  6 10  1  0  0  0
 17 18  1  0  0  0
 11 14  1  0  0  0
M  END
> <minimizedAffinity>
11.88661

> <CNNscore>
0.5458652973

> <CNNaffinity>
5.7804322243

> <CNN_VS>
3.1553373337

> <CNNaffinity_variance>
0.8951277733

$$$$
[H]C([H])=C([H])C(=O)N([H])c1sc(N([H])c2c([H])c([H])c3c([H])c([H])c([H])c([H])c3c2[H])nc1C(=O)N([H])[H]


 28 30  0  0  0  0  0  0  0  0999 V2000
   -9.5085   -9.4746    6.7975 C   0  0  0  0  0  0  0  0  0  0  0  0
  -10.6751   -9.0188    7.1326 N   0  0  0  0  0  0  0  0  0  0  0  0
  -10.8451   -7.8370    7.6332 C   0  0  0  0  0  0  0  0  0  0  0  0
   -9.2083   -7.2555    7.6574 S   0  0  0  0  0  0  0  0  0  0  0  0
   -8.4366   -8.6588    6.9895 C   0  0  0  0  0  0  0  0  0  0  0  0
   -9.0505  -11.0481    4.8458 N   0  0  0  0  0  0  0  0  0  0  0  0
   -9.3662  -10.8351    6.2281 C   0  0  0  0  0  0  0  0  0  0  0  0
   -9.5109  -11.8697    6.9094 O   0  0  0  0  0  0  0  0  0  0  0  0
   -9.8190  -11.0137    4.1565 H   0  0  0  0  0  0  0  0  0  0  0  0
   -8.0811  -11.2350    4.5135 H   0  0  0  0  0  0  0  0  0  0  0  0
   -7.0423   -8.7887    6.7571 N   0  0  0  0  0  0  0  0  0  0  0  0
   -6.2550   -7.6693    6.3897 C   0  0  0  0  0  0  0  0  0  0  0  0
   -6.8044   -6.5529    6.2706 O   0  0  0  0  0  0  0  0  0  0  0  0
   -6.5719   -9.6944    6.8492 H   0  0  0  0  0  0  0  0  0  0  0  0
   -4.8317   -7.7800    6.1481 C   0  0  0  0  0  0  0  0  0  0  0  0
   -4.1394   -8.8149    6.5689 C   0  0  0  0  0  0  0  0  0  0  0  0
  -11.9808   -7.1059    8.0758 N   0  0  0  0  0  0  0  0  0  0  0  0
  -12.7745   -7.0170    7.3705 H   0  0  0  0  0  0  0  0  0  0  0  0
  -12.1720   -6.4953    9.3216 C   0  0  0  0  0  0  0  0  0  0  0  0
  -13.3269   -5.8743    9.7255 C   0  0  0  0  0  0  0  0  0  0  0  0
  -13.4591   -5.2811   10.9839 C   0  0  0  0  0  0  0  0  0  0  0  0
  -12.4220   -5.2950   11.8840 C   0  0  0  0  0  0  0  0  0  0  0  0
  -12.5370   -4.7112   13.1360 C   0  0  0  0  0  0  0  0  0  0  0  0
  -11.5019   -4.7213   14.0432 C   0  0  0  0  0  0  0  0  0  0  0  0
  -10.3364   -5.3358   13.6640 C   0  0  0  0  0  0  0  0  0  0  0  0
  -10.2126   -5.9186   12.4220 C   0  0  0  0  0  0  0  0  0  0  0  0
  -11.2488   -5.9106   11.5089 C   0  0  0  0  0  0  0  0  0  0  0  0
  -11.1395   -6.4869   10.2692 C   0  0  0  0  0  0  0  0  0  0  0  0
  6  7  1  0  0  0
  7  8  2  0  0  0
  7  1  1  0  0  0
  1  2  1  0  0  0
  2  3  2  0  0  0
  3 17  1  0  0  0
 17 19  1  0  0  0
 19 20  2  0  0  0
 20 21  1  0  0  0
 21 22  2  0  0  0
 22 23  1  0  0  0
 23 24  2  0  0  0
 24 25  1  0  0  0
 25 26  2  0  0  0
 26 27  1  0  0  0
 27 28  2  0  0  0
  3  4  1  0  0  0
  4  5  1  0  0  0
  5 11  1  0  0  0
 11 12  1  0  0  0
 12 13  2  0  0  0
 12 15  1  0  0  0
 15 16  2  0  0  0
  5  1  2  0  0  0
 28 19  1  0  0  0
 27 22  1  0  0  0
  6  9  1  0  0  0
  6 10  1  0  0  0
 17 18  1  0  0  0
 11 14  1  0  0  0
M  END
> <minimizedAffinity>
4.02874

> <CNNscore>
0.5311565995

> <CNNaffinity>
5.8427424431

> <CNN_VS>
3.1034111977

> <CNNaffinity_variance>
0.7953255773

$$$$
[H]C([H])=C([H])C(=O)N([H])c1sc(N([H])c2c([H])c([H])c3c([H])c([H])c([H])c([H])c3c2[H])nc1C(=O)N([H])[H]


 28 30  0  0  0  0  0  0  0  0999 V2000
  -13.1630   -8.2509    8.5504 C   0  0  0  0  0  0  0  0  0  0  0  0
  -11.8775   -8.4135    8.5962 N   0  0  0  0  0  0  0  0  0  0  0  0
  -11.2273   -9.0892    7.7036 C   0  0  0  0  0  0  0  0  0  0  0  0
  -12.5243   -9.5748    6.6548 S   0  0  0  0  0  0  0  0  0  0  0  0
  -13.8318   -8.8232    7.5128 C   0  0  0  0  0  0  0  0  0  0  0  0
  -13.3481   -6.2181   10.0762 N   0  0  0  0  0  0  0  0  0  0  0  0
  -13.8613   -7.4682    9.5969 C   0  0  0  0  0  0  0  0  0  0  0  0
  -14.9286   -7.8446   10.1208 O   0  0  0  0  0  0  0  0  0  0  0  0
  -12.6154   -6.2357   10.8041 H   0  0  0  0  0  0  0  0  0  0  0  0
  -13.6848   -5.2991    9.7197 H   0  0  0  0  0  0  0  0  0  0  0  0
  -15.1960   -8.8715    7.1236 N   0  0  0  0  0  0  0  0  0  0  0  0
  -15.7841   -7.8131    6.3875 C   0  0  0  0  0  0  0  0  0  0  0  0
  -15.0838   -6.8245    6.0798 O   0  0  0  0  0  0  0  0  0  0  0  0
  -15.7880   -9.6723    7.3653 H   0  0  0  0  0  0  0  0  0  0  0  0
  -17.1734   -7.8424    5.9807 C   0  0  0  0  0  0  0  0  0  0  0  0
  -17.5586   -8.4613    4.8871 C   0  0  0  0  0  0  0  0  0  0  0  0
   -9.8566   -9.4154    7.5165 N   0  0  0  0  0  0  0  0  0  0  0  0
   -9.6242  -10.4550    7.5352 H   0  0  0  0  0  0  0  0  0  0  0  0
   -8.7881   -8.5332    7.3127 C   0  0  0  0  0  0  0  0  0  0  0  0
   -8.8928   -7.1659    7.2696 C   0  0  0  0  0  0  0  0  0  0  0  0
   -7.7885   -6.3350    7.0624 C   0  0  0  0  0  0  0  0  0  0  0  0
   -6.5314   -6.8604    6.8904 C   0  0  0  0  0  0  0  0  0  0  0  0
   -5.4258   -6.0501    6.6840 C   0  0  0  0  0  0  0  0  0  0  0  0
   -4.1630   -6.5697    6.5109 C   0  0  0  0  0  0  0  0  0  0  0  0
   -4.0312   -7.9338    6.5497 C   0  0  0  0  0  0  0  0  0  0  0  0
   -5.1239   -8.7472    6.7543 C   0  0  0  0  0  0  0  0  0  0  0  0
   -6.3925   -8.2299    6.9283 C   0  0  0  0  0  0  0  0  0  0  0  0
   -7.4891   -9.0277    7.1329 C   0  0  0  0  0  0  0  0  0  0  0  0
  6  7  1  0  0  0
  7  8  2  0  0  0
  7  1  1  0  0  0
  1  2  1  0  0  0
  2  3  2  0  0  0
  3 17  1  0  0  0
 17 19  1  0  0  0
 19 20  2  0  0  0
 20 21  1  0  0  0
 21 22  2  0  0  0
 22 23  1  0  0  0
 23 24  2  0  0  0
 24 25  1  0  0  0
 25 26  2  0  0  0
 26 27  1  0  0  0
 27 28  2  0  0  0
  3  4  1  0  0  0
  4  5  1  0  0  0
  5 11  1  0  0  0
 11 12  1  0  0  0
 12 13  2  0  0  0
 12 15  1  0  0  0
 15 16  2  0  0  0
  5  1  2  0  0  0
 28 19  1  0  0  0
 27 22  1  0  0  0
  6  9  1  0  0  0
  6 10  1  0  0  0
 17 18  1  0  0  0
 11 14  1  0  0  0
M  END
> <minimizedAffinity>
-7.82001

> <CNNscore>
0.4919027388

> <CNNaffinity>
6.4994659424

> <CNN_VS>
3.1971051693

> <CNNaffinity_variance>
0.0861319974

$$$$
[H]C([H])=C([H])C(=O)N([H])c1sc(N([H])c2c([H])c([H])c3c([H])c([H])c([H])c([H])c3c2[H])nc1C(=O)N([H])[H]


 28 30  0  0  0  0  0  0  0  0999 V2000
  -12.0583   -7.6770    8.7442 C   0  0  0  0  0  0  0  0  0  0  0  0
  -10.7795   -7.8468    8.6133 N   0  0  0  0  0  0  0  0  0  0  0  0
  -10.2704   -8.7096    7.7933 C   0  0  0  0  0  0  0  0  0  0  0  0
  -11.7112   -9.3888    7.1000 S   0  0  0  0  0  0  0  0  0  0  0  0
  -12.8759   -8.4487    7.9777 C   0  0  0  0  0  0  0  0  0  0  0  0
  -11.8092   -5.5586   10.1388 N   0  0  0  0  0  0  0  0  0  0  0  0
  -12.5919   -6.6759    9.6973 C   0  0  0  0  0  0  0  0  0  0  0  0
  -13.7440   -6.7422   10.1701 O   0  0  0  0  0  0  0  0  0  0  0  0
  -11.1410   -5.7036   10.9131 H   0  0  0  0  0  0  0  0  0  0  0  0
  -11.8891   -4.6126    9.7102 H   0  0  0  0  0  0  0  0  0  0  0  0
  -14.2841   -8.5576    7.8362 N   0  0  0  0  0  0  0  0  0  0  0  0
  -15.0062   -7.6668    7.0039 C   0  0  0  0  0  0  0  0  0  0  0  0
  -14.3861   -6.7734    6.3877 O   0  0  0  0  0  0  0  0  0  0  0  0
  -14.8120   -9.2825    8.3322 H   0  0  0  0  0  0  0  0  0  0  0  0
  -16.4424   -7.7604    6.8456 C   0  0  0  0  0  0  0  0  0  0  0  0
  -16.9980   -7.9003    5.6627 C   0  0  0  0  0  0  0  0  0  0  0  0
   -8.9424   -9.0907    7.4595 N   0  0  0  0  0  0  0  0  0  0  0  0
   -8.7232  -10.1287    7.5570 H   0  0  0  0  0  0  0  0  0  0  0  0
   -7.9003   -8.2637    7.0217 C   0  0  0  0  0  0  0  0  0  0  0  0
   -8.0639   -7.0350    6.4335 C   0  0  0  0  0  0  0  0  0  0  0  0
   -6.9834   -6.2532    6.0160 C   0  0  0  0  0  0  0  0  0  0  0  0
   -5.6913   -6.6888    6.1795 C   0  0  0  0  0  0  0  0  0  0  0  0
   -4.6087   -5.9256    5.7709 C   0  0  0  0  0  0  0  0  0  0  0  0
   -3.3111   -6.3556    5.9316 C   0  0  0  0  0  0  0  0  0  0  0  0
   -3.1203   -7.5807    6.5170 C   0  0  0  0  0  0  0  0  0  0  0  0
   -4.1898   -8.3464    6.9263 C   0  0  0  0  0  0  0  0  0  0  0  0
   -5.4932   -7.9184    6.7668 C   0  0  0  0  0  0  0  0  0  0  0  0
   -6.5672   -8.6702    7.1695 C   0  0  0  0  0  0  0  0  0  0  0  0
  6  7  1  0  0  0
  7  8  2  0  0  0
  7  1  1  0  0  0
  1  2  1  0  0  0
  2  3  2  0  0  0
  3 17  1  0  0  0
 17 19  1  0  0  0
 19 20  2  0  0  0
 20 21  1  0  0  0
 21 22  2  0  0  0
 22 23  1  0  0  0
 23 24  2  0  0  0
 24 25  1  0  0  0
 25 26  2  0  0  0
 26 27  1  0  0  0
 27 28  2  0  0  0
  3  4  1  0  0  0
  4  5  1  0  0  0
  5 11  1  0  0  0
 11 12  1  0  0  0
 12 13  2  0  0  0
 12 15  1  0  0  0
 15 16  2  0  0  0
  5  1  2  0  0  0
 28 19  1  0  0  0
 27 22  1  0  0  0
  6  9  1  0  0  0
  6 10  1  0  0  0
 17 18  1  0  0  0
 11 14  1  0  0  0
M  END
> <minimizedAffinity>
-7.33580

> <CNNscore>
0.4589694440

> <CNNaffinity>
6.3716726303

> <CNN_VS>
2.9244029522

> <CNNaffinity_variance>
0.1559738815

$$$$
[H]C([H])=C([H])C(=O)N([H])c1sc(N([H])c2c([H])c([H])c3c([H])c([H])c([H])c([H])c3c2[H])nc1C(=O)N([H])[H]


 28 30  0  0  0  0  0  0  0  0999 V2000
  -10.1236   -8.7101    7.9439 C   0  0  0  0  0  0  0  0  0  0  0  0
  -11.4150   -8.7227    8.0581 N   0  0  0  0  0  0  0  0  0  0  0  0
  -12.0822   -7.7267    8.5467 C   0  0  0  0  0  0  0  0  0  0  0  0
  -10.7945   -6.6165    8.9032 S   0  0  0  0  0  0  0  0  0  0  0  0
   -9.4671   -7.5938    8.3614 C   0  0  0  0  0  0  0  0  0  0  0  0
  -10.0451  -10.7983    6.4852 N   0  0  0  0  0  0  0  0  0  0  0  0
   -9.4058   -9.8761    7.3777 C   0  0  0  0  0  0  0  0  0  0  0  0
   -8.2123  -10.1254    7.6398 O   0  0  0  0  0  0  0  0  0  0  0  0
  -10.6220  -11.5531    6.8908 H   0  0  0  0  0  0  0  0  0  0  0  0
   -9.9498  -10.7355    5.4498 H   0  0  0  0  0  0  0  0  0  0  0  0
   -8.1018   -7.2075    8.4006 N   0  0  0  0  0  0  0  0  0  0  0  0
   -7.4595   -6.6751    7.2552 C   0  0  0  0  0  0  0  0  0  0  0  0
   -8.1125   -6.5465    6.1971 O   0  0  0  0  0  0  0  0  0  0  0  0
   -7.5481   -7.3044    9.2574 H   0  0  0  0  0  0  0  0  0  0  0  0
   -6.0682   -6.2750    7.2737 C   0  0  0  0  0  0  0  0  0  0  0  0
   -5.3410   -6.2580    6.1790 C   0  0  0  0  0  0  0  0  0  0  0  0
  -13.4628   -7.4819    8.7795 N   0  0  0  0  0  0  0  0  0  0  0  0
  -13.7578   -7.4460    9.8026 H   0  0  0  0  0  0  0  0  0  0  0  0
  -14.4687   -7.2847    7.8251 C   0  0  0  0  0  0  0  0  0  0  0  0
  -15.6428   -7.9916    7.7606 C   0  0  0  0  0  0  0  0  0  0  0  0
  -16.6116   -7.7496    6.7830 C   0  0  0  0  0  0  0  0  0  0  0  0
  -16.4264   -6.7782    5.8301 C   0  0  0  0  0  0  0  0  0  0  0  0
  -17.3774   -6.5257    4.8537 C   0  0  0  0  0  0  0  0  0  0  0  0
  -17.1986   -5.5537    3.8956 C   0  0  0  0  0  0  0  0  0  0  0  0
  -16.0332   -4.8327    3.9380 C   0  0  0  0  0  0  0  0  0  0  0  0
  -15.0823   -5.0764    4.9043 C   0  0  0  0  0  0  0  0  0  0  0  0
  -15.2579   -6.0506    5.8674 C   0  0  0  0  0  0  0  0  0  0  0  0
  -14.3198   -6.3039    6.8351 C   0  0  0  0  0  0  0  0  0  0  0  0
  6  7  1  0  0  0
  7  8  2  0  0  0
  7  1  1  0  0  0
  1  2  1  0  0  0
  2  3  2  0  0  0
  3 17  1  0  0  0
 17 19  1  0  0  0
 19 20  2  0  0  0
 20 21  1  0  0  0
 21 22  2  0  0  0
 22 23  1  0  0  0
 23 24  2  0  0  0
 24 25  1  0  0  0
 25 26  2  0  0  0
 26 27  1  0  0  0
 27 28  2  0  0  0
  3  4  1  0  0  0
  4  5  1  0  0  0
  5 11  1  0  0  0
 11 12  1  0  0  0
 12 13  2  0  0  0
 12 15  1  0  0  0
 15 16  2  0  0  0
  5  1  2  0  0  0
 28 19  1  0  0  0
 27 22  1  0  0  0
  6  9  1  0  0  0
  6 10  1  0  0  0
 17 18  1  0  0  0
 11 14  1  0  0  0
M  END
> <minimizedAffinity>
-8.98928

> <CNNscore>
0.4520568550

> <CNNaffinity>
6.4662728310

> <CNN_VS>
2.9231228828

> <CNNaffinity_variance>
0.1249256507

$$$$
[H]C([H])=C([H])C(=O)N([H])c1sc(N([H])c2c([H])c([H])c3c([H])c([H])c([H])c([H])c3c2[H])nc1C(=O)N([H])[H]


 28 30  0  0  0  0  0  0  0  0999 V2000
  -12.0758   -7.2962    8.9057 C   0  0  0  0  0  0  0  0  0  0  0  0
  -12.2136   -7.3476    7.6175 N   0  0  0  0  0  0  0  0  0  0  0  0
  -13.1137   -8.0776    7.0404 C   0  0  0  0  0  0  0  0  0  0  0  0
  -13.8838   -8.7965    8.4217 S   0  0  0  0  0  0  0  0  0  0  0  0
  -12.9234   -8.0489    9.6584 C   0  0  0  0  0  0  0  0  0  0  0  0
   -9.8033   -6.1448    8.8382 N   0  0  0  0  0  0  0  0  0  0  0  0
  -11.0294   -6.4446    9.5182 C   0  0  0  0  0  0  0  0  0  0  0  0
  -11.1491   -5.9404   10.6526 O   0  0  0  0  0  0  0  0  0  0  0  0
   -9.0379   -6.8373    8.8793 H   0  0  0  0  0  0  0  0  0  0  0  0
   -9.6570   -5.2604    8.3077 H   0  0  0  0  0  0  0  0  0  0  0  0
  -13.0860   -8.2563   11.0531 N   0  0  0  0  0  0  0  0  0  0  0  0
  -13.0816   -9.5621   11.6035 C   0  0  0  0  0  0  0  0  0  0  0  0
  -12.9315  -10.5418   10.8419 O   0  0  0  0  0  0  0  0  0  0  0  0
  -13.2105   -7.4674   11.6952 H   0  0  0  0  0  0  0  0  0  0  0  0
  -13.2459   -9.7957   13.0229 C   0  0  0  0  0  0  0  0  0  0  0  0
  -12.6443  -10.7932   13.6316 C   0  0  0  0  0  0  0  0  0  0  0  0
  -13.4745   -8.3137    5.6861 N   0  0  0  0  0  0  0  0  0  0  0  0
  -12.7343   -8.7950    5.0897 H   0  0  0  0  0  0  0  0  0  0  0  0
  -14.6810   -7.9881    5.0537 C   0  0  0  0  0  0  0  0  0  0  0  0
  -15.2906   -8.7429    4.0836 C   0  0  0  0  0  0  0  0  0  0  0  0
  -16.4971   -8.3660    3.4875 C   0  0  0  0  0  0  0  0  0  0  0  0
  -17.1338   -7.2056    3.8534 C   0  0  0  0  0  0  0  0  0  0  0  0
  -18.3308   -6.8177    3.2719 C   0  0  0  0  0  0  0  0  0  0  0  0
  -18.9746   -5.6561    3.6337 C   0  0  0  0  0  0  0  0  0  0  0  0
  -18.3860   -4.8835    4.6014 C   0  0  0  0  0  0  0  0  0  0  0  0
  -17.1966   -5.2607    5.1850 C   0  0  0  0  0  0  0  0  0  0  0  0
  -16.5475   -6.4254    4.8248 C   0  0  0  0  0  0  0  0  0  0  0  0
  -15.3632   -6.8131    5.3974 C   0  0  0  0  0  0  0  0  0  0  0  0
  6  7  1  0  0  0
  7  8  2  0  0  0
  7  1  1  0  0  0
  1  2  1  0  0  0
  2  3  2  0  0  0
  3 17  1  0  0  0
 17 19  1  0  0  0
 19 20  2  0  0  0
 20 21  1  0  0  0
 21 22  2  0  0  0
 22 23  1  0  0  0
 23 24  2  0  0  0
 24 25  1  0  0  0
 25 26  2  0  0  0
 26 27  1  0  0  0
 27 28  2  0  0  0
  3  4  1  0  0  0
  4  5  1  0  0  0
  5 11  1  0  0  0
 11 12  1  0  0  0
 12 13  2  0  0  0
 12 15  1  0  0  0
 15 16  2  0  0  0
  5  1  2  0  0  0
 28 19  1  0  0  0
 27 22  1  0  0  0
  6  9  1  0  0  0
  6 10  1  0  0  0
 17 18  1  0  0  0
 11 14  1  0  0  0
M  END
> <minimizedAffinity>
1.28845

> <CNNscore>
0.4477693737

> <CNNaffinity>
6.4237279892

> <CNN_VS>
2.8763487339

> <CNNaffinity_variance>
0.6476804018

$$$$
[H]C([H])=C([H])C(=O)N([H])c1sc(N([H])c2c([H])c([H])c3c([H])c([H])c([H])c([H])c3c2[H])nc1C(=O)N([H])[H]


 28 30  0  0  0  0  0  0  0  0999 V2000
   -7.5190   -7.2408    7.7481 C   0  0  0  0  0  0  0  0  0  0  0  0
   -8.7726   -7.5264    7.5808 N   0  0  0  0  0  0  0  0  0  0  0  0
   -9.4735   -7.0461    6.6040 C   0  0  0  0  0  0  0  0  0  0  0  0
   -8.2818   -6.0743    5.7958 S   0  0  0  0  0  0  0  0  0  0  0  0
   -6.9407   -6.4008    6.8473 C   0  0  0  0  0  0  0  0  0  0  0  0
   -6.5657   -7.0959   10.1070 N   0  0  0  0  0  0  0  0  0  0  0  0
   -6.7599   -7.8166    8.8828 C   0  0  0  0  0  0  0  0  0  0  0  0
   -6.2477   -8.9530    8.8439 O   0  0  0  0  0  0  0  0  0  0  0  0
   -5.7990   -6.4052   10.1529 H   0  0  0  0  0  0  0  0  0  0  0  0
   -7.1653   -7.2424   10.9462 H   0  0  0  0  0  0  0  0  0  0  0  0
   -5.6352   -5.8654    6.6929 N   0  0  0  0  0  0  0  0  0  0  0  0
   -4.5887   -6.2235    7.5786 C   0  0  0  0  0  0  0  0  0  0  0  0
   -4.8269   -7.0243    8.5083 O   0  0  0  0  0  0  0  0  0  0  0  0
   -5.4182   -5.2075    5.9377 H   0  0  0  0  0  0  0  0  0  0  0  0
   -3.2503   -5.6891    7.4388 C   0  0  0  0  0  0  0  0  0  0  0  0
   -2.6380   -5.0934    8.4377 C   0  0  0  0  0  0  0  0  0  0  0  0
  -10.8274   -7.1897    6.1958 N   0  0  0  0  0  0  0  0  0  0  0  0
  -11.0085   -7.0723    5.1524 H   0  0  0  0  0  0  0  0  0  0  0  0
  -11.9387   -7.4651    7.0024 C   0  0  0  0  0  0  0  0  0  0  0  0
  -13.1663   -7.8683    6.5410 C   0  0  0  0  0  0  0  0  0  0  0  0
  -14.2406   -8.1290    7.3960 C   0  0  0  0  0  0  0  0  0  0  0  0
  -14.1108   -7.9903    8.7561 C   0  0  0  0  0  0  0  0  0  0  0  0
  -15.1664   -8.2449    9.6177 C   0  0  0  0  0  0  0  0  0  0  0  0
  -15.0436   -8.1082   10.9818 C   0  0  0  0  0  0  0  0  0  0  0  0
  -13.8266   -7.7063   11.4687 C   0  0  0  0  0  0  0  0  0  0  0  0
  -12.7717   -7.4509   10.6204 C   0  0  0  0  0  0  0  0  0  0  0  0
  -12.8908   -7.5869    9.2512 C   0  0  0  0  0  0  0  0  0  0  0  0
  -11.8492   -7.3362    8.3951 C   0  0  0  0  0  0  0  0  0  0  0  0
  6  7  1  0  0  0
  7  8  2  0  0  0
  7  1  1  0  0  0
  1  2  1  0  0  0
  2  3  2  0  0  0
  3 17  1  0  0  0
 17 19  1  0  0  0
 19 20  2  0  0  0
 20 21  1  0  0  0
 21 22  2  0  0  0
 22 23  1  0  0  0
 23 24  2  0  0  0
 24 25  1  0  0  0
 25 26  2  0  0  0
 26 27  1  0  0  0
 27 28  2  0  0  0
  3  4  1  0  0  0
  4  5  1  0  0  0
  5 11  1  0  0  0
 11 12  1  0  0  0
 12 13  2  0  0  0
 12 15  1  0  0  0
 15 16  2  0  0  0
  5  1  2  0  0  0
 28 19  1  0  0  0
 27 22  1  0  0  0
  6  9  1  0  0  0
  6 10  1  0  0  0
 17 18  1  0  0  0
 11 14  1  0  0  0
M  END
> <minimizedAffinity>
2.31196

> <CNNscore>
0.4396839142

> <CNNaffinity>
5.9231801033

> <CNN_VS>
2.6043269634

> <CNNaffinity_variance>
0.9425225258

$$$$
[H]OC(=O)[C@@]([H])(N([H])C(=O)[C@@]([H])(N([H])[H])C([H])([H])C([H])([H])N=C(N([H])[H])N([H])[H])C([H])([H])c1c([H])c([H])c(O[H])c([H])c1[H]


 32 32  0  0  0  0  0  0  0  0999 V2000
  -14.6955   -7.2320    7.5139 C   0  0  0  0  0  0  0  0  0  0  0  0
  -15.1599   -7.9884    8.3855 O   0  0  0  0  0  0  0  0  0  0  0  0
  -13.4458   -6.6016    7.7338 N   0  0  0  0  0  0  0  0  0  0  0  0
  -13.0324   -5.9663    7.0273 H   0  0  0  0  0  0  0  0  0  0  0  0
  -16.7601   -6.4171    6.5546 N   0  0  0  0  0  0  0  0  0  0  0  0
  -15.4305   -6.9673    6.2242 C   0  0  0  0  0  0  0  0  0  0  0  0
  -17.4514   -7.1890    6.6866 H   0  0  0  0  0  0  0  0  0  0  0  0
  -17.0377   -5.7453    5.8030 H   0  0  0  0  0  0  0  0  0  0  0  0
  -14.6868   -5.9884    5.3500 C   0  0  0  0  0  0  0  0  0  0  0  0
  -15.5839   -5.3658    4.3389 C   0  0  0  0  0  0  0  0  0  0  0  0
  -16.3466   -6.3162    3.5790 N   0  0  0  0  0  0  0  0  0  0  0  0
  -17.6036   -6.3172    3.4332 C   0  0  0  0  0  0  0  0  0  0  0  0
  -18.2312   -7.3142    2.6559 N   0  0  0  0  0  0  0  0  0  0  0  0
  -18.3921   -5.3211    4.0463 N   0  0  0  0  0  0  0  0  0  0  0  0
  -18.7568   -7.0541    1.7766 H   0  0  0  0  0  0  0  0  0  0  0  0
  -18.1982   -8.3201    2.9174 H   0  0  0  0  0  0  0  0  0  0  0  0
  -19.1101   -5.5977    4.7650 H   0  0  0  0  0  0  0  0  0  0  0  0
  -18.3221   -4.3029    3.8421 H   0  0  0  0  0  0  0  0  0  0  0  0
  -12.7415   -6.8699    8.9967 C   0  0  0  0  0  0  0  0  0  0  0  0
  -11.3757   -6.3702    8.8024 C   0  0  0  0  0  0  0  0  0  0  0  0
  -10.3608   -7.1491    8.2960 O   0  0  0  0  0  0  0  0  0  0  0  0
  -11.0354   -5.1680    9.0962 O   0  0  0  0  0  0  0  0  0  0  0  0
   -9.6535   -6.7938    7.6565 H   0  0  0  0  0  0  0  0  0  0  0  0
  -12.8534   -8.3326    9.3108 C   0  0  0  0  0  0  0  0  0  0  0  0
  -13.5414   -8.6256   10.5819 C   0  0  0  0  0  0  0  0  0  0  0  0
  -14.8045   -8.1217   10.8809 C   0  0  0  0  0  0  0  0  0  0  0  0
  -15.4498   -8.3909   12.0621 C   0  0  0  0  0  0  0  0  0  0  0  0
  -14.8259   -9.1876   12.9839 C   0  0  0  0  0  0  0  0  0  0  0  0
  -15.4640   -9.4764   14.1959 O   0  0  0  0  0  0  0  0  0  0  0  0
  -13.5711   -9.6967   12.7036 C   0  0  0  0  0  0  0  0  0  0  0  0
  -12.9241   -9.4374   11.5400 C   0  0  0  0  0  0  0  0  0  0  0  0
  -16.3663   -9.1067   14.3906 H   0  0  0  0  0  0  0  0  0  0  0  0
  5  6  1  0  0  0
  6  9  1  0  0  0
  9 10  1  0  0  0
 10 11  1  0  0  0
 11 12  2  0  0  0
 12 13  1  0  0  0
 12 14  1  0  0  0
  6  1  1  0  0  0
  1  2  2  0  0  0
  1  3  1  0  0  0
  3 19  1  0  0  0
 19 24  1  0  0  0
 24 25  1  0  0  0
 25 26  2  0  0  0
 26 27  1  0  0  0
 27 28  2  0  0  0
 28 29  1  0  0  0
 28 30  1  0  0  0
 30 31  2  0  0  0
 19 20  1  0  0  0
 20 21  1  0  0  0
 20 22  2  0  0  0
 31 25  1  0  0  0
  5  7  1  0  0  0
  5  8  1  0  0  0
 13 15  1  0  0  0
 13 16  1  0  0  0
 14 17  1  0  0  0
 14 18  1  0  0  0
  3  4  1  0  0  0
 29 32  1  0  0  0
 21 23  1  0  0  0
M  END
> <minimizedAffinity>
6.06667

> <CNNscore>
0.5096436143

> <CNNaffinity>
6.0247945786

> <CNN_VS>
3.0704979897

> <CNNaffinity_variance>
1.3886953592

$$$$
[H]OC(=O)[C@@]([H])(N([H])C(=O)[C@@]([H])(N([H])[H])C([H])([H])C([H])([H])N=C(N([H])[H])N([H])[H])C([H])([H])c1c([H])c([H])c(O[H])c([H])c1[H]


 32 32  0  0  0  0  0  0  0  0999 V2000
  -16.6324   -7.7086    5.3913 C   0  0  0  0  0  0  0  0  0  0  0  0
  -17.0856   -7.4035    6.5090 O   0  0  0  0  0  0  0  0  0  0  0  0
  -15.6423   -6.8894    4.7947 N   0  0  0  0  0  0  0  0  0  0  0  0
  -15.2450   -7.1166    3.8651 H   0  0  0  0  0  0  0  0  0  0  0  0
  -18.3960   -8.6060    4.0015 N   0  0  0  0  0  0  0  0  0  0  0  0
  -17.1112   -8.9323    4.6516 C   0  0  0  0  0  0  0  0  0  0  0  0
  -19.1918   -8.7963    4.6509 H   0  0  0  0  0  0  0  0  0  0  0  0
  -18.4618   -9.1441    3.1074 H   0  0  0  0  0  0  0  0  0  0  0  0
  -16.1187   -9.3746    3.6053 C   0  0  0  0  0  0  0  0  0  0  0  0
  -16.6027  -10.5695    2.8618 C   0  0  0  0  0  0  0  0  0  0  0  0
  -15.8682  -11.7687    3.1532 N   0  0  0  0  0  0  0  0  0  0  0  0
  -16.2517  -12.9523    2.9222 C   0  0  0  0  0  0  0  0  0  0  0  0
  -15.4284  -14.0480    3.2596 N   0  0  0  0  0  0  0  0  0  0  0  0
  -17.5071  -13.1899    2.3246 N   0  0  0  0  0  0  0  0  0  0  0  0
  -15.0554  -14.6880    2.5058 H   0  0  0  0  0  0  0  0  0  0  0  0
  -15.1658  -14.2585    4.2435 H   0  0  0  0  0  0  0  0  0  0  0  0
  -18.2394  -13.7302    2.8542 H   0  0  0  0  0  0  0  0  0  0  0  0
  -17.7800  -12.8660    1.3738 H   0  0  0  0  0  0  0  0  0  0  0  0
  -15.1859   -5.6994    5.5287 C   0  0  0  0  0  0  0  0  0  0  0  0
  -15.4564   -4.5606    4.6441 C   0  0  0  0  0  0  0  0  0  0  0  0
  -14.5693   -3.5234    4.4700 O   0  0  0  0  0  0  0  0  0  0  0  0
  -16.5455   -4.4549    3.9732 O   0  0  0  0  0  0  0  0  0  0  0  0
  -14.4130   -3.0703    3.5723 H   0  0  0  0  0  0  0  0  0  0  0  0
  -13.7479   -5.8902    5.9115 C   0  0  0  0  0  0  0  0  0  0  0  0
  -13.5071   -7.0467    6.7943 C   0  0  0  0  0  0  0  0  0  0  0  0
  -13.0990   -8.2858    6.3075 C   0  0  0  0  0  0  0  0  0  0  0  0
  -12.8733   -9.3657    7.1241 C   0  0  0  0  0  0  0  0  0  0  0  0
  -13.0569   -9.2185    8.4725 C   0  0  0  0  0  0  0  0  0  0  0  0
  -12.8329  -10.3055    9.3256 O   0  0  0  0  0  0  0  0  0  0  0  0
  -13.4620   -7.9949    8.9735 C   0  0  0  0  0  0  0  0  0  0  0  0
  -13.6880   -6.9211    8.1762 C   0  0  0  0  0  0  0  0  0  0  0  0
  -12.5417  -11.1824    8.9583 H   0  0  0  0  0  0  0  0  0  0  0  0
  5  6  1  0  0  0
  6  9  1  0  0  0
  9 10  1  0  0  0
 10 11  1  0  0  0
 11 12  2  0  0  0
 12 13  1  0  0  0
 12 14  1  0  0  0
  6  1  1  0  0  0
  1  2  2  0  0  0
  1  3  1  0  0  0
  3 19  1  0  0  0
 19 24  1  0  0  0
 24 25  1  0  0  0
 25 26  2  0  0  0
 26 27  1  0  0  0
 27 28  2  0  0  0
 28 29  1  0  0  0
 28 30  1  0  0  0
 30 31  2  0  0  0
 19 20  1  0  0  0
 20 21  1  0  0  0
 20 22  2  0  0  0
 31 25  1  0  0  0
  5  7  1  0  0  0
  5  8  1  0  0  0
 13 15  1  0  0  0
 13 16  1  0  0  0
 14 17  1  0  0  0
 14 18  1  0  0  0
  3  4  1  0  0  0
 29 32  1  0  0  0
 21 23  1  0  0  0
M  END
> <minimizedAffinity>
7.61825

> <CNNscore>
0.4345861375

> <CNNaffinity>
5.9884133339

> <CNN_VS>
2.6024813652

> <CNNaffinity_variance>
1.0102765560

$$$$
[H]OC(=O)[C@@]([H])(N([H])C(=O)[C@@]([H])(N([H])[H])C([H])([H])C([H])([H])N=C(N([H])[H])N([H])[H])C([H])([H])c1c([H])c([H])c(O[H])c([H])c1[H]


 32 32  0  0  0  0  0  0  0  0999 V2000
   -9.4894   -6.9589    8.0882 C   0  0  0  0  0  0  0  0  0  0  0  0
   -9.6543   -6.6417    6.8966 O   0  0  0  0  0  0  0  0  0  0  0  0
   -8.1945   -7.3135    8.5409 N   0  0  0  0  0  0  0  0  0  0  0  0
   -8.0246   -7.5823    9.5271 H   0  0  0  0  0  0  0  0  0  0  0  0
  -10.7244   -5.6445    9.6989 N   0  0  0  0  0  0  0  0  0  0  0  0
  -10.6360   -6.9762    9.0674 C   0  0  0  0  0  0  0  0  0  0  0  0
  -10.1168   -5.6026   10.5475 H   0  0  0  0  0  0  0  0  0  0  0  0
  -11.7289   -5.4414    9.9062 H   0  0  0  0  0  0  0  0  0  0  0  0
  -11.9442   -7.2958    8.3877 C   0  0  0  0  0  0  0  0  0  0  0  0
  -12.8093   -8.1548    9.2412 C   0  0  0  0  0  0  0  0  0  0  0  0
  -14.2140   -7.9073    9.0751 N   0  0  0  0  0  0  0  0  0  0  0  0
  -15.0127   -8.5894    8.3692 C   0  0  0  0  0  0  0  0  0  0  0  0
  -16.3770   -8.2361    8.2919 N   0  0  0  0  0  0  0  0  0  0  0  0
  -14.5479   -9.7111    7.6512 N   0  0  0  0  0  0  0  0  0  0  0  0
  -17.1207   -8.8948    8.6525 H   0  0  0  0  0  0  0  0  0  0  0  0
  -16.6908   -7.3320    7.8849 H   0  0  0  0  0  0  0  0  0  0  0  0
  -14.6130   -9.7173    6.6003 H   0  0  0  0  0  0  0  0  0  0  0  0
  -14.1327  -10.5607    8.0860 H   0  0  0  0  0  0  0  0  0  0  0  0
   -7.0868   -7.2919    7.5737 C   0  0  0  0  0  0  0  0  0  0  0  0
   -7.0689   -8.6254    6.9622 C   0  0  0  0  0  0  0  0  0  0  0  0
   -6.7552   -8.8358    5.6392 O   0  0  0  0  0  0  0  0  0  0  0  0
   -7.3491   -9.6888    7.6240 O   0  0  0  0  0  0  0  0  0  0  0  0
   -6.2086   -9.6316    5.3172 H   0  0  0  0  0  0  0  0  0  0  0  0
   -5.8292   -6.8943    8.2886 C   0  0  0  0  0  0  0  0  0  0  0  0
   -4.6597   -6.7297    7.4055 C   0  0  0  0  0  0  0  0  0  0  0  0
   -4.6061   -5.7571    6.4105 C   0  0  0  0  0  0  0  0  0  0  0  0
   -3.5205   -5.5990    5.5856 C   0  0  0  0  0  0  0  0  0  0  0  0
   -2.4464   -6.4317    5.7478 C   0  0  0  0  0  0  0  0  0  0  0  0
   -1.3276   -6.2899    4.9186 O   0  0  0  0  0  0  0  0  0  0  0  0
   -2.4823   -7.4035    6.7310 C   0  0  0  0  0  0  0  0  0  0  0  0
   -3.5495   -7.5688    7.5517 C   0  0  0  0  0  0  0  0  0  0  0  0
   -1.3087   -5.5889    4.2136 H   0  0  0  0  0  0  0  0  0  0  0  0
  5  6  1  0  0  0
  6  9  1  0  0  0
  9 10  1  0  0  0
 10 11  1  0  0  0
 11 12  2  0  0  0
 12 13  1  0  0  0
 12 14  1  0  0  0
  6  1  1  0  0  0
  1  2  2  0  0  0
  1  3  1  0  0  0
  3 19  1  0  0  0
 19 24  1  0  0  0
 24 25  1  0  0  0
 25 26  2  0  0  0
 26 27  1  0  0  0
 27 28  2  0  0  0
 28 29  1  0  0  0
 28 30  1  0  0  0
 30 31  2  0  0  0
 19 20  1  0  0  0
 20 21  1  0  0  0
 20 22  2  0  0  0
 31 25  1  0  0  0
  5  7  1  0  0  0
  5  8  1  0  0  0
 13 15  1  0  0  0
 13 16  1  0  0  0
 14 17  1  0  0  0
 14 18  1  0  0  0
  3  4  1  0  0  0
 29 32  1  0  0  0
 21 23  1  0  0  0
M  END
> <minimizedAffinity>
-6.21603

> <CNNscore>
0.3372267187

> <CNNaffinity>
5.2556715012

> <CNN_VS>
1.7723528147

> <CNNaffinity_variance>
0.0953520164

$$$$
[H]OC(=O)[C@@]([H])(N([H])C(=O)[C@@]([H])(N([H])[H])C([H])([H])C([H])([H])N=C(N([H])[H])N([H])[H])C([H])([H])c1c([H])c([H])c(O[H])c([H])c1[H]


 32 32  0  0  0  0  0  0  0  0999 V2000
  -14.8091   -8.3165    5.9951 C   0  0  0  0  0  0  0  0  0  0  0  0
  -14.7812   -7.0994    6.2507 O   0  0  0  0  0  0  0  0  0  0  0  0
  -14.2181   -9.2315    6.9013 N   0  0  0  0  0  0  0  0  0  0  0  0
  -14.2249  -10.2511    6.7168 H   0  0  0  0  0  0  0  0  0  0  0  0
  -16.9103   -8.9546    4.9827 N   0  0  0  0  0  0  0  0  0  0  0  0
  -15.4578   -8.8460    4.7411 C   0  0  0  0  0  0  0  0  0  0  0  0
  -17.1431   -9.8876    5.3906 H   0  0  0  0  0  0  0  0  0  0  0  0
  -17.4113   -8.7657    4.0846 H   0  0  0  0  0  0  0  0  0  0  0  0
  -15.2129   -7.9383    3.5614 C   0  0  0  0  0  0  0  0  0  0  0  0
  -16.4716   -7.2963    3.0939 C   0  0  0  0  0  0  0  0  0  0  0  0
  -16.8223   -6.1108    3.8245 N   0  0  0  0  0  0  0  0  0  0  0  0
  -17.9519   -5.8568    4.3351 C   0  0  0  0  0  0  0  0  0  0  0  0
  -18.1648   -4.6478    5.0317 N   0  0  0  0  0  0  0  0  0  0  0  0
  -19.0117   -6.7797    4.2136 N   0  0  0  0  0  0  0  0  0  0  0  0
  -18.3997   -4.6592    6.0621 H   0  0  0  0  0  0  0  0  0  0  0  0
  -18.0987   -3.7219    4.5631 H   0  0  0  0  0  0  0  0  0  0  0  0
  -19.8871   -6.4992    3.7002 H   0  0  0  0  0  0  0  0  0  0  0  0
  -19.0016   -7.7458    4.6009 H   0  0  0  0  0  0  0  0  0  0  0  0
  -13.5893   -8.6994    8.1197 C   0  0  0  0  0  0  0  0  0  0  0  0
  -14.6948   -8.2369    8.9663 C   0  0  0  0  0  0  0  0  0  0  0  0
  -16.0049   -8.5939    8.7443 O   0  0  0  0  0  0  0  0  0  0  0  0
  -14.5118   -7.4625    9.9733 O   0  0  0  0  0  0  0  0  0  0  0  0
  -16.6610   -8.7960    9.4955 H   0  0  0  0  0  0  0  0  0  0  0  0
  -12.5935   -7.6474    7.7292 C   0  0  0  0  0  0  0  0  0  0  0  0
  -11.1955   -8.1165    7.7133 C   0  0  0  0  0  0  0  0  0  0  0  0
  -10.1306   -7.3038    8.0930 C   0  0  0  0  0  0  0  0  0  0  0  0
   -8.8274   -7.7347    8.0803 C   0  0  0  0  0  0  0  0  0  0  0  0
   -8.5639   -9.0162    7.6779 C   0  0  0  0  0  0  0  0  0  0  0  0
   -7.2429   -9.4785    7.6566 O   0  0  0  0  0  0  0  0  0  0  0  0
   -9.6095   -9.8374    7.2973 C   0  0  0  0  0  0  0  0  0  0  0  0
  -10.9008   -9.4223    7.3059 C   0  0  0  0  0  0  0  0  0  0  0  0
   -6.4961   -8.8824    7.9317 H   0  0  0  0  0  0  0  0  0  0  0  0
  5  6  1  0  0  0
  6  9  1  0  0  0
  9 10  1  0  0  0
 10 11  1  0  0  0
 11 12  2  0  0  0
 12 13  1  0  0  0
 12 14  1  0  0  0
  6  1  1  0  0  0
  1  2  2  0  0  0
  1  3  1  0  0  0
  3 19  1  0  0  0
 19 24  1  0  0  0
 24 25  1  0  0  0
 25 26  2  0  0  0
 26 27  1  0  0  0
 27 28  2  0  0  0
 28 29  1  0  0  0
 28 30  1  0  0  0
 30 31  2  0  0  0
 19 20  1  0  0  0
 20 21  1  0  0  0
 20 22  2  0  0  0
 31 25  1  0  0  0
  5  7  1  0  0  0
  5  8  1  0  0  0
 13 15  1  0  0  0
 13 16  1  0  0  0
 14 17  1  0  0  0
 14 18  1  0  0  0
  3  4  1  0  0  0
 29 32  1  0  0  0
 21 23  1  0  0  0
M  END
> <minimizedAffinity>
-7.19943

> <CNNscore>
0.3241301179

> <CNNaffinity>
5.9990134239

> <CNN_VS>
1.9444608688

> <CNNaffinity_variance>
0.1571136415

$$$$
[H]OC(=O)[C@@]([H])(N([H])C(=O)[C@@]([H])(N([H])[H])C([H])([H])C([H])([H])N=C(N([H])[H])N([H])[H])C([H])([H])c1c([H])c([H])c(O[H])c([H])c1[H]


 32 32  0  0  0  0  0  0  0  0999 V2000
   -5.4958   -6.3445   10.3620 C   0  0  0  0  0  0  0  0  0  0  0  0
   -4.3355   -6.0931    9.9904 O   0  0  0  0  0  0  0  0  0  0  0  0
   -6.3554   -7.0802    9.5092 N   0  0  0  0  0  0  0  0  0  0  0  0
   -7.3271   -7.3056    9.7899 H   0  0  0  0  0  0  0  0  0  0  0  0
   -5.9936   -7.0368   12.6248 N   0  0  0  0  0  0  0  0  0  0  0  0
   -6.0137   -5.8848   11.7015 C   0  0  0  0  0  0  0  0  0  0  0  0
   -6.8893   -7.5704   12.5613 H   0  0  0  0  0  0  0  0  0  0  0  0
   -5.7957   -6.6857   13.5896 H   0  0  0  0  0  0  0  0  0  0  0  0
   -5.1712   -4.7711   12.2721 C   0  0  0  0  0  0  0  0  0  0  0  0
   -4.1671   -5.2860   13.2424 C   0  0  0  0  0  0  0  0  0  0  0  0
   -3.0928   -4.3697   13.5040 N   0  0  0  0  0  0  0  0  0  0  0  0
   -2.0439   -4.2328   12.8094 C   0  0  0  0  0  0  0  0  0  0  0  0
   -1.0608   -3.2901   13.1793 N   0  0  0  0  0  0  0  0  0  0  0  0
   -1.8456   -5.0216   11.6569 N   0  0  0  0  0  0  0  0  0  0  0  0
   -0.8357   -2.4758   12.5443 H   0  0  0  0  0  0  0  0  0  0  0  0
   -0.5343   -3.3636   14.0731 H   0  0  0  0  0  0  0  0  0  0  0  0
   -1.0263   -5.6816   11.6151 H   0  0  0  0  0  0  0  0  0  0  0  0
   -2.4602   -5.0060   10.8170 H   0  0  0  0  0  0  0  0  0  0  0  0
   -5.8355   -7.5213    8.2061 C   0  0  0  0  0  0  0  0  0  0  0  0
   -5.8951   -6.3414    7.3360 C   0  0  0  0  0  0  0  0  0  0  0  0
   -5.5569   -5.0789    7.7660 O   0  0  0  0  0  0  0  0  0  0  0  0
   -6.2715   -6.4092    6.1109 O   0  0  0  0  0  0  0  0  0  0  0  0
   -5.0596   -4.4081    7.1844 H   0  0  0  0  0  0  0  0  0  0  0  0
   -6.6338   -8.7040    7.7429 C   0  0  0  0  0  0  0  0  0  0  0  0
   -8.0940   -8.5043    7.7962 C   0  0  0  0  0  0  0  0  0  0  0  0
   -8.9974   -9.4922    7.4133 C   0  0  0  0  0  0  0  0  0  0  0  0
  -10.3573   -9.3123    7.4607 C   0  0  0  0  0  0  0  0  0  0  0  0
  -10.8455   -8.1124    7.9027 C   0  0  0  0  0  0  0  0  0  0  0  0
  -12.2287   -7.9052    7.9601 O   0  0  0  0  0  0  0  0  0  0  0  0
   -9.9627   -7.1198    8.2871 C   0  0  0  0  0  0  0  0  0  0  0  0
   -8.6172   -7.2864    8.2445 C   0  0  0  0  0  0  0  0  0  0  0  0
  -12.8575   -8.6235    7.6821 H   0  0  0  0  0  0  0  0  0  0  0  0
  5  6  1  0  0  0
  6  9  1  0  0  0
  9 10  1  0  0  0
 10 11  1  0  0  0
 11 12  2  0  0  0
 12 13  1  0  0  0
 12 14  1  0  0  0
  6  1  1  0  0  0
  1  2  2  0  0  0
  1  3  1  0  0  0
  3 19  1  0  0  0
 19 24  1  0  0  0
 24 25  1  0  0  0
 25 26  2  0  0  0
 26 27  1  0  0  0
 27 28  2  0  0  0
 28 29  1  0  0  0
 28 30  1  0  0  0
 30 31  2  0  0  0
 19 20  1  0  0  0
 20 21  1  0  0  0
 20 22  2  0  0  0
 31 25  1  0  0  0
  5  7  1  0  0  0
  5  8  1  0  0  0
 13 15  1  0  0  0
 13 16  1  0  0  0
 14 17  1  0  0  0
 14 18  1  0  0  0
  3  4  1  0  0  0
 29 32  1  0  0  0
 21 23  1  0  0  0
M  END
> <minimizedAffinity>
-2.75317

> <CNNscore>
0.3172377944

> <CNNaffinity>
4.4354634285

> <CNN_VS>
1.4070966244

> <CNNaffinity_variance>
0.4813750684

$$$$
[H]OC(=O)[C@@]([H])(N([H])C(=O)[C@@]([H])(N([H])[H])C([H])([H])C([H])([H])N=C(N([H])[H])N([H])[H])C([H])([H])c1c([H])c([H])c(O[H])c([H])c1[H]


 32 32  0  0  0  0  0  0  0  0999 V2000
  -10.6145   -9.2784    7.3068 C   0  0  0  0  0  0  0  0  0  0  0  0
  -10.2414  -10.3585    6.8151 O   0  0  0  0  0  0  0  0  0  0  0  0
   -9.6620   -8.2574    7.5469 N   0  0  0  0  0  0  0  0  0  0  0  0
   -9.9412   -7.3469    7.9554 H   0  0  0  0  0  0  0  0  0  0  0  0
  -12.6112  -10.2566    8.2574 N   0  0  0  0  0  0  0  0  0  0  0  0
  -12.0596   -9.0263    7.6557 C   0  0  0  0  0  0  0  0  0  0  0  0
  -12.9923  -10.8858    7.5158 H   0  0  0  0  0  0  0  0  0  0  0  0
  -13.3270   -9.9858    8.9698 H   0  0  0  0  0  0  0  0  0  0  0  0
  -12.2065   -7.8835    8.6293 C   0  0  0  0  0  0  0  0  0  0  0  0
  -13.5922   -7.3408    8.6319 C   0  0  0  0  0  0  0  0  0  0  0  0
  -14.3385   -7.6546    7.4457 N   0  0  0  0  0  0  0  0  0  0  0  0
  -15.4977   -8.1604    7.4064 C   0  0  0  0  0  0  0  0  0  0  0  0
  -16.1215   -8.4201    6.1673 N   0  0  0  0  0  0  0  0  0  0  0  0
  -16.1798   -8.4706    8.6015 N   0  0  0  0  0  0  0  0  0  0  0  0
  -17.0123   -7.9171    5.9018 H   0  0  0  0  0  0  0  0  0  0  0  0
  -15.7327   -9.1028    5.4860 H   0  0  0  0  0  0  0  0  0  0  0  0
  -16.4389   -9.4705    8.8060 H   0  0  0  0  0  0  0  0  0  0  0  0
  -16.4579   -7.7725    9.3217 H   0  0  0  0  0  0  0  0  0  0  0  0
   -8.2566   -8.5187    7.2014 C   0  0  0  0  0  0  0  0  0  0  0  0
   -7.6941   -9.2397    8.3488 C   0  0  0  0  0  0  0  0  0  0  0  0
   -7.5806  -10.6104    8.3865 O   0  0  0  0  0  0  0  0  0  0  0  0
   -7.2714   -8.6361    9.3997 O   0  0  0  0  0  0  0  0  0  0  0  0
   -6.7841  -11.0911    8.7989 H   0  0  0  0  0  0  0  0  0  0  0  0
   -7.5905   -7.2160    6.8700 C   0  0  0  0  0  0  0  0  0  0  0  0
   -6.1280   -7.2211    7.0593 C   0  0  0  0  0  0  0  0  0  0  0  0
   -5.4767   -6.2958    7.8707 C   0  0  0  0  0  0  0  0  0  0  0  0
   -4.1159   -6.2955    8.0508 C   0  0  0  0  0  0  0  0  0  0  0  0
   -3.3685   -7.2439    7.4063 C   0  0  0  0  0  0  0  0  0  0  0  0
   -1.9790   -7.2639    7.5744 O   0  0  0  0  0  0  0  0  0  0  0  0
   -3.9988   -8.1708    6.5964 C   0  0  0  0  0  0  0  0  0  0  0  0
   -5.3424   -8.1806    6.4111 C   0  0  0  0  0  0  0  0  0  0  0  0
   -1.5326   -6.5942    8.1583 H   0  0  0  0  0  0  0  0  0  0  0  0
  5  6  1  0  0  0
  6  9  1  0  0  0
  9 10  1  0  0  0
 10 11  1  0  0  0
 11 12  2  0  0  0
 12 13  1  0  0  0
 12 14  1  0  0  0
  6  1  1  0  0  0
  1  2  2  0  0  0
  1  3  1  0  0  0
  3 19  1  0  0  0
 19 24  1  0  0  0
 24 25  1  0  0  0
 25 26  2  0  0  0
 26 27  1  0  0  0
 27 28  2  0  0  0
 28 29  1  0  0  0
 28 30  1  0  0  0
 30 31  2  0  0  0
 19 20  1  0  0  0
 20 21  1  0  0  0
 20 22  2  0  0  0
 31 25  1  0  0  0
  5  7  1  0  0  0
  5  8  1  0  0  0
 13 15  1  0  0  0
 13 16  1  0  0  0
 14 17  1  0  0  0
 14 18  1  0  0  0
  3  4  1  0  0  0
 29 32  1  0  0  0
 21 23  1  0  0  0
M  END
> <minimizedAffinity>
-6.83465

> <CNNscore>
0.2836655080

> <CNNaffinity>
5.5437631607

> <CNN_VS>
1.5725743771

> <CNNaffinity_variance>
0.0700492114

$$$$
[H]OC(=O)[C@@]([H])(N([H])C(=O)[C@@]([H])(N([H])[H])C([H])([H])C([H])([H])N=C(N([H])[H])N([H])[H])C([H])([H])c1c([H])c([H])c(O[H])c([H])c1[H]


 32 32  0  0  0  0  0  0  0  0999 V2000
   -3.8525   -7.9086    7.5509 C   0  0  0  0  0  0  0  0  0  0  0  0
   -4.6099   -8.3426    6.6646 O   0  0  0  0  0  0  0  0  0  0  0  0
   -4.3700   -7.0419    8.5452 N   0  0  0  0  0  0  0  0  0  0  0  0
   -3.7649   -6.6638    9.2966 H   0  0  0  0  0  0  0  0  0  0  0  0
   -2.2901   -9.7021    7.9857 N   0  0  0  0  0  0  0  0  0  0  0  0
   -2.3923   -8.2820    7.5951 C   0  0  0  0  0  0  0  0  0  0  0  0
   -2.2532   -9.7924    9.0257 H   0  0  0  0  0  0  0  0  0  0  0  0
   -1.4567  -10.1181    7.5106 H   0  0  0  0  0  0  0  0  0  0  0  0
   -1.7253   -8.0815    6.2570 C   0  0  0  0  0  0  0  0  0  0  0  0
   -1.1177   -6.7276    6.1454 C   0  0  0  0  0  0  0  0  0  0  0  0
   -1.9123   -5.6866    6.7346 N   0  0  0  0  0  0  0  0  0  0  0  0
   -2.7802   -4.9838    6.1394 C   0  0  0  0  0  0  0  0  0  0  0  0
   -3.4948   -3.9881    6.8394 N   0  0  0  0  0  0  0  0  0  0  0  0
   -3.0431   -5.1879    4.7686 N   0  0  0  0  0  0  0  0  0  0  0  0
   -4.5428   -4.0633    6.9537 H   0  0  0  0  0  0  0  0  0  0  0  0
   -3.0227   -3.1619    7.2589 H   0  0  0  0  0  0  0  0  0  0  0  0
   -2.8621   -4.4084    4.0844 H   0  0  0  0  0  0  0  0  0  0  0  0
   -3.4129   -6.0722    4.3630 H   0  0  0  0  0  0  0  0  0  0  0  0
   -5.7961   -6.6871    8.4883 C   0  0  0  0  0  0  0  0  0  0  0  0
   -6.3760   -7.1747    9.7447 C   0  0  0  0  0  0  0  0  0  0  0  0
   -6.8186   -8.4669    9.9108 O   0  0  0  0  0  0  0  0  0  0  0  0
   -6.5120   -6.4231   10.7762 O   0  0  0  0  0  0  0  0  0  0  0  0
   -6.6936   -8.9907   10.7742 H   0  0  0  0  0  0  0  0  0  0  0  0
   -6.3884   -7.2670    7.2379 C   0  0  0  0  0  0  0  0  0  0  0  0
   -7.6978   -7.9162    7.4356 C   0  0  0  0  0  0  0  0  0  0  0  0
   -7.9087   -9.2673    7.1731 C   0  0  0  0  0  0  0  0  0  0  0  0
   -9.1249   -9.8770    7.3551 C   0  0  0  0  0  0  0  0  0  0  0  0
  -10.1734   -9.1261    7.8137 C   0  0  0  0  0  0  0  0  0  0  0  0
  -11.4234   -9.7256    8.0073 O   0  0  0  0  0  0  0  0  0  0  0  0
   -9.9819   -7.7825    8.0795 C   0  0  0  0  0  0  0  0  0  0  0  0
   -8.7848   -7.1695    7.9034 C   0  0  0  0  0  0  0  0  0  0  0  0
  -11.5538  -10.6922    7.8140 H   0  0  0  0  0  0  0  0  0  0  0  0
  5  6  1  0  0  0
  6  9  1  0  0  0
  9 10  1  0  0  0
 10 11  1  0  0  0
 11 12  2  0  0  0
 12 13  1  0  0  0
 12 14  1  0  0  0
  6  1  1  0  0  0
  1  2  2  0  0  0
  1  3  1  0  0  0
  3 19  1  0  0  0
 19 24  1  0  0  0
 24 25  1  0  0  0
 25 26  2  0  0  0
 26 27  1  0  0  0
 27 28  2  0  0  0
 28 29  1  0  0  0
 28 30  1  0  0  0
 30 31  2  0  0  0
 19 20  1  0  0  0
 20 21  1  0  0  0
 20 22  2  0  0  0
 31 25  1  0  0  0
  5  7  1  0  0  0
  5  8  1  0  0  0
 13 15  1  0  0  0
 13 16  1  0  0  0
 14 17  1  0  0  0
 14 18  1  0  0  0
  3  4  1  0  0  0
 29 32  1  0  0  0
 21 23  1  0  0  0
M  END
> <minimizedAffinity>
-2.19909

> <CNNscore>
0.2415726930

> <CNNaffinity>
4.4007682800

> <CNN_VS>
1.0631054640

> <CNNaffinity_variance>
0.5883994102

$$$$
[H]OC(=O)[C@@]([H])(N([H])C(=O)[C@@]([H])(N([H])[H])C([H])([H])C([H])([H])N=C(N([H])[H])N([H])[H])C([H])([H])c1c([H])c([H])c(O[H])c([H])c1[H]


 32 32  0  0  0  0  0  0  0  0999 V2000
  -10.9194   -7.6369    7.6585 C   0  0  0  0  0  0  0  0  0  0  0  0
  -11.5957   -6.8408    8.3341 O   0  0  0  0  0  0  0  0  0  0  0  0
  -11.5652   -8.7090    6.9943 N   0  0  0  0  0  0  0  0  0  0  0  0
  -11.0298   -9.3888    6.4242 H   0  0  0  0  0  0  0  0  0  0  0  0
   -8.9233   -6.7802    8.7207 N   0  0  0  0  0  0  0  0  0  0  0  0
   -9.4244   -7.4905    7.5274 C   0  0  0  0  0  0  0  0  0  0  0  0
   -8.9485   -5.7472    8.5674 H   0  0  0  0  0  0  0  0  0  0  0  0
   -7.9652   -7.1363    8.9412 H   0  0  0  0  0  0  0  0  0  0  0  0
   -8.7408   -8.8308    7.4187 C   0  0  0  0  0  0  0  0  0  0  0  0
   -7.2599   -8.6968    7.4796 C   0  0  0  0  0  0  0  0  0  0  0  0
   -6.7218   -7.7805    6.5136 N   0  0  0  0  0  0  0  0  0  0  0  0
   -6.1023   -6.7070    6.7689 C   0  0  0  0  0  0  0  0  0  0  0  0
   -5.6228   -5.8929    5.7203 N   0  0  0  0  0  0  0  0  0  0  0  0
   -5.8840   -6.3118    8.1053 N   0  0  0  0  0  0  0  0  0  0  0  0
   -4.5853   -5.7292    5.6029 H   0  0  0  0  0  0  0  0  0  0  0  0
   -6.2626   -5.4353    5.0402 H   0  0  0  0  0  0  0  0  0  0  0  0
   -6.3015   -5.4104    8.4541 H   0  0  0  0  0  0  0  0  0  0  0  0
   -5.3271   -6.8531    8.7983 H   0  0  0  0  0  0  0  0  0  0  0  0
  -13.0237   -8.8382    7.1322 C   0  0  0  0  0  0  0  0  0  0  0  0
  -13.2351   -9.8724    8.1512 C   0  0  0  0  0  0  0  0  0  0  0  0
  -13.8660  -11.0656    7.8842 O   0  0  0  0  0  0  0  0  0  0  0  0
  -12.8459   -9.7301    9.3660 O   0  0  0  0  0  0  0  0  0  0  0  0
  -13.5735  -11.9521    8.2895 H   0  0  0  0  0  0  0  0  0  0  0  0
  -13.6119   -9.1329    5.7839 C   0  0  0  0  0  0  0  0  0  0  0  0
  -14.4774   -8.0618    5.2563 C   0  0  0  0  0  0  0  0  0  0  0  0
  -15.4130   -8.2854    4.2496 C   0  0  0  0  0  0  0  0  0  0  0  0
  -16.2214   -7.2926    3.7546 C   0  0  0  0  0  0  0  0  0  0  0  0
  -16.1030   -6.0309    4.2720 C   0  0  0  0  0  0  0  0  0  0  0  0
  -16.9165   -5.0019    3.7834 O   0  0  0  0  0  0  0  0  0  0  0  0
  -15.1789   -5.7908    5.2724 C   0  0  0  0  0  0  0  0  0  0  0  0
  -14.3751   -6.7638    5.7691 C   0  0  0  0  0  0  0  0  0  0  0  0
  -17.5787   -5.1819    3.0639 H   0  0  0  0  0  0  0  0  0  0  0  0
  5  6  1  0  0  0
  6  9  1  0  0  0
  9 10  1  0  0  0
 10 11  1  0  0  0
 11 12  2  0  0  0
 12 13  1  0  0  0
 12 14  1  0  0  0
  6  1  1  0  0  0
  1  2  2  0  0  0
  1  3  1  0  0  0
  3 19  1  0  0  0
 19 24  1  0  0  0
 24 25  1  0  0  0
 25 26  2  0  0  0
 26 27  1  0  0  0
 27 28  2  0  0  0
 28 29  1  0  0  0
 28 30  1  0  0  0
 30 31  2  0  0  0
 19 20  1  0  0  0
 20 21  1  0  0  0
 20 22  2  0  0  0
 31 25  1  0  0  0
  5  7  1  0  0  0
  5  8  1  0  0  0
 13 15  1  0  0  0
 13 16  1  0  0  0
 14 17  1  0  0  0
 14 18  1  0  0  0
  3  4  1  0  0  0
 29 32  1  0  0  0
 21 23  1  0  0  0
M  END
> <minimizedAffinity>
-7.49686

> <CNNscore>
0.2394185960

> <CNNaffinity>
5.7738084793

> <CNN_VS>
1.3823571205

> <CNNaffinity_variance>
0.2807691991

$$$$
[H]OC(=O)[C@@]([H])(N([H])C(=O)[C@@]([H])(N([H])[H])C([H])([H])C([H])([H])N=C(N([H])[H])N([H])[H])C([H])([H])c1c([H])c([H])c(O[H])c([H])c1[H]


 32 32  0  0  0  0  0  0  0  0999 V2000
  -14.7278   -6.1655    5.5651 C   0  0  0  0  0  0  0  0  0  0  0  0
  -14.3374   -7.0062    4.7354 O   0  0  0  0  0  0  0  0  0  0  0  0
  -14.4904   -6.3867    6.9443 N   0  0  0  0  0  0  0  0  0  0  0  0
  -14.8031   -5.7055    7.6597 H   0  0  0  0  0  0  0  0  0  0  0  0
  -14.8219   -4.4148    3.8998 N   0  0  0  0  0  0  0  0  0  0  0  0
  -15.4502   -4.9121    5.1398 C   0  0  0  0  0  0  0  0  0  0  0  0
  -14.0280   -3.7744    4.1249 H   0  0  0  0  0  0  0  0  0  0  0  0
  -15.5587   -3.9603    3.3134 H   0  0  0  0  0  0  0  0  0  0  0  0
  -16.9151   -5.1710    4.8899 C   0  0  0  0  0  0  0  0  0  0  0  0
  -17.1178   -6.3040    3.9465 C   0  0  0  0  0  0  0  0  0  0  0  0
  -18.1245   -7.2364    4.3701 N   0  0  0  0  0  0  0  0  0  0  0  0
  -17.9194   -8.3997    4.8240 C   0  0  0  0  0  0  0  0  0  0  0  0
  -19.0039   -9.2183    5.2061 N   0  0  0  0  0  0  0  0  0  0  0  0
  -16.6037   -8.8917    4.9530 N   0  0  0  0  0  0  0  0  0  0  0  0
  -19.1145   -9.5232    6.2120 H   0  0  0  0  0  0  0  0  0  0  0  0
  -19.7178   -9.5429    4.5232 H   0  0  0  0  0  0  0  0  0  0  0  0
  -16.3114   -9.7406    4.4031 H   0  0  0  0  0  0  0  0  0  0  0  0
  -15.8736   -8.4731    5.5654 H   0  0  0  0  0  0  0  0  0  0  0  0
  -13.7848   -7.6140    7.3429 C   0  0  0  0  0  0  0  0  0  0  0  0
  -14.8295   -8.5483    7.7770 C   0  0  0  0  0  0  0  0  0  0  0  0
  -14.6267   -9.9062    7.8655 O   0  0  0  0  0  0  0  0  0  0  0  0
  -16.0084   -8.1584    8.1017 O   0  0  0  0  0  0  0  0  0  0  0  0
  -15.0185  -10.4796    8.6094 H   0  0  0  0  0  0  0  0  0  0  0  0
  -12.7599   -7.2660    8.3817 C   0  0  0  0  0  0  0  0  0  0  0  0
  -11.4132   -7.7984    8.1025 C   0  0  0  0  0  0  0  0  0  0  0  0
  -11.2081   -9.0660    7.5642 C   0  0  0  0  0  0  0  0  0  0  0  0
   -9.9574   -9.5670    7.3021 C   0  0  0  0  0  0  0  0  0  0  0  0
   -8.8668   -8.7883    7.5814 C   0  0  0  0  0  0  0  0  0  0  0  0
   -7.5810   -9.2773    7.3228 O   0  0  0  0  0  0  0  0  0  0  0  0
   -9.0520   -7.5266    8.1165 C   0  0  0  0  0  0  0  0  0  0  0  0
  -10.2829   -7.0214    8.3795 C   0  0  0  0  0  0  0  0  0  0  0  0
   -7.4555  -10.1855    6.9380 H   0  0  0  0  0  0  0  0  0  0  0  0
  5  6  1  0  0  0
  6  9  1  0  0  0
  9 10  1  0  0  0
 10 11  1  0  0  0
 11 12  2  0  0  0
 12 13  1  0  0  0
 12 14  1  0  0  0
  6  1  1  0  0  0
  1  2  2  0  0  0
  1  3  1  0  0  0
  3 19  1  0  0  0
 19 24  1  0  0  0
 24 25  1  0  0  0
 25 26  2  0  0  0
 26 27  1  0  0  0
 27 28  2  0  0  0
 28 29  1  0  0  0
 28 30  1  0  0  0
 30 31  2  0  0  0
 19 20  1  0  0  0
 20 21  1  0  0  0
 20 22  2  0  0  0
 31 25  1  0  0  0
  5  7  1  0  0  0
  5  8  1  0  0  0
 13 15  1  0  0  0
 13 16  1  0  0  0
 14 17  1  0  0  0
 14 18  1  0  0  0
  3  4  1  0  0  0
 29 32  1  0  0  0
 21 23  1  0  0  0
M  END
> <minimizedAffinity>
-8.05695

> <CNNscore>
0.2323848307

> <CNNaffinity>
5.9770421982

> <CNN_VS>
1.3889739513

> <CNNaffinity_variance>
0.1451016665

$$$$
[H]c1nc2c([H])c([H])c([H])c([H])n2c1C(=O)N([H])c1c([H])c(N([H])C(=O)c2c([H])c([H])c(C([H])([H])N3C([H])([H])C([H])([H])N(C([H])([H])[H])C([H])([H])C3([H])[H])c(C(F)(F)F)c2[H])c([H])c([H])c1C([H])([H])[H]


 42 46  0  0  0  0  0  0  0  0999 V2000
  -12.2798   -6.6897    7.4085 C   0  0  0  0  0  0  0  0  0  0  0  0
  -12.5919   -6.3931    8.5767 O   0  0  0  0  0  0  0  0  0  0  0  0
  -10.9665   -7.0282    7.0639 N   0  0  0  0  0  0  0  0  0  0  0  0
  -10.8223   -7.2689    6.0292 H   0  0  0  0  0  0  0  0  0  0  0  0
   -9.8688   -7.0666    7.9513 C   0  0  0  0  0  0  0  0  0  0  0  0
   -9.9363   -7.1642    9.3071 C   0  0  0  0  0  0  0  0  0  0  0  0
   -8.7910   -7.2231   10.0674 C   0  0  0  0  0  0  0  0  0  0  0  0
   -7.5470   -7.1849    9.4831 C   0  0  0  0  0  0  0  0  0  0  0  0
   -6.3168   -7.2479   10.3027 C   0  0  0  0  0  0  0  0  0  0  0  0
   -7.4311   -7.0850    8.0993 C   0  0  0  0  0  0  0  0  0  0  0  0
   -8.5935   -7.0279    7.3618 C   0  0  0  0  0  0  0  0  0  0  0  0
   -6.1497   -7.0555    7.5524 N   0  0  0  0  0  0  0  0  0  0  0  0
   -5.6934   -6.5096    6.3442 C   0  0  0  0  0  0  0  0  0  0  0  0
   -6.4631   -5.9347    5.5559 O   0  0  0  0  0  0  0  0  0  0  0  0
   -5.3668   -7.5202    8.1313 H   0  0  0  0  0  0  0  0  0  0  0  0
   -4.2673   -6.5999    5.9606 C   0  0  0  0  0  0  0  0  0  0  0  0
   -3.6201   -7.7822    5.6687 C   0  0  0  0  0  0  0  0  0  0  0  0
   -2.3547   -7.4846    5.3616 N   0  0  0  0  0  0  0  0  0  0  0  0
   -2.1886   -6.1589    5.4514 C   0  0  0  0  0  0  0  0  0  0  0  0
   -1.0716   -5.3554    5.2346 C   0  0  0  0  0  0  0  0  0  0  0  0
   -1.1630   -3.9937    5.3962 C   0  0  0  0  0  0  0  0  0  0  0  0
   -2.3861   -3.4766    5.7746 C   0  0  0  0  0  0  0  0  0  0  0  0
   -3.4797   -4.2887    5.9843 C   0  0  0  0  0  0  0  0  0  0  0  0
   -3.3808   -5.6170    5.8240 N   0  0  0  0  0  0  0  0  0  0  0  0
  -15.4964   -6.5018    4.5582 C   0  0  0  0  0  0  0  0  0  0  0  0
  -14.8894   -7.6955    4.8902 C   0  0  0  0  0  0  0  0  0  0  0  0
  -13.8386   -7.7921    5.8115 C   0  0  0  0  0  0  0  0  0  0  0  0
  -13.3737   -6.6604    6.4269 C   0  0  0  0  0  0  0  0  0  0  0  0
  -13.9660   -5.4777    6.1074 C   0  0  0  0  0  0  0  0  0  0  0  0
  -15.0188   -5.3642    5.1867 C   0  0  0  0  0  0  0  0  0  0  0  0
  -15.5946   -4.0532    4.8919 C   0  0  0  0  0  0  0  0  0  0  0  0
  -14.9202   -2.9766    5.4151 F   0  0  0  0  0  0  0  0  0  0  0  0
  -15.8631   -3.8777    3.5394 F   0  0  0  0  0  0  0  0  0  0  0  0
  -16.8626   -3.9922    5.4951 F   0  0  0  0  0  0  0  0  0  0  0  0
  -16.6260   -6.4236    3.6272 C   0  0  0  0  0  0  0  0  0  0  0  0
  -16.5677  -10.9895    3.4022 C   0  0  0  0  0  0  0  0  0  0  0  0
  -16.4619   -9.5721    3.4366 N   0  0  0  0  0  0  0  0  0  0  0  0
  -17.1608   -8.8590    2.4222 C   0  0  0  0  0  0  0  0  0  0  0  0
  -18.2486   -7.9761    2.8769 C   0  0  0  0  0  0  0  0  0  0  0  0
  -17.8102   -7.1288    4.0046 N   0  0  0  0  0  0  0  0  0  0  0  0
  -17.6053   -8.1218    5.0634 C   0  0  0  0  0  0  0  0  0  0  0  0
  -16.4283   -8.9534    4.7125 C   0  0  0  0  0  0  0  0  0  0  0  0
 36 37  1  0  0  0
 37 38  1  0  0  0
 38 39  1  0  0  0
 39 40  1  0  0  0
 40 35  1  0  0  0
 35 25  1  0  0  0
 25 26  2  0  0  0
 26 27  1  0  0  0
 27 28  2  0  0  0
 28 29  1  0  0  0
 29 30  2  0  0  0
 30 31  1  0  0  0
 31 32  1  0  0  0
 31 33  1  0  0  0
 31 34  1  0  0  0
 28  1  1  0  0  0
  1  2  2  0  0  0
  1  3  1  0  0  0
  3  5  1  0  0  0
  5  6  2  0  0  0
  6  7  1  0  0  0
  7  8  2  0  0  0
  8  9  1  0  0  0
  8 10  1  0  0  0
 10 12  1  0  0  0
 12 13  1  0  0  0
 13 14  2  0  0  0
 13 16  1  0  0  0
 16 17  2  0  0  0
 17 18  1  0  0  0
 18 19  2  0  0  0
 19 20  1  0  0  0
 20 21  2  0  0  0
 21 22  1  0  0  0
 22 23  2  0  0  0
 23 24  1  0  0  0
 10 11  2  0  0  0
 40 41  1  0  0  0
 41 42  1  0  0  0
 42 37  1  0  0  0
 30 25  1  0  0  0
 11  5  1  0  0  0
 24 16  1  0  0  0
 24 19  1  0  0  0
  3  4  1  0  0  0
 12 15  1  0  0  0
M  END
> <minimizedAffinity>
6.91983

> <CNNscore>
0.3791719079

> <CNNaffinity>
7.0256476402

> <CNN_VS>
2.6639282703

> <CNNaffinity_variance>
1.5549886227

$$$$
[H]c1nc2c([H])c([H])c([H])c([H])n2c1C(=O)N([H])c1c([H])c(N([H])C(=O)c2c([H])c([H])c(C([H])([H])N3C([H])([H])C([H])([H])N(C([H])([H])[H])C([H])([H])C3([H])[H])c(C(F)(F)F)c2[H])c([H])c([H])c1C([H])([H])[H]


 42 46  0  0  0  0  0  0  0  0999 V2000
   -9.0631   -9.4235    7.8611 C   0  0  0  0  0  0  0  0  0  0  0  0
   -9.1320  -10.2912    6.9709 O   0  0  0  0  0  0  0  0  0  0  0  0
  -10.1907   -9.0306    8.5908 N   0  0  0  0  0  0  0  0  0  0  0  0
  -10.0051   -8.2796    9.3330 H   0  0  0  0  0  0  0  0  0  0  0  0
  -11.4982   -9.5343    8.4160 C   0  0  0  0  0  0  0  0  0  0  0  0
  -12.0091  -10.6566    8.9921 C   0  0  0  0  0  0  0  0  0  0  0  0
  -13.3138  -11.0322    8.7683 C   0  0  0  0  0  0  0  0  0  0  0  0
  -14.1389  -10.2882    7.9584 C   0  0  0  0  0  0  0  0  0  0  0  0
  -15.5413  -10.6942    7.7189 C   0  0  0  0  0  0  0  0  0  0  0  0
  -13.6576   -9.1330    7.3483 C   0  0  0  0  0  0  0  0  0  0  0  0
  -12.3479   -8.7796    7.5893 C   0  0  0  0  0  0  0  0  0  0  0  0
  -14.5325   -8.4086    6.5408 N   0  0  0  0  0  0  0  0  0  0  0  0
  -14.3251   -7.2292    5.8116 C   0  0  0  0  0  0  0  0  0  0  0  0
  -13.2261   -6.6490    5.8079 O   0  0  0  0  0  0  0  0  0  0  0  0
  -15.5348   -8.7965    6.4456 H   0  0  0  0  0  0  0  0  0  0  0  0
  -15.4164   -6.6272    5.0143 C   0  0  0  0  0  0  0  0  0  0  0  0
  -16.6215   -7.2488    4.7629 C   0  0  0  0  0  0  0  0  0  0  0  0
  -17.3584   -6.4161    4.0227 N   0  0  0  0  0  0  0  0  0  0  0  0
  -16.6565   -5.2972    3.8029 C   0  0  0  0  0  0  0  0  0  0  0  0
  -16.9716   -4.1376    3.0983 C   0  0  0  0  0  0  0  0  0  0  0  0
  -16.0601   -3.1121    3.0202 C   0  0  0  0  0  0  0  0  0  0  0  0
  -14.8481   -3.2853    3.6588 C   0  0  0  0  0  0  0  0  0  0  0  0
  -14.5555   -4.4406    4.3511 C   0  0  0  0  0  0  0  0  0  0  0  0
  -15.4518   -5.4363    4.4218 N   0  0  0  0  0  0  0  0  0  0  0  0
   -5.2069   -7.6656    8.5993 C   0  0  0  0  0  0  0  0  0  0  0  0
   -5.3905   -8.6338    7.6337 C   0  0  0  0  0  0  0  0  0  0  0  0
   -6.6309   -9.2286    7.3692 C   0  0  0  0  0  0  0  0  0  0  0  0
   -7.7306   -8.8467    8.0906 C   0  0  0  0  0  0  0  0  0  0  0  0
   -7.5608   -7.8917    9.0451 C   0  0  0  0  0  0  0  0  0  0  0  0
   -6.3254   -7.2868    9.3223 C   0  0  0  0  0  0  0  0  0  0  0  0
   -6.2259   -6.2740   10.3718 C   0  0  0  0  0  0  0  0  0  0  0  0
   -5.9450   -6.7481   11.6304 F   0  0  0  0  0  0  0  0  0  0  0  0
   -5.3856   -5.2229   10.0242 F   0  0  0  0  0  0  0  0  0  0  0  0
   -7.4854   -5.6650   10.5059 F   0  0  0  0  0  0  0  0  0  0  0  0
   -3.9118   -7.0194    8.8320 C   0  0  0  0  0  0  0  0  0  0  0  0
   -1.1389   -4.4538   11.4071 C   0  0  0  0  0  0  0  0  0  0  0  0
   -1.9583   -5.3538   10.6722 N   0  0  0  0  0  0  0  0  0  0  0  0
   -3.3592   -5.2764   10.9118 C   0  0  0  0  0  0  0  0  0  0  0  0
   -4.1945   -4.8642    9.7707 C   0  0  0  0  0  0  0  0  0  0  0  0
   -3.8407   -5.6199    8.5519 N   0  0  0  0  0  0  0  0  0  0  0  0
   -2.4860   -5.1308    8.2787 C   0  0  0  0  0  0  0  0  0  0  0  0
   -1.5768   -5.6369    9.3356 C   0  0  0  0  0  0  0  0  0  0  0  0
 36 37  1  0  0  0
 37 38  1  0  0  0
 38 39  1  0  0  0
 39 40  1  0  0  0
 40 35  1  0  0  0
 35 25  1  0  0  0
 25 26  2  0  0  0
 26 27  1  0  0  0
 27 28  2  0  0  0
 28 29  1  0  0  0
 29 30  2  0  0  0
 30 31  1  0  0  0
 31 32  1  0  0  0
 31 33  1  0  0  0
 31 34  1  0  0  0
 28  1  1  0  0  0
  1  2  2  0  0  0
  1  3  1  0  0  0
  3  5  1  0  0  0
  5  6  2  0  0  0
  6  7  1  0  0  0
  7  8  2  0  0  0
  8  9  1  0  0  0
  8 10  1  0  0  0
 10 12  1  0  0  0
 12 13  1  0  0  0
 13 14  2  0  0  0
 13 16  1  0  0  0
 16 17  2  0  0  0
 17 18  1  0  0  0
 18 19  2  0  0  0
 19 20  1  0  0  0
 20 21  2  0  0  0
 21 22  1  0  0  0
 22 23  2  0  0  0
 23 24  1  0  0  0
 10 11  2  0  0  0
 40 41  1  0  0  0
 41 42  1  0  0  0
 42 37  1  0  0  0
 30 25  1  0  0  0
 11  5  1  0  0  0
 24 16  1  0  0  0
 24 19  1  0  0  0
  3  4  1  0  0  0
 12 15  1  0  0  0
M  END
> <minimizedAffinity>
11.60090

> <CNNscore>
0.3772916198

> <CNNaffinity>
6.8206672668

> <CNN_VS>
2.5733807087

> <CNNaffinity_variance>
2.4537971020

$$$$
[H]c1nc2c([H])c([H])c([H])c([H])n2c1C(=O)N([H])c1c([H])c(N([H])C(=O)c2c([H])c([H])c(C([H])([H])N3C([H])([H])C([H])([H])N(C([H])([H])[H])C([H])([H])C3([H])[H])c(C(F)(F)F)c2[H])c([H])c([H])c1C([H])([H])[H]


 42 46  0  0  0  0  0  0  0  0999 V2000
  -14.6985   -6.5626    8.0115 C   0  0  0  0  0  0  0  0  0  0  0  0
  -14.4141   -5.3834    7.7309 O   0  0  0  0  0  0  0  0  0  0  0  0
  -13.8783   -7.3376    8.8391 N   0  0  0  0  0  0  0  0  0  0  0  0
  -14.2304   -8.3354    9.0117 H   0  0  0  0  0  0  0  0  0  0  0  0
  -12.6695   -6.9095    9.4302 C   0  0  0  0  0  0  0  0  0  0  0  0
  -12.5492   -6.1892   10.5787 C   0  0  0  0  0  0  0  0  0  0  0  0
  -11.3099   -5.8548   11.0744 C   0  0  0  0  0  0  0  0  0  0  0  0
  -10.1586   -6.2364   10.4269 C   0  0  0  0  0  0  0  0  0  0  0  0
   -8.8271   -5.8754   10.9615 C   0  0  0  0  0  0  0  0  0  0  0  0
  -10.2349   -6.9739    9.2485 C   0  0  0  0  0  0  0  0  0  0  0  0
  -11.4880   -7.2954    8.7743 C   0  0  0  0  0  0  0  0  0  0  0  0
   -9.0412   -7.3427    8.6312 N   0  0  0  0  0  0  0  0  0  0  0  0
   -8.8182   -8.0534    7.4433 C   0  0  0  0  0  0  0  0  0  0  0  0
   -9.7586   -8.4689    6.7450 O   0  0  0  0  0  0  0  0  0  0  0  0
   -8.1298   -7.0462    9.1266 H   0  0  0  0  0  0  0  0  0  0  0  0
   -7.4439   -8.3373    6.9746 C   0  0  0  0  0  0  0  0  0  0  0  0
   -6.9616   -9.6041    6.7205 C   0  0  0  0  0  0  0  0  0  0  0  0
   -5.6958   -9.4798    6.3127 N   0  0  0  0  0  0  0  0  0  0  0  0
   -5.3704   -8.1810    6.3034 C   0  0  0  0  0  0  0  0  0  0  0  0
   -4.1860   -7.5322    5.9616 C   0  0  0  0  0  0  0  0  0  0  0  0
   -4.1063   -6.1624    6.0380 C   0  0  0  0  0  0  0  0  0  0  0  0
   -5.2302   -5.4802    6.4599 C   0  0  0  0  0  0  0  0  0  0  0  0
   -6.3929   -6.1407    6.7937 C   0  0  0  0  0  0  0  0  0  0  0  0
   -6.4612   -7.4783    6.7158 N   0  0  0  0  0  0  0  0  0  0  0  0
  -18.3141   -8.0213    6.1933 C   0  0  0  0  0  0  0  0  0  0  0  0
  -18.0313   -8.2418    7.5256 C   0  0  0  0  0  0  0  0  0  0  0  0
  -16.8632   -7.7836    8.1484 C   0  0  0  0  0  0  0  0  0  0  0  0
  -15.9416   -7.0790    7.4206 C   0  0  0  0  0  0  0  0  0  0  0  0
  -16.2109   -6.8551    6.1057 C   0  0  0  0  0  0  0  0  0  0  0  0
  -17.3756   -7.3076    5.4672 C   0  0  0  0  0  0  0  0  0  0  0  0
  -17.5851   -7.0325    4.0468 C   0  0  0  0  0  0  0  0  0  0  0  0
  -16.5296   -6.4434    3.3936 F   0  0  0  0  0  0  0  0  0  0  0  0
  -18.0615   -8.1377    3.3515 F   0  0  0  0  0  0  0  0  0  0  0  0
  -18.6257   -6.0942    3.9369 F   0  0  0  0  0  0  0  0  0  0  0  0
  -19.5626   -8.4670    5.5677 C   0  0  0  0  0  0  0  0  0  0  0  0
  -21.6806  -11.5600    8.1849 C   0  0  0  0  0  0  0  0  0  0  0  0
  -21.0588  -10.5091    7.4567 N   0  0  0  0  0  0  0  0  0  0  0  0
  -19.6355  -10.4989    7.4480 C   0  0  0  0  0  0  0  0  0  0  0  0
  -18.9896  -10.6923    6.1384 C   0  0  0  0  0  0  0  0  0  0  0  0
  -19.5966   -9.8210    5.1117 N   0  0  0  0  0  0  0  0  0  0  0  0
  -20.9460  -10.3831    5.0014 C   0  0  0  0  0  0  0  0  0  0  0  0
  -21.6850  -10.0924    6.2541 C   0  0  0  0  0  0  0  0  0  0  0  0
 36 37  1  0  0  0
 37 38  1  0  0  0
 38 39  1  0  0  0
 39 40  1  0  0  0
 40 35  1  0  0  0
 35 25  1  0  0  0
 25 26  2  0  0  0
 26 27  1  0  0  0
 27 28  2  0  0  0
 28 29  1  0  0  0
 29 30  2  0  0  0
 30 31  1  0  0  0
 31 32  1  0  0  0
 31 33  1  0  0  0
 31 34  1  0  0  0
 28  1  1  0  0  0
  1  2  2  0  0  0
  1  3  1  0  0  0
  3  5  1  0  0  0
  5  6  2  0  0  0
  6  7  1  0  0  0
  7  8  2  0  0  0
  8  9  1  0  0  0
  8 10  1  0  0  0
 10 12  1  0  0  0
 12 13  1  0  0  0
 13 14  2  0  0  0
 13 16  1  0  0  0
 16 17  2  0  0  0
 17 18  1  0  0  0
 18 19  2  0  0  0
 19 20  1  0  0  0
 20 21  2  0  0  0
 21 22  1  0  0  0
 22 23  2  0  0  0
 23 24  1  0  0  0
 10 11  2  0  0  0
 40 41  1  0  0  0
 41 42  1  0  0  0
 42 37  1  0  0  0
 30 25  1  0  0  0
 11  5  1  0  0  0
 24 16  1  0  0  0
 24 19  1  0  0  0
  3  4  1  0  0  0
 12 15  1  0  0  0
M  END
> <minimizedAffinity>
12.17851

> <CNNscore>
0.3712675273

> <CNNaffinity>
7.0852150917

> <CNN_VS>
2.6305103302

> <CNNaffinity_variance>
1.2050586939

$$$$
[H]c1nc2c([H])c([H])c([H])c([H])n2c1C(=O)N([H])c1c([H])c(N([H])C(=O)c2c([H])c([H])c(C([H])([H])N3C([H])([H])C([H])([H])N(C([H])([H])[H])C([H])([H])C3([H])[H])c(C(F)(F)F)c2[H])c([H])c([H])c1C([H])([H])[H]


 42 46  0  0  0  0  0  0  0  0999 V2000
   -9.8188   -7.9260    7.9608 C   0  0  0  0  0  0  0  0  0  0  0  0
  -10.4940   -7.3234    7.1058 O   0  0  0  0  0  0  0  0  0  0  0  0
  -10.4126   -8.5131    9.0837 N   0  0  0  0  0  0  0  0  0  0  0  0
   -9.7292   -9.0074    9.7454 H   0  0  0  0  0  0  0  0  0  0  0  0
  -11.7912   -8.4924    9.3886 C   0  0  0  0  0  0  0  0  0  0  0  0
  -12.3671   -8.9556   10.5314 C   0  0  0  0  0  0  0  0  0  0  0  0
  -13.7251   -8.8533   10.7280 C   0  0  0  0  0  0  0  0  0  0  0  0
  -14.5397   -8.2822    9.7790 C   0  0  0  0  0  0  0  0  0  0  0  0
  -15.9998   -8.1735    9.9923 C   0  0  0  0  0  0  0  0  0  0  0  0
  -13.9931   -7.7955    8.5947 C   0  0  0  0  0  0  0  0  0  0  0  0
  -12.6308   -7.9103    8.4235 C   0  0  0  0  0  0  0  0  0  0  0  0
  -14.8575   -7.2200    7.6653 N   0  0  0  0  0  0  0  0  0  0  0  0
  -15.6022   -7.8108    6.6346 C   0  0  0  0  0  0  0  0  0  0  0  0
  -15.5666   -9.0348    6.4228 O   0  0  0  0  0  0  0  0  0  0  0  0
  -14.9915   -6.1513    7.7278 H   0  0  0  0  0  0  0  0  0  0  0  0
  -16.4639   -6.9913    5.7543 C   0  0  0  0  0  0  0  0  0  0  0  0
  -17.4406   -6.1325    6.2130 C   0  0  0  0  0  0  0  0  0  0  0  0
  -18.0088   -5.5615    5.1476 N   0  0  0  0  0  0  0  0  0  0  0  0
  -17.4221   -6.0331    4.0402 C   0  0  0  0  0  0  0  0  0  0  0  0
  -17.6456   -5.7584    2.6929 C   0  0  0  0  0  0  0  0  0  0  0  0
  -16.8933   -6.3869    1.7297 C   0  0  0  0  0  0  0  0  0  0  0  0
  -15.9305   -7.2809    2.1543 C   0  0  0  0  0  0  0  0  0  0  0  0
  -15.7248   -7.5390    3.4925 C   0  0  0  0  0  0  0  0  0  0  0  0
  -16.4641   -6.9206    4.4255 N   0  0  0  0  0  0  0  0  0  0  0  0
   -5.5691   -7.9941    7.2963 C   0  0  0  0  0  0  0  0  0  0  0  0
   -6.4261   -8.8220    6.6006 C   0  0  0  0  0  0  0  0  0  0  0  0
   -7.8135   -8.8275    6.7939 C   0  0  0  0  0  0  0  0  0  0  0  0
   -8.3709   -7.9780    7.7123 C   0  0  0  0  0  0  0  0  0  0  0  0
   -7.5347   -7.1565    8.4034 C   0  0  0  0  0  0  0  0  0  0  0  0
   -6.1435   -7.1392    8.2218 C   0  0  0  0  0  0  0  0  0  0  0  0
   -5.3137   -6.2315    9.0122 C   0  0  0  0  0  0  0  0  0  0  0  0
   -4.4124   -5.4780    8.2999 F   0  0  0  0  0  0  0  0  0  0  0  0
   -6.0593   -5.4452    9.8829 F   0  0  0  0  0  0  0  0  0  0  0  0
   -4.5138   -7.0099    9.8663 F   0  0  0  0  0  0  0  0  0  0  0  0
   -4.1244   -7.9674    7.0490 C   0  0  0  0  0  0  0  0  0  0  0  0
   -1.2644   -4.6257    5.8018 C   0  0  0  0  0  0  0  0  0  0  0  0
   -2.1437   -5.6205    6.3103 N   0  0  0  0  0  0  0  0  0  0  0  0
   -3.5149   -5.5008    5.9475 C   0  0  0  0  0  0  0  0  0  0  0  0
   -4.0695   -6.5892    5.1245 C   0  0  0  0  0  0  0  0  0  0  0  0
   -3.7151   -7.9107    5.6810 N   0  0  0  0  0  0  0  0  0  0  0  0
   -2.2621   -7.9372    5.4881 C   0  0  0  0  0  0  0  0  0  0  0  0
   -1.6442   -6.9450    6.4010 C   0  0  0  0  0  0  0  0  0  0  0  0
 36 37  1  0  0  0
 37 38  1  0  0  0
 38 39  1  0  0  0
 39 40  1  0  0  0
 40 35  1  0  0  0
 35 25  1  0  0  0
 25 26  2  0  0  0
 26 27  1  0  0  0
 27 28  2  0  0  0
 28 29  1  0  0  0
 29 30  2  0  0  0
 30 31  1  0  0  0
 31 32  1  0  0  0
 31 33  1  0  0  0
 31 34  1  0  0  0
 28  1  1  0  0  0
  1  2  2  0  0  0
  1  3  1  0  0  0
  3  5  1  0  0  0
  5  6  2  0  0  0
  6  7  1  0  0  0
  7  8  2  0  0  0
  8  9  1  0  0  0
  8 10  1  0  0  0
 10 12  1  0  0  0
 12 13  1  0  0  0
 13 14  2  0  0  0
 13 16  1  0  0  0
 16 17  2  0  0  0
 17 18  1  0  0  0
 18 19  2  0  0  0
 19 20  1  0  0  0
 20 21  2  0  0  0
 21 22  1  0  0  0
 22 23  2  0  0  0
 23 24  1  0  0  0
 10 11  2  0  0  0
 40 41  1  0  0  0
 41 42  1  0  0  0
 42 37  1  0  0  0
 30 25  1  0  0  0
 11  5  1  0  0  0
 24 16  1  0  0  0
 24 19  1  0  0  0
  3  4  1  0  0  0
 12 15  1  0  0  0
M  END
> <minimizedAffinity>
5.66563

> <CNNscore>
0.3697420955

> <CNNaffinity>
7.0443334579

> <CNN_VS>
2.6045866013

> <CNNaffinity_variance>
2.0732655525

$$$$
[H]c1nc2c([H])c([H])c([H])c([H])n2c1C(=O)N([H])c1c([H])c(N([H])C(=O)c2c([H])c([H])c(C([H])([H])N3C([H])([H])C([H])([H])N(C([H])([H])[H])C([H])([H])C3([H])[H])c(C(F)(F)F)c2[H])c([H])c([H])c1C([H])([H])[H]


 42 46  0  0  0  0  0  0  0  0999 V2000
  -14.2314   -8.2867    6.0098 C   0  0  0  0  0  0  0  0  0  0  0  0
  -15.3263   -8.2870    6.6027 O   0  0  0  0  0  0  0  0  0  0  0  0
  -14.1527   -8.1973    4.6155 N   0  0  0  0  0  0  0  0  0  0  0  0
  -13.1557   -8.2018    4.2215 H   0  0  0  0  0  0  0  0  0  0  0  0
  -15.2531   -8.1101    3.7350 C   0  0  0  0  0  0  0  0  0  0  0  0
  -15.4876   -8.9139    2.6620 C   0  0  0  0  0  0  0  0  0  0  0  0
  -16.6160   -8.7500    1.8917 C   0  0  0  0  0  0  0  0  0  0  0  0
  -17.5382   -7.7722    2.1809 C   0  0  0  0  0  0  0  0  0  0  0  0
  -18.7506   -7.5975    1.3510 C   0  0  0  0  0  0  0  0  0  0  0  0
  -17.3383   -6.9270    3.2690 C   0  0  0  0  0  0  0  0  0  0  0  0
  -16.2005   -7.1130    4.0236 C   0  0  0  0  0  0  0  0  0  0  0  0
  -18.3031   -5.9549    3.5261 N   0  0  0  0  0  0  0  0  0  0  0  0
  -18.6668   -5.3367    4.7308 C   0  0  0  0  0  0  0  0  0  0  0  0
  -18.1075   -5.6191    5.8041 O   0  0  0  0  0  0  0  0  0  0  0  0
  -18.8747   -5.6064    2.6800 H   0  0  0  0  0  0  0  0  0  0  0  0
  -19.7390   -4.3179    4.7683 C   0  0  0  0  0  0  0  0  0  0  0  0
  -20.6138   -4.0798    3.7290 C   0  0  0  0  0  0  0  0  0  0  0  0
  -21.4414   -3.1044    4.1135 N   0  0  0  0  0  0  0  0  0  0  0  0
  -21.1146   -2.7248    5.3553 C   0  0  0  0  0  0  0  0  0  0  0  0
  -21.6624   -1.7582    6.1955 C   0  0  0  0  0  0  0  0  0  0  0  0
  -21.1349   -1.5585    7.4487 C   0  0  0  0  0  0  0  0  0  0  0  0
  -20.0624   -2.3439    7.8224 C   0  0  0  0  0  0  0  0  0  0  0  0
  -19.5347   -3.2952    6.9761 C   0  0  0  0  0  0  0  0  0  0  0  0
  -20.0565   -3.4830    5.7546 N   0  0  0  0  0  0  0  0  0  0  0  0
  -10.7821   -8.4951    8.5719 C   0  0  0  0  0  0  0  0  0  0  0  0
  -10.8822   -9.2568    7.4259 C   0  0  0  0  0  0  0  0  0  0  0  0
  -11.9914   -9.2154    6.5712 C   0  0  0  0  0  0  0  0  0  0  0  0
  -13.0403   -8.3855    6.8656 C   0  0  0  0  0  0  0  0  0  0  0  0
  -12.9515   -7.6292    7.9933 C   0  0  0  0  0  0  0  0  0  0  0  0
  -11.8481   -7.6594    8.8595 C   0  0  0  0  0  0  0  0  0  0  0  0
  -11.8350   -6.8210   10.0571 C   0  0  0  0  0  0  0  0  0  0  0  0
  -12.1644   -7.4555   11.2303 F   0  0  0  0  0  0  0  0  0  0  0  0
  -10.6602   -6.0894   10.1862 F   0  0  0  0  0  0  0  0  0  0  0  0
  -12.8270   -5.8369    9.9069 F   0  0  0  0  0  0  0  0  0  0  0  0
   -9.5944   -8.5151    9.4310 C   0  0  0  0  0  0  0  0  0  0  0  0
   -7.8998   -5.8390    6.1343 C   0  0  0  0  0  0  0  0  0  0  0  0
   -8.5207   -6.5840    7.1739 N   0  0  0  0  0  0  0  0  0  0  0  0
   -9.1526   -7.8009    6.7921 C   0  0  0  0  0  0  0  0  0  0  0  0
   -8.5823   -9.0368    7.3551 C   0  0  0  0  0  0  0  0  0  0  0  0
   -8.3687   -8.9093    8.8110 N   0  0  0  0  0  0  0  0  0  0  0  0
   -7.3125   -7.8944    8.8711 C   0  0  0  0  0  0  0  0  0  0  0  0
   -7.8795   -6.5936    8.4391 C   0  0  0  0  0  0  0  0  0  0  0  0
 36 37  1  0  0  0
 37 38  1  0  0  0
 38 39  1  0  0  0
 39 40  1  0  0  0
 40 35  1  0  0  0
 35 25  1  0  0  0
 25 26  2  0  0  0
 26 27  1  0  0  0
 27 28  2  0  0  0
 28 29  1  0  0  0
 29 30  2  0  0  0
 30 31  1  0  0  0
 31 32  1  0  0  0
 31 33  1  0  0  0
 31 34  1  0  0  0
 28  1  1  0  0  0
  1  2  2  0  0  0
  1  3  1  0  0  0
  3  5  1  0  0  0
  5  6  2  0  0  0
  6  7  1  0  0  0
  7  8  2  0  0  0
  8  9  1  0  0  0
  8 10  1  0  0  0
 10 12  1  0  0  0
 12 13  1  0  0  0
 13 14  2  0  0  0
 13 16  1  0  0  0
 16 17  2  0  0  0
 17 18  1  0  0  0
 18 19  2  0  0  0
 19 20  1  0  0  0
 20 21  2  0  0  0
 21 22  1  0  0  0
 22 23  2  0  0  0
 23 24  1  0  0  0
 10 11  2  0  0  0
 40 41  1  0  0  0
 41 42  1  0  0  0
 42 37  1  0  0  0
 30 25  1  0  0  0
 11  5  1  0  0  0
 24 16  1  0  0  0
 24 19  1  0  0  0
  3  4  1  0  0  0
 12 15  1  0  0  0
M  END
> <minimizedAffinity>
24.50589

> <CNNscore>
0.2950586677

> <CNNaffinity>
7.0954489708

> <CNN_VS>
2.0935738087

> <CNNaffinity_variance>
0.5874029398

$$$$
[H]c1nc2c([H])c([H])c([H])c([H])n2c1C(=O)N([H])c1c([H])c(N([H])C(=O)c2c([H])c([H])c(C([H])([H])N3C([H])([H])C([H])([H])N(C([H])([H])[H])C([H])([H])C3([H])[H])c(C(F)(F)F)c2[H])c([H])c([H])c1C([H])([H])[H]


 42 46  0  0  0  0  0  0  0  0999 V2000
  -14.4504   -9.0295    7.2831 C   0  0  0  0  0  0  0  0  0  0  0  0
  -13.4848   -8.7676    6.5421 O   0  0  0  0  0  0  0  0  0  0  0  0
  -15.7713   -8.8983    6.8401 N   0  0  0  0  0  0  0  0  0  0  0  0
  -16.5157   -9.1576    7.5668 H   0  0  0  0  0  0  0  0  0  0  0  0
  -16.1674   -8.4616    5.5571 C   0  0  0  0  0  0  0  0  0  0  0  0
  -16.8708   -9.1863    4.6448 C   0  0  0  0  0  0  0  0  0  0  0  0
  -17.2259   -8.6397    3.4329 C   0  0  0  0  0  0  0  0  0  0  0  0
  -16.8819   -7.3490    3.1070 C   0  0  0  0  0  0  0  0  0  0  0  0
  -17.2644   -6.7635    1.8032 C   0  0  0  0  0  0  0  0  0  0  0  0
  -16.1620   -6.5717    4.0103 C   0  0  0  0  0  0  0  0  0  0  0  0
  -15.8195   -7.1432    5.2162 C   0  0  0  0  0  0  0  0  0  0  0  0
  -15.8413   -5.2676    3.6380 N   0  0  0  0  0  0  0  0  0  0  0  0
  -16.6196   -4.1016    3.6633 C   0  0  0  0  0  0  0  0  0  0  0  0
  -17.7961   -4.1108    4.0634 O   0  0  0  0  0  0  0  0  0  0  0  0
  -14.8412   -5.1031    3.2681 H   0  0  0  0  0  0  0  0  0  0  0  0
  -16.0638   -2.8074    3.2102 C   0  0  0  0  0  0  0  0  0  0  0  0
  -15.0582   -2.1278    3.8652 C   0  0  0  0  0  0  0  0  0  0  0  0
  -14.8098   -1.0114    3.1752 N   0  0  0  0  0  0  0  0  0  0  0  0
  -15.6242   -0.9696    2.1131 C   0  0  0  0  0  0  0  0  0  0  0  0
  -15.7605   -0.0282    1.0955 C   0  0  0  0  0  0  0  0  0  0  0  0
  -16.6887   -0.2215    0.1006 C   0  0  0  0  0  0  0  0  0  0  0  0
  -17.4589   -1.3660    0.1598 C   0  0  0  0  0  0  0  0  0  0  0  0
  -17.3086   -2.2856    1.1754 C   0  0  0  0  0  0  0  0  0  0  0  0
  -16.3998   -2.0882    2.1422 N   0  0  0  0  0  0  0  0  0  0  0  0
  -13.5392  -10.2952   11.2923 C   0  0  0  0  0  0  0  0  0  0  0  0
  -12.7095  -10.5929   10.2308 C   0  0  0  0  0  0  0  0  0  0  0  0
  -12.9772  -10.1988    8.9135 C   0  0  0  0  0  0  0  0  0  0  0  0
  -14.1113   -9.4813    8.6403 C   0  0  0  0  0  0  0  0  0  0  0  0
  -14.9362   -9.1816    9.6802 C   0  0  0  0  0  0  0  0  0  0  0  0
  -14.6826   -9.5691   11.0047 C   0  0  0  0  0  0  0  0  0  0  0  0
  -15.6255   -9.2142   12.0641 C   0  0  0  0  0  0  0  0  0  0  0  0
  -16.9263   -9.6052   11.8573 F   0  0  0  0  0  0  0  0  0  0  0  0
  -15.1770   -9.5842   13.3266 F   0  0  0  0  0  0  0  0  0  0  0  0
  -15.6932   -7.8120   12.1308 F   0  0  0  0  0  0  0  0  0  0  0  0
  -13.2213  -10.6745   12.6722 C   0  0  0  0  0  0  0  0  0  0  0  0
  -13.4846   -8.2015   16.5084 C   0  0  0  0  0  0  0  0  0  0  0  0
  -13.5297   -8.9901   15.3263 N   0  0  0  0  0  0  0  0  0  0  0  0
  -13.3292   -8.3020   14.0965 C   0  0  0  0  0  0  0  0  0  0  0  0
  -12.1308   -8.6774   13.3267 C   0  0  0  0  0  0  0  0  0  0  0  0
  -12.0093  -10.1451   13.2133 N   0  0  0  0  0  0  0  0  0  0  0  0
  -11.7535  -10.5329   14.6038 C   0  0  0  0  0  0  0  0  0  0  0  0
  -12.9852  -10.2980   15.3960 C   0  0  0  0  0  0  0  0  0  0  0  0
 36 37  1  0  0  0
 37 38  1  0  0  0
 38 39  1  0  0  0
 39 40  1  0  0  0
 40 35  1  0  0  0
 35 25  1  0  0  0
 25 26  2  0  0  0
 26 27  1  0  0  0
 27 28  2  0  0  0
 28 29  1  0  0  0
 29 30  2  0  0  0
 30 31  1  0  0  0
 31 32  1  0  0  0
 31 33  1  0  0  0
 31 34  1  0  0  0
 28  1  1  0  0  0
  1  2  2  0  0  0
  1  3  1  0  0  0
  3  5  1  0  0  0
  5  6  2  0  0  0
  6  7  1  0  0  0
  7  8  2  0  0  0
  8  9  1  0  0  0
  8 10  1  0  0  0
 10 12  1  0  0  0
 12 13  1  0  0  0
 13 14  2  0  0  0
 13 16  1  0  0  0
 16 17  2  0  0  0
 17 18  1  0  0  0
 18 19  2  0  0  0
 19 20  1  0  0  0
 20 21  2  0  0  0
 21 22  1  0  0  0
 22 23  2  0  0  0
 23 24  1  0  0  0
 10 11  2  0  0  0
 40 41  1  0  0  0
 41 42  1  0  0  0
 42 37  1  0  0  0
 30 25  1  0  0  0
 11  5  1  0  0  0
 24 16  1  0  0  0
 24 19  1  0  0  0
  3  4  1  0  0  0
 12 15  1  0  0  0
M  END
> <minimizedAffinity>
61.03450

> <CNNscore>
0.2884888649

> <CNNaffinity>
6.4285631180

> <CNN_VS>
1.8545688391

> <CNNaffinity_variance>
0.3590789735

$$$$
[H]c1nc2c([H])c([H])c([H])c([H])n2c1C(=O)N([H])c1c([H])c(N([H])C(=O)c2c([H])c([H])c(C([H])([H])N3C([H])([H])C([H])([H])N(C([H])([H])[H])C([H])([H])C3([H])[H])c(C(F)(F)F)c2[H])c([H])c([H])c1C([H])([H])[H]


 42 46  0  0  0  0  0  0  0  0999 V2000
  -13.0454   -7.0649    8.1143 C   0  0  0  0  0  0  0  0  0  0  0  0
  -13.0963   -5.9691    8.7032 O   0  0  0  0  0  0  0  0  0  0  0  0
  -11.8595   -7.8041    8.0422 N   0  0  0  0  0  0  0  0  0  0  0  0
  -11.9417   -8.7331    7.5134 H   0  0  0  0  0  0  0  0  0  0  0  0
  -10.6174   -7.4192    8.5926 C   0  0  0  0  0  0  0  0  0  0  0  0
  -10.4347   -6.6541    9.7032 C   0  0  0  0  0  0  0  0  0  0  0  0
   -9.1693   -6.3689   10.1623 C   0  0  0  0  0  0  0  0  0  0  0  0
   -8.0539   -6.8461    9.5153 C   0  0  0  0  0  0  0  0  0  0  0  0
   -6.6942   -6.5379   10.0105 C   0  0  0  0  0  0  0  0  0  0  0  0
   -8.1942   -7.6324    8.3749 C   0  0  0  0  0  0  0  0  0  0  0  0
   -9.4723   -7.9029    7.9369 C   0  0  0  0  0  0  0  0  0  0  0  0
   -7.0352   -8.0979    7.7567 N   0  0  0  0  0  0  0  0  0  0  0  0
   -6.1874   -7.4704    6.8330 C   0  0  0  0  0  0  0  0  0  0  0  0
   -6.4026   -6.3147    6.4300 O   0  0  0  0  0  0  0  0  0  0  0  0
   -6.7195   -9.0972    8.0129 H   0  0  0  0  0  0  0  0  0  0  0  0
   -4.9965   -8.1677    6.2996 C   0  0  0  0  0  0  0  0  0  0  0  0
   -4.9901   -8.9002    5.1311 C   0  0  0  0  0  0  0  0  0  0  0  0
   -3.7543   -9.3776    4.9607 N   0  0  0  0  0  0  0  0  0  0  0  0
   -2.9890   -8.9695    5.9809 C   0  0  0  0  0  0  0  0  0  0  0  0
   -1.6444   -9.1928    6.2684 C   0  0  0  0  0  0  0  0  0  0  0  0
   -1.0851   -8.6520    7.4012 C   0  0  0  0  0  0  0  0  0  0  0  0
   -1.9024   -7.8963    8.2183 C   0  0  0  0  0  0  0  0  0  0  0  0
   -3.2307   -7.6870    7.9161 C   0  0  0  0  0  0  0  0  0  0  0  0
   -3.7678   -8.2190    6.8079 N   0  0  0  0  0  0  0  0  0  0  0  0
  -16.6861   -8.3855    6.2415 C   0  0  0  0  0  0  0  0  0  0  0  0
  -16.5722   -8.2790    7.6124 C   0  0  0  0  0  0  0  0  0  0  0  0
  -15.4016   -7.8551    8.2547 C   0  0  0  0  0  0  0  0  0  0  0  0
  -14.3030   -7.5238    7.5070 C   0  0  0  0  0  0  0  0  0  0  0  0
  -14.4049   -7.6245    6.1538 C   0  0  0  0  0  0  0  0  0  0  0  0
  -15.5696   -8.0476    5.4955 C   0  0  0  0  0  0  0  0  0  0  0  0
  -15.5938   -8.1374    4.0366 C   0  0  0  0  0  0  0  0  0  0  0  0
  -14.3686   -8.0811    3.4173 F   0  0  0  0  0  0  0  0  0  0  0  0
  -16.3473   -9.2117    3.5783 F   0  0  0  0  0  0  0  0  0  0  0  0
  -16.2803   -7.0136    3.5455 F   0  0  0  0  0  0  0  0  0  0  0  0
  -17.9329   -8.7858    5.5826 C   0  0  0  0  0  0  0  0  0  0  0  0
  -21.2794  -11.2766    7.4530 C   0  0  0  0  0  0  0  0  0  0  0  0
  -20.1694  -10.6105    6.8652 N   0  0  0  0  0  0  0  0  0  0  0  0
  -20.3366  -10.1598    5.5255 C   0  0  0  0  0  0  0  0  0  0  0  0
  -20.2841   -8.7028    5.3159 C   0  0  0  0  0  0  0  0  0  0  0  0
  -19.1190   -8.1081    6.0020 N   0  0  0  0  0  0  0  0  0  0  0  0
  -19.4627   -8.3173    7.4118 C   0  0  0  0  0  0  0  0  0  0  0  0
  -19.3961   -9.7695    7.7059 C   0  0  0  0  0  0  0  0  0  0  0  0
 36 37  1  0  0  0
 37 38  1  0  0  0
 38 39  1  0  0  0
 39 40  1  0  0  0
 40 35  1  0  0  0
 35 25  1  0  0  0
 25 26  2  0  0  0
 26 27  1  0  0  0
 27 28  2  0  0  0
 28 29  1  0  0  0
 29 30  2  0  0  0
 30 31  1  0  0  0
 31 32  1  0  0  0
 31 33  1  0  0  0
 31 34  1  0  0  0
 28  1  1  0  0  0
  1  2  2  0  0  0
  1  3  1  0  0  0
  3  5  1  0  0  0
  5  6  2  0  0  0
  6  7  1  0  0  0
  7  8  2  0  0  0
  8  9  1  0  0  0
  8 10  1  0  0  0
 10 12  1  0  0  0
 12 13  1  0  0  0
 13 14  2  0  0  0
 13 16  1  0  0  0
 16 17  2  0  0  0
 17 18  1  0  0  0
 18 19  2  0  0  0
 19 20  1  0  0  0
 20 21  2  0  0  0
 21 22  1  0  0  0
 22 23  2  0  0  0
 23 24  1  0  0  0
 10 11  2  0  0  0
 40 41  1  0  0  0
 41 42  1  0  0  0
 42 37  1  0  0  0
 30 25  1  0  0  0
 11  5  1  0  0  0
 24 16  1  0  0  0
 24 19  1  0  0  0
  3  4  1  0  0  0
 12 15  1  0  0  0
M  END
> <minimizedAffinity>
7.46872

> <CNNscore>
0.2629524469

> <CNNaffinity>
6.6870589256

> <CNN_VS>
1.7583785057

> <CNNaffinity_variance>
0.5807011724

$$$$
[H]c1nc2c([H])c([H])c([H])c([H])n2c1C(=O)N([H])c1c([H])c(N([H])C(=O)c2c([H])c([H])c(C([H])([H])N3C([H])([H])C([H])([H])N(C([H])([H])[H])C([H])([H])C3([H])[H])c(C(F)(F)F)c2[H])c([H])c([H])c1C([H])([H])[H]


 42 46  0  0  0  0  0  0  0  0999 V2000
   -6.6942   -7.6220    7.2277 C   0  0  0  0  0  0  0  0  0  0  0  0
   -5.8923   -8.5237    6.9211 O   0  0  0  0  0  0  0  0  0  0  0  0
   -6.2881   -6.2878    7.3433 N   0  0  0  0  0  0  0  0  0  0  0  0
   -7.0692   -5.6027    7.6076 H   0  0  0  0  0  0  0  0  0  0  0  0
   -4.9740   -5.8097    7.1473 C   0  0  0  0  0  0  0  0  0  0  0  0
   -4.0417   -5.6052    8.1175 C   0  0  0  0  0  0  0  0  0  0  0  0
   -2.7785   -5.1623    7.7990 C   0  0  0  0  0  0  0  0  0  0  0  0
   -2.4202   -4.9130    6.4952 C   0  0  0  0  0  0  0  0  0  0  0  0
   -1.0614   -4.4364    6.1552 C   0  0  0  0  0  0  0  0  0  0  0  0
   -3.3425   -5.1082    5.4708 C   0  0  0  0  0  0  0  0  0  0  0  0
   -4.6000   -5.5523    5.8172 C   0  0  0  0  0  0  0  0  0  0  0  0
   -2.9319   -4.8478    4.1648 N   0  0  0  0  0  0  0  0  0  0  0  0
   -3.0272   -3.6749    3.4026 C   0  0  0  0  0  0  0  0  0  0  0  0
   -3.5385   -2.6389    3.8605 O   0  0  0  0  0  0  0  0  0  0  0  0
   -2.4635   -5.6624    3.6345 H   0  0  0  0  0  0  0  0  0  0  0  0
   -2.5191   -3.6280    2.0138 C   0  0  0  0  0  0  0  0  0  0  0  0
   -1.2315   -3.9638    1.6516 C   0  0  0  0  0  0  0  0  0  0  0  0
   -1.1310   -3.8094    0.3287 N   0  0  0  0  0  0  0  0  0  0  0  0
   -2.3096   -3.3891   -0.1480 C   0  0  0  0  0  0  0  0  0  0  0  0
   -2.7219   -3.0850   -1.4434 C   0  0  0  0  0  0  0  0  0  0  0  0
   -4.0105   -2.6665   -1.6737 C   0  0  0  0  0  0  0  0  0  0  0  0
   -4.8531   -2.5653   -0.5845 C   0  0  0  0  0  0  0  0  0  0  0  0
   -4.4259   -2.8710    0.6897 C   0  0  0  0  0  0  0  0  0  0  0  0
   -3.1660   -3.2787    0.9047 N   0  0  0  0  0  0  0  0  0  0  0  0
  -10.7706   -8.7876    7.9557 C   0  0  0  0  0  0  0  0  0  0  0  0
   -9.8741   -9.6321    7.3339 C   0  0  0  0  0  0  0  0  0  0  0  0
   -8.5413   -9.2838    7.0793 C   0  0  0  0  0  0  0  0  0  0  0  0
   -8.0816   -8.0503    7.4572 C   0  0  0  0  0  0  0  0  0  0  0  0
   -8.9574   -7.2098    8.0720 C   0  0  0  0  0  0  0  0  0  0  0  0
  -10.2950   -7.5434    8.3338 C   0  0  0  0  0  0  0  0  0  0  0  0
  -11.1745   -6.5783    8.9913 C   0  0  0  0  0  0  0  0  0  0  0  0
  -12.2802   -6.1954    8.2715 F   0  0  0  0  0  0  0  0  0  0  0  0
  -11.5148   -6.9578   10.2844 F   0  0  0  0  0  0  0  0  0  0  0  0
  -10.4510   -5.3870    9.1719 F   0  0  0  0  0  0  0  0  0  0  0  0
  -12.1493   -9.1846    8.2570 C   0  0  0  0  0  0  0  0  0  0  0  0
  -16.1927   -7.7808    6.6502 C   0  0  0  0  0  0  0  0  0  0  0  0
  -14.9311   -8.1080    7.2181 N   0  0  0  0  0  0  0  0  0  0  0  0
  -14.9168   -9.1749    8.1601 C   0  0  0  0  0  0  0  0  0  0  0  0
  -14.1430  -10.3696    7.7812 C   0  0  0  0  0  0  0  0  0  0  0  0
  -12.8031   -9.9995    7.2820 N   0  0  0  0  0  0  0  0  0  0  0  0
  -13.1303   -9.2989    6.0365 C   0  0  0  0  0  0  0  0  0  0  0  0
  -13.7947   -8.0166    6.3741 C   0  0  0  0  0  0  0  0  0  0  0  0
 36 37  1  0  0  0
 37 38  1  0  0  0
 38 39  1  0  0  0
 39 40  1  0  0  0
 40 35  1  0  0  0
 35 25  1  0  0  0
 25 26  2  0  0  0
 26 27  1  0  0  0
 27 28  2  0  0  0
 28 29  1  0  0  0
 29 30  2  0  0  0
 30 31  1  0  0  0
 31 32  1  0  0  0
 31 33  1  0  0  0
 31 34  1  0  0  0
 28  1  1  0  0  0
  1  2  2  0  0  0
  1  3  1  0  0  0
  3  5  1  0  0  0
  5  6  2  0  0  0
  6  7  1  0  0  0
  7  8  2  0  0  0
  8  9  1  0  0  0
  8 10  1  0  0  0
 10 12  1  0  0  0
 12 13  1  0  0  0
 13 14  2  0  0  0
 13 16  1  0  0  0
 16 17  2  0  0  0
 17 18  1  0  0  0
 18 19  2  0  0  0
 19 20  1  0  0  0
 20 21  2  0  0  0
 21 22  1  0  0  0
 22 23  2  0  0  0
 23 24  1  0  0  0
 10 11  2  0  0  0
 40 41  1  0  0  0
 41 42  1  0  0  0
 42 37  1  0  0  0
 30 25  1  0  0  0
 11  5  1  0  0  0
 24 16  1  0  0  0
 24 19  1  0  0  0
  3  4  1  0  0  0
 12 15  1  0  0  0
M  END
> <minimizedAffinity>
-9.19923

> <CNNscore>
0.2531821728

> <CNNaffinity>
6.7117958069

> <CNN_VS>
1.6993070841

> <CNNaffinity_variance>
0.0341778621

$$$$
[H]c1nc2c([H])c([H])c([H])c([H])n2c1C(=O)N([H])c1c([H])c(N([H])C(=O)c2c([H])c([H])c(C([H])([H])N3C([H])([H])C([H])([H])N(C([H])([H])[H])C([H])([H])C3([H])[H])c(C(F)(F)F)c2[H])c([H])c([H])c1C([H])([H])[H]


 42 46  0  0  0  0  0  0  0  0999 V2000
   -8.2303   -7.7957    7.5191 C   0  0  0  0  0  0  0  0  0  0  0  0
   -7.9317   -8.5864    6.6048 O   0  0  0  0  0  0  0  0  0  0  0  0
   -7.2609   -7.0164    8.1601 N   0  0  0  0  0  0  0  0  0  0  0  0
   -7.6402   -6.3707    8.9273 H   0  0  0  0  0  0  0  0  0  0  0  0
   -5.8777   -7.0294    7.8765 C   0  0  0  0  0  0  0  0  0  0  0  0
   -5.1175   -8.1336    7.6411 C   0  0  0  0  0  0  0  0  0  0  0  0
   -3.7788   -8.0175    7.3447 C   0  0  0  0  0  0  0  0  0  0  0  0
   -3.1696   -6.7868    7.2777 C   0  0  0  0  0  0  0  0  0  0  0  0
   -1.7299   -6.6644    6.9592 C   0  0  0  0  0  0  0  0  0  0  0  0
   -3.9092   -5.6307    7.5119 C   0  0  0  0  0  0  0  0  0  0  0  0
   -5.2474   -5.7753    7.8063 C   0  0  0  0  0  0  0  0  0  0  0  0
   -3.2497   -4.4059    7.4271 N   0  0  0  0  0  0  0  0  0  0  0  0
   -2.9759   -3.4546    8.4200 C   0  0  0  0  0  0  0  0  0  0  0  0
   -3.3271   -3.6233    9.6001 O   0  0  0  0  0  0  0  0  0  0  0  0
   -2.8823   -4.1218    6.4533 H   0  0  0  0  0  0  0  0  0  0  0  0
   -2.2535   -2.2047    8.0958 C   0  0  0  0  0  0  0  0  0  0  0  0
   -1.5884   -1.9839    6.9080 C   0  0  0  0  0  0  0  0  0  0  0  0
   -1.0628   -0.7571    6.9618 N   0  0  0  0  0  0  0  0  0  0  0  0
   -1.3758   -0.2042    8.1405 C   0  0  0  0  0  0  0  0  0  0  0  0
   -1.0727    1.0437    8.6802 C   0  0  0  0  0  0  0  0  0  0  0  0
   -1.5216    1.3766    9.9357 C   0  0  0  0  0  0  0  0  0  0  0  0
   -2.2684    0.4359   10.6168 C   0  0  0  0  0  0  0  0  0  0  0  0
   -2.5576   -0.7936   10.0652 C   0  0  0  0  0  0  0  0  0  0  0  0
   -2.1150   -1.1096    8.8388 N   0  0  0  0  0  0  0  0  0  0  0  0
  -12.3809   -7.5421    8.6211 C   0  0  0  0  0  0  0  0  0  0  0  0
  -11.8901   -8.5960    7.8781 C   0  0  0  0  0  0  0  0  0  0  0  0
  -10.5459   -8.7084    7.5000 C   0  0  0  0  0  0  0  0  0  0  0  0
   -9.6555   -7.7377    7.8747 C   0  0  0  0  0  0  0  0  0  0  0  0
  -10.1288   -6.6941    8.6086 C   0  0  0  0  0  0  0  0  0  0  0  0
  -11.4718   -6.5668    8.9948 C   0  0  0  0  0  0  0  0  0  0  0  0
  -11.9016   -5.4083    9.7761 C   0  0  0  0  0  0  0  0  0  0  0  0
  -13.0730   -4.8178    9.3680 F   0  0  0  0  0  0  0  0  0  0  0  0
  -11.9055   -5.6561   11.1438 F   0  0  0  0  0  0  0  0  0  0  0  0
  -10.9349   -4.3998    9.6218 F   0  0  0  0  0  0  0  0  0  0  0  0
  -13.7809   -7.4628    9.0485 C   0  0  0  0  0  0  0  0  0  0  0  0
  -14.0846  -10.1689   12.7208 C   0  0  0  0  0  0  0  0  0  0  0  0
  -13.9635   -9.4333   11.5102 N   0  0  0  0  0  0  0  0  0  0  0  0
  -15.1660   -8.8945   10.9722 C   0  0  0  0  0  0  0  0  0  0  0  0
  -15.2499   -7.4254   10.9049 C   0  0  0  0  0  0  0  0  0  0  0  0
  -14.0244   -6.8488   10.3157 N   0  0  0  0  0  0  0  0  0  0  0  0
  -13.0227   -7.1656   11.3381 C   0  0  0  0  0  0  0  0  0  0  0  0
  -12.8038   -8.6325   11.3493 C   0  0  0  0  0  0  0  0  0  0  0  0
 36 37  1  0  0  0
 37 38  1  0  0  0
 38 39  1  0  0  0
 39 40  1  0  0  0
 40 35  1  0  0  0
 35 25  1  0  0  0
 25 26  2  0  0  0
 26 27  1  0  0  0
 27 28  2  0  0  0
 28 29  1  0  0  0
 29 30  2  0  0  0
 30 31  1  0  0  0
 31 32  1  0  0  0
 31 33  1  0  0  0
 31 34  1  0  0  0
 28  1  1  0  0  0
  1  2  2  0  0  0
  1  3  1  0  0  0
  3  5  1  0  0  0
  5  6  2  0  0  0
  6  7  1  0  0  0
  7  8  2  0  0  0
  8  9  1  0  0  0
  8 10  1  0  0  0
 10 12  1  0  0  0
 12 13  1  0  0  0
 13 14  2  0  0  0
 13 16  1  0  0  0
 16 17  2  0  0  0
 17 18  1  0  0  0
 18 19  2  0  0  0
 19 20  1  0  0  0
 20 21  2  0  0  0
 21 22  1  0  0  0
 22 23  2  0  0  0
 23 24  1  0  0  0
 10 11  2  0  0  0
 40 41  1  0  0  0
 41 42  1  0  0  0
 42 37  1  0  0  0
 30 25  1  0  0  0
 11  5  1  0  0  0
 24 16  1  0  0  0
 24 19  1  0  0  0
  3  4  1  0  0  0
 12 15  1  0  0  0
M  END
> <minimizedAffinity>
2.99330

> <CNNscore>
0.2409806401

> <CNNaffinity>
6.5843071938

> <CNN_VS>
1.5866905451

> <CNNaffinity_variance>
0.4703536034

$$$$
[H]c1nc(N([H])C(=O)c2c([H])c([H])c(C3([H])C([H])([H])C([H])([H])N(C([H])(C([H])([H])[H])C([H])([H])[H])C([H])([H])C3([H])[H])c([H])c2[H])c([H])c(Oc2c(OC([H])([H])C([H])([H])C([H])([H])OC([H])([H])[H])c([H])c3c(c2[H])c([H])c([H])n3C(=O)N([H])C([H])([H])[H])c1[H]


 46 50  0  0  0  0  0  0  0  0999 V2000
  -13.5781   -7.6292    9.1063 C   0  0  0  0  0  0  0  0  0  0  0  0
  -14.6975   -7.5515    9.9183 C   0  0  0  0  0  0  0  0  0  0  0  0
  -14.5204   -7.1149   11.2070 C   0  0  0  0  0  0  0  0  0  0  0  0
  -13.3442   -6.7777   11.6771 N   0  0  0  0  0  0  0  0  0  0  0  0
  -12.2203   -6.8305   10.9458 C   0  0  0  0  0  0  0  0  0  0  0  0
  -12.3368   -7.2588    9.6505 C   0  0  0  0  0  0  0  0  0  0  0  0
  -10.9961   -6.4467   11.5311 N   0  0  0  0  0  0  0  0  0  0  0  0
  -10.7419   -5.8524   12.7707 C   0  0  0  0  0  0  0  0  0  0  0  0
  -11.6137   -5.5460   13.5823 O   0  0  0  0  0  0  0  0  0  0  0  0
  -10.1206   -6.6621   10.9130 H   0  0  0  0  0  0  0  0  0  0  0  0
   -9.3446   -5.5588   13.1665 C   0  0  0  0  0  0  0  0  0  0  0  0
   -8.3193   -6.1324   12.4849 C   0  0  0  0  0  0  0  0  0  0  0  0
   -7.0107   -5.8651   12.8683 C   0  0  0  0  0  0  0  0  0  0  0  0
   -6.6876   -5.0381   13.9155 C   0  0  0  0  0  0  0  0  0  0  0  0
   -7.7581   -4.4641   14.5972 C   0  0  0  0  0  0  0  0  0  0  0  0
   -9.0643   -4.7247   14.2238 C   0  0  0  0  0  0  0  0  0  0  0  0
   -5.2951   -4.7953   14.2489 C   0  0  0  0  0  0  0  0  0  0  0  0
   -4.5137   -4.1768   13.0744 C   0  0  0  0  0  0  0  0  0  0  0  0
   -3.1569   -3.7251   13.5757 C   0  0  0  0  0  0  0  0  0  0  0  0
   -2.9937   -4.1999   14.9035 N   0  0  0  0  0  0  0  0  0  0  0  0
   -3.1108   -5.6018   15.0641 C   0  0  0  0  0  0  0  0  0  0  0  0
   -4.5495   -6.0023   14.7675 C   0  0  0  0  0  0  0  0  0  0  0  0
   -2.1454   -3.4838   15.7697 C   0  0  0  0  0  0  0  0  0  0  0  0
   -1.4220   -4.5082   16.6539 C   0  0  0  0  0  0  0  0  0  0  0  0
   -1.0606   -2.8061   14.9594 C   0  0  0  0  0  0  0  0  0  0  0  0
  -13.7523   -8.0578    7.8286 O   0  0  0  0  0  0  0  0  0  0  0  0
  -18.5158   -3.3696    1.7613 C   0  0  0  0  0  0  0  0  0  0  0  0
  -17.1761   -3.6350    2.2789 N   0  0  0  0  0  0  0  0  0  0  0  0
  -17.0306   -4.5594    3.3609 C   0  0  0  0  0  0  0  0  0  0  0  0
  -18.0799   -5.1193    3.8367 O   0  0  0  0  0  0  0  0  0  0  0  0
  -15.7584   -4.8597    3.9055 N   0  0  0  0  0  0  0  0  0  0  0  0
  -14.6251   -4.3070    3.4505 C   0  0  0  0  0  0  0  0  0  0  0  0
  -13.5388   -4.7728    4.1426 C   0  0  0  0  0  0  0  0  0  0  0  0
  -14.0345   -5.6622    5.0740 C   0  0  0  0  0  0  0  0  0  0  0  0
  -13.4899   -6.4483    6.0456 C   0  0  0  0  0  0  0  0  0  0  0  0
  -14.2586   -7.2501    6.8373 C   0  0  0  0  0  0  0  0  0  0  0  0
  -15.6697   -7.3056    6.6872 C   0  0  0  0  0  0  0  0  0  0  0  0
  -16.2093   -6.4817    5.6743 C   0  0  0  0  0  0  0  0  0  0  0  0
  -15.4243   -5.6982    4.9063 C   0  0  0  0  0  0  0  0  0  0  0  0
  -16.3657   -3.1643    1.8708 H   0  0  0  0  0  0  0  0  0  0  0  0
  -16.3827   -8.0697    7.4388 O   0  0  0  0  0  0  0  0  0  0  0  0
  -17.0891   -8.8216    8.1863 C   0  0  0  0  0  0  0  0  0  0  0  0
  -18.5995   -8.7048    7.9201 C   0  0  0  0  0  0  0  0  0  0  0  0
  -18.8323   -8.5507    6.4489 C   0  0  0  0  0  0  0  0  0  0  0  0
  -19.3853   -9.6938    5.9210 O   0  0  0  0  0  0  0  0  0  0  0  0
  -20.6909   -9.8640    6.2811 C   0  0  0  0  0  0  0  0  0  0  0  0
 27 28  1  0  0  0
 28 29  1  0  0  0
 29 30  2  0  0  0
 29 31  1  0  0  0
 31 32  1  0  0  0
 32 33  2  0  0  0
 33 34  1  0  0  0
 34 35  2  0  0  0
 35 36  1  0  0  0
 36 26  1  0  0  0
 26  1  1  0  0  0
  1  2  2  0  0  0
  2  3  1  0  0  0
  3  4  2  0  0  0
  4  5  1  0  0  0
  5  7  1  0  0  0
  7  8  1  0  0  0
  8  9  2  0  0  0
  8 11  1  0  0  0
 11 12  2  0  0  0
 12 13  1  0  0  0
 13 14  2  0  0  0
 14 15  1  0  0  0
 15 16  2  0  0  0
 14 17  1  0  0  0
 17 18  1  0  0  0
 18 19  1  0  0  0
 19 20  1  0  0  0
 20 21  1  0  0  0
 21 22  1  0  0  0
 20 23  1  0  0  0
 23 24  1  0  0  0
 23 25  1  0  0  0
  5  6  2  0  0  0
 36 37  2  0  0  0
 37 41  1  0  0  0
 41 42  1  0  0  0
 42 43  1  0  0  0
 43 44  1  0  0  0
 44 45  1  0  0  0
 45 46  1  0  0  0
 37 38  1  0  0  0
 38 39  2  0  0  0
 39 31  1  0  0  0
 39 34  1  0  0  0
  6  1  1  0  0  0
 16 11  1  0  0  0
 22 17  1  0  0  0
 28 40  1  0  0  0
  7 10  1  0  0  0
M  END
> <minimizedAffinity>
14.50227

> <CNNscore>
0.5267185569

> <CNNaffinity>
7.3911781311

> <CNN_VS>
3.8930706978

> <CNNaffinity_variance>
2.9296779633

$$$$
[H]c1nc(N([H])C(=O)c2c([H])c([H])c(C3([H])C([H])([H])C([H])([H])N(C([H])(C([H])([H])[H])C([H])([H])[H])C([H])([H])C3([H])[H])c([H])c2[H])c([H])c(Oc2c(OC([H])([H])C([H])([H])C([H])([H])OC([H])([H])[H])c([H])c3c(c2[H])c([H])c([H])n3C(=O)N([H])C([H])([H])[H])c1[H]


 46 50  0  0  0  0  0  0  0  0999 V2000
   -4.2993   -6.0961    8.6854 C   0  0  0  0  0  0  0  0  0  0  0  0
   -3.6111   -7.2926    8.5704 C   0  0  0  0  0  0  0  0  0  0  0  0
   -4.3397   -8.4225    8.2962 C   0  0  0  0  0  0  0  0  0  0  0  0
   -5.6414   -8.3972    8.1444 N   0  0  0  0  0  0  0  0  0  0  0  0
   -6.3689   -7.2739    8.2439 C   0  0  0  0  0  0  0  0  0  0  0  0
   -5.6940   -6.1140    8.5159 C   0  0  0  0  0  0  0  0  0  0  0  0
   -7.7661   -7.3371    8.0637 N   0  0  0  0  0  0  0  0  0  0  0  0
   -8.7992   -7.1235    8.9809 C   0  0  0  0  0  0  0  0  0  0  0  0
   -8.6251   -6.8411   10.1652 O   0  0  0  0  0  0  0  0  0  0  0  0
   -8.0724   -7.5821    7.0434 H   0  0  0  0  0  0  0  0  0  0  0  0
  -10.2072   -7.2352    8.5333 C   0  0  0  0  0  0  0  0  0  0  0  0
  -11.1628   -6.4746    9.1275 C   0  0  0  0  0  0  0  0  0  0  0  0
  -12.4842   -6.5926    8.7139 C   0  0  0  0  0  0  0  0  0  0  0  0
  -12.8876   -7.4491    7.7196 C   0  0  0  0  0  0  0  0  0  0  0  0
  -11.8875   -8.2174    7.1281 C   0  0  0  0  0  0  0  0  0  0  0  0
  -10.5695   -8.1077    7.5334 C   0  0  0  0  0  0  0  0  0  0  0  0
  -14.2859   -7.5074    7.3317 C   0  0  0  0  0  0  0  0  0  0  0  0
  -14.7362   -6.2398    6.5813 C   0  0  0  0  0  0  0  0  0  0  0  0
  -16.1130   -6.4827    5.9967 C   0  0  0  0  0  0  0  0  0  0  0  0
  -16.5983   -7.7173    6.5019 N   0  0  0  0  0  0  0  0  0  0  0  0
  -16.6642   -7.8103    7.9133 C   0  0  0  0  0  0  0  0  0  0  0  0
  -15.2450   -7.7875    8.4645 C   0  0  0  0  0  0  0  0  0  0  0  0
  -17.5291   -8.4364    5.7279 C   0  0  0  0  0  0  0  0  0  0  0  0
  -17.7774   -7.6324    4.4449 C   0  0  0  0  0  0  0  0  0  0  0  0
  -16.9038   -9.7399    5.2779 C   0  0  0  0  0  0  0  0  0  0  0  0
   -3.5789   -4.9755    8.9531 O   0  0  0  0  0  0  0  0  0  0  0  0
   -2.6386    0.0950   16.3619 C   0  0  0  0  0  0  0  0  0  0  0  0
   -3.1613   -1.1635   15.8362 N   0  0  0  0  0  0  0  0  0  0  0  0
   -3.0057   -1.4405   14.4414 C   0  0  0  0  0  0  0  0  0  0  0  0
   -2.4151   -0.5748   13.7047 O   0  0  0  0  0  0  0  0  0  0  0  0
   -3.4895   -2.6434   13.8721 N   0  0  0  0  0  0  0  0  0  0  0  0
   -4.1148   -3.5866   14.5906 C   0  0  0  0  0  0  0  0  0  0  0  0
   -4.4720   -4.6484   13.8027 C   0  0  0  0  0  0  0  0  0  0  0  0
   -4.0404   -4.3387   12.5291 C   0  0  0  0  0  0  0  0  0  0  0  0
   -4.0844   -4.9588   11.3158 C   0  0  0  0  0  0  0  0  0  0  0  0
   -3.5561   -4.3869   10.1959 C   0  0  0  0  0  0  0  0  0  0  0  0
   -2.9317   -3.1121   10.2393 C   0  0  0  0  0  0  0  0  0  0  0  0
   -2.8994   -2.4905   11.5075 C   0  0  0  0  0  0  0  0  0  0  0  0
   -3.4305   -3.0801   12.5984 C   0  0  0  0  0  0  0  0  0  0  0  0
   -3.6281   -1.8256   16.4595 H   0  0  0  0  0  0  0  0  0  0  0  0
   -2.4339   -2.5857    9.1752 O   0  0  0  0  0  0  0  0  0  0  0  0
   -1.9435   -2.0692    8.1189 C   0  0  0  0  0  0  0  0  0  0  0  0
   -2.9879   -1.3538    7.2452 C   0  0  0  0  0  0  0  0  0  0  0  0
   -3.2913   -2.1976    6.0458 C   0  0  0  0  0  0  0  0  0  0  0  0
   -3.1770   -1.4606    4.8904 O   0  0  0  0  0  0  0  0  0  0  0  0
   -2.6256   -2.1706    3.8633 C   0  0  0  0  0  0  0  0  0  0  0  0
 27 28  1  0  0  0
 28 29  1  0  0  0
 29 30  2  0  0  0
 29 31  1  0  0  0
 31 32  1  0  0  0
 32 33  2  0  0  0
 33 34  1  0  0  0
 34 35  2  0  0  0
 35 36  1  0  0  0
 36 26  1  0  0  0
 26  1  1  0  0  0
  1  2  2  0  0  0
  2  3  1  0  0  0
  3  4  2  0  0  0
  4  5  1  0  0  0
  5  7  1  0  0  0
  7  8  1  0  0  0
  8  9  2  0  0  0
  8 11  1  0  0  0
 11 12  2  0  0  0
 12 13  1  0  0  0
 13 14  2  0  0  0
 14 15  1  0  0  0
 15 16  2  0  0  0
 14 17  1  0  0  0
 17 18  1  0  0  0
 18 19  1  0  0  0
 19 20  1  0  0  0
 20 21  1  0  0  0
 21 22  1  0  0  0
 20 23  1  0  0  0
 23 24  1  0  0  0
 23 25  1  0  0  0
  5  6  2  0  0  0
 36 37  2  0  0  0
 37 41  1  0  0  0
 41 42  1  0  0  0
 42 43  1  0  0  0
 43 44  1  0  0  0
 44 45  1  0  0  0
 45 46  1  0  0  0
 37 38  1  0  0  0
 38 39  2  0  0  0
 39 31  1  0  0  0
 39 34  1  0  0  0
  6  1  1  0  0  0
 16 11  1  0  0  0
 22 17  1  0  0  0
 28 40  1  0  0  0
  7 10  1  0  0  0
M  END
> <minimizedAffinity>
-0.05021

> <CNNscore>
0.3451319635

> <CNNaffinity>
6.8438353539

> <CNN_VS>
2.3620262146

> <CNNaffinity_variance>
1.4401042461

$$$$
[H]c1nc(N([H])C(=O)c2c([H])c([H])c(C3([H])C([H])([H])C([H])([H])N(C([H])(C([H])([H])[H])C([H])([H])[H])C([H])([H])C3([H])[H])c([H])c2[H])c([H])c(Oc2c(OC([H])([H])C([H])([H])C([H])([H])OC([H])([H])[H])c([H])c3c(c2[H])c([H])c([H])n3C(=O)N([H])C([H])([H])[H])c1[H]


 46 50  0  0  0  0  0  0  0  0999 V2000
  -11.8424   -7.2797    8.1469 C   0  0  0  0  0  0  0  0  0  0  0  0
  -11.7384   -7.3724    9.5249 C   0  0  0  0  0  0  0  0  0  0  0  0
  -10.5383   -7.0332   10.0972 C   0  0  0  0  0  0  0  0  0  0  0  0
   -9.5117   -6.6331    9.3871 N   0  0  0  0  0  0  0  0  0  0  0  0
   -9.5441   -6.5222    8.0502 C   0  0  0  0  0  0  0  0  0  0  0  0
  -10.7178   -6.8471    7.4242 C   0  0  0  0  0  0  0  0  0  0  0  0
   -8.3931   -6.0815    7.3650 N   0  0  0  0  0  0  0  0  0  0  0  0
   -7.1183   -6.6510    7.2941 C   0  0  0  0  0  0  0  0  0  0  0  0
   -6.7909   -7.6869    7.8705 O   0  0  0  0  0  0  0  0  0  0  0  0
   -8.5384   -5.1571    6.7999 H   0  0  0  0  0  0  0  0  0  0  0  0
   -6.0691   -5.9927    6.4811 C   0  0  0  0  0  0  0  0  0  0  0  0
   -4.9183   -5.5830    7.0749 C   0  0  0  0  0  0  0  0  0  0  0  0
   -3.9426   -4.9536    6.3113 C   0  0  0  0  0  0  0  0  0  0  0  0
   -4.0765   -4.7183    4.9653 C   0  0  0  0  0  0  0  0  0  0  0  0
   -5.2663   -5.1480    4.3824 C   0  0  0  0  0  0  0  0  0  0  0  0
   -6.2439   -5.7746    5.1342 C   0  0  0  0  0  0  0  0  0  0  0  0
   -3.0068   -4.0668    4.2301 C   0  0  0  0  0  0  0  0  0  0  0  0
   -2.1062   -5.0764    3.4940 C   0  0  0  0  0  0  0  0  0  0  0  0
   -1.1852   -4.3175    2.5600 C   0  0  0  0  0  0  0  0  0  0  0  0
   -1.3304   -2.9303    2.8238 N   0  0  0  0  0  0  0  0  0  0  0  0
   -1.0722   -2.5375    4.1595 C   0  0  0  0  0  0  0  0  0  0  0  0
   -2.1486   -3.1365    5.0545 C   0  0  0  0  0  0  0  0  0  0  0  0
   -1.0633   -2.0206    1.7828 C   0  0  0  0  0  0  0  0  0  0  0  0
   -1.5183   -2.6764    0.4724 C   0  0  0  0  0  0  0  0  0  0  0  0
   -1.9386   -0.7967    1.9519 C   0  0  0  0  0  0  0  0  0  0  0  0
  -13.0314   -7.6116    7.5787 O   0  0  0  0  0  0  0  0  0  0  0  0
  -20.5009  -11.5083   10.8198 C   0  0  0  0  0  0  0  0  0  0  0  0
  -19.2315  -10.8809   11.1777 N   0  0  0  0  0  0  0  0  0  0  0  0
  -18.3756  -10.4194   10.1284 C   0  0  0  0  0  0  0  0  0  0  0  0
  -18.7530  -10.5742    8.9142 O   0  0  0  0  0  0  0  0  0  0  0  0
  -17.1331   -9.8016   10.4110 N   0  0  0  0  0  0  0  0  0  0  0  0
  -16.6844   -9.6114   11.6597 C   0  0  0  0  0  0  0  0  0  0  0  0
  -15.4650   -8.9876   11.6539 C   0  0  0  0  0  0  0  0  0  0  0  0
  -15.1491   -8.7832   10.3263 C   0  0  0  0  0  0  0  0  0  0  0  0
  -14.1009   -8.2248    9.6568 C   0  0  0  0  0  0  0  0  0  0  0  0
  -14.0675   -8.1643    8.2945 C   0  0  0  0  0  0  0  0  0  0  0  0
  -15.1275   -8.6820    7.5038 C   0  0  0  0  0  0  0  0  0  0  0  0
  -16.2012   -9.2553    8.2211 C   0  0  0  0  0  0  0  0  0  0  0  0
  -16.2069   -9.3015    9.5693 C   0  0  0  0  0  0  0  0  0  0  0  0
  -18.9683  -10.7793   12.1602 H   0  0  0  0  0  0  0  0  0  0  0  0
  -15.0846   -8.6147    6.2190 O   0  0  0  0  0  0  0  0  0  0  0  0
  -15.0434   -8.5425    4.9477 C   0  0  0  0  0  0  0  0  0  0  0  0
  -16.3635   -8.0661    4.3182 C   0  0  0  0  0  0  0  0  0  0  0  0
  -16.0988   -6.8672    3.4609 C   0  0  0  0  0  0  0  0  0  0  0  0
  -17.1766   -6.6013    2.6494 O   0  0  0  0  0  0  0  0  0  0  0  0
  -18.2902   -6.2403    3.3514 C   0  0  0  0  0  0  0  0  0  0  0  0
 27 28  1  0  0  0
 28 29  1  0  0  0
 29 30  2  0  0  0
 29 31  1  0  0  0
 31 32  1  0  0  0
 32 33  2  0  0  0
 33 34  1  0  0  0
 34 35  2  0  0  0
 35 36  1  0  0  0
 36 26  1  0  0  0
 26  1  1  0  0  0
  1  2  2  0  0  0
  2  3  1  0  0  0
  3  4  2  0  0  0
  4  5  1  0  0  0
  5  7  1  0  0  0
  7  8  1  0  0  0
  8  9  2  0  0  0
  8 11  1  0  0  0
 11 12  2  0  0  0
 12 13  1  0  0  0
 13 14  2  0  0  0
 14 15  1  0  0  0
 15 16  2  0  0  0
 14 17  1  0  0  0
 17 18  1  0  0  0
 18 19  1  0  0  0
 19 20  1  0  0  0
 20 21  1  0  0  0
 21 22  1  0  0  0
 20 23  1  0  0  0
 23 24  1  0  0  0
 23 25  1  0  0  0
  5  6  2  0  0  0
 36 37  2  0  0  0
 37 41  1  0  0  0
 41 42  1  0  0  0
 42 43  1  0  0  0
 43 44  1  0  0  0
 44 45  1  0  0  0
 45 46  1  0  0  0
 37 38  1  0  0  0
 38 39  2  0  0  0
 39 31  1  0  0  0
 39 34  1  0  0  0
  6  1  1  0  0  0
 16 11  1  0  0  0
 22 17  1  0  0  0
 28 40  1  0  0  0
  7 10  1  0  0  0
M  END
> <minimizedAffinity>
12.37045

> <CNNscore>
0.3280463517

> <CNNaffinity>
6.9837751389

> <CNN_VS>
2.2910020351

> <CNNaffinity_variance>
0.9313629270

$$$$
[H]c1nc(N([H])C(=O)c2c([H])c([H])c(C3([H])C([H])([H])C([H])([H])N(C([H])(C([H])([H])[H])C([H])([H])[H])C([H])([H])C3([H])[H])c([H])c2[H])c([H])c(Oc2c(OC([H])([H])C([H])([H])C([H])([H])OC([H])([H])[H])c([H])c3c(c2[H])c([H])c([H])n3C(=O)N([H])C([H])([H])[H])c1[H]


 46 50  0  0  0  0  0  0  0  0999 V2000
  -15.5112   -8.0530    8.0733 C   0  0  0  0  0  0  0  0  0  0  0  0
  -15.6416   -9.1179    8.9492 C   0  0  0  0  0  0  0  0  0  0  0  0
  -14.4915   -9.6985    9.4215 C   0  0  0  0  0  0  0  0  0  0  0  0
  -13.3000   -9.2792    9.0712 N   0  0  0  0  0  0  0  0  0  0  0  0
  -13.1027   -8.2551    8.2269 C   0  0  0  0  0  0  0  0  0  0  0  0
  -14.2157   -7.6362    7.7238 C   0  0  0  0  0  0  0  0  0  0  0  0
  -11.7852   -7.8682    7.9055 N   0  0  0  0  0  0  0  0  0  0  0  0
  -10.7629   -7.3935    8.7325 C   0  0  0  0  0  0  0  0  0  0  0  0
  -10.8779   -7.2216    9.9448 O   0  0  0  0  0  0  0  0  0  0  0  0
  -11.5377   -7.9697    6.8456 H   0  0  0  0  0  0  0  0  0  0  0  0
   -9.4421   -7.0669    8.1459 C   0  0  0  0  0  0  0  0  0  0  0  0
   -8.4234   -6.6831    8.9581 C   0  0  0  0  0  0  0  0  0  0  0  0
   -7.1902   -6.3644    8.4024 C   0  0  0  0  0  0  0  0  0  0  0  0
   -6.9365   -6.4171    7.0541 C   0  0  0  0  0  0  0  0  0  0  0  0
   -7.9987   -6.8130    6.2447 C   0  0  0  0  0  0  0  0  0  0  0  0
   -9.2302   -7.1314    6.7883 C   0  0  0  0  0  0  0  0  0  0  0  0
   -5.6171   -6.0825    6.5478 C   0  0  0  0  0  0  0  0  0  0  0  0
   -4.9076   -5.0297    7.4200 C   0  0  0  0  0  0  0  0  0  0  0  0
   -3.4617   -4.9251    6.9785 C   0  0  0  0  0  0  0  0  0  0  0  0
   -3.3042   -5.6863    5.7907 N   0  0  0  0  0  0  0  0  0  0  0  0
   -4.1508   -5.3165    4.7176 C   0  0  0  0  0  0  0  0  0  0  0  0
   -5.5876   -5.6404    5.1037 C   0  0  0  0  0  0  0  0  0  0  0  0
   -2.0335   -6.2201    5.5027 C   0  0  0  0  0  0  0  0  0  0  0  0
   -2.1518   -7.0028    4.1883 C   0  0  0  0  0  0  0  0  0  0  0  0
   -1.0689   -5.0882    5.2180 C   0  0  0  0  0  0  0  0  0  0  0  0
  -16.6490   -7.4742    7.6076 O   0  0  0  0  0  0  0  0  0  0  0  0
  -18.1703   -5.0530   -0.9543 C   0  0  0  0  0  0  0  0  0  0  0  0
  -17.4849   -4.6914    0.2836 N   0  0  0  0  0  0  0  0  0  0  0  0
  -17.6385   -5.5403    1.4248 C   0  0  0  0  0  0  0  0  0  0  0  0
  -18.3719   -6.5852    1.3196 O   0  0  0  0  0  0  0  0  0  0  0  0
  -16.9985   -5.2445    2.6529 N   0  0  0  0  0  0  0  0  0  0  0  0
  -16.2192   -4.1675    2.8244 C   0  0  0  0  0  0  0  0  0  0  0  0
  -15.7184   -4.1212    4.0984 C   0  0  0  0  0  0  0  0  0  0  0  0
  -16.2185   -5.2336    4.7439 C   0  0  0  0  0  0  0  0  0  0  0  0
  -16.1030   -5.7576    5.9972 C   0  0  0  0  0  0  0  0  0  0  0  0
  -16.7367   -6.9109    6.3560 C   0  0  0  0  0  0  0  0  0  0  0  0
  -17.5510   -7.6253    5.4376 C   0  0  0  0  0  0  0  0  0  0  0  0
  -17.6546   -7.0617    4.1463 C   0  0  0  0  0  0  0  0  0  0  0  0
  -17.0165   -5.9190    3.8196 C   0  0  0  0  0  0  0  0  0  0  0  0
  -16.9106   -3.8468    0.3244 H   0  0  0  0  0  0  0  0  0  0  0  0
  -18.1402   -8.7147    5.7886 O   0  0  0  0  0  0  0  0  0  0  0  0
  -18.7208   -9.7925    6.1412 C   0  0  0  0  0  0  0  0  0  0  0  0
  -20.2119   -9.6058    6.4694 C   0  0  0  0  0  0  0  0  0  0  0  0
  -20.8958  -10.9377    6.4389 C   0  0  0  0  0  0  0  0  0  0  0  0
  -21.0355  -11.4426    7.7104 O   0  0  0  0  0  0  0  0  0  0  0  0
  -21.6390  -12.6668    7.7293 C   0  0  0  0  0  0  0  0  0  0  0  0
 27 28  1  0  0  0
 28 29  1  0  0  0
 29 30  2  0  0  0
 29 31  1  0  0  0
 31 32  1  0  0  0
 32 33  2  0  0  0
 33 34  1  0  0  0
 34 35  2  0  0  0
 35 36  1  0  0  0
 36 26  1  0  0  0
 26  1  1  0  0  0
  1  2  2  0  0  0
  2  3  1  0  0  0
  3  4  2  0  0  0
  4  5  1  0  0  0
  5  7  1  0  0  0
  7  8  1  0  0  0
  8  9  2  0  0  0
  8 11  1  0  0  0
 11 12  2  0  0  0
 12 13  1  0  0  0
 13 14  2  0  0  0
 14 15  1  0  0  0
 15 16  2  0  0  0
 14 17  1  0  0  0
 17 18  1  0  0  0
 18 19  1  0  0  0
 19 20  1  0  0  0
 20 21  1  0  0  0
 21 22  1  0  0  0
 20 23  1  0  0  0
 23 24  1  0  0  0
 23 25  1  0  0  0
  5  6  2  0  0  0
 36 37  2  0  0  0
 37 41  1  0  0  0
 41 42  1  0  0  0
 42 43  1  0  0  0
 43 44  1  0  0  0
 44 45  1  0  0  0
 45 46  1  0  0  0
 37 38  1  0  0  0
 38 39  2  0  0  0
 39 31  1  0  0  0
 39 34  1  0  0  0
  6  1  1  0  0  0
 16 11  1  0  0  0
 22 17  1  0  0  0
 28 40  1  0  0  0
  7 10  1  0  0  0
M  END
> <minimizedAffinity>
13.88560

> <CNNscore>
0.3221695721

> <CNNaffinity>
7.1401419640

> <CNN_VS>
2.3003365993

> <CNNaffinity_variance>
0.7404346466

$$$$
[H]c1nc(N([H])C(=O)c2c([H])c([H])c(C3([H])C([H])([H])C([H])([H])N(C([H])(C([H])([H])[H])C([H])([H])[H])C([H])([H])C3([H])[H])c([H])c2[H])c([H])c(Oc2c(OC([H])([H])C([H])([H])C([H])([H])OC([H])([H])[H])c([H])c3c(c2[H])c([H])c([H])n3C(=O)N([H])C([H])([H])[H])c1[H]


 46 50  0  0  0  0  0  0  0  0999 V2000
   -3.2141   -5.7522    8.7453 C   0  0  0  0  0  0  0  0  0  0  0  0
   -3.0735   -5.1614    9.9901 C   0  0  0  0  0  0  0  0  0  0  0  0
   -4.2111   -4.9538   10.7286 C   0  0  0  0  0  0  0  0  0  0  0  0
   -5.4003   -5.2931   10.2940 N   0  0  0  0  0  0  0  0  0  0  0  0
   -5.6072   -5.8672    9.0989 C   0  0  0  0  0  0  0  0  0  0  0  0
   -4.5067   -6.0995    8.3179 C   0  0  0  0  0  0  0  0  0  0  0  0
   -6.9210   -6.2020    8.7111 N   0  0  0  0  0  0  0  0  0  0  0  0
   -7.9807   -6.7035    9.4726 C   0  0  0  0  0  0  0  0  0  0  0  0
   -7.9106   -6.9539   10.6746 O   0  0  0  0  0  0  0  0  0  0  0  0
   -7.1303   -6.0282    7.6523 H   0  0  0  0  0  0  0  0  0  0  0  0
   -9.2877   -6.9613    8.8239 C   0  0  0  0  0  0  0  0  0  0  0  0
   -9.9906   -8.0766    9.1503 C   0  0  0  0  0  0  0  0  0  0  0  0
  -11.2094   -8.3215    8.5294 C   0  0  0  0  0  0  0  0  0  0  0  0
  -11.7554   -7.4848    7.5877 C   0  0  0  0  0  0  0  0  0  0  0  0
  -11.0133   -6.3492    7.2715 C   0  0  0  0  0  0  0  0  0  0  0  0
   -9.7987   -6.0972    7.8834 C   0  0  0  0  0  0  0  0  0  0  0  0
  -13.0417   -7.8001    6.9917 C   0  0  0  0  0  0  0  0  0  0  0  0
  -14.2147   -7.5004    7.9440 C   0  0  0  0  0  0  0  0  0  0  0  0
  -15.5123   -7.6129    7.1694 C   0  0  0  0  0  0  0  0  0  0  0  0
  -15.2187   -8.1442    5.8862 N   0  0  0  0  0  0  0  0  0  0  0  0
  -14.5613   -9.3983    5.8858 C   0  0  0  0  0  0  0  0  0  0  0  0
  -13.1673   -9.2118    6.4693 C   0  0  0  0  0  0  0  0  0  0  0  0
  -16.0797   -7.8264    4.8184 C   0  0  0  0  0  0  0  0  0  0  0  0
  -15.3914   -8.2789    3.5238 C   0  0  0  0  0  0  0  0  0  0  0  0
  -17.3377   -8.6622    4.9252 C   0  0  0  0  0  0  0  0  0  0  0  0
   -2.0881   -5.9621    8.0141 O   0  0  0  0  0  0  0  0  0  0  0  0
   -1.0605  -12.2948    1.6640 C   0  0  0  0  0  0  0  0  0  0  0  0
   -1.1043  -12.0438    3.1021 N   0  0  0  0  0  0  0  0  0  0  0  0
   -1.3096  -10.7033    3.5576 C   0  0  0  0  0  0  0  0  0  0  0  0
   -1.4462   -9.7726    2.6881 O   0  0  0  0  0  0  0  0  0  0  0  0
   -1.3632  -10.3961    4.9389 N   0  0  0  0  0  0  0  0  0  0  0  0
   -1.2276  -11.3256    5.8951 C   0  0  0  0  0  0  0  0  0  0  0  0
   -1.3271  -10.7665    7.1415 C   0  0  0  0  0  0  0  0  0  0  0  0
   -1.5364   -9.4179    6.9374 C   0  0  0  0  0  0  0  0  0  0  0  0
   -1.7146   -8.3341    7.7450 C   0  0  0  0  0  0  0  0  0  0  0  0
   -1.9054   -7.0824    7.2376 C   0  0  0  0  0  0  0  0  0  0  0  0
   -1.9281   -6.8462    5.8374 C   0  0  0  0  0  0  0  0  0  0  0  0
   -1.7409   -7.9851    5.0226 C   0  0  0  0  0  0  0  0  0  0  0  0
   -1.5540   -9.2114    5.5526 C   0  0  0  0  0  0  0  0  0  0  0  0
   -0.9884  -12.8162    3.7616 H   0  0  0  0  0  0  0  0  0  0  0  0
   -2.1129   -5.6603    5.3722 O   0  0  0  0  0  0  0  0  0  0  0  0
   -2.2902   -4.4854    4.9124 C   0  0  0  0  0  0  0  0  0  0  0  0
   -3.6142   -4.3205    4.1471 C   0  0  0  0  0  0  0  0  0  0  0  0
   -3.4959   -3.1703    3.1956 C   0  0  0  0  0  0  0  0  0  0  0  0
   -2.6660   -3.4895    2.1465 O   0  0  0  0  0  0  0  0  0  0  0  0
   -1.9077   -4.5978    2.3911 C   0  0  0  0  0  0  0  0  0  0  0  0
 27 28  1  0  0  0
 28 29  1  0  0  0
 29 30  2  0  0  0
 29 31  1  0  0  0
 31 32  1  0  0  0
 32 33  2  0  0  0
 33 34  1  0  0  0
 34 35  2  0  0  0
 35 36  1  0  0  0
 36 26  1  0  0  0
 26  1  1  0  0  0
  1  2  2  0  0  0
  2  3  1  0  0  0
  3  4  2  0  0  0
  4  5  1  0  0  0
  5  7  1  0  0  0
  7  8  1  0  0  0
  8  9  2  0  0  0
  8 11  1  0  0  0
 11 12  2  0  0  0
 12 13  1  0  0  0
 13 14  2  0  0  0
 14 15  1  0  0  0
 15 16  2  0  0  0
 14 17  1  0  0  0
 17 18  1  0  0  0
 18 19  1  0  0  0
 19 20  1  0  0  0
 20 21  1  0  0  0
 21 22  1  0  0  0
 20 23  1  0  0  0
 23 24  1  0  0  0
 23 25  1  0  0  0
  5  6  2  0  0  0
 36 37  2  0  0  0
 37 41  1  0  0  0
 41 42  1  0  0  0
 42 43  1  0  0  0
 43 44  1  0  0  0
 44 45  1  0  0  0
 45 46  1  0  0  0
 37 38  1  0  0  0
 38 39  2  0  0  0
 39 31  1  0  0  0
 39 34  1  0  0  0
  6  1  1  0  0  0
 16 11  1  0  0  0
 22 17  1  0  0  0
 28 40  1  0  0  0
  7 10  1  0  0  0
M  END
> <minimizedAffinity>
5.88381

> <CNNscore>
0.3100510240

> <CNNaffinity>
6.6126890182

> <CNN_VS>
2.0502710342

> <CNNaffinity_variance>
1.3434572220

$$$$
[H]c1nc(N([H])C(=O)c2c([H])c([H])c(C3([H])C([H])([H])C([H])([H])N(C([H])(C([H])([H])[H])C([H])([H])[H])C([H])([H])C3([H])[H])c([H])c2[H])c([H])c(Oc2c(OC([H])([H])C([H])([H])C([H])([H])OC([H])([H])[H])c([H])c3c(c2[H])c([H])c([H])n3C(=O)N([H])C([H])([H])[H])c1[H]


 46 50  0  0  0  0  0  0  0  0999 V2000
   -2.1481   -5.6713    8.9189 C   0  0  0  0  0  0  0  0  0  0  0  0
   -1.9506   -5.2300   10.2168 C   0  0  0  0  0  0  0  0  0  0  0  0
   -3.0419   -5.1863   11.0475 C   0  0  0  0  0  0  0  0  0  0  0  0
   -4.2391   -5.5436   10.6510 N   0  0  0  0  0  0  0  0  0  0  0  0
   -4.4999   -5.9786    9.4086 C   0  0  0  0  0  0  0  0  0  0  0  0
   -3.4474   -6.0439    8.5352 C   0  0  0  0  0  0  0  0  0  0  0  0
   -5.8181   -6.3449    9.0671 N   0  0  0  0  0  0  0  0  0  0  0  0
   -6.2761   -7.3454    8.2047 C   0  0  0  0  0  0  0  0  0  0  0  0
   -5.5417   -8.0962    7.5648 O   0  0  0  0  0  0  0  0  0  0  0  0
   -6.5884   -5.7533    9.5687 H   0  0  0  0  0  0  0  0  0  0  0  0
   -7.7335   -7.5438    8.0258 C   0  0  0  0  0  0  0  0  0  0  0  0
   -8.3337   -7.1180    6.8842 C   0  0  0  0  0  0  0  0  0  0  0  0
   -9.7031   -7.2937    6.7265 C   0  0  0  0  0  0  0  0  0  0  0  0
  -10.4999   -7.8851    7.6753 C   0  0  0  0  0  0  0  0  0  0  0  0
   -9.8587   -8.3116    8.8360 C   0  0  0  0  0  0  0  0  0  0  0  0
   -8.4962   -8.1404    9.0028 C   0  0  0  0  0  0  0  0  0  0  0  0
  -11.9227   -8.0468    7.4334 C   0  0  0  0  0  0  0  0  0  0  0  0
  -12.2333   -9.3045    6.6003 C   0  0  0  0  0  0  0  0  0  0  0  0
  -13.7307   -9.5372    6.6086 C   0  0  0  0  0  0  0  0  0  0  0  0
  -14.3512   -8.4133    7.2144 N   0  0  0  0  0  0  0  0  0  0  0  0
  -14.0730   -7.1660    6.6047 C   0  0  0  0  0  0  0  0  0  0  0  0
  -12.5972   -6.8498    6.8058 C   0  0  0  0  0  0  0  0  0  0  0  0
  -15.5936   -8.5982    7.8507 C   0  0  0  0  0  0  0  0  0  0  0  0
  -15.4965   -7.9577    9.2417 C   0  0  0  0  0  0  0  0  0  0  0  0
  -16.6552   -7.8106    7.1122 C   0  0  0  0  0  0  0  0  0  0  0  0
   -1.0678   -5.7189    8.0959 O   0  0  0  0  0  0  0  0  0  0  0  0
   -1.7442   -2.5581   -0.3323 C   0  0  0  0  0  0  0  0  0  0  0  0
   -1.6037   -3.7621    0.4824 N   0  0  0  0  0  0  0  0  0  0  0  0
   -1.5359   -3.6230    1.9045 C   0  0  0  0  0  0  0  0  0  0  0  0
   -1.5998   -2.4482    2.4111 O   0  0  0  0  0  0  0  0  0  0  0  0
   -1.4012   -4.7521    2.7483 N   0  0  0  0  0  0  0  0  0  0  0  0
   -1.3296   -6.0054    2.2781 C   0  0  0  0  0  0  0  0  0  0  0  0
   -1.2111   -6.9081    3.3013 C   0  0  0  0  0  0  0  0  0  0  0  0
   -1.2109   -6.1659    4.4647 C   0  0  0  0  0  0  0  0  0  0  0  0
   -1.1248   -6.4531    5.7946 C   0  0  0  0  0  0  0  0  0  0  0  0
   -1.1524   -5.4751    6.7451 C   0  0  0  0  0  0  0  0  0  0  0  0
   -1.2729   -4.1043    6.3941 C   0  0  0  0  0  0  0  0  0  0  0  0
   -1.3600   -3.8332    5.0103 C   0  0  0  0  0  0  0  0  0  0  0  0
   -1.3298   -4.8213    4.0924 C   0  0  0  0  0  0  0  0  0  0  0  0
   -1.5544   -4.6806    0.0364 H   0  0  0  0  0  0  0  0  0  0  0  0
   -1.3016   -3.1919    7.3017 O   0  0  0  0  0  0  0  0  0  0  0  0
   -1.3241   -2.2892    8.2005 C   0  0  0  0  0  0  0  0  0  0  0  0
   -2.5797   -1.4024    8.1464 C   0  0  0  0  0  0  0  0  0  0  0  0
   -2.2585   -0.0546    8.7146 C   0  0  0  0  0  0  0  0  0  0  0  0
   -2.0803    0.8675    7.7100 O   0  0  0  0  0  0  0  0  0  0  0  0
   -2.0976    0.3042    6.4667 C   0  0  0  0  0  0  0  0  0  0  0  0
 27 28  1  0  0  0
 28 29  1  0  0  0
 29 30  2  0  0  0
 29 31  1  0  0  0
 31 32  1  0  0  0
 32 33  2  0  0  0
 33 34  1  0  0  0
 34 35  2  0  0  0
 35 36  1  0  0  0
 36 26  1  0  0  0
 26  1  1  0  0  0
  1  2  2  0  0  0
  2  3  1  0  0  0
  3  4  2  0  0  0
  4  5  1  0  0  0
  5  7  1  0  0  0
  7  8  1  0  0  0
  8  9  2  0  0  0
  8 11  1  0  0  0
 11 12  2  0  0  0
 12 13  1  0  0  0
 13 14  2  0  0  0
 14 15  1  0  0  0
 15 16  2  0  0  0
 14 17  1  0  0  0
 17 18  1  0  0  0
 18 19  1  0  0  0
 19 20  1  0  0  0
 20 21  1  0  0  0
 21 22  1  0  0  0
 20 23  1  0  0  0
 23 24  1  0  0  0
 23 25  1  0  0  0
  5  6  2  0  0  0
 36 37  2  0  0  0
 37 41  1  0  0  0
 41 42  1  0  0  0
 42 43  1  0  0  0
 43 44  1  0  0  0
 44 45  1  0  0  0
 45 46  1  0  0  0
 37 38  1  0  0  0
 38 39  2  0  0  0
 39 31  1  0  0  0
 39 34  1  0  0  0
  6  1  1  0  0  0
 16 11  1  0  0  0
 22 17  1  0  0  0
 28 40  1  0  0  0
  7 10  1  0  0  0
M  END
> <minimizedAffinity>
-3.72691

> <CNNscore>
0.3032789528

> <CNNaffinity>
6.7154374123

> <CNN_VS>
2.0366508961

> <CNNaffinity_variance>
0.9733887911

$$$$
[H]c1nc(N([H])C(=O)c2c([H])c([H])c(C3([H])C([H])([H])C([H])([H])N(C([H])(C([H])([H])[H])C([H])([H])[H])C([H])([H])C3([H])[H])c([H])c2[H])c([H])c(Oc2c(OC([H])([H])C([H])([H])C([H])([H])OC([H])([H])[H])c([H])c3c(c2[H])c([H])c([H])n3C(=O)N([H])C([H])([H])[H])c1[H]


 46 50  0  0  0  0  0  0  0  0999 V2000
   -7.1525   -7.9894    7.8669 C   0  0  0  0  0  0  0  0  0  0  0  0
   -6.6039   -7.7931    9.1234 C   0  0  0  0  0  0  0  0  0  0  0  0
   -5.6064   -6.8586    9.2439 C   0  0  0  0  0  0  0  0  0  0  0  0
   -5.1703   -6.1635    8.2217 N   0  0  0  0  0  0  0  0  0  0  0  0
   -5.6563   -6.3046    6.9789 C   0  0  0  0  0  0  0  0  0  0  0  0
   -6.6552   -7.2237    6.7988 C   0  0  0  0  0  0  0  0  0  0  0  0
   -5.1299   -5.5136    5.9369 N   0  0  0  0  0  0  0  0  0  0  0  0
   -4.2154   -4.4575    5.9868 C   0  0  0  0  0  0  0  0  0  0  0  0
   -3.7111   -4.0279    7.0230 O   0  0  0  0  0  0  0  0  0  0  0  0
   -5.4951   -5.7864    4.9433 H   0  0  0  0  0  0  0  0  0  0  0  0
   -3.8029   -3.7892    4.7303 C   0  0  0  0  0  0  0  0  0  0  0  0
   -3.1058   -4.4870    3.7965 C   0  0  0  0  0  0  0  0  0  0  0  0
   -2.7091   -3.8524    2.6256 C   0  0  0  0  0  0  0  0  0  0  0  0
   -2.9871   -2.5360    2.3521 C   0  0  0  0  0  0  0  0  0  0  0  0
   -3.7023   -1.8443    3.3269 C   0  0  0  0  0  0  0  0  0  0  0  0
   -4.1009   -2.4669    4.4960 C   0  0  0  0  0  0  0  0  0  0  0  0
   -2.5512   -1.9448    1.0993 C   0  0  0  0  0  0  0  0  0  0  0  0
   -1.2982   -2.6383    0.5321 C   0  0  0  0  0  0  0  0  0  0  0  0
   -1.0613   -2.1391   -0.8789 C   0  0  0  0  0  0  0  0  0  0  0  0
   -1.9550   -1.0640   -1.1253 N   0  0  0  0  0  0  0  0  0  0  0  0
   -1.8606    0.0215   -0.2210 C   0  0  0  0  0  0  0  0  0  0  0  0
   -2.3191   -0.4531    1.1512 C   0  0  0  0  0  0  0  0  0  0  0  0
   -2.3461   -0.8112   -2.4541 C   0  0  0  0  0  0  0  0  0  0  0  0
   -2.6613   -2.1646   -3.1049 C   0  0  0  0  0  0  0  0  0  0  0  0
   -3.6519   -0.0448   -2.4535 C   0  0  0  0  0  0  0  0  0  0  0  0
   -8.1431   -8.9117    7.7464 O   0  0  0  0  0  0  0  0  0  0  0  0
  -17.1043   -7.9414    7.2581 C   0  0  0  0  0  0  0  0  0  0  0  0
  -15.8842   -7.4503    7.8933 N   0  0  0  0  0  0  0  0  0  0  0  0
  -14.6374   -8.0579    7.5433 C   0  0  0  0  0  0  0  0  0  0  0  0
  -14.6366   -9.0107    6.6871 O   0  0  0  0  0  0  0  0  0  0  0  0
  -13.4200   -7.6255    8.1232 N   0  0  0  0  0  0  0  0  0  0  0  0
  -13.3566   -6.6344    9.0235 C   0  0  0  0  0  0  0  0  0  0  0  0
  -12.0640   -6.4100    9.4170 C   0  0  0  0  0  0  0  0  0  0  0  0
  -11.2914   -7.3144    8.7174 C   0  0  0  0  0  0  0  0  0  0  0  0
   -9.9606   -7.6034    8.6537 C   0  0  0  0  0  0  0  0  0  0  0  0
   -9.4759   -8.5863    7.8416 C   0  0  0  0  0  0  0  0  0  0  0  0
  -10.3375   -9.3596    7.0191 C   0  0  0  0  0  0  0  0  0  0  0  0
  -11.7113   -9.0409    7.1036 C   0  0  0  0  0  0  0  0  0  0  0  0
  -12.1623   -8.0633    7.9165 C   0  0  0  0  0  0  0  0  0  0  0  0
  -15.9306   -6.6886    8.5735 H   0  0  0  0  0  0  0  0  0  0  0  0
   -9.8661  -10.2816    6.2545 O   0  0  0  0  0  0  0  0  0  0  0  0
   -9.4048  -11.1962    5.4969 C   0  0  0  0  0  0  0  0  0  0  0  0
   -8.7084  -10.6544    4.2369 C   0  0  0  0  0  0  0  0  0  0  0  0
   -8.4261  -11.7888    3.3010 C   0  0  0  0  0  0  0  0  0  0  0  0
   -7.7998  -11.3370    2.1631 O   0  0  0  0  0  0  0  0  0  0  0  0
   -8.1846  -12.0160    1.0433 C   0  0  0  0  0  0  0  0  0  0  0  0
 27 28  1  0  0  0
 28 29  1  0  0  0
 29 30  2  0  0  0
 29 31  1  0  0  0
 31 32  1  0  0  0
 32 33  2  0  0  0
 33 34  1  0  0  0
 34 35  2  0  0  0
 35 36  1  0  0  0
 36 26  1  0  0  0
 26  1  1  0  0  0
  1  2  2  0  0  0
  2  3  1  0  0  0
  3  4  2  0  0  0
  4  5  1  0  0  0
  5  7  1  0  0  0
  7  8  1  0  0  0
  8  9  2  0  0  0
  8 11  1  0  0  0
 11 12  2  0  0  0
 12 13  1  0  0  0
 13 14  2  0  0  0
 14 15  1  0  0  0
 15 16  2  0  0  0
 14 17  1  0  0  0
 17 18  1  0  0  0
 18 19  1  0  0  0
 19 20  1  0  0  0
 20 21  1  0  0  0
 21 22  1  0  0  0
 20 23  1  0  0  0
 23 24  1  0  0  0
 23 25  1  0  0  0
  5  6  2  0  0  0
 36 37  2  0  0  0
 37 41  1  0  0  0
 41 42  1  0  0  0
 42 43  1  0  0  0
 43 44  1  0  0  0
 44 45  1  0  0  0
 45 46  1  0  0  0
 37 38  1  0  0  0
 38 39  2  0  0  0
 39 31  1  0  0  0
 39 34  1  0  0  0
  6  1  1  0  0  0
 16 11  1  0  0  0
 22 17  1  0  0  0
 28 40  1  0  0  0
  7 10  1  0  0  0
M  END
> <minimizedAffinity>
-1.74940

> <CNNscore>
0.2420165688

> <CNNaffinity>
6.8694977760

> <CNN_VS>
1.6625323296

> <CNNaffinity_variance>
0.3594720960

$$$$
[H]c1nc(N([H])C(=O)c2c([H])c([H])c(C3([H])C([H])([H])C([H])([H])N(C([H])(C([H])([H])[H])C([H])([H])[H])C([H])([H])C3([H])[H])c([H])c2[H])c([H])c(Oc2c(OC([H])([H])C([H])([H])C([H])([H])OC([H])([H])[H])c([H])c3c(c2[H])c([H])c([H])n3C(=O)N([H])C([H])([H])[H])c1[H]


 46 50  0  0  0  0  0  0  0  0999 V2000
   -2.8254   -5.8542    8.7804 C   0  0  0  0  0  0  0  0  0  0  0  0
   -2.6319   -4.6830    9.4939 C   0  0  0  0  0  0  0  0  0  0  0  0
   -3.7457   -3.9779    9.8748 C   0  0  0  0  0  0  0  0  0  0  0  0
   -4.9604   -4.3771    9.5860 N   0  0  0  0  0  0  0  0  0  0  0  0
   -5.2183   -5.4998    8.8978 C   0  0  0  0  0  0  0  0  0  0  0  0
   -4.1438   -6.2451    8.4918 C   0  0  0  0  0  0  0  0  0  0  0  0
   -6.5568   -5.8559    8.6326 N   0  0  0  0  0  0  0  0  0  0  0  0
   -7.1800   -7.1061    8.6870 C   0  0  0  0  0  0  0  0  0  0  0  0
   -6.6059   -8.1525    8.9839 O   0  0  0  0  0  0  0  0  0  0  0  0
   -7.1942   -5.0132    8.3523 H   0  0  0  0  0  0  0  0  0  0  0  0
   -8.6240   -7.2161    8.3741 C   0  0  0  0  0  0  0  0  0  0  0  0
   -9.0854   -8.3064    7.7084 C   0  0  0  0  0  0  0  0  0  0  0  0
  -10.4383   -8.3989    7.4048 C   0  0  0  0  0  0  0  0  0  0  0  0
  -11.3535   -7.4342    7.7462 C   0  0  0  0  0  0  0  0  0  0  0  0
  -10.8531   -6.3270    8.4274 C   0  0  0  0  0  0  0  0  0  0  0  0
   -9.5080   -6.2253    8.7333 C   0  0  0  0  0  0  0  0  0  0  0  0
  -12.7549   -7.6073    7.4068 C   0  0  0  0  0  0  0  0  0  0  0  0
  -12.9669   -7.8206    5.8961 C   0  0  0  0  0  0  0  0  0  0  0  0
  -14.4035   -8.2411    5.6601 C   0  0  0  0  0  0  0  0  0  0  0  0
  -15.1120   -8.1065    6.8828 N   0  0  0  0  0  0  0  0  0  0  0  0
  -15.0898   -6.8121    7.4564 C   0  0  0  0  0  0  0  0  0  0  0  0
  -13.6636   -6.5016    7.8900 C   0  0  0  0  0  0  0  0  0  0  0  0
  -16.2357   -8.9273    7.0978 C   0  0  0  0  0  0  0  0  0  0  0  0
  -16.6974   -8.7034    8.5439 C   0  0  0  0  0  0  0  0  0  0  0  0
  -17.3778   -8.4494    6.2263 C   0  0  0  0  0  0  0  0  0  0  0  0
   -1.7237   -6.5558    8.4057 O   0  0  0  0  0  0  0  0  0  0  0  0
   -1.4168  -15.5492    7.6939 C   0  0  0  0  0  0  0  0  0  0  0  0
   -1.3066  -14.4212    8.6150 N   0  0  0  0  0  0  0  0  0  0  0  0
   -1.4534  -13.0962    8.0961 C   0  0  0  0  0  0  0  0  0  0  0  0
   -1.6747  -12.9475    6.8432 O   0  0  0  0  0  0  0  0  0  0  0  0
   -1.3585  -11.9619    8.9384 N   0  0  0  0  0  0  0  0  0  0  0  0
   -1.1289  -12.0531   10.2559 C   0  0  0  0  0  0  0  0  0  0  0  0
   -1.0923  -10.8127   10.8354 C   0  0  0  0  0  0  0  0  0  0  0  0
   -1.3127   -9.9100    9.8152 C   0  0  0  0  0  0  0  0  0  0  0  0
   -1.3970   -8.5522    9.7271 C   0  0  0  0  0  0  0  0  0  0  0  0
   -1.6318   -7.9213    8.5407 C   0  0  0  0  0  0  0  0  0  0  0  0
   -1.8008   -8.6514    7.3343 C   0  0  0  0  0  0  0  0  0  0  0  0
   -1.7086  -10.0562    7.4523 C   0  0  0  0  0  0  0  0  0  0  0  0
   -1.4752  -10.6529    8.6394 C   0  0  0  0  0  0  0  0  0  0  0  0
   -1.1270  -14.5851    9.6079 H   0  0  0  0  0  0  0  0  0  0  0  0
   -2.0256   -8.0433    6.2223 O   0  0  0  0  0  0  0  0  0  0  0  0
   -2.2482   -7.4466    5.1188 C   0  0  0  0  0  0  0  0  0  0  0  0
   -1.0754   -7.5347    4.1275 C   0  0  0  0  0  0  0  0  0  0  0  0
   -1.4349   -6.8063    2.8695 C   0  0  0  0  0  0  0  0  0  0  0  0
   -1.2425   -5.4528    3.0186 O   0  0  0  0  0  0  0  0  0  0  0  0
   -1.8543   -4.7214    2.0419 C   0  0  0  0  0  0  0  0  0  0  0  0
 27 28  1  0  0  0
 28 29  1  0  0  0
 29 30  2  0  0  0
 29 31  1  0  0  0
 31 32  1  0  0  0
 32 33  2  0  0  0
 33 34  1  0  0  0
 34 35  2  0  0  0
 35 36  1  0  0  0
 36 26  1  0  0  0
 26  1  1  0  0  0
  1  2  2  0  0  0
  2  3  1  0  0  0
  3  4  2  0  0  0
  4  5  1  0  0  0
  5  7  1  0  0  0
  7  8  1  0  0  0
  8  9  2  0  0  0
  8 11  1  0  0  0
 11 12  2  0  0  0
 12 13  1  0  0  0
 13 14  2  0  0  0
 14 15  1  0  0  0
 15 16  2  0  0  0
 14 17  1  0  0  0
 17 18  1  0  0  0
 18 19  1  0  0  0
 19 20  1  0  0  0
 20 21  1  0  0  0
 21 22  1  0  0  0
 20 23  1  0  0  0
 23 24  1  0  0  0
 23 25  1  0  0  0
  5  6  2  0  0  0
 36 37  2  0  0  0
 37 41  1  0  0  0
 41 42  1  0  0  0
 42 43  1  0  0  0
 43 44  1  0  0  0
 44 45  1  0  0  0
 45 46  1  0  0  0
 37 38  1  0  0  0
 38 39  2  0  0  0
 39 31  1  0  0  0
 39 34  1  0  0  0
  6  1  1  0  0  0
 16 11  1  0  0  0
 22 17  1  0  0  0
 28 40  1  0  0  0
  7 10  1  0  0  0
M  END
> <minimizedAffinity>
0.80469

> <CNNscore>
0.2361939996

> <CNNaffinity>
6.7303209305

> <CNN_VS>
1.5896614790

> <CNNaffinity_variance>
1.2462743521

$$$$
[H]c1nc(N([H])C(=O)c2c([H])c([H])c(C3([H])C([H])([H])C([H])([H])N(C([H])(C([H])([H])[H])C([H])([H])[H])C([H])([H])C3([H])[H])c([H])c2[H])c([H])c(Oc2c(OC([H])([H])C([H])([H])C([H])([H])OC([H])([H])[H])c([H])c3c(c2[H])c([H])c([H])n3C(=O)N([H])C([H])([H])[H])c1[H]


 46 50  0  0  0  0  0  0  0  0999 V2000
   -3.5871   -7.5422    6.8574 C   0  0  0  0  0  0  0  0  0  0  0  0
   -3.0551   -8.7707    7.2126 C   0  0  0  0  0  0  0  0  0  0  0  0
   -3.9323   -9.7910    7.4811 C   0  0  0  0  0  0  0  0  0  0  0  0
   -5.2319   -9.6343    7.4112 N   0  0  0  0  0  0  0  0  0  0  0  0
   -5.8126   -8.4723    7.0749 C   0  0  0  0  0  0  0  0  0  0  0  0
   -4.9852   -7.4177    6.7952 C   0  0  0  0  0  0  0  0  0  0  0  0
   -7.2196   -8.3925    7.0221 N   0  0  0  0  0  0  0  0  0  0  0  0
   -8.1871   -9.2198    7.5996 C   0  0  0  0  0  0  0  0  0  0  0  0
   -7.9317  -10.2149    8.2758 O   0  0  0  0  0  0  0  0  0  0  0  0
   -7.5957   -7.5431    6.4458 H   0  0  0  0  0  0  0  0  0  0  0  0
   -9.6228   -8.9085    7.4069 C   0  0  0  0  0  0  0  0  0  0  0  0
  -10.4195   -9.7931    6.7530 C   0  0  0  0  0  0  0  0  0  0  0  0
  -11.7624   -9.4908    6.5624 C   0  0  0  0  0  0  0  0  0  0  0  0
  -12.3421   -8.3281    7.0062 C   0  0  0  0  0  0  0  0  0  0  0  0
  -11.5023   -7.4390    7.6727 C   0  0  0  0  0  0  0  0  0  0  0  0
  -10.1640   -7.7304    7.8666 C   0  0  0  0  0  0  0  0  0  0  0  0
  -13.7567   -8.0879    6.7817 C   0  0  0  0  0  0  0  0  0  0  0  0
  -14.0454   -6.6257    6.3930 C   0  0  0  0  0  0  0  0  0  0  0  0
  -15.4857   -6.5185    5.9344 C   0  0  0  0  0  0  0  0  0  0  0  0
  -16.1302   -7.7544    6.2030 N   0  0  0  0  0  0  0  0  0  0  0  0
  -16.0978   -8.1731    7.5553 C   0  0  0  0  0  0  0  0  0  0  0  0
  -14.6556   -8.4895    7.9273 C   0  0  0  0  0  0  0  0  0  0  0  0
  -17.2279   -8.1236    5.4021 C   0  0  0  0  0  0  0  0  0  0  0  0
  -18.2606   -8.7923    6.3190 C   0  0  0  0  0  0  0  0  0  0  0  0
  -17.9013   -6.8756    4.8713 C   0  0  0  0  0  0  0  0  0  0  0  0
   -2.7197   -6.5317    6.5875 O   0  0  0  0  0  0  0  0  0  0  0  0
   -1.8597    1.1743   11.2092 C   0  0  0  0  0  0  0  0  0  0  0  0
   -1.6078   -0.2641   11.2312 N   0  0  0  0  0  0  0  0  0  0  0  0
   -2.0122   -1.0477   10.1047 C   0  0  0  0  0  0  0  0  0  0  0  0
   -2.5812   -0.4596    9.1191 O   0  0  0  0  0  0  0  0  0  0  0  0
   -1.7945   -2.4463   10.0655 N   0  0  0  0  0  0  0  0  0  0  0  0
   -1.2045   -3.1175   11.0647 C   0  0  0  0  0  0  0  0  0  0  0  0
   -1.1094   -4.4519   10.7713 C   0  0  0  0  0  0  0  0  0  0  0  0
   -1.6722   -4.6073    9.5210 C   0  0  0  0  0  0  0  0  0  0  0  0
   -1.8842   -5.6591    8.6801 C   0  0  0  0  0  0  0  0  0  0  0  0
   -2.4854   -5.4999    7.4661 C   0  0  0  0  0  0  0  0  0  0  0  0
   -2.9215   -4.2252    7.0169 C   0  0  0  0  0  0  0  0  0  0  0  0
   -2.6907   -3.1521    7.9065 C   0  0  0  0  0  0  0  0  0  0  0  0
   -2.0937   -3.3395    9.1016 C   0  0  0  0  0  0  0  0  0  0  0  0
   -1.1525   -0.6931   12.0396 H   0  0  0  0  0  0  0  0  0  0  0  0
   -3.4840   -4.0887    5.8672 O   0  0  0  0  0  0  0  0  0  0  0  0
   -4.0373   -3.9579    4.7270 C   0  0  0  0  0  0  0  0  0  0  0  0
   -5.1242   -5.0102    4.4494 C   0  0  0  0  0  0  0  0  0  0  0  0
   -6.0364   -5.1038    5.6333 C   0  0  0  0  0  0  0  0  0  0  0  0
   -7.1774   -5.8023    5.3149 O   0  0  0  0  0  0  0  0  0  0  0  0
   -7.0425   -6.5441    4.1770 C   0  0  0  0  0  0  0  0  0  0  0  0
 27 28  1  0  0  0
 28 29  1  0  0  0
 29 30  2  0  0  0
 29 31  1  0  0  0
 31 32  1  0  0  0
 32 33  2  0  0  0
 33 34  1  0  0  0
 34 35  2  0  0  0
 35 36  1  0  0  0
 36 26  1  0  0  0
 26  1  1  0  0  0
  1  2  2  0  0  0
  2  3  1  0  0  0
  3  4  2  0  0  0
  4  5  1  0  0  0
  5  7  1  0  0  0
  7  8  1  0  0  0
  8  9  2  0  0  0
  8 11  1  0  0  0
 11 12  2  0  0  0
 12 13  1  0  0  0
 13 14  2  0  0  0
 14 15  1  0  0  0
 15 16  2  0  0  0
 14 17  1  0  0  0
 17 18  1  0  0  0
 18 19  1  0  0  0
 19 20  1  0  0  0
 20 21  1  0  0  0
 21 22  1  0  0  0
 20 23  1  0  0  0
 23 24  1  0  0  0
 23 25  1  0  0  0
  5  6  2  0  0  0
 36 37  2  0  0  0
 37 41  1  0  0  0
 41 42  1  0  0  0
 42 43  1  0  0  0
 43 44  1  0  0  0
 44 45  1  0  0  0
 45 46  1  0  0  0
 37 38  1  0  0  0
 38 39  2  0  0  0
 39 31  1  0  0  0
 39 34  1  0  0  0
  6  1  1  0  0  0
 16 11  1  0  0  0
 22 17  1  0  0  0
 28 40  1  0  0  0
  7 10  1  0  0  0
M  END
> <minimizedAffinity>
-0.28637

> <CNNscore>
0.2223161757

> <CNNaffinity>
6.7203226089

> <CNN_VS>
1.4940364361

> <CNNaffinity_variance>
0.6948814988

$$$$
[H]ON([H])C(=O)C([H])([H])[C@]([H])(C(=O)N([H])[C@]([H])(C(=O)N([H])C([H])([H])c1c([H])c([H])c([H])c([H])c1[H])C([H])([H])c1c([H])n([H])c2c([H])c([H])c([H])c([H])c12)C([H])([H])C([H])(C([H])([H])[H])C([H])([H])[H]


 39 41  0  0  0  0  0  0  0  0999 V2000
  -12.9131   -8.8318    6.3631 C   0  0  0  0  0  0  0  0  0  0  0  0
  -13.3298   -8.5073    8.8622 C   0  0  0  0  0  0  0  0  0  0  0  0
  -12.9277   -9.6638    9.1134 O   0  0  0  0  0  0  0  0  0  0  0  0
  -13.3476   -8.0399    7.5503 N   0  0  0  0  0  0  0  0  0  0  0  0
  -13.6710   -7.0782    7.3026 H   0  0  0  0  0  0  0  0  0  0  0  0
  -13.7868   -7.6472   10.0081 C   0  0  0  0  0  0  0  0  0  0  0  0
  -14.9303   -8.2069   10.7304 C   0  0  0  0  0  0  0  0  0  0  0  0
  -13.5729   -9.4801   12.3186 C   0  0  0  0  0  0  0  0  0  0  0  0
  -14.8130   -8.5476   12.1700 C   0  0  0  0  0  0  0  0  0  0  0  0
  -15.9222   -9.3281   12.7905 C   0  0  0  0  0  0  0  0  0  0  0  0
  -13.7989   -6.2338    9.5561 C   0  0  0  0  0  0  0  0  0  0  0  0
  -12.6725   -5.4055   10.0959 C   0  0  0  0  0  0  0  0  0  0  0  0
  -11.6411   -5.8793   10.6210 O   0  0  0  0  0  0  0  0  0  0  0  0
  -12.7649   -3.9883   10.0198 N   0  0  0  0  0  0  0  0  0  0  0  0
  -11.7471   -3.2454   10.5107 O   0  0  0  0  0  0  0  0  0  0  0  0
  -13.5962   -3.5385    9.6042 H   0  0  0  0  0  0  0  0  0  0  0  0
  -11.1252   -3.1036    9.7380 H   0  0  0  0  0  0  0  0  0  0  0  0
  -13.9649   -8.8935    5.3910 C   0  0  0  0  0  0  0  0  0  0  0  0
  -13.5841   -9.2787    4.2024 O   0  0  0  0  0  0  0  0  0  0  0  0
  -15.3067   -8.5948    5.5553 N   0  0  0  0  0  0  0  0  0  0  0  0
  -15.7269   -8.2678    6.4222 H   0  0  0  0  0  0  0  0  0  0  0  0
  -16.2241   -8.7499    4.4118 C   0  0  0  0  0  0  0  0  0  0  0  0
  -16.9428   -7.4521    4.3402 C   0  0  0  0  0  0  0  0  0  0  0  0
  -18.2535   -7.2732    4.0460 C   0  0  0  0  0  0  0  0  0  0  0  0
  -18.8152   -6.0020    4.0286 C   0  0  0  0  0  0  0  0  0  0  0  0
  -18.0434   -4.9009    4.3101 C   0  0  0  0  0  0  0  0  0  0  0  0
  -16.7214   -5.0759    4.6054 C   0  0  0  0  0  0  0  0  0  0  0  0
  -16.1452   -6.3344    4.6289 C   0  0  0  0  0  0  0  0  0  0  0  0
  -12.1748   -9.9846    6.8640 C   0  0  0  0  0  0  0  0  0  0  0  0
  -10.7101   -9.9180    6.9083 C   0  0  0  0  0  0  0  0  0  0  0  0
   -9.7675  -10.8997    6.6005 C   0  0  0  0  0  0  0  0  0  0  0  0
   -8.5312  -10.4116    6.8276 N   0  0  0  0  0  0  0  0  0  0  0  0
   -8.5918   -9.1332    7.2761 C   0  0  0  0  0  0  0  0  0  0  0  0
   -7.6088   -8.2254    7.6143 C   0  0  0  0  0  0  0  0  0  0  0  0
   -7.9583   -6.9588    8.0210 C   0  0  0  0  0  0  0  0  0  0  0  0
   -9.2974   -6.6329    8.0783 C   0  0  0  0  0  0  0  0  0  0  0  0
  -10.2791   -7.5586    7.7351 C   0  0  0  0  0  0  0  0  0  0  0  0
   -9.9349   -8.8284    7.3278 C   0  0  0  0  0  0  0  0  0  0  0  0
   -7.6597  -10.9754    6.6721 H   0  0  0  0  0  0  0  0  0  0  0  0
  8  9  1  0  0  0
  9 10  1  0  0  0
  9  7  1  0  0  0
  7  6  1  0  0  0
  6 11  1  0  0  0
 11 12  1  0  0  0
 12 13  2  0  0  0
 12 14  1  0  0  0
 14 15  1  0  0  0
  6  2  1  0  0  0
  2  3  2  0  0  0
  2  4  1  0  0  0
  4  1  1  0  0  0
  1 29  1  0  0  0
 29 30  1  0  0  0
 30 31  2  0  0  0
 31 32  1  0  0  0
 32 33  1  0  0  0
 33 34  2  0  0  0
 34 35  1  0  0  0
 35 36  2  0  0  0
 36 37  1  0  0  0
 37 38  2  0  0  0
  1 18  1  0  0  0
 18 19  2  0  0  0
 18 20  1  0  0  0
 20 22  1  0  0  0
 22 23  1  0  0  0
 23 24  2  0  0  0
 24 25  1  0  0  0
 25 26  2  0  0  0
 26 27  1  0  0  0
 27 28  2  0  0  0
 38 30  1  0  0  0
 28 23  1  0  0  0
 38 33  1  0  0  0
 14 16  1  0  0  0
 15 17  1  0  0  0
  4  5  1  0  0  0
 32 39  1  0  0  0
 20 21  1  0  0  0
M  END
> <minimizedAffinity>
-1.99216

> <CNNscore>
0.3598957956

> <CNNaffinity>
7.1067900658

> <CNN_VS>
2.5577039719

> <CNNaffinity_variance>
0.3117731214

$$$$
[H]ON([H])C(=O)C([H])([H])[C@]([H])(C(=O)N([H])[C@]([H])(C(=O)N([H])C([H])([H])c1c([H])c([H])c([H])c([H])c1[H])C([H])([H])c1c([H])n([H])c2c([H])c([H])c([H])c([H])c12)C([H])([H])C([H])(C([H])([H])[H])C([H])([H])[H]


 39 41  0  0  0  0  0  0  0  0999 V2000
  -10.8582   -9.0480    7.2667 C   0  0  0  0  0  0  0  0  0  0  0  0
  -11.9011   -7.4942    9.0054 C   0  0  0  0  0  0  0  0  0  0  0  0
  -12.3516   -6.7436    8.1133 O   0  0  0  0  0  0  0  0  0  0  0  0
  -11.1696   -8.6293    8.6643 N   0  0  0  0  0  0  0  0  0  0  0  0
  -10.7826   -9.2828    9.3813 H   0  0  0  0  0  0  0  0  0  0  0  0
  -12.1721   -7.1373   10.4410 C   0  0  0  0  0  0  0  0  0  0  0  0
  -13.5990   -7.0393   10.7524 C   0  0  0  0  0  0  0  0  0  0  0  0
  -15.2966   -7.9594    9.2498 C   0  0  0  0  0  0  0  0  0  0  0  0
  -14.4898   -8.2105   10.5596 C   0  0  0  0  0  0  0  0  0  0  0  0
  -15.5438   -8.4563   11.5859 C   0  0  0  0  0  0  0  0  0  0  0  0
  -11.2375   -6.0553   10.8383 C   0  0  0  0  0  0  0  0  0  0  0  0
  -11.5429   -4.7224   10.2249 C   0  0  0  0  0  0  0  0  0  0  0  0
  -10.8108   -4.1501    9.3878 O   0  0  0  0  0  0  0  0  0  0  0  0
  -12.7340   -4.0467   10.6090 N   0  0  0  0  0  0  0  0  0  0  0  0
  -13.0036   -2.8430   10.0546 O   0  0  0  0  0  0  0  0  0  0  0  0
  -13.3742   -4.4655   11.3023 H   0  0  0  0  0  0  0  0  0  0  0  0
  -13.5499   -3.0430    9.2388 H   0  0  0  0  0  0  0  0  0  0  0  0
  -12.0596   -9.4117    6.5743 C   0  0  0  0  0  0  0  0  0  0  0  0
  -12.4808  -10.6240    6.8174 O   0  0  0  0  0  0  0  0  0  0  0  0
  -12.8086   -8.6506    5.6931 N   0  0  0  0  0  0  0  0  0  0  0  0
  -12.5802   -7.7016    5.4063 H   0  0  0  0  0  0  0  0  0  0  0  0
  -14.0333   -9.2249    5.1070 C   0  0  0  0  0  0  0  0  0  0  0  0
  -14.9008   -8.0481    4.8452 C   0  0  0  0  0  0  0  0  0  0  0  0
  -14.7372   -6.8001    5.3475 C   0  0  0  0  0  0  0  0  0  0  0  0
  -15.6115   -5.7736    5.0105 C   0  0  0  0  0  0  0  0  0  0  0  0
  -16.6624   -6.0119    4.1584 C   0  0  0  0  0  0  0  0  0  0  0  0
  -16.8325   -7.2686    3.6509 C   0  0  0  0  0  0  0  0  0  0  0  0
  -15.9709   -8.3027    3.9742 C   0  0  0  0  0  0  0  0  0  0  0  0
   -9.6512   -9.8633    7.3227 C   0  0  0  0  0  0  0  0  0  0  0  0
   -8.3943   -9.2962    6.8225 C   0  0  0  0  0  0  0  0  0  0  0  0
   -7.7787   -9.4604    5.5810 C   0  0  0  0  0  0  0  0  0  0  0  0
   -6.6104   -8.7871    5.5749 N   0  0  0  0  0  0  0  0  0  0  0  0
   -6.4046   -8.1666    6.7630 C   0  0  0  0  0  0  0  0  0  0  0  0
   -5.3846   -7.3550    7.2168 C   0  0  0  0  0  0  0  0  0  0  0  0
   -5.4446   -6.8257    8.4849 C   0  0  0  0  0  0  0  0  0  0  0  0
   -6.5365   -7.1271    9.2721 C   0  0  0  0  0  0  0  0  0  0  0  0
   -7.5583   -7.9480    8.8022 C   0  0  0  0  0  0  0  0  0  0  0  0
   -7.5031   -8.4811    7.5336 C   0  0  0  0  0  0  0  0  0  0  0  0
   -5.9676   -8.7711    4.7453 H   0  0  0  0  0  0  0  0  0  0  0  0
  8  9  1  0  0  0
  9 10  1  0  0  0
  9  7  1  0  0  0
  7  6  1  0  0  0
  6 11  1  0  0  0
 11 12  1  0  0  0
 12 13  2  0  0  0
 12 14  1  0  0  0
 14 15  1  0  0  0
  6  2  1  0  0  0
  2  3  2  0  0  0
  2  4  1  0  0  0
  4  1  1  0  0  0
  1 29  1  0  0  0
 29 30  1  0  0  0
 30 31  2  0  0  0
 31 32  1  0  0  0
 32 33  1  0  0  0
 33 34  2  0  0  0
 34 35  1  0  0  0
 35 36  2  0  0  0
 36 37  1  0  0  0
 37 38  2  0  0  0
  1 18  1  0  0  0
 18 19  2  0  0  0
 18 20  1  0  0  0
 20 22  1  0  0  0
 22 23  1  0  0  0
 23 24  2  0  0  0
 24 25  1  0  0  0
 25 26  2  0  0  0
 26 27  1  0  0  0
 27 28  2  0  0  0
 38 30  1  0  0  0
 28 23  1  0  0  0
 38 33  1  0  0  0
 14 16  1  0  0  0
 15 17  1  0  0  0
  4  5  1  0  0  0
 32 39  1  0  0  0
 20 21  1  0  0  0
M  END
> <minimizedAffinity>
-2.15496

> <CNNscore>
0.2868977487

> <CNNaffinity>
6.6509232521

> <CNN_VS>
1.9081349373

> <CNNaffinity_variance>
0.2433497459

$$$$
[H]ON([H])C(=O)C([H])([H])[C@]([H])(C(=O)N([H])[C@]([H])(C(=O)N([H])C([H])([H])c1c([H])c([H])c([H])c([H])c1[H])C([H])([H])c1c([H])n([H])c2c([H])c([H])c([H])c([H])c12)C([H])([H])C([H])(C([H])([H])[H])C([H])([H])[H]


 39 41  0  0  0  0  0  0  0  0999 V2000
  -12.9420   -9.0917    6.0427 C   0  0  0  0  0  0  0  0  0  0  0  0
  -13.6824   -7.0966    7.4557 C   0  0  0  0  0  0  0  0  0  0  0  0
  -13.7733   -6.3702    6.4426 O   0  0  0  0  0  0  0  0  0  0  0  0
  -13.2863   -8.4263    7.3327 N   0  0  0  0  0  0  0  0  0  0  0  0
  -13.2047   -9.0648    8.1552 H   0  0  0  0  0  0  0  0  0  0  0  0
  -14.0117   -6.4964    8.7947 C   0  0  0  0  0  0  0  0  0  0  0  0
  -12.8912   -5.7690    9.3931 C   0  0  0  0  0  0  0  0  0  0  0  0
  -12.7580   -3.5987   10.5147 C   0  0  0  0  0  0  0  0  0  0  0  0
  -13.0431   -5.1176   10.7177 C   0  0  0  0  0  0  0  0  0  0  0  0
  -12.0965   -5.5164   11.7991 C   0  0  0  0  0  0  0  0  0  0  0  0
  -14.7666   -7.5007    9.5845 C   0  0  0  0  0  0  0  0  0  0  0  0
  -13.9076   -8.3872   10.4344 C   0  0  0  0  0  0  0  0  0  0  0  0
  -12.8398   -8.9109   10.0476 O   0  0  0  0  0  0  0  0  0  0  0  0
  -14.3174   -8.6668   11.7673 N   0  0  0  0  0  0  0  0  0  0  0  0
  -13.5401   -9.4694   12.5293 O   0  0  0  0  0  0  0  0  0  0  0  0
  -15.1942   -8.2695   12.1406 H   0  0  0  0  0  0  0  0  0  0  0  0
  -12.9083   -8.8538   13.0044 H   0  0  0  0  0  0  0  0  0  0  0  0
  -14.0532   -9.0352    5.1388 C   0  0  0  0  0  0  0  0  0  0  0  0
  -13.7322   -9.1345    3.8765 O   0  0  0  0  0  0  0  0  0  0  0  0
  -15.3972   -8.8856    5.4359 N   0  0  0  0  0  0  0  0  0  0  0  0
  -15.7762   -8.7796    6.3741 H   0  0  0  0  0  0  0  0  0  0  0  0
  -16.3803   -8.8739    4.3376 C   0  0  0  0  0  0  0  0  0  0  0  0
  -16.8330   -7.4611    4.2661 C   0  0  0  0  0  0  0  0  0  0  0  0
  -16.0408   -6.3617    4.2584 C   0  0  0  0  0  0  0  0  0  0  0  0
  -16.5878   -5.0870    4.1693 C   0  0  0  0  0  0  0  0  0  0  0  0
  -17.9493   -4.9228    4.0886 C   0  0  0  0  0  0  0  0  0  0  0  0
  -18.7521   -6.0278    4.0979 C   0  0  0  0  0  0  0  0  0  0  0  0
  -18.2250   -7.3049    4.1845 C   0  0  0  0  0  0  0  0  0  0  0  0
  -12.1967  -10.3008    6.3701 C   0  0  0  0  0  0  0  0  0  0  0  0
  -10.7641  -10.1874    6.6639 C   0  0  0  0  0  0  0  0  0  0  0  0
   -9.7413  -11.1155    6.4651 C   0  0  0  0  0  0  0  0  0  0  0  0
   -8.5824  -10.6007    6.9237 N   0  0  0  0  0  0  0  0  0  0  0  0
   -8.7727   -9.3554    7.4258 C   0  0  0  0  0  0  0  0  0  0  0  0
   -7.9003   -8.4374    7.9745 C   0  0  0  0  0  0  0  0  0  0  0  0
   -8.3677   -7.2111    8.3862 C   0  0  0  0  0  0  0  0  0  0  0  0
   -9.7107   -6.9351    8.2354 C   0  0  0  0  0  0  0  0  0  0  0  0
  -10.5803   -7.8706    7.6811 C   0  0  0  0  0  0  0  0  0  0  0  0
  -10.1178   -9.1002    7.2676 C   0  0  0  0  0  0  0  0  0  0  0  0
   -7.6734  -11.1239    6.8861 H   0  0  0  0  0  0  0  0  0  0  0  0
  8  9  1  0  0  0
  9 10  1  0  0  0
  9  7  1  0  0  0
  7  6  1  0  0  0
  6 11  1  0  0  0
 11 12  1  0  0  0
 12 13  2  0  0  0
 12 14  1  0  0  0
 14 15  1  0  0  0
  6  2  1  0  0  0
  2  3  2  0  0  0
  2  4  1  0  0  0
  4  1  1  0  0  0
  1 29  1  0  0  0
 29 30  1  0  0  0
 30 31  2  0  0  0
 31 32  1  0  0  0
 32 33  1  0  0  0
 33 34  2  0  0  0
 34 35  1  0  0  0
 35 36  2  0  0  0
 36 37  1  0  0  0
 37 38  2  0  0  0
  1 18  1  0  0  0
 18 19  2  0  0  0
 18 20  1  0  0  0
 20 22  1  0  0  0
 22 23  1  0  0  0
 23 24  2  0  0  0
 24 25  1  0  0  0
 25 26  2  0  0  0
 26 27  1  0  0  0
 27 28  2  0  0  0
 38 30  1  0  0  0
 28 23  1  0  0  0
 38 33  1  0  0  0
 14 16  1  0  0  0
 15 17  1  0  0  0
  4  5  1  0  0  0
 32 39  1  0  0  0
 20 21  1  0  0  0
M  END
> <minimizedAffinity>
-4.21044

> <CNNscore>
0.2452176511

> <CNNaffinity>
6.8179998398

> <CNN_VS>
1.6718939543

> <CNNaffinity_variance>
0.1391064227

$$$$
[H]ON([H])C(=O)C([H])([H])[C@]([H])(C(=O)N([H])[C@]([H])(C(=O)N([H])C([H])([H])c1c([H])c([H])c([H])c([H])c1[H])C([H])([H])c1c([H])n([H])c2c([H])c([H])c([H])c([H])c12)C([H])([H])C([H])(C([H])([H])[H])C([H])([H])[H]


 39 41  0  0  0  0  0  0  0  0999 V2000
  -13.5449   -6.5540    7.9516 C   0  0  0  0  0  0  0  0  0  0  0  0
  -11.4949   -7.9707    8.5131 C   0  0  0  0  0  0  0  0  0  0  0  0
  -11.9656   -8.2682    9.6322 O   0  0  0  0  0  0  0  0  0  0  0  0
  -12.2092   -7.1450    7.6483 N   0  0  0  0  0  0  0  0  0  0  0  0
  -11.8510   -6.8796    6.7038 H   0  0  0  0  0  0  0  0  0  0  0  0
  -10.1499   -8.5272    8.1349 C   0  0  0  0  0  0  0  0  0  0  0  0
   -9.1590   -7.4915    7.8377 C   0  0  0  0  0  0  0  0  0  0  0  0
   -6.7853   -7.7537    8.3694 C   0  0  0  0  0  0  0  0  0  0  0  0
   -7.8518   -7.8560    7.2373 C   0  0  0  0  0  0  0  0  0  0  0  0
   -7.3138   -6.9755    6.1603 C   0  0  0  0  0  0  0  0  0  0  0  0
  -10.3588   -9.6612    7.2009 C   0  0  0  0  0  0  0  0  0  0  0  0
  -11.7978   -9.9560    6.9031 C   0  0  0  0  0  0  0  0  0  0  0  0
  -12.3462   -9.7367    5.8007 O   0  0  0  0  0  0  0  0  0  0  0  0
  -12.6097  -10.5171    7.9273 N   0  0  0  0  0  0  0  0  0  0  0  0
  -13.9081  -10.7788    7.6543 O   0  0  0  0  0  0  0  0  0  0  0  0
  -12.2151  -10.7129    8.8610 H   0  0  0  0  0  0  0  0  0  0  0  0
  -13.9241  -11.7237    7.3214 H   0  0  0  0  0  0  0  0  0  0  0  0
  -13.6662   -6.2863    9.3547 C   0  0  0  0  0  0  0  0  0  0  0  0
  -14.5433   -7.0289    9.9755 O   0  0  0  0  0  0  0  0  0  0  0  0
  -12.9840   -5.3511   10.1142 N   0  0  0  0  0  0  0  0  0  0  0  0
  -12.2910   -4.7013    9.7501 H   0  0  0  0  0  0  0  0  0  0  0  0
  -13.2561   -5.2612   11.5602 C   0  0  0  0  0  0  0  0  0  0  0  0
  -11.9224   -5.4197   12.1944 C   0  0  0  0  0  0  0  0  0  0  0  0
  -10.7881   -5.8454   11.5873 C   0  0  0  0  0  0  0  0  0  0  0  0
   -9.5917   -5.9340   12.2892 C   0  0  0  0  0  0  0  0  0  0  0  0
   -9.5424   -5.5901   13.6183 C   0  0  0  0  0  0  0  0  0  0  0  0
  -10.6835   -5.1623   14.2351 C   0  0  0  0  0  0  0  0  0  0  0  0
  -11.8835   -5.0662   13.5517 C   0  0  0  0  0  0  0  0  0  0  0  0
  -14.5258   -7.2815    7.1558 C   0  0  0  0  0  0  0  0  0  0  0  0
  -15.1324   -6.6112    6.0006 C   0  0  0  0  0  0  0  0  0  0  0  0
  -14.7657   -5.4204    5.3723 C   0  0  0  0  0  0  0  0  0  0  0  0
  -15.6351   -5.1617    4.3745 N   0  0  0  0  0  0  0  0  0  0  0  0
  -16.5803   -6.1309    4.2945 C   0  0  0  0  0  0  0  0  0  0  0  0
  -17.6453   -6.3139    3.4357 C   0  0  0  0  0  0  0  0  0  0  0  0
  -18.4452   -7.4253    3.5653 C   0  0  0  0  0  0  0  0  0  0  0  0
  -18.1531   -8.3326    4.5624 C   0  0  0  0  0  0  0  0  0  0  0  0
  -17.0762   -8.1355    5.4226 C   0  0  0  0  0  0  0  0  0  0  0  0
  -16.2724   -7.0242    5.2976 C   0  0  0  0  0  0  0  0  0  0  0  0
  -15.5631   -4.3113    3.7637 H   0  0  0  0  0  0  0  0  0  0  0  0
  8  9  1  0  0  0
  9 10  1  0  0  0
  9  7  1  0  0  0
  7  6  1  0  0  0
  6 11  1  0  0  0
 11 12  1  0  0  0
 12 13  2  0  0  0
 12 14  1  0  0  0
 14 15  1  0  0  0
  6  2  1  0  0  0
  2  3  2  0  0  0
  2  4  1  0  0  0
  4  1  1  0  0  0
  1 29  1  0  0  0
 29 30  1  0  0  0
 30 31  2  0  0  0
 31 32  1  0  0  0
 32 33  1  0  0  0
 33 34  2  0  0  0
 34 35  1  0  0  0
 35 36  2  0  0  0
 36 37  1  0  0  0
 37 38  2  0  0  0
  1 18  1  0  0  0
 18 19  2  0  0  0
 18 20  1  0  0  0
 20 22  1  0  0  0
 22 23  1  0  0  0
 23 24  2  0  0  0
 24 25  1  0  0  0
 25 26  2  0  0  0
 26 27  1  0  0  0
 27 28  2  0  0  0
 38 30  1  0  0  0
 28 23  1  0  0  0
 38 33  1  0  0  0
 14 16  1  0  0  0
 15 17  1  0  0  0
  4  5  1  0  0  0
 32 39  1  0  0  0
 20 21  1  0  0  0
M  END
> <minimizedAffinity>
-3.08753

> <CNNscore>
0.2248987257

> <CNNaffinity>
6.9301428795

> <CNN_VS>
1.5585802794

> <CNNaffinity_variance>
0.1298275739

$$$$
[H]ON([H])C(=O)C([H])([H])[C@]([H])(C(=O)N([H])[C@]([H])(C(=O)N([H])C([H])([H])c1c([H])c([H])c([H])c([H])c1[H])C([H])([H])c1c([H])n([H])c2c([H])c([H])c([H])c([H])c12)C([H])([H])C([H])(C([H])([H])[H])C([H])([H])[H]


 39 41  0  0  0  0  0  0  0  0999 V2000
  -12.2283   -9.7862    7.1333 C   0  0  0  0  0  0  0  0  0  0  0  0
   -9.7061   -9.3877    7.0681 C   0  0  0  0  0  0  0  0  0  0  0  0
   -9.4774  -10.6160    7.1049 O   0  0  0  0  0  0  0  0  0  0  0  0
  -11.0170   -8.9173    7.0776 N   0  0  0  0  0  0  0  0  0  0  0  0
  -11.2471   -7.8991    7.0420 H   0  0  0  0  0  0  0  0  0  0  0  0
   -8.5348   -8.4461    7.0126 C   0  0  0  0  0  0  0  0  0  0  0  0
   -7.2892   -9.0970    6.6031 C   0  0  0  0  0  0  0  0  0  0  0  0
   -5.0123   -8.3133    6.1701 C   0  0  0  0  0  0  0  0  0  0  0  0
   -6.4342   -8.4860    5.5553 C   0  0  0  0  0  0  0  0  0  0  0  0
   -6.7876   -7.1158    5.0840 C   0  0  0  0  0  0  0  0  0  0  0  0
   -8.5727   -7.5809    8.2175 C   0  0  0  0  0  0  0  0  0  0  0  0
   -7.2298   -7.3183    8.8290 C   0  0  0  0  0  0  0  0  0  0  0  0
   -6.7311   -8.0028    9.7493 O   0  0  0  0  0  0  0  0  0  0  0  0
   -6.4596   -6.2230    8.3495 N   0  0  0  0  0  0  0  0  0  0  0  0
   -5.2497   -5.9887    8.9065 O   0  0  0  0  0  0  0  0  0  0  0  0
   -6.8222   -5.6167    7.5966 H   0  0  0  0  0  0  0  0  0  0  0  0
   -4.5967   -6.5067    8.3504 H   0  0  0  0  0  0  0  0  0  0  0  0
  -13.0898   -9.5151    6.0200 C   0  0  0  0  0  0  0  0  0  0  0  0
  -12.5776   -9.8047    4.8538 O   0  0  0  0  0  0  0  0  0  0  0  0
  -14.3704   -8.9891    6.0313 N   0  0  0  0  0  0  0  0  0  0  0  0
  -14.8744   -8.7057    6.8684 H   0  0  0  0  0  0  0  0  0  0  0  0
  -15.0871   -8.8118    4.7553 C   0  0  0  0  0  0  0  0  0  0  0  0
  -15.4234   -7.3655    4.7219 C   0  0  0  0  0  0  0  0  0  0  0  0
  -14.6012   -6.3403    5.0528 C   0  0  0  0  0  0  0  0  0  0  0  0
  -15.0307   -5.0216    4.9614 C   0  0  0  0  0  0  0  0  0  0  0  0
  -16.3044   -4.7371    4.5326 C   0  0  0  0  0  0  0  0  0  0  0  0
  -17.1374   -5.7671    4.1998 C   0  0  0  0  0  0  0  0  0  0  0  0
  -16.7265   -7.0864    4.2830 C   0  0  0  0  0  0  0  0  0  0  0  0
  -12.6581   -9.8332    8.5254 C   0  0  0  0  0  0  0  0  0  0  0  0
  -13.3350   -8.6624    9.0936 C   0  0  0  0  0  0  0  0  0  0  0  0
  -14.6951   -8.4461    9.3183 C   0  0  0  0  0  0  0  0  0  0  0  0
  -14.8683   -7.2056    9.8178 N   0  0  0  0  0  0  0  0  0  0  0  0
  -13.6792   -6.5664    9.9460 C   0  0  0  0  0  0  0  0  0  0  0  0
  -13.3503   -5.3146   10.4255 C   0  0  0  0  0  0  0  0  0  0  0  0
  -12.0323   -4.9237   10.4694 C   0  0  0  0  0  0  0  0  0  0  0  0
  -11.0696   -5.8070   10.0271 C   0  0  0  0  0  0  0  0  0  0  0  0
  -11.4151   -7.0667    9.5450 C   0  0  0  0  0  0  0  0  0  0  0  0
  -12.7332   -7.4631    9.4983 C   0  0  0  0  0  0  0  0  0  0  0  0
  -15.8127   -6.8166   10.0595 H   0  0  0  0  0  0  0  0  0  0  0  0
  8  9  1  0  0  0
  9 10  1  0  0  0
  9  7  1  0  0  0
  7  6  1  0  0  0
  6 11  1  0  0  0
 11 12  1  0  0  0
 12 13  2  0  0  0
 12 14  1  0  0  0
 14 15  1  0  0  0
  6  2  1  0  0  0
  2  3  2  0  0  0
  2  4  1  0  0  0
  4  1  1  0  0  0
  1 29  1  0  0  0
 29 30  1  0  0  0
 30 31  2  0  0  0
 31 32  1  0  0  0
 32 33  1  0  0  0
 33 34  2  0  0  0
 34 35  1  0  0  0
 35 36  2  0  0  0
 36 37  1  0  0  0
 37 38  2  0  0  0
  1 18  1  0  0  0
 18 19  2  0  0  0
 18 20  1  0  0  0
 20 22  1  0  0  0
 22 23  1  0  0  0
 23 24  2  0  0  0
 24 25  1  0  0  0
 25 26  2  0  0  0
 26 27  1  0  0  0
 27 28  2  0  0  0
 38 30  1  0  0  0
 28 23  1  0  0  0
 38 33  1  0  0  0
 14 16  1  0  0  0
 15 17  1  0  0  0
  4  5  1  0  0  0
 32 39  1  0  0  0
 20 21  1  0  0  0
M  END
> <minimizedAffinity>
-7.91664

> <CNNscore>
0.2212935984

> <CNNaffinity>
6.8817725182

> <CNN_VS>
1.5228922367

> <CNNaffinity_variance>
0.1475685686

$$$$
[H]ON([H])C(=O)C([H])([H])[C@]([H])(C(=O)N([H])[C@]([H])(C(=O)N([H])C([H])([H])c1c([H])c([H])c([H])c([H])c1[H])C([H])([H])c1c([H])n([H])c2c([H])c([H])c([H])c([H])c12)C([H])([H])C([H])(C([H])([H])[H])C([H])([H])[H]


 39 41  0  0  0  0  0  0  0  0999 V2000
  -12.5410   -9.0019    6.0274 C   0  0  0  0  0  0  0  0  0  0  0  0
  -13.2054   -8.4393    8.4288 C   0  0  0  0  0  0  0  0  0  0  0  0
  -13.1445   -9.6422    8.7629 O   0  0  0  0  0  0  0  0  0  0  0  0
  -12.9235   -8.0596    7.1187 N   0  0  0  0  0  0  0  0  0  0  0  0
  -12.9582   -7.0642    6.8043 H   0  0  0  0  0  0  0  0  0  0  0  0
  -13.5867   -7.4278    9.4744 C   0  0  0  0  0  0  0  0  0  0  0  0
  -12.6169   -7.3322   10.5666 C   0  0  0  0  0  0  0  0  0  0  0  0
  -11.7410   -5.8700   12.3218 C   0  0  0  0  0  0  0  0  0  0  0  0
  -11.8516   -6.0790   10.7812 C   0  0  0  0  0  0  0  0  0  0  0  0
  -12.4547   -4.8059   10.2912 C   0  0  0  0  0  0  0  0  0  0  0  0
  -15.0348   -7.5763    9.7626 C   0  0  0  0  0  0  0  0  0  0  0  0
  -15.9047   -7.6095    8.5426 C   0  0  0  0  0  0  0  0  0  0  0  0
  -15.6462   -7.0048    7.4788 O   0  0  0  0  0  0  0  0  0  0  0  0
  -17.1076   -8.3676    8.5777 N   0  0  0  0  0  0  0  0  0  0  0  0
  -17.8904   -8.3921    7.4752 O   0  0  0  0  0  0  0  0  0  0  0  0
  -17.3786   -8.8818    9.4310 H   0  0  0  0  0  0  0  0  0  0  0  0
  -17.5764   -9.1817    6.9443 H   0  0  0  0  0  0  0  0  0  0  0  0
  -13.5970   -9.1059    5.0635 C   0  0  0  0  0  0  0  0  0  0  0  0
  -13.2005   -9.3919    3.8522 O   0  0  0  0  0  0  0  0  0  0  0  0
  -14.9575   -8.9377    5.2566 N   0  0  0  0  0  0  0  0  0  0  0  0
  -15.3927   -8.6960    6.1439 H   0  0  0  0  0  0  0  0  0  0  0  0
  -15.8738   -9.1134    4.1152 C   0  0  0  0  0  0  0  0  0  0  0  0
  -16.6153   -7.8288    4.0396 C   0  0  0  0  0  0  0  0  0  0  0  0
  -16.0729   -6.5915    3.9335 C   0  0  0  0  0  0  0  0  0  0  0  0
  -16.8789   -5.4621    3.8523 C   0  0  0  0  0  0  0  0  0  0  0  0
  -18.2469   -5.5852    3.8799 C   0  0  0  0  0  0  0  0  0  0  0  0
  -18.7984   -6.8301    3.9885 C   0  0  0  0  0  0  0  0  0  0  0  0
  -18.0114   -7.9661    4.0690 C   0  0  0  0  0  0  0  0  0  0  0  0
  -11.8729  -10.1354    6.6549 C   0  0  0  0  0  0  0  0  0  0  0  0
  -10.4177  -10.0853    6.8324 C   0  0  0  0  0  0  0  0  0  0  0  0
   -9.4545  -11.0521    6.5412 C   0  0  0  0  0  0  0  0  0  0  0  0
   -8.2416  -10.5920    6.9095 N   0  0  0  0  0  0  0  0  0  0  0  0
   -8.3379   -9.3471    7.4387 C   0  0  0  0  0  0  0  0  0  0  0  0
   -7.3859   -8.4737    7.9243 C   0  0  0  0  0  0  0  0  0  0  0  0
   -7.7662   -7.2351    8.3858 C   0  0  0  0  0  0  0  0  0  0  0  0
   -9.1041   -6.9017    8.3476 C   0  0  0  0  0  0  0  0  0  0  0  0
  -10.0544   -7.7927    7.8559 C   0  0  0  0  0  0  0  0  0  0  0  0
   -9.6793   -9.0343    7.3931 C   0  0  0  0  0  0  0  0  0  0  0  0
   -7.3615  -11.1517    6.7925 H   0  0  0  0  0  0  0  0  0  0  0  0
  8  9  1  0  0  0
  9 10  1  0  0  0
  9  7  1  0  0  0
  7  6  1  0  0  0
  6 11  1  0  0  0
 11 12  1  0  0  0
 12 13  2  0  0  0
 12 14  1  0  0  0
 14 15  1  0  0  0
  6  2  1  0  0  0
  2  3  2  0  0  0
  2  4  1  0  0  0
  4  1  1  0  0  0
  1 29  1  0  0  0
 29 30  1  0  0  0
 30 31  2  0  0  0
 31 32  1  0  0  0
 32 33  1  0  0  0
 33 34  2  0  0  0
 34 35  1  0  0  0
 35 36  2  0  0  0
 36 37  1  0  0  0
 37 38  2  0  0  0
  1 18  1  0  0  0
 18 19  2  0  0  0
 18 20  1  0  0  0
 20 22  1  0  0  0
 22 23  1  0  0  0
 23 24  2  0  0  0
 24 25  1  0  0  0
 25 26  2  0  0  0
 26 27  1  0  0  0
 27 28  2  0  0  0
 38 30  1  0  0  0
 28 23  1  0  0  0
 38 33  1  0  0  0
 14 16  1  0  0  0
 15 17  1  0  0  0
  4  5  1  0  0  0
 32 39  1  0  0  0
 20 21  1  0  0  0
M  END
> <minimizedAffinity>
-5.29893

> <CNNscore>
0.2200971097

> <CNNaffinity>
6.8195633888

> <CNN_VS>
1.5009661913

> <CNNaffinity_variance>
0.2242435515

$$$$
[H]ON([H])C(=O)C([H])([H])[C@]([H])(C(=O)N([H])[C@]([H])(C(=O)N([H])C([H])([H])c1c([H])c([H])c([H])c([H])c1[H])C([H])([H])c1c([H])n([H])c2c([H])c([H])c([H])c([H])c12)C([H])([H])C([H])(C([H])([H])[H])C([H])([H])[H]


 39 41  0  0  0  0  0  0  0  0999 V2000
  -13.0333   -6.9657    7.5170 C   0  0  0  0  0  0  0  0  0  0  0  0
  -10.5038   -7.2126    7.7729 C   0  0  0  0  0  0  0  0  0  0  0  0
  -10.4062   -6.0617    8.2506 O   0  0  0  0  0  0  0  0  0  0  0  0
  -11.7480   -7.7136    7.3977 N   0  0  0  0  0  0  0  0  0  0  0  0
  -11.8695   -8.6720    7.0008 H   0  0  0  0  0  0  0  0  0  0  0  0
   -9.2502   -8.0292    7.6196 C   0  0  0  0  0  0  0  0  0  0  0  0
   -9.4871   -9.4716    7.6984 C   0  0  0  0  0  0  0  0  0  0  0  0
  -11.4690  -10.4000    6.6048 C   0  0  0  0  0  0  0  0  0  0  0  0
   -9.9238  -10.2256    6.4973 C   0  0  0  0  0  0  0  0  0  0  0  0
   -9.4186  -11.6191    6.3317 C   0  0  0  0  0  0  0  0  0  0  0  0
   -8.1779   -7.3959    8.4264 C   0  0  0  0  0  0  0  0  0  0  0  0
   -6.9639   -7.0062    7.6387 C   0  0  0  0  0  0  0  0  0  0  0  0
   -5.7885   -7.2280    8.0039 O   0  0  0  0  0  0  0  0  0  0  0  0
   -7.1378   -6.3365    6.3961 N   0  0  0  0  0  0  0  0  0  0  0  0
   -6.0391   -5.9846    5.6904 O   0  0  0  0  0  0  0  0  0  0  0  0
   -8.0842   -6.1185    6.0458 H   0  0  0  0  0  0  0  0  0  0  0  0
   -5.8536   -6.7602    5.0837 H   0  0  0  0  0  0  0  0  0  0  0  0
  -13.3193   -6.6792    8.8921 C   0  0  0  0  0  0  0  0  0  0  0  0
  -13.9645   -7.6248    9.5211 O   0  0  0  0  0  0  0  0  0  0  0  0
  -13.0056   -5.5423    9.6173 N   0  0  0  0  0  0  0  0  0  0  0  0
  -12.5231   -4.7290    9.2422 H   0  0  0  0  0  0  0  0  0  0  0  0
  -13.3831   -5.4692   11.0404 C   0  0  0  0  0  0  0  0  0  0  0  0
  -12.0915   -5.5650   11.7675 C   0  0  0  0  0  0  0  0  0  0  0  0
  -10.8861   -5.8719   11.2296 C   0  0  0  0  0  0  0  0  0  0  0  0
   -9.7414   -5.9119   12.0168 C   0  0  0  0  0  0  0  0  0  0  0  0
   -9.8167   -5.6401   13.3613 C   0  0  0  0  0  0  0  0  0  0  0  0
  -11.0297   -5.3320   13.9085 C   0  0  0  0  0  0  0  0  0  0  0  0
  -12.1800   -5.2859   13.1397 C   0  0  0  0  0  0  0  0  0  0  0  0
  -13.9712   -7.5740    6.5815 C   0  0  0  0  0  0  0  0  0  0  0  0
  -14.8403   -6.6997    5.7867 C   0  0  0  0  0  0  0  0  0  0  0  0
  -14.6711   -5.3589    5.4391 C   0  0  0  0  0  0  0  0  0  0  0  0
  -15.7443   -4.9466    4.7343 N   0  0  0  0  0  0  0  0  0  0  0  0
  -16.6393   -5.9542    4.5842 C   0  0  0  0  0  0  0  0  0  0  0  0
  -17.8534   -6.0217    3.9311 C   0  0  0  0  0  0  0  0  0  0  0  0
  -18.5554   -7.2043    3.9129 C   0  0  0  0  0  0  0  0  0  0  0  0
  -18.0161   -8.2988    4.5563 C   0  0  0  0  0  0  0  0  0  0  0  0
  -16.7906   -8.2169    5.2122 C   0  0  0  0  0  0  0  0  0  0  0  0
  -16.0838   -7.0352    5.2341 C   0  0  0  0  0  0  0  0  0  0  0  0
  -15.8433   -3.9673    4.3699 H   0  0  0  0  0  0  0  0  0  0  0  0
  8  9  1  0  0  0
  9 10  1  0  0  0
  9  7  1  0  0  0
  7  6  1  0  0  0
  6 11  1  0  0  0
 11 12  1  0  0  0
 12 13  2  0  0  0
 12 14  1  0  0  0
 14 15  1  0  0  0
  6  2  1  0  0  0
  2  3  2  0  0  0
  2  4  1  0  0  0
  4  1  1  0  0  0
  1 29  1  0  0  0
 29 30  1  0  0  0
 30 31  2  0  0  0
 31 32  1  0  0  0
 32 33  1  0  0  0
 33 34  2  0  0  0
 34 35  1  0  0  0
 35 36  2  0  0  0
 36 37  1  0  0  0
 37 38  2  0  0  0
  1 18  1  0  0  0
 18 19  2  0  0  0
 18 20  1  0  0  0
 20 22  1  0  0  0
 22 23  1  0  0  0
 23 24  2  0  0  0
 24 25  1  0  0  0
 25 26  2  0  0  0
 26 27  1  0  0  0
 27 28  2  0  0  0
 38 30  1  0  0  0
 28 23  1  0  0  0
 38 33  1  0  0  0
 14 16  1  0  0  0
 15 17  1  0  0  0
  4  5  1  0  0  0
 32 39  1  0  0  0
 20 21  1  0  0  0
M  END
> <minimizedAffinity>
-2.33265

> <CNNscore>
0.2187332213

> <CNNaffinity>
6.6696128845

> <CNN_VS>
1.4588658810

> <CNNaffinity_variance>
0.2225650251

$$$$
[H]ON([H])C(=O)C([H])([H])[C@]([H])(C(=O)N([H])[C@]([H])(C(=O)N([H])C([H])([H])c1c([H])c([H])c([H])c([H])c1[H])C([H])([H])c1c([H])n([H])c2c([H])c([H])c([H])c([H])c12)C([H])([H])C([H])(C([H])([H])[H])C([H])([H])[H]


 39 41  0  0  0  0  0  0  0  0999 V2000
  -11.6489   -8.6081    7.0017 C   0  0  0  0  0  0  0  0  0  0  0  0
  -13.0081   -7.3463    8.7583 C   0  0  0  0  0  0  0  0  0  0  0  0
  -13.1971   -6.3913    7.9743 O   0  0  0  0  0  0  0  0  0  0  0  0
  -12.2677   -8.4532    8.3503 N   0  0  0  0  0  0  0  0  0  0  0  0
  -12.0938   -9.2720    8.9749 H   0  0  0  0  0  0  0  0  0  0  0  0
  -13.5997   -7.2632   10.1384 C   0  0  0  0  0  0  0  0  0  0  0  0
  -14.9192   -7.8889   10.2400 C   0  0  0  0  0  0  0  0  0  0  0  0
  -14.8990   -9.5217    8.4181 C   0  0  0  0  0  0  0  0  0  0  0  0
  -15.6520   -8.2945    9.0150 C   0  0  0  0  0  0  0  0  0  0  0  0
  -15.7033   -7.3232    7.8842 C   0  0  0  0  0  0  0  0  0  0  0  0
  -13.3719   -5.8940   10.6632 C   0  0  0  0  0  0  0  0  0  0  0  0
  -12.0398   -5.7014   11.3223 C   0  0  0  0  0  0  0  0  0  0  0  0
  -10.9612   -5.5733   10.7023 O   0  0  0  0  0  0  0  0  0  0  0  0
  -11.9758   -5.6633   12.7426 N   0  0  0  0  0  0  0  0  0  0  0  0
  -10.7710   -5.4918   13.3325 O   0  0  0  0  0  0  0  0  0  0  0  0
  -12.8321   -5.7716   13.3092 H   0  0  0  0  0  0  0  0  0  0  0  0
  -10.6684   -4.5014   13.4437 H   0  0  0  0  0  0  0  0  0  0  0  0
  -12.6328   -9.0212    6.0446 C   0  0  0  0  0  0  0  0  0  0  0  0
  -12.5230  -10.2629    5.6542 O   0  0  0  0  0  0  0  0  0  0  0  0
  -13.6606   -8.2767    5.4914 N   0  0  0  0  0  0  0  0  0  0  0  0
  -13.8435   -7.2971    5.6963 H   0  0  0  0  0  0  0  0  0  0  0  0
  -14.5771   -8.9171    4.5306 C   0  0  0  0  0  0  0  0  0  0  0  0
  -15.6706   -7.9280    4.3523 C   0  0  0  0  0  0  0  0  0  0  0  0
  -15.5341   -6.5816    4.2800 C   0  0  0  0  0  0  0  0  0  0  0  0
  -16.6393   -5.7601    4.0924 C   0  0  0  0  0  0  0  0  0  0  0  0
  -17.8951   -6.3054    3.9782 C   0  0  0  0  0  0  0  0  0  0  0  0
  -18.0381   -7.6617    4.0523 C   0  0  0  0  0  0  0  0  0  0  0  0
  -16.9486   -8.4956    4.2372 C   0  0  0  0  0  0  0  0  0  0  0  0
  -10.3553   -9.2514    7.1954 C   0  0  0  0  0  0  0  0  0  0  0  0
   -9.2273   -8.4385    7.6630 C   0  0  0  0  0  0  0  0  0  0  0  0
   -9.1600   -7.5469    8.7342 C   0  0  0  0  0  0  0  0  0  0  0  0
   -7.9337   -6.9870    8.7664 N   0  0  0  0  0  0  0  0  0  0  0  0
   -7.1590   -7.4633    7.7604 C   0  0  0  0  0  0  0  0  0  0  0  0
   -5.8489   -7.2130    7.4055 C   0  0  0  0  0  0  0  0  0  0  0  0
   -5.2934   -7.8705    6.3327 C   0  0  0  0  0  0  0  0  0  0  0  0
   -6.0739   -8.7705    5.6374 C   0  0  0  0  0  0  0  0  0  0  0  0
   -7.3946   -9.0131    6.0055 C   0  0  0  0  0  0  0  0  0  0  0  0
   -7.9561   -8.3572    7.0785 C   0  0  0  0  0  0  0  0  0  0  0  0
   -7.6517   -6.2764    9.4855 H   0  0  0  0  0  0  0  0  0  0  0  0
  8  9  1  0  0  0
  9 10  1  0  0  0
  9  7  1  0  0  0
  7  6  1  0  0  0
  6 11  1  0  0  0
 11 12  1  0  0  0
 12 13  2  0  0  0
 12 14  1  0  0  0
 14 15  1  0  0  0
  6  2  1  0  0  0
  2  3  2  0  0  0
  2  4  1  0  0  0
  4  1  1  0  0  0
  1 29  1  0  0  0
 29 30  1  0  0  0
 30 31  2  0  0  0
 31 32  1  0  0  0
 32 33  1  0  0  0
 33 34  2  0  0  0
 34 35  1  0  0  0
 35 36  2  0  0  0
 36 37  1  0  0  0
 37 38  2  0  0  0
  1 18  1  0  0  0
 18 19  2  0  0  0
 18 20  1  0  0  0
 20 22  1  0  0  0
 22 23  1  0  0  0
 23 24  2  0  0  0
 24 25  1  0  0  0
 25 26  2  0  0  0
 26 27  1  0  0  0
 27 28  2  0  0  0
 38 30  1  0  0  0
 28 23  1  0  0  0
 38 33  1  0  0  0
 14 16  1  0  0  0
 15 17  1  0  0  0
  4  5  1  0  0  0
 32 39  1  0  0  0
 20 21  1  0  0  0
M  END
> <minimizedAffinity>
-5.41240

> <CNNscore>
0.2177824229

> <CNNaffinity>
6.6601724625

> <CNN_VS>
1.4504685402

> <CNNaffinity_variance>
0.1345299631

$$$$
[H]ON([H])C(=O)C([H])([H])[C@]([H])(C(=O)N([H])[C@]([H])(C(=O)N([H])C([H])([H])c1c([H])c([H])c([H])c([H])c1[H])C([H])([H])c1c([H])n([H])c2c([H])c([H])c([H])c([H])c12)C([H])([H])C([H])(C([H])([H])[H])C([H])([H])[H]


 39 41  0  0  0  0  0  0  0  0999 V2000
  -13.7065   -7.0336    7.5281 C   0  0  0  0  0  0  0  0  0  0  0  0
  -11.4467   -8.0878    8.0816 C   0  0  0  0  0  0  0  0  0  0  0  0
  -11.8938   -8.5683    9.1454 O   0  0  0  0  0  0  0  0  0  0  0  0
  -12.2722   -7.3348    7.2501 N   0  0  0  0  0  0  0  0  0  0  0  0
  -11.9359   -6.9226    6.3513 H   0  0  0  0  0  0  0  0  0  0  0  0
  -10.0070   -8.3468    7.7325 C   0  0  0  0  0  0  0  0  0  0  0  0
   -9.2402   -7.1221    7.4978 C   0  0  0  0  0  0  0  0  0  0  0  0
   -7.1034   -7.2920    8.6774 C   0  0  0  0  0  0  0  0  0  0  0  0
   -7.7746   -7.1874    7.2745 C   0  0  0  0  0  0  0  0  0  0  0  0
   -7.1148   -6.0039    6.6511 C   0  0  0  0  0  0  0  0  0  0  0  0
   -9.9557   -9.4666    6.7602 C   0  0  0  0  0  0  0  0  0  0  0  0
   -9.0440  -10.5871    7.1598 C   0  0  0  0  0  0  0  0  0  0  0  0
   -9.1789  -11.7714    6.7812 O   0  0  0  0  0  0  0  0  0  0  0  0
   -7.9525  -10.3076    8.0278 N   0  0  0  0  0  0  0  0  0  0  0  0
   -7.1344  -11.3227    8.3874 O   0  0  0  0  0  0  0  0  0  0  0  0
   -7.7946   -9.3501    8.3801 H   0  0  0  0  0  0  0  0  0  0  0  0
   -6.4030  -11.3294    7.7027 H   0  0  0  0  0  0  0  0  0  0  0  0
  -13.8842   -6.6731    8.9041 C   0  0  0  0  0  0  0  0  0  0  0  0
  -14.6976   -7.4497    9.5684 O   0  0  0  0  0  0  0  0  0  0  0  0
  -13.3137   -5.6195    9.5979 N   0  0  0  0  0  0  0  0  0  0  0  0
  -12.6799   -4.9337    9.1941 H   0  0  0  0  0  0  0  0  0  0  0  0
  -13.6248   -5.4472   11.0285 C   0  0  0  0  0  0  0  0  0  0  0  0
  -12.3044   -5.5320   11.7033 C   0  0  0  0  0  0  0  0  0  0  0  0
  -12.0698   -5.4029   13.0318 C   0  0  0  0  0  0  0  0  0  0  0  0
  -10.7838   -5.5218   13.5455 C   0  0  0  0  0  0  0  0  0  0  0  0
   -9.7246   -5.7723   12.7072 C   0  0  0  0  0  0  0  0  0  0  0  0
   -9.9557   -5.9015   11.3673 C   0  0  0  0  0  0  0  0  0  0  0  0
  -11.2299   -5.7877   10.8381 C   0  0  0  0  0  0  0  0  0  0  0  0
  -14.4987   -8.0322    6.8209 C   0  0  0  0  0  0  0  0  0  0  0  0
  -15.6550   -7.5870    6.0357 C   0  0  0  0  0  0  0  0  0  0  0  0
  -16.8981   -8.1969    5.8628 C   0  0  0  0  0  0  0  0  0  0  0  0
  -17.6414   -7.4531    5.0187 N   0  0  0  0  0  0  0  0  0  0  0  0
  -16.9558   -6.3568    4.6099 C   0  0  0  0  0  0  0  0  0  0  0  0
  -17.2998   -5.3080    3.7813 C   0  0  0  0  0  0  0  0  0  0  0  0
  -16.4011   -4.2914    3.5558 C   0  0  0  0  0  0  0  0  0  0  0  0
  -15.1692   -4.3541    4.1732 C   0  0  0  0  0  0  0  0  0  0  0  0
  -14.8346   -5.4184    5.0062 C   0  0  0  0  0  0  0  0  0  0  0  0
  -15.7303   -6.4391    5.2351 C   0  0  0  0  0  0  0  0  0  0  0  0
  -18.6156   -7.7195    4.7333 H   0  0  0  0  0  0  0  0  0  0  0  0
  8  9  1  0  0  0
  9 10  1  0  0  0
  9  7  1  0  0  0
  7  6  1  0  0  0
  6 11  1  0  0  0
 11 12  1  0  0  0
 12 13  2  0  0  0
 12 14  1  0  0  0
 14 15  1  0  0  0
  6  2  1  0  0  0
  2  3  2  0  0  0
  2  4  1  0  0  0
  4  1  1  0  0  0
  1 29  1  0  0  0
 29 30  1  0  0  0
 30 31  2  0  0  0
 31 32  1  0  0  0
 32 33  1  0  0  0
 33 34  2  0  0  0
 34 35  1  0  0  0
 35 36  2  0  0  0
 36 37  1  0  0  0
 37 38  2  0  0  0
  1 18  1  0  0  0
 18 19  2  0  0  0
 18 20  1  0  0  0
 20 22  1  0  0  0
 22 23  1  0  0  0
 23 24  2  0  0  0
 24 25  1  0  0  0
 25 26  2  0  0  0
 26 27  1  0  0  0
 27 28  2  0  0  0
 38 30  1  0  0  0
 28 23  1  0  0  0
 38 33  1  0  0  0
 14 16  1  0  0  0
 15 17  1  0  0  0
  4  5  1  0  0  0
 32 39  1  0  0  0
 20 21  1  0  0  0
M  END
> <minimizedAffinity>
-1.36457

> <CNNscore>
0.2175756544

> <CNNaffinity>
6.7700195312

> <CNN_VS>
1.4729914665

> <CNNaffinity_variance>
0.2489731014

$$$$
[H]c1nc([H])c(-c2nc(-c3noc(=O)n3[H])c([H])c3nc(N4C([H])([H])C([H])([H])OC([H])([H])[C@]4([H])C([H])([H])[H])n(C([H])([H])[C@]4([H])C([H])([H])C([H])([H])[C@@]([H])(C([H])([H])[H])C([H])([H])C4([H])[H])c23)c([H])c1Cl


 38 43  0  0  0  0  0  0  0  0999 V2000
  -11.4099   -8.1761    7.3910 N   0  0  0  0  0  0  0  0  0  0  0  0
  -12.7069   -8.5726    7.1340 C   0  0  0  0  0  0  0  0  0  0  0  0
  -12.7328   -9.7482    6.5039 N   0  0  0  0  0  0  0  0  0  0  0  0
  -11.4842  -10.1567    6.3258 C   0  0  0  0  0  0  0  0  0  0  0  0
  -10.9323  -11.2887    5.7435 C   0  0  0  0  0  0  0  0  0  0  0  0
   -9.5786  -11.5010    5.6735 C   0  0  0  0  0  0  0  0  0  0  0  0
   -8.8128  -10.5491    6.1985 N   0  0  0  0  0  0  0  0  0  0  0  0
   -9.3076   -9.4022    6.7896 C   0  0  0  0  0  0  0  0  0  0  0  0
  -10.6498   -9.1623    6.8823 C   0  0  0  0  0  0  0  0  0  0  0  0
   -8.2902   -8.5160    7.2275 C   0  0  0  0  0  0  0  0  0  0  0  0
   -7.9387   -8.5163    8.5566 C   0  0  0  0  0  0  0  0  0  0  0  0
   -6.9069   -7.8129    9.0374 N   0  0  0  0  0  0  0  0  0  0  0  0
   -6.1731   -7.0701    8.2002 C   0  0  0  0  0  0  0  0  0  0  0  0
   -6.4624   -7.0191    6.8592 C   0  0  0  0  0  0  0  0  0  0  0  0
   -5.5264   -6.0598    5.7341 Cl  0  0  0  0  0  0  0  0  0  0  0  0
   -7.5479   -7.7669    6.3914 C   0  0  0  0  0  0  0  0  0  0  0  0
   -9.0262  -12.7082    5.0551 C   0  0  0  0  0  0  0  0  0  0  0  0
   -8.8150  -13.8685    5.6598 N   0  0  0  0  0  0  0  0  0  0  0  0
   -8.3068  -14.7309    4.7967 O   0  0  0  0  0  0  0  0  0  0  0  0
   -8.1922  -14.1315    3.6473 C   0  0  0  0  0  0  0  0  0  0  0  0
   -7.7483  -14.6390    2.5969 O   0  0  0  0  0  0  0  0  0  0  0  0
   -8.6301  -12.8807    3.7822 N   0  0  0  0  0  0  0  0  0  0  0  0
   -8.6739  -12.1296    3.0437 H   0  0  0  0  0  0  0  0  0  0  0  0
  -13.9130   -7.8701    7.4511 N   0  0  0  0  0  0  0  0  0  0  0  0
  -14.6227   -8.2902    8.6245 C   0  0  0  0  0  0  0  0  0  0  0  0
  -16.0854   -8.3872    8.3099 C   0  0  0  0  0  0  0  0  0  0  0  0
  -16.5574   -7.2753    7.6162 O   0  0  0  0  0  0  0  0  0  0  0  0
  -15.9240   -7.1026    6.4046 C   0  0  0  0  0  0  0  0  0  0  0  0
  -14.4685   -6.7925    6.6826 C   0  0  0  0  0  0  0  0  0  0  0  0
  -13.7133   -6.5075    5.4078 C   0  0  0  0  0  0  0  0  0  0  0  0
  -11.0571   -6.9836    8.0633 C   0  0  0  0  0  0  0  0  0  0  0  0
  -13.4271   -4.2388   11.5206 C   0  0  0  0  0  0  0  0  0  0  0  0
  -12.6833   -5.5293   11.7804 C   0  0  0  0  0  0  0  0  0  0  0  0
  -13.3882   -6.7009   11.0991 C   0  0  0  0  0  0  0  0  0  0  0  0
  -12.3316   -7.4409   10.2572 C   0  0  0  0  0  0  0  0  0  0  0  0
  -11.9131   -6.5214    9.2031 C   0  0  0  0  0  0  0  0  0  0  0  0
  -11.1227   -5.3371    9.8264 C   0  0  0  0  0  0  0  0  0  0  0  0
  -11.2725   -5.3632   11.3119 C   0  0  0  0  0  0  0  0  0  0  0  0
 32 33  1  0  0  0
 33 34  1  0  0  0
 34 35  1  0  0  0
 35 36  1  0  0  0
 36 31  1  0  0  0
 31  1  1  0  0  0
  1  2  1  0  0  0
  2  3  2  0  0  0
  3  4  1  0  0  0
  4  5  2  0  0  0
  5  6  1  0  0  0
  6  7  2  0  0  0
  7  8  1  0  0  0
  8 10  1  0  0  0
 10 11  2  0  0  0
 11 12  1  0  0  0
 12 13  2  0  0  0
 13 14  1  0  0  0
 14 15  1  0  0  0
 14 16  2  0  0  0
  8  9  2  0  0  0
  6 17  1  0  0  0
 17 18  2  0  0  0
 18 19  1  0  0  0
 19 20  1  0  0  0
 20 21  2  0  0  0
 20 22  1  0  0  0
  2 24  1  0  0  0
 24 25  1  0  0  0
 25 26  1  0  0  0
 26 27  1  0  0  0
 27 28  1  0  0  0
 28 29  1  0  0  0
 29 30  1  0  0  0
 36 37  1  0  0  0
 37 38  1  0  0  0
 38 33  1  0  0  0
  9  1  1  0  0  0
 22 17  1  0  0  0
 29 24  1  0  0  0
  9  4  1  0  0  0
 16 10  1  0  0  0
 22 23  1  0  0  0
M  END
> <minimizedAffinity>
8.28812

> <CNNscore>
0.4239023626

> <CNNaffinity>
7.6270494461

> <CNN_VS>
3.2331242561

> <CNNaffinity_variance>
0.1924584955

$$$$
[H]c1nc([H])c(-c2nc(-c3noc(=O)n3[H])c([H])c3nc(N4C([H])([H])C([H])([H])OC([H])([H])[C@]4([H])C([H])([H])[H])n(C([H])([H])[C@]4([H])C([H])([H])C([H])([H])[C@@]([H])(C([H])([H])[H])C([H])([H])C4([H])[H])c23)c([H])c1Cl


 38 43  0  0  0  0  0  0  0  0999 V2000
  -13.9455   -7.4657    7.4899 N   0  0  0  0  0  0  0  0  0  0  0  0
  -15.2129   -7.0516    7.8469 C   0  0  0  0  0  0  0  0  0  0  0  0
  -15.2035   -6.4528    9.0391 N   0  0  0  0  0  0  0  0  0  0  0  0
  -13.9603   -6.4534    9.4993 C   0  0  0  0  0  0  0  0  0  0  0  0
  -13.3814   -5.9693   10.6637 C   0  0  0  0  0  0  0  0  0  0  0  0
  -12.0405   -6.0867   10.9290 C   0  0  0  0  0  0  0  0  0  0  0  0
  -11.3151   -6.7003    9.9986 N   0  0  0  0  0  0  0  0  0  0  0  0
  -11.8383   -7.2019    8.8220 C   0  0  0  0  0  0  0  0  0  0  0  0
  -13.1675   -7.0962    8.5230 C   0  0  0  0  0  0  0  0  0  0  0  0
  -10.8723   -7.8578    8.0164 C   0  0  0  0  0  0  0  0  0  0  0  0
   -9.7270   -7.1800    7.6717 C   0  0  0  0  0  0  0  0  0  0  0  0
   -8.7055   -7.7560    7.0273 N   0  0  0  0  0  0  0  0  0  0  0  0
   -8.7859   -9.0502    6.6958 C   0  0  0  0  0  0  0  0  0  0  0  0
   -9.8976   -9.7934    7.0061 C   0  0  0  0  0  0  0  0  0  0  0  0
  -10.0392  -11.4871    6.5894 Cl  0  0  0  0  0  0  0  0  0  0  0  0
  -10.9462   -9.1588    7.6799 C   0  0  0  0  0  0  0  0  0  0  0  0
  -11.4584   -5.5624   12.1664 C   0  0  0  0  0  0  0  0  0  0  0  0
  -11.2030   -6.2581   13.2652 N   0  0  0  0  0  0  0  0  0  0  0  0
  -10.6811   -5.4614   14.1817 O   0  0  0  0  0  0  0  0  0  0  0  0
  -10.6013   -4.2644   13.6776 C   0  0  0  0  0  0  0  0  0  0  0  0
  -10.1567   -3.2527   14.2581 O   0  0  0  0  0  0  0  0  0  0  0  0
  -11.0757   -4.3017   12.4334 N   0  0  0  0  0  0  0  0  0  0  0  0
  -11.1533   -3.5039   11.7486 H   0  0  0  0  0  0  0  0  0  0  0  0
  -16.4261   -7.2179    7.1058 N   0  0  0  0  0  0  0  0  0  0  0  0
  -17.1000   -8.4776    7.2327 C   0  0  0  0  0  0  0  0  0  0  0  0
  -17.5209   -8.9526    5.8745 C   0  0  0  0  0  0  0  0  0  0  0  0
  -18.1314   -7.9507    5.1236 O   0  0  0  0  0  0  0  0  0  0  0  0
  -17.2976   -6.8759    4.9031 C   0  0  0  0  0  0  0  0  0  0  0  0
  -17.0091   -6.2308    6.2421 C   0  0  0  0  0  0  0  0  0  0  0  0
  -16.1641   -4.9907    6.0847 C   0  0  0  0  0  0  0  0  0  0  0  0
  -13.6295   -8.1146    6.2743 C   0  0  0  0  0  0  0  0  0  0  0  0
  -16.7799   -8.2194    2.3798 C   0  0  0  0  0  0  0  0  0  0  0  0
  -15.3388   -7.7642    2.3332 C   0  0  0  0  0  0  0  0  0  0  0  0
  -15.1534   -6.4868    3.1504 C   0  0  0  0  0  0  0  0  0  0  0  0
  -13.9872   -6.7353    4.1256 C   0  0  0  0  0  0  0  0  0  0  0  0
  -14.4261   -7.7758    5.0511 C   0  0  0  0  0  0  0  0  0  0  0  0
  -14.5647   -9.1253    4.2924 C   0  0  0  0  0  0  0  0  0  0  0  0
  -14.4746   -8.8832    2.8216 C   0  0  0  0  0  0  0  0  0  0  0  0
 32 33  1  0  0  0
 33 34  1  0  0  0
 34 35  1  0  0  0
 35 36  1  0  0  0
 36 31  1  0  0  0
 31  1  1  0  0  0
  1  2  1  0  0  0
  2  3  2  0  0  0
  3  4  1  0  0  0
  4  5  2  0  0  0
  5  6  1  0  0  0
  6  7  2  0  0  0
  7  8  1  0  0  0
  8 10  1  0  0  0
 10 11  2  0  0  0
 11 12  1  0  0  0
 12 13  2  0  0  0
 13 14  1  0  0  0
 14 15  1  0  0  0
 14 16  2  0  0  0
  8  9  2  0  0  0
  6 17  1  0  0  0
 17 18  2  0  0  0
 18 19  1  0  0  0
 19 20  1  0  0  0
 20 21  2  0  0  0
 20 22  1  0  0  0
  2 24  1  0  0  0
 24 25  1  0  0  0
 25 26  1  0  0  0
 26 27  1  0  0  0
 27 28  1  0  0  0
 28 29  1  0  0  0
 29 30  1  0  0  0
 36 37  1  0  0  0
 37 38  1  0  0  0
 38 33  1  0  0  0
  9  1  1  0  0  0
 22 17  1  0  0  0
 29 24  1  0  0  0
  9  4  1  0  0  0
 16 10  1  0  0  0
 22 23  1  0  0  0
M  END
> <minimizedAffinity>
10.61674

> <CNNscore>
0.3585814834

> <CNNaffinity>
7.9105482101

> <CNN_VS>
2.8365762234

> <CNNaffinity_variance>
0.5230647922

$$$$
[H]c1nc([H])c(-c2nc(-c3noc(=O)n3[H])c([H])c3nc(N4C([H])([H])C([H])([H])OC([H])([H])[C@]4([H])C([H])([H])[H])n(C([H])([H])[C@]4([H])C([H])([H])C([H])([H])[C@@]([H])(C([H])([H])[H])C([H])([H])C4([H])[H])c23)c([H])c1Cl


 38 43  0  0  0  0  0  0  0  0999 V2000
  -13.4110   -7.2439    6.8975 N   0  0  0  0  0  0  0  0  0  0  0  0
  -14.5089   -6.4130    6.9950 C   0  0  0  0  0  0  0  0  0  0  0  0
  -14.5005   -5.7406    8.1472 N   0  0  0  0  0  0  0  0  0  0  0  0
  -13.4242   -6.0978    8.8339 C   0  0  0  0  0  0  0  0  0  0  0  0
  -12.9210   -5.7192   10.0702 C   0  0  0  0  0  0  0  0  0  0  0  0
  -11.7602   -6.2361   10.5877 C   0  0  0  0  0  0  0  0  0  0  0  0
  -11.1357   -7.1342    9.8316 N   0  0  0  0  0  0  0  0  0  0  0  0
  -11.5910   -7.5484    8.5944 C   0  0  0  0  0  0  0  0  0  0  0  0
  -12.7391   -7.0494    8.0464 C   0  0  0  0  0  0  0  0  0  0  0  0
  -10.7783   -8.5521    8.0076 C   0  0  0  0  0  0  0  0  0  0  0  0
  -11.3791   -9.6852    7.5126 C   0  0  0  0  0  0  0  0  0  0  0  0
  -10.7136  -10.6231    6.8285 N   0  0  0  0  0  0  0  0  0  0  0  0
   -9.4030  -10.4668    6.6071 C   0  0  0  0  0  0  0  0  0  0  0  0
   -8.7331   -9.3616    7.0700 C   0  0  0  0  0  0  0  0  0  0  0  0
   -7.0207   -9.1222    6.8004 Cl  0  0  0  0  0  0  0  0  0  0  0  0
   -9.4602   -8.4014    7.7812 C   0  0  0  0  0  0  0  0  0  0  0  0
  -11.2527   -5.8138   11.8950 C   0  0  0  0  0  0  0  0  0  0  0  0
  -11.9858   -5.4291   12.9300 N   0  0  0  0  0  0  0  0  0  0  0  0
  -11.1939   -5.1187   13.9417 O   0  0  0  0  0  0  0  0  0  0  0  0
   -9.9630   -5.3020   13.5616 C   0  0  0  0  0  0  0  0  0  0  0  0
   -8.9445   -5.1095   14.2573 O   0  0  0  0  0  0  0  0  0  0  0  0
   -9.9738   -5.7311   12.3006 N   0  0  0  0  0  0  0  0  0  0  0  0
   -9.1458   -5.9735   11.6947 H   0  0  0  0  0  0  0  0  0  0  0  0
  -15.5659   -6.2488    6.0439 N   0  0  0  0  0  0  0  0  0  0  0  0
  -15.2836   -5.4491    4.8872 C   0  0  0  0  0  0  0  0  0  0  0  0
  -16.4278   -4.5118    4.6423 C   0  0  0  0  0  0  0  0  0  0  0  0
  -17.6649   -5.1476    4.7187 O   0  0  0  0  0  0  0  0  0  0  0  0
  -17.8950   -5.7044    5.9581 C   0  0  0  0  0  0  0  0  0  0  0  0
  -16.8815   -6.8098    6.1650 C   0  0  0  0  0  0  0  0  0  0  0  0
  -17.1130   -7.5315    7.4697 C   0  0  0  0  0  0  0  0  0  0  0  0
  -13.1303   -8.0702    5.7853 C   0  0  0  0  0  0  0  0  0  0  0  0
  -17.4429   -8.5171    3.2743 C   0  0  0  0  0  0  0  0  0  0  0  0
  -16.2128   -9.3719    3.0686 C   0  0  0  0  0  0  0  0  0  0  0  0
  -15.0663   -8.5345    2.5041 C   0  0  0  0  0  0  0  0  0  0  0  0
  -13.8418   -8.7706    3.4083 C   0  0  0  0  0  0  0  0  0  0  0  0
  -14.1721   -8.2166    4.7182 C   0  0  0  0  0  0  0  0  0  0  0  0
  -15.2884   -9.0716    5.3807 C   0  0  0  0  0  0  0  0  0  0  0  0
  -15.8606  -10.0135    4.3731 C   0  0  0  0  0  0  0  0  0  0  0  0
 32 33  1  0  0  0
 33 34  1  0  0  0
 34 35  1  0  0  0
 35 36  1  0  0  0
 36 31  1  0  0  0
 31  1  1  0  0  0
  1  2  1  0  0  0
  2  3  2  0  0  0
  3  4  1  0  0  0
  4  5  2  0  0  0
  5  6  1  0  0  0
  6  7  2  0  0  0
  7  8  1  0  0  0
  8 10  1  0  0  0
 10 11  2  0  0  0
 11 12  1  0  0  0
 12 13  2  0  0  0
 13 14  1  0  0  0
 14 15  1  0  0  0
 14 16  2  0  0  0
  8  9  2  0  0  0
  6 17  1  0  0  0
 17 18  2  0  0  0
 18 19  1  0  0  0
 19 20  1  0  0  0
 20 21  2  0  0  0
 20 22  1  0  0  0
  2 24  1  0  0  0
 24 25  1  0  0  0
 25 26  1  0  0  0
 26 27  1  0  0  0
 27 28  1  0  0  0
 28 29  1  0  0  0
 29 30  1  0  0  0
 36 37  1  0  0  0
 37 38  1  0  0  0
 38 33  1  0  0  0
  9  1  1  0  0  0
 22 17  1  0  0  0
 29 24  1  0  0  0
  9  4  1  0  0  0
 16 10  1  0  0  0
 22 23  1  0  0  0
M  END
> <minimizedAffinity>
2.44103

> <CNNscore>
0.2851382196

> <CNNaffinity>
7.8171401024

> <CNN_VS>
2.2289655209

> <CNNaffinity_variance>
0.2791700363

$$$$
[H]c1nc([H])c(-c2nc(-c3noc(=O)n3[H])c([H])c3nc(N4C([H])([H])C([H])([H])OC([H])([H])[C@]4([H])C([H])([H])[H])n(C([H])([H])[C@]4([H])C([H])([H])C([H])([H])[C@@]([H])(C([H])([H])[H])C([H])([H])C4([H])[H])c23)c([H])c1Cl


 38 43  0  0  0  0  0  0  0  0999 V2000
   -8.3097   -7.4565    8.6594 N   0  0  0  0  0  0  0  0  0  0  0  0
   -9.0603   -8.1724    7.7486 C   0  0  0  0  0  0  0  0  0  0  0  0
   -8.2859   -8.7016    6.7998 N   0  0  0  0  0  0  0  0  0  0  0  0
   -7.0288   -8.3594    7.0447 C   0  0  0  0  0  0  0  0  0  0  0  0
   -5.8308   -8.6306    6.3995 C   0  0  0  0  0  0  0  0  0  0  0  0
   -4.6236   -8.1577    6.8485 C   0  0  0  0  0  0  0  0  0  0  0  0
   -4.6639   -7.4128    7.9492 N   0  0  0  0  0  0  0  0  0  0  0  0
   -5.8270   -7.1105    8.6315 C   0  0  0  0  0  0  0  0  0  0  0  0
   -7.0449   -7.5704    8.2161 C   0  0  0  0  0  0  0  0  0  0  0  0
   -5.6156   -6.2573    9.7449 C   0  0  0  0  0  0  0  0  0  0  0  0
   -6.1773   -6.5943   10.9536 C   0  0  0  0  0  0  0  0  0  0  0  0
   -5.9278   -5.9245   12.0849 N   0  0  0  0  0  0  0  0  0  0  0  0
   -5.0959   -4.8765   12.0562 C   0  0  0  0  0  0  0  0  0  0  0  0
   -4.4965   -4.4794   10.8868 C   0  0  0  0  0  0  0  0  0  0  0  0
   -3.4037   -3.1148   10.8100 Cl  0  0  0  0  0  0  0  0  0  0  0  0
   -4.7801   -5.2024    9.7236 C   0  0  0  0  0  0  0  0  0  0  0  0
   -3.3751   -8.4641    6.1469 C   0  0  0  0  0  0  0  0  0  0  0  0
   -2.4334   -7.5934    5.8126 N   0  0  0  0  0  0  0  0  0  0  0  0
   -1.4509   -8.2218    5.1907 O   0  0  0  0  0  0  0  0  0  0  0  0
   -1.7571   -9.4848    5.1255 C   0  0  0  0  0  0  0  0  0  0  0  0
   -1.0620  -10.3818    4.6055 O   0  0  0  0  0  0  0  0  0  0  0  0
   -2.9416   -9.6589    5.7094 N   0  0  0  0  0  0  0  0  0  0  0  0
   -3.4765  -10.5598    5.8270 H   0  0  0  0  0  0  0  0  0  0  0  0
  -10.4797   -8.3568    7.7410 N   0  0  0  0  0  0  0  0  0  0  0  0
  -10.9859   -9.5462    8.3624 C   0  0  0  0  0  0  0  0  0  0  0  0
  -12.0256  -10.1635    7.4759 C   0  0  0  0  0  0  0  0  0  0  0  0
  -12.9407   -9.2296    6.9955 O   0  0  0  0  0  0  0  0  0  0  0  0
  -12.3411   -8.2450    6.2406 C   0  0  0  0  0  0  0  0  0  0  0  0
  -11.4274   -7.4537    7.1523 C   0  0  0  0  0  0  0  0  0  0  0  0
  -10.7882   -6.2981    6.4226 C   0  0  0  0  0  0  0  0  0  0  0  0
   -8.8422   -6.7952    9.7897 C   0  0  0  0  0  0  0  0  0  0  0  0
  -13.6196   -5.5303    8.9651 C   0  0  0  0  0  0  0  0  0  0  0  0
  -12.8873   -5.3904   10.2804 C   0  0  0  0  0  0  0  0  0  0  0  0
  -12.5321   -6.7648   10.8451 C   0  0  0  0  0  0  0  0  0  0  0  0
  -11.0247   -6.7515   11.1616 C   0  0  0  0  0  0  0  0  0  0  0  0
  -10.3273   -6.6196    9.8856 C   0  0  0  0  0  0  0  0  0  0  0  0
  -10.5903   -5.2082    9.2900 C   0  0  0  0  0  0  0  0  0  0  0  0
  -11.6795   -4.5362   10.0594 C   0  0  0  0  0  0  0  0  0  0  0  0
 32 33  1  0  0  0
 33 34  1  0  0  0
 34 35  1  0  0  0
 35 36  1  0  0  0
 36 31  1  0  0  0
 31  1  1  0  0  0
  1  2  1  0  0  0
  2  3  2  0  0  0
  3  4  1  0  0  0
  4  5  2  0  0  0
  5  6  1  0  0  0
  6  7  2  0  0  0
  7  8  1  0  0  0
  8 10  1  0  0  0
 10 11  2  0  0  0
 11 12  1  0  0  0
 12 13  2  0  0  0
 13 14  1  0  0  0
 14 15  1  0  0  0
 14 16  2  0  0  0
  8  9  2  0  0  0
  6 17  1  0  0  0
 17 18  2  0  0  0
 18 19  1  0  0  0
 19 20  1  0  0  0
 20 21  2  0  0  0
 20 22  1  0  0  0
  2 24  1  0  0  0
 24 25  1  0  0  0
 25 26  1  0  0  0
 26 27  1  0  0  0
 27 28  1  0  0  0
 28 29  1  0  0  0
 29 30  1  0  0  0
 36 37  1  0  0  0
 37 38  1  0  0  0
 38 33  1  0  0  0
  9  1  1  0  0  0
 22 17  1  0  0  0
 29 24  1  0  0  0
  9  4  1  0  0  0
 16 10  1  0  0  0
 22 23  1  0  0  0
M  END
> <minimizedAffinity>
5.77652

> <CNNscore>
0.2628070414

> <CNNaffinity>
7.0125069618

> <CNN_VS>
1.8429361582

> <CNNaffinity_variance>
0.4985412061

$$$$
[H]c1nc([H])c(-c2nc(-c3noc(=O)n3[H])c([H])c3nc(N4C([H])([H])C([H])([H])OC([H])([H])[C@]4([H])C([H])([H])[H])n(C([H])([H])[C@]4([H])C([H])([H])C([H])([H])[C@@]([H])(C([H])([H])[H])C([H])([H])C4([H])[H])c23)c([H])c1Cl


 38 43  0  0  0  0  0  0  0  0999 V2000
  -11.4832   -7.8428    8.2339 N   0  0  0  0  0  0  0  0  0  0  0  0
  -10.6898   -7.6877    7.1150 C   0  0  0  0  0  0  0  0  0  0  0  0
  -11.4259   -7.6811    6.0024 N   0  0  0  0  0  0  0  0  0  0  0  0
  -12.6991   -7.8303    6.3405 C   0  0  0  0  0  0  0  0  0  0  0  0
  -13.8737   -7.8886    5.6043 C   0  0  0  0  0  0  0  0  0  0  0  0
  -15.1056   -8.0514    6.1860 C   0  0  0  0  0  0  0  0  0  0  0  0
  -15.1137   -8.1545    7.5117 N   0  0  0  0  0  0  0  0  0  0  0  0
  -13.9758   -8.1041    8.2943 C   0  0  0  0  0  0  0  0  0  0  0  0
  -12.7342   -7.9362    7.7485 C   0  0  0  0  0  0  0  0  0  0  0  0
  -14.2394   -8.2897    9.6757 C   0  0  0  0  0  0  0  0  0  0  0  0
  -15.3351   -7.6712   10.2297 C   0  0  0  0  0  0  0  0  0  0  0  0
  -15.7368   -7.8899   11.4873 N   0  0  0  0  0  0  0  0  0  0  0  0
  -15.0521   -8.7466   12.2544 C   0  0  0  0  0  0  0  0  0  0  0  0
  -13.9470   -9.4025   11.7717 C   0  0  0  0  0  0  0  0  0  0  0  0
  -13.0267  -10.5294   12.7441 Cl  0  0  0  0  0  0  0  0  0  0  0  0
  -13.5558   -9.1499   10.4528 C   0  0  0  0  0  0  0  0  0  0  0  0
  -16.3283   -8.1058    5.3818 C   0  0  0  0  0  0  0  0  0  0  0  0
  -17.4833   -8.6401    5.7521 N   0  0  0  0  0  0  0  0  0  0  0  0
  -18.3639   -8.5106    4.7750 O   0  0  0  0  0  0  0  0  0  0  0  0
  -17.7814   -7.8988    3.7852 C   0  0  0  0  0  0  0  0  0  0  0  0
  -18.3088   -7.6047    2.6928 O   0  0  0  0  0  0  0  0  0  0  0  0
  -16.5230   -7.6386    4.1365 N   0  0  0  0  0  0  0  0  0  0  0  0
  -15.7812   -7.1536    3.5655 H   0  0  0  0  0  0  0  0  0  0  0  0
   -9.2648   -7.5616    7.0668 N   0  0  0  0  0  0  0  0  0  0  0  0
   -8.7342   -6.2512    6.8249 C   0  0  0  0  0  0  0  0  0  0  0  0
   -7.6407   -6.3411    5.8032 C   0  0  0  0  0  0  0  0  0  0  0  0
   -6.7468   -7.3763    6.0670 O   0  0  0  0  0  0  0  0  0  0  0  0
   -7.3581   -8.6114    6.0715 C   0  0  0  0  0  0  0  0  0  0  0  0
   -8.3334   -8.6416    7.2290 C   0  0  0  0  0  0  0  0  0  0  0  0
   -8.9918   -9.9930    7.3587 C   0  0  0  0  0  0  0  0  0  0  0  0
  -10.9971   -7.8691    9.5611 C   0  0  0  0  0  0  0  0  0  0  0  0
  -13.8462   -4.5332   11.9814 C   0  0  0  0  0  0  0  0  0  0  0  0
  -12.3652   -4.3931   11.7112 C   0  0  0  0  0  0  0  0  0  0  0  0
  -11.5770   -5.4497   12.4835 C   0  0  0  0  0  0  0  0  0  0  0  0
  -10.6661   -6.1690   11.4708 C   0  0  0  0  0  0  0  0  0  0  0  0
  -11.5435   -6.8805   10.5458 C   0  0  0  0  0  0  0  0  0  0  0  0
  -12.3248   -5.8571    9.6751 C   0  0  0  0  0  0  0  0  0  0  0  0
  -12.1443   -4.4844   10.2346 C   0  0  0  0  0  0  0  0  0  0  0  0
 32 33  1  0  0  0
 33 34  1  0  0  0
 34 35  1  0  0  0
 35 36  1  0  0  0
 36 31  1  0  0  0
 31  1  1  0  0  0
  1  2  1  0  0  0
  2  3  2  0  0  0
  3  4  1  0  0  0
  4  5  2  0  0  0
  5  6  1  0  0  0
  6  7  2  0  0  0
  7  8  1  0  0  0
  8 10  1  0  0  0
 10 11  2  0  0  0
 11 12  1  0  0  0
 12 13  2  0  0  0
 13 14  1  0  0  0
 14 15  1  0  0  0
 14 16  2  0  0  0
  8  9  2  0  0  0
  6 17  1  0  0  0
 17 18  2  0  0  0
 18 19  1  0  0  0
 19 20  1  0  0  0
 20 21  2  0  0  0
 20 22  1  0  0  0
  2 24  1  0  0  0
 24 25  1  0  0  0
 25 26  1  0  0  0
 26 27  1  0  0  0
 27 28  1  0  0  0
 28 29  1  0  0  0
 29 30  1  0  0  0
 36 37  1  0  0  0
 37 38  1  0  0  0
 38 33  1  0  0  0
  9  1  1  0  0  0
 22 17  1  0  0  0
 29 24  1  0  0  0
  9  4  1  0  0  0
 16 10  1  0  0  0
 22 23  1  0  0  0
M  END
> <minimizedAffinity>
11.00954

> <CNNscore>
0.2257515341

> <CNNaffinity>
7.5924735069

> <CNN_VS>
1.7140125036

> <CNNaffinity_variance>
0.2131946385

$$$$
[H]c1nc([H])c(-c2nc(-c3noc(=O)n3[H])c([H])c3nc(N4C([H])([H])C([H])([H])OC([H])([H])[C@]4([H])C([H])([H])[H])n(C([H])([H])[C@]4([H])C([H])([H])C([H])([H])[C@@]([H])(C([H])([H])[H])C([H])([H])C4([H])[H])c23)c([H])c1Cl


 38 43  0  0  0  0  0  0  0  0999 V2000
   -9.6263   -9.9616    6.6555 N   0  0  0  0  0  0  0  0  0  0  0  0
   -8.7975  -10.6624    5.8027 C   0  0  0  0  0  0  0  0  0  0  0  0
   -7.5744  -10.1304    5.7783 N   0  0  0  0  0  0  0  0  0  0  0  0
   -7.5552   -9.0843    6.5925 C   0  0  0  0  0  0  0  0  0  0  0  0
   -6.5648   -8.1809    6.9503 C   0  0  0  0  0  0  0  0  0  0  0  0
   -6.7823   -7.1544    7.8343 C   0  0  0  0  0  0  0  0  0  0  0  0
   -8.0111   -7.0687    8.3350 N   0  0  0  0  0  0  0  0  0  0  0  0
   -9.0352   -7.9392    8.0139 C   0  0  0  0  0  0  0  0  0  0  0  0
   -8.8515   -8.9760    7.1428 C   0  0  0  0  0  0  0  0  0  0  0  0
  -10.2656   -7.6083    8.6375 C   0  0  0  0  0  0  0  0  0  0  0  0
  -11.0709   -8.6246    9.0944 C   0  0  0  0  0  0  0  0  0  0  0  0
  -12.1823   -8.4088    9.8077 N   0  0  0  0  0  0  0  0  0  0  0  0
  -12.5408   -7.1526   10.0986 C   0  0  0  0  0  0  0  0  0  0  0  0
  -11.7875   -6.0852    9.6773 C   0  0  0  0  0  0  0  0  0  0  0  0
  -12.2238   -4.4293   10.0380 Cl  0  0  0  0  0  0  0  0  0  0  0  0
  -10.6322   -6.3477    8.9338 C   0  0  0  0  0  0  0  0  0  0  0  0
   -5.7151   -6.2185    8.1947 C   0  0  0  0  0  0  0  0  0  0  0  0
   -4.9276   -5.5690    7.3493 N   0  0  0  0  0  0  0  0  0  0  0  0
   -4.0804   -4.8131    8.0259 O   0  0  0  0  0  0  0  0  0  0  0  0
   -4.3204   -4.9743    9.2947 C   0  0  0  0  0  0  0  0  0  0  0  0
   -3.7138   -4.4163   10.2321 O   0  0  0  0  0  0  0  0  0  0  0  0
   -5.3260   -5.8382    9.4240 N   0  0  0  0  0  0  0  0  0  0  0  0
   -5.7664   -6.1864   10.3163 H   0  0  0  0  0  0  0  0  0  0  0  0
   -9.1303  -11.8031    5.0046 N   0  0  0  0  0  0  0  0  0  0  0  0
   -9.6670  -12.9435    5.6891 C   0  0  0  0  0  0  0  0  0  0  0  0
   -8.9957  -14.1851    5.1837 C   0  0  0  0  0  0  0  0  0  0  0  0
   -8.9226  -14.2246    3.7933 O   0  0  0  0  0  0  0  0  0  0  0  0
   -8.2021  -13.1709    3.2737 C   0  0  0  0  0  0  0  0  0  0  0  0
   -8.9576  -11.8959    3.5827 C   0  0  0  0  0  0  0  0  0  0  0  0
   -8.2778  -10.6928    2.9767 C   0  0  0  0  0  0  0  0  0  0  0  0
  -10.9769  -10.2935    6.9094 C   0  0  0  0  0  0  0  0  0  0  0  0
  -14.6233   -6.9557    6.0935 C   0  0  0  0  0  0  0  0  0  0  0  0
  -14.6480   -8.4066    5.6689 C   0  0  0  0  0  0  0  0  0  0  0  0
  -13.5835   -8.6723    4.6057 C   0  0  0  0  0  0  0  0  0  0  0  0
  -12.7508   -9.8760    5.0857 C   0  0  0  0  0  0  0  0  0  0  0  0
  -12.0517   -9.4496    6.2945 C   0  0  0  0  0  0  0  0  0  0  0  0
  -13.0774   -9.2313    7.4418 C   0  0  0  0  0  0  0  0  0  0  0  0
  -14.4628   -9.2574    6.8851 C   0  0  0  0  0  0  0  0  0  0  0  0
 32 33  1  0  0  0
 33 34  1  0  0  0
 34 35  1  0  0  0
 35 36  1  0  0  0
 36 31  1  0  0  0
 31  1  1  0  0  0
  1  2  1  0  0  0
  2  3  2  0  0  0
  3  4  1  0  0  0
  4  5  2  0  0  0
  5  6  1  0  0  0
  6  7  2  0  0  0
  7  8  1  0  0  0
  8 10  1  0  0  0
 10 11  2  0  0  0
 11 12  1  0  0  0
 12 13  2  0  0  0
 13 14  1  0  0  0
 14 15  1  0  0  0
 14 16  2  0  0  0
  8  9  2  0  0  0
  6 17  1  0  0  0
 17 18  2  0  0  0
 18 19  1  0  0  0
 19 20  1  0  0  0
 20 21  2  0  0  0
 20 22  1  0  0  0
  2 24  1  0  0  0
 24 25  1  0  0  0
 25 26  1  0  0  0
 26 27  1  0  0  0
 27 28  1  0  0  0
 28 29  1  0  0  0
 29 30  1  0  0  0
 36 37  1  0  0  0
 37 38  1  0  0  0
 38 33  1  0  0  0
  9  1  1  0  0  0
 22 17  1  0  0  0
 29 24  1  0  0  0
  9  4  1  0  0  0
 16 10  1  0  0  0
 22 23  1  0  0  0
M  END
> <minimizedAffinity>
10.68241

> <CNNscore>
0.2043164670

> <CNNaffinity>
7.4939599037

> <CNN_VS>
1.5311393738

> <CNNaffinity_variance>
0.0871394873

$$$$
[H]c1nc([H])c(-c2nc(-c3noc(=O)n3[H])c([H])c3nc(N4C([H])([H])C([H])([H])OC([H])([H])[C@]4([H])C([H])([H])[H])n(C([H])([H])[C@]4([H])C([H])([H])C([H])([H])[C@@]([H])(C([H])([H])[H])C([H])([H])C4([H])[H])c23)c([H])c1Cl


 38 43  0  0  0  0  0  0  0  0999 V2000
   -5.0589   -6.4239    7.1257 N   0  0  0  0  0  0  0  0  0  0  0  0
   -4.5441   -6.0466    8.3497 C   0  0  0  0  0  0  0  0  0  0  0  0
   -5.4818   -6.0890    9.2977 N   0  0  0  0  0  0  0  0  0  0  0  0
   -6.6202   -6.4838    8.7449 C   0  0  0  0  0  0  0  0  0  0  0  0
   -7.8928   -6.7037    9.2520 C   0  0  0  0  0  0  0  0  0  0  0  0
   -8.9400   -7.1217    8.4703 C   0  0  0  0  0  0  0  0  0  0  0  0
   -8.6671   -7.3049    7.1819 N   0  0  0  0  0  0  0  0  0  0  0  0
   -7.4198   -7.1007    6.6231 C   0  0  0  0  0  0  0  0  0  0  0  0
   -6.3536   -6.6913    7.3735 C   0  0  0  0  0  0  0  0  0  0  0  0
   -7.3947   -7.3128    5.2207 C   0  0  0  0  0  0  0  0  0  0  0  0
   -7.4346   -6.2218    4.3851 C   0  0  0  0  0  0  0  0  0  0  0  0
   -7.2853   -6.3143    3.0585 N   0  0  0  0  0  0  0  0  0  0  0  0
   -7.0872   -7.5160    2.5035 C   0  0  0  0  0  0  0  0  0  0  0  0
   -7.0351   -8.6518    3.2727 C   0  0  0  0  0  0  0  0  0  0  0  0
   -6.7779  -10.2396    2.5835 Cl  0  0  0  0  0  0  0  0  0  0  0  0
   -7.1951   -8.5178    4.6557 C   0  0  0  0  0  0  0  0  0  0  0  0
  -10.2718   -7.3484    9.0359 C   0  0  0  0  0  0  0  0  0  0  0  0
  -10.8962   -6.5633    9.9022 N   0  0  0  0  0  0  0  0  0  0  0  0
  -12.0779   -7.0785   10.1938 O   0  0  0  0  0  0  0  0  0  0  0  0
  -12.2130   -8.1845    9.5216 C   0  0  0  0  0  0  0  0  0  0  0  0
  -13.2051   -8.9416    9.5475 O   0  0  0  0  0  0  0  0  0  0  0  0
  -11.1098   -8.3725    8.7991 N   0  0  0  0  0  0  0  0  0  0  0  0
  -10.8954   -9.1713    8.1453 H   0  0  0  0  0  0  0  0  0  0  0  0
   -3.2049   -5.6356    8.6436 N   0  0  0  0  0  0  0  0  0  0  0  0
   -2.4509   -6.4635    9.5398 C   0  0  0  0  0  0  0  0  0  0  0  0
   -1.7442   -5.5965   10.5380 C   0  0  0  0  0  0  0  0  0  0  0  0
   -1.1024   -4.5122    9.9442 O   0  0  0  0  0  0  0  0  0  0  0  0
   -1.9783   -3.6813    9.2797 C   0  0  0  0  0  0  0  0  0  0  0  0
   -2.5679   -4.4596    8.1227 C   0  0  0  0  0  0  0  0  0  0  0  0
   -3.4819   -3.5967    7.2880 C   0  0  0  0  0  0  0  0  0  0  0  0
   -4.3068   -6.4983    5.9310 C   0  0  0  0  0  0  0  0  0  0  0  0
   -1.8390  -10.8575    5.8257 C   0  0  0  0  0  0  0  0  0  0  0  0
   -1.3723   -9.5993    6.5223 C   0  0  0  0  0  0  0  0  0  0  0  0
   -1.0633   -8.5049    5.5021 C   0  0  0  0  0  0  0  0  0  0  0  0
   -1.8396   -7.2467    5.9347 C   0  0  0  0  0  0  0  0  0  0  0  0
   -3.2593   -7.5627    5.8068 C   0  0  0  0  0  0  0  0  0  0  0  0
   -3.6563   -8.6236    6.8713 C   0  0  0  0  0  0  0  0  0  0  0  0
   -2.4241   -9.1843    7.5015 C   0  0  0  0  0  0  0  0  0  0  0  0
 32 33  1  0  0  0
 33 34  1  0  0  0
 34 35  1  0  0  0
 35 36  1  0  0  0
 36 31  1  0  0  0
 31  1  1  0  0  0
  1  2  1  0  0  0
  2  3  2  0  0  0
  3  4  1  0  0  0
  4  5  2  0  0  0
  5  6  1  0  0  0
  6  7  2  0  0  0
  7  8  1  0  0  0
  8 10  1  0  0  0
 10 11  2  0  0  0
 11 12  1  0  0  0
 12 13  2  0  0  0
 13 14  1  0  0  0
 14 15  1  0  0  0
 14 16  2  0  0  0
  8  9  2  0  0  0
  6 17  1  0  0  0
 17 18  2  0  0  0
 18 19  1  0  0  0
 19 20  1  0  0  0
 20 21  2  0  0  0
 20 22  1  0  0  0
  2 24  1  0  0  0
 24 25  1  0  0  0
 25 26  1  0  0  0
 26 27  1  0  0  0
 27 28  1  0  0  0
 28 29  1  0  0  0
 29 30  1  0  0  0
 36 37  1  0  0  0
 37 38  1  0  0  0
 38 33  1  0  0  0
  9  1  1  0  0  0
 22 17  1  0  0  0
 29 24  1  0  0  0
  9  4  1  0  0  0
 16 10  1  0  0  0
 22 23  1  0  0  0
M  END
> <minimizedAffinity>
9.27625

> <CNNscore>
0.2032204270

> <CNNaffinity>
6.6855759621

> <CNN_VS>
1.3586455584

> <CNNaffinity_variance>
0.4571434855

$$$$
[H]c1nc([H])c(-c2nc(-c3noc(=O)n3[H])c([H])c3nc(N4C([H])([H])C([H])([H])OC([H])([H])[C@]4([H])C([H])([H])[H])n(C([H])([H])[C@]4([H])C([H])([H])C([H])([H])[C@@]([H])(C([H])([H])[H])C([H])([H])C4([H])[H])c23)c([H])c1Cl


 38 43  0  0  0  0  0  0  0  0999 V2000
   -8.7479   -8.0691    7.7062 N   0  0  0  0  0  0  0  0  0  0  0  0
   -7.6653   -8.7854    7.2369 C   0  0  0  0  0  0  0  0  0  0  0  0
   -6.6157   -8.6558    8.0502 N   0  0  0  0  0  0  0  0  0  0  0  0
   -6.9607   -7.8669    9.0582 C   0  0  0  0  0  0  0  0  0  0  0  0
   -6.2793   -7.4050   10.1752 C   0  0  0  0  0  0  0  0  0  0  0  0
   -6.8561   -6.5778   11.1055 C   0  0  0  0  0  0  0  0  0  0  0  0
   -8.1201   -6.2353   10.8750 N   0  0  0  0  0  0  0  0  0  0  0  0
   -8.8461   -6.6645    9.7803 C   0  0  0  0  0  0  0  0  0  0  0  0
   -8.3051   -7.4938    8.8385 C   0  0  0  0  0  0  0  0  0  0  0  0
  -10.1553   -6.1205    9.7304 C   0  0  0  0  0  0  0  0  0  0  0  0
  -10.7357   -5.9031    8.5033 C   0  0  0  0  0  0  0  0  0  0  0  0
  -12.0087   -5.5173    8.3576 N   0  0  0  0  0  0  0  0  0  0  0  0
  -12.7654   -5.3299    9.4455 C   0  0  0  0  0  0  0  0  0  0  0  0
  -12.2565   -5.5272   10.7051 C   0  0  0  0  0  0  0  0  0  0  0  0
  -13.2145   -5.2924   12.1506 Cl  0  0  0  0  0  0  0  0  0  0  0  0
  -10.9221   -5.9303   10.8199 C   0  0  0  0  0  0  0  0  0  0  0  0
   -6.1114   -6.1095   12.2764 C   0  0  0  0  0  0  0  0  0  0  0  0
   -5.7437   -6.8473   13.3143 N   0  0  0  0  0  0  0  0  0  0  0  0
   -5.0902   -6.0947   14.1824 O   0  0  0  0  0  0  0  0  0  0  0  0
   -5.0376   -4.8842   13.7078 C   0  0  0  0  0  0  0  0  0  0  0  0
   -4.4956   -3.9038   14.2585 O   0  0  0  0  0  0  0  0  0  0  0  0
   -5.6620   -4.8685   12.5312 N   0  0  0  0  0  0  0  0  0  0  0  0
   -5.7995   -4.0469   11.8850 H   0  0  0  0  0  0  0  0  0  0  0  0
   -7.5903   -9.5709    6.0427 N   0  0  0  0  0  0  0  0  0  0  0  0
   -6.6466   -9.1539    5.0464 C   0  0  0  0  0  0  0  0  0  0  0  0
   -7.2995   -9.1974    3.6975 C   0  0  0  0  0  0  0  0  0  0  0  0
   -8.0055  -10.3790    3.4836 O   0  0  0  0  0  0  0  0  0  0  0  0
   -9.0213  -10.5581    4.3976 C   0  0  0  0  0  0  0  0  0  0  0  0
   -8.3908  -10.7291    5.7634 C   0  0  0  0  0  0  0  0  0  0  0  0
   -9.4317  -11.0130    6.8183 C   0  0  0  0  0  0  0  0  0  0  0  0
  -10.0114   -8.0241    7.0737 C   0  0  0  0  0  0  0  0  0  0  0  0
  -14.0353  -10.9579    7.6258 C   0  0  0  0  0  0  0  0  0  0  0  0
  -13.7506   -9.6983    8.4123 C   0  0  0  0  0  0  0  0  0  0  0  0
  -12.5219   -9.8869    9.3003 C   0  0  0  0  0  0  0  0  0  0  0  0
  -11.5665   -8.7138    9.0110 C   0  0  0  0  0  0  0  0  0  0  0  0
  -11.1224   -8.8631    7.6281 C   0  0  0  0  0  0  0  0  0  0  0  0
  -12.3166   -8.6104    6.6658 C   0  0  0  0  0  0  0  0  0  0  0  0
  -13.5879   -8.5666    7.4479 C   0  0  0  0  0  0  0  0  0  0  0  0
 32 33  1  0  0  0
 33 34  1  0  0  0
 34 35  1  0  0  0
 35 36  1  0  0  0
 36 31  1  0  0  0
 31  1  1  0  0  0
  1  2  1  0  0  0
  2  3  2  0  0  0
  3  4  1  0  0  0
  4  5  2  0  0  0
  5  6  1  0  0  0
  6  7  2  0  0  0
  7  8  1  0  0  0
  8 10  1  0  0  0
 10 11  2  0  0  0
 11 12  1  0  0  0
 12 13  2  0  0  0
 13 14  1  0  0  0
 14 15  1  0  0  0
 14 16  2  0  0  0
  8  9  2  0  0  0
  6 17  1  0  0  0
 17 18  2  0  0  0
 18 19  1  0  0  0
 19 20  1  0  0  0
 20 21  2  0  0  0
 20 22  1  0  0  0
  2 24  1  0  0  0
 24 25  1  0  0  0
 25 26  1  0  0  0
 26 27  1  0  0  0
 27 28  1  0  0  0
 28 29  1  0  0  0
 29 30  1  0  0  0
 36 37  1  0  0  0
 37 38  1  0  0  0
 38 33  1  0  0  0
  9  1  1  0  0  0
 22 17  1  0  0  0
 29 24  1  0  0  0
  9  4  1  0  0  0
 16 10  1  0  0  0
 22 23  1  0  0  0
M  END
> <minimizedAffinity>
18.20138

> <CNNscore>
0.1999364197

> <CNNaffinity>
6.8158431053

> <CNN_VS>
1.3627352715

> <CNNaffinity_variance>
0.1862773001

$$$$
[H]c1nc([H])c(-c2nc(-c3noc(=O)n3[H])c([H])c3nc(N4C([H])([H])C([H])([H])OC([H])([H])[C@]4([H])C([H])([H])[H])n(C([H])([H])[C@]4([H])C([H])([H])C([H])([H])[C@@]([H])(C([H])([H])[H])C([H])([H])C4([H])[H])c23)c([H])c1Cl


 38 43  0  0  0  0  0  0  0  0999 V2000
  -11.9300   -8.6228    7.8870 N   0  0  0  0  0  0  0  0  0  0  0  0
  -11.1106   -8.9791    6.8348 C   0  0  0  0  0  0  0  0  0  0  0  0
  -11.7980   -9.0465    5.6934 N   0  0  0  0  0  0  0  0  0  0  0  0
  -13.0641   -8.7466    5.9475 C   0  0  0  0  0  0  0  0  0  0  0  0
  -14.1950   -8.6582    5.1485 C   0  0  0  0  0  0  0  0  0  0  0  0
  -15.4288   -8.3214    5.6451 C   0  0  0  0  0  0  0  0  0  0  0  0
  -15.4844   -8.0835    6.9522 N   0  0  0  0  0  0  0  0  0  0  0  0
  -14.3916   -8.1574    7.7948 C   0  0  0  0  0  0  0  0  0  0  0  0
  -13.1475   -8.4831    7.3326 C   0  0  0  0  0  0  0  0  0  0  0  0
  -14.7164   -7.9110    9.1535 C   0  0  0  0  0  0  0  0  0  0  0  0
  -15.2955   -8.9178    9.8890 C   0  0  0  0  0  0  0  0  0  0  0  0
  -15.5175   -8.8233   11.2052 N   0  0  0  0  0  0  0  0  0  0  0  0
  -15.1659   -7.7048   11.8506 C   0  0  0  0  0  0  0  0  0  0  0  0
  -14.5825   -6.6560   11.1843 C   0  0  0  0  0  0  0  0  0  0  0  0
  -14.1092   -5.1783   11.9935 Cl  0  0  0  0  0  0  0  0  0  0  0  0
  -14.3654   -6.7892    9.8090 C   0  0  0  0  0  0  0  0  0  0  0  0
  -16.6037   -8.2332    4.7752 C   0  0  0  0  0  0  0  0  0  0  0  0
  -17.7919   -8.7711    5.0109 N   0  0  0  0  0  0  0  0  0  0  0  0
  -18.6104   -8.4901    4.0119 O   0  0  0  0  0  0  0  0  0  0  0  0
  -17.9554   -7.7780    3.1416 C   0  0  0  0  0  0  0  0  0  0  0  0
  -18.4105   -7.3311    2.0686 O   0  0  0  0  0  0  0  0  0  0  0  0
  -16.7133   -7.6064    3.5911 N   0  0  0  0  0  0  0  0  0  0  0  0
  -15.9271   -7.0783    3.1280 H   0  0  0  0  0  0  0  0  0  0  0  0
   -9.7099   -9.2702    6.8797 N   0  0  0  0  0  0  0  0  0  0  0  0
   -9.3337  -10.6514    6.9680 C   0  0  0  0  0  0  0  0  0  0  0  0
   -8.2595  -10.8066    8.0023 C   0  0  0  0  0  0  0  0  0  0  0  0
   -7.2505   -9.8553    7.8713 O   0  0  0  0  0  0  0  0  0  0  0  0
   -7.7203   -8.5670    8.0091 C   0  0  0  0  0  0  0  0  0  0  0  0
   -8.6608   -8.2909    6.8553 C   0  0  0  0  0  0  0  0  0  0  0  0
   -9.1617   -6.8679    6.8822 C   0  0  0  0  0  0  0  0  0  0  0  0
  -11.4904   -8.4505    9.2195 C   0  0  0  0  0  0  0  0  0  0  0  0
  -12.5591   -3.6482   10.1674 C   0  0  0  0  0  0  0  0  0  0  0  0
  -11.2380   -4.3274   10.4494 C   0  0  0  0  0  0  0  0  0  0  0  0
  -11.4025   -5.3904   11.5343 C   0  0  0  0  0  0  0  0  0  0  0  0
  -10.8058   -6.6994   10.9835 C   0  0  0  0  0  0  0  0  0  0  0  0
  -11.6432   -7.1033    9.8577 C   0  0  0  0  0  0  0  0  0  0  0  0
  -11.4651   -6.0969    8.6866 C   0  0  0  0  0  0  0  0  0  0  0  0
  -10.7176   -4.8973    9.1681 C   0  0  0  0  0  0  0  0  0  0  0  0
 32 33  1  0  0  0
 33 34  1  0  0  0
 34 35  1  0  0  0
 35 36  1  0  0  0
 36 31  1  0  0  0
 31  1  1  0  0  0
  1  2  1  0  0  0
  2  3  2  0  0  0
  3  4  1  0  0  0
  4  5  2  0  0  0
  5  6  1  0  0  0
  6  7  2  0  0  0
  7  8  1  0  0  0
  8 10  1  0  0  0
 10 11  2  0  0  0
 11 12  1  0  0  0
 12 13  2  0  0  0
 13 14  1  0  0  0
 14 15  1  0  0  0
 14 16  2  0  0  0
  8  9  2  0  0  0
  6 17  1  0  0  0
 17 18  2  0  0  0
 18 19  1  0  0  0
 19 20  1  0  0  0
 20 21  2  0  0  0
 20 22  1  0  0  0
  2 24  1  0  0  0
 24 25  1  0  0  0
 25 26  1  0  0  0
 26 27  1  0  0  0
 27 28  1  0  0  0
 28 29  1  0  0  0
 29 30  1  0  0  0
 36 37  1  0  0  0
 37 38  1  0  0  0
 38 33  1  0  0  0
  9  1  1  0  0  0
 22 17  1  0  0  0
 29 24  1  0  0  0
  9  4  1  0  0  0
 16 10  1  0  0  0
 22 23  1  0  0  0
M  END
> <minimizedAffinity>
10.72718

> <CNNscore>
0.1888371408

> <CNNaffinity>
7.3290071487

> <CNN_VS>
1.3839887381

> <CNNaffinity_variance>
0.2623090744

$$$$
[H]OC([H])([H])[C@]1([H])[C@@]([H])(O[H])[C@]([H])(O[H])[C@@]([H])(O[H])[C@@]([H])(O[H])[C@]1([H])O[H]


 19 19  0  0  0  0  0  0  0  0999 V2000
  -14.5281   -8.1710    4.9933 C   0  0  0  0  0  0  0  0  0  0  0  0
  -13.7997   -8.9474    6.0488 C   0  0  0  0  0  0  0  0  0  0  0  0
  -12.8456   -9.8019    5.5548 O   0  0  0  0  0  0  0  0  0  0  0  0
  -13.1997   -7.9319    7.0170 C   0  0  0  0  0  0  0  0  0  0  0  0
  -12.5528   -8.6884    8.0142 O   0  0  0  0  0  0  0  0  0  0  0  0
  -14.3426   -7.2215    7.6843 C   0  0  0  0  0  0  0  0  0  0  0  0
  -13.8445   -6.2450    8.5412 O   0  0  0  0  0  0  0  0  0  0  0  0
  -15.2951   -6.5790    6.7113 C   0  0  0  0  0  0  0  0  0  0  0  0
  -14.7771   -5.4549    6.1001 O   0  0  0  0  0  0  0  0  0  0  0  0
  -15.7388   -7.5373    5.6378 C   0  0  0  0  0  0  0  0  0  0  0  0
  -16.5172   -8.5535    6.2006 O   0  0  0  0  0  0  0  0  0  0  0  0
  -11.9392   -9.5215    5.7596 H   0  0  0  0  0  0  0  0  0  0  0  0
  -13.2714   -9.1811    8.4875 H   0  0  0  0  0  0  0  0  0  0  0  0
  -13.8615   -6.5992    9.4700 H   0  0  0  0  0  0  0  0  0  0  0  0
  -15.1817   -5.3654    5.1790 H   0  0  0  0  0  0  0  0  0  0  0  0
  -17.3253   -8.1838    6.6133 H   0  0  0  0  0  0  0  0  0  0  0  0
  -16.2523   -8.7217    3.5042 O   0  0  0  0  0  0  0  0  0  0  0  0
  -14.9913   -9.1407    3.9213 C   0  0  0  0  0  0  0  0  0  0  0  0
  -16.2756   -8.7108    2.5244 H   0  0  0  0  0  0  0  0  0  0  0  0
 17 18  1  0  0  0
 18  1  1  0  0  0
  1  2  1  0  0  0
  2  3  1  0  0  0
  2  4  1  0  0  0
  4  5  1  0  0  0
  4  6  1  0  0  0
  6  7  1  0  0  0
  6  8  1  0  0  0
  8  9  1  0  0  0
  8 10  1  0  0  0
 10 11  1  0  0  0
 10  1  1  0  0  0
 17 19  1  0  0  0
  3 12  1  0  0  0
  5 13  1  0  0  0
  7 14  1  0  0  0
  9 15  1  0  0  0
 11 16  1  0  0  0
M  END
> <minimizedAffinity>
-4.21377

> <CNNscore>
0.4887250066

> <CNNaffinity>
3.6751618385

> <CNN_VS>
1.7961435318

> <CNNaffinity_variance>
0.4741459787

$$$$
[H]OC([H])([H])[C@]1([H])[C@@]([H])(O[H])[C@]([H])(O[H])[C@@]([H])(O[H])[C@@]([H])(O[H])[C@]1([H])O[H]


 19 19  0  0  0  0  0  0  0  0999 V2000
  -14.4342   -9.0255    7.6332 C   0  0  0  0  0  0  0  0  0  0  0  0
  -14.0442   -8.6387    6.2382 C   0  0  0  0  0  0  0  0  0  0  0  0
  -13.2589   -9.5667    5.6004 O   0  0  0  0  0  0  0  0  0  0  0  0
  -15.3356   -8.3706    5.4708 C   0  0  0  0  0  0  0  0  0  0  0  0
  -14.9386   -7.9767    4.1775 O   0  0  0  0  0  0  0  0  0  0  0  0
  -15.9927   -7.1780    6.1049 C   0  0  0  0  0  0  0  0  0  0  0  0
  -17.2052   -6.9252    5.4710 O   0  0  0  0  0  0  0  0  0  0  0  0
  -16.2380   -7.3468    7.5808 C   0  0  0  0  0  0  0  0  0  0  0  0
  -17.2586   -8.2308    7.8680 O   0  0  0  0  0  0  0  0  0  0  0  0
  -15.0018   -7.8005    8.3113 C   0  0  0  0  0  0  0  0  0  0  0  0
  -14.0331   -6.7926    8.2766 O   0  0  0  0  0  0  0  0  0  0  0  0
  -13.7168  -10.0200    4.8745 H   0  0  0  0  0  0  0  0  0  0  0  0
  -14.4617   -7.1150    4.2927 H   0  0  0  0  0  0  0  0  0  0  0  0
  -17.0754   -6.1834    4.8219 H   0  0  0  0  0  0  0  0  0  0  0  0
  -17.0701   -8.6735    8.7560 H   0  0  0  0  0  0  0  0  0  0  0  0
  -14.3568   -5.9842    8.7257 H   0  0  0  0  0  0  0  0  0  0  0  0
  -13.0499  -10.8367    8.1777 O   0  0  0  0  0  0  0  0  0  0  0  0
  -13.1843   -9.4644    8.3742 C   0  0  0  0  0  0  0  0  0  0  0  0
  -12.1247  -11.0316    7.9195 H   0  0  0  0  0  0  0  0  0  0  0  0
 17 18  1  0  0  0
 18  1  1  0  0  0
  1  2  1  0  0  0
  2  3  1  0  0  0
  2  4  1  0  0  0
  4  5  1  0  0  0
  4  6  1  0  0  0
  6  7  1  0  0  0
  6  8  1  0  0  0
  8  9  1  0  0  0
  8 10  1  0  0  0
 10 11  1  0  0  0
 10  1  1  0  0  0
 17 19  1  0  0  0
  3 12  1  0  0  0
  5 13  1  0  0  0
  7 14  1  0  0  0
  9 15  1  0  0  0
 11 16  1  0  0  0
M  END
> <minimizedAffinity>
-5.41528

> <CNNscore>
0.4644898474

> <CNNaffinity>
3.5384488106

> <CNN_VS>
1.6435735226

> <CNNaffinity_variance>
0.2770297527

$$$$
[H]OC([H])([H])[C@]1([H])[C@@]([H])(O[H])[C@]([H])(O[H])[C@@]([H])(O[H])[C@@]([H])(O[H])[C@]1([H])O[H]


 19 19  0  0  0  0  0  0  0  0999 V2000
  -14.5880   -8.5535    5.9785 C   0  0  0  0  0  0  0  0  0  0  0  0
  -13.8797   -7.3544    6.5337 C   0  0  0  0  0  0  0  0  0  0  0  0
  -14.4793   -6.1589    6.2243 O   0  0  0  0  0  0  0  0  0  0  0  0
  -13.7722   -7.5572    8.0423 C   0  0  0  0  0  0  0  0  0  0  0  0
  -13.0738   -6.4354    8.5313 O   0  0  0  0  0  0  0  0  0  0  0  0
  -12.8898   -8.7510    8.2708 C   0  0  0  0  0  0  0  0  0  0  0  0
  -12.8034   -9.0091    9.6354 O   0  0  0  0  0  0  0  0  0  0  0  0
  -13.3716   -9.9921    7.5676 C   0  0  0  0  0  0  0  0  0  0  0  0
  -14.4974  -10.5451    8.1440 O   0  0  0  0  0  0  0  0  0  0  0  0
  -13.6625   -9.7403    6.1117 C   0  0  0  0  0  0  0  0  0  0  0  0
  -12.4750   -9.4475    5.4340 O   0  0  0  0  0  0  0  0  0  0  0  0
  -14.8851   -5.7254    6.9921 H   0  0  0  0  0  0  0  0  0  0  0  0
  -12.1628   -6.4954    8.1446 H   0  0  0  0  0  0  0  0  0  0  0  0
  -11.9470   -8.6358    9.9754 H   0  0  0  0  0  0  0  0  0  0  0  0
  -15.0394  -11.0084    7.4286 H   0  0  0  0  0  0  0  0  0  0  0  0
  -11.8531  -10.2033    5.4805 H   0  0  0  0  0  0  0  0  0  0  0  0
  -16.1753   -7.8494    4.4044 O   0  0  0  0  0  0  0  0  0  0  0  0
  -14.8637   -8.3063    4.5065 C   0  0  0  0  0  0  0  0  0  0  0  0
  -16.1921   -7.0578    3.8268 H   0  0  0  0  0  0  0  0  0  0  0  0
 17 18  1  0  0  0
 18  1  1  0  0  0
  1  2  1  0  0  0
  2  3  1  0  0  0
  2  4  1  0  0  0
  4  5  1  0  0  0
  4  6  1  0  0  0
  6  7  1  0  0  0
  6  8  1  0  0  0
  8  9  1  0  0  0
  8 10  1  0  0  0
 10 11  1  0  0  0
 10  1  1  0  0  0
 17 19  1  0  0  0
  3 12  1  0  0  0
  5 13  1  0  0  0
  7 14  1  0  0  0
  9 15  1  0  0  0
 11 16  1  0  0  0
M  END
> <minimizedAffinity>
-4.08025

> <CNNscore>
0.4612651169

> <CNNaffinity>
3.6326668262

> <CNN_VS>
1.6756224632

> <CNNaffinity_variance>
0.3679123819

$$$$
[H]OC([H])([H])[C@]1([H])[C@@]([H])(O[H])[C@]([H])(O[H])[C@@]([H])(O[H])[C@@]([H])(O[H])[C@]1([H])O[H]


 19 19  0  0  0  0  0  0  0  0999 V2000
  -15.0647   -7.9225    5.2064 C   0  0  0  0  0  0  0  0  0  0  0  0
  -16.2720   -7.8963    6.0949 C   0  0  0  0  0  0  0  0  0  0  0  0
  -17.3136   -8.6687    5.6445 O   0  0  0  0  0  0  0  0  0  0  0  0
  -15.8131   -8.3245    7.4858 C   0  0  0  0  0  0  0  0  0  0  0  0
  -16.9575   -8.2572    8.3050 O   0  0  0  0  0  0  0  0  0  0  0  0
  -14.8603   -7.2758    7.9845 C   0  0  0  0  0  0  0  0  0  0  0  0
  -14.3717   -7.6494    9.2326 O   0  0  0  0  0  0  0  0  0  0  0  0
  -13.6994   -7.0351    7.0565 C   0  0  0  0  0  0  0  0  0  0  0  0
  -12.7783   -8.0633    7.0547 O   0  0  0  0  0  0  0  0  0  0  0  0
  -14.1481   -6.8017    5.6381 C   0  0  0  0  0  0  0  0  0  0  0  0
  -14.8580   -5.5997    5.5565 O   0  0  0  0  0  0  0  0  0  0  0  0
  -17.4722   -9.4533    6.1936 H   0  0  0  0  0  0  0  0  0  0  0  0
  -17.2064   -7.2981    8.3421 H   0  0  0  0  0  0  0  0  0  0  0  0
  -14.8758   -7.1542    9.9319 H   0  0  0  0  0  0  0  0  0  0  0  0
  -12.3416   -8.1121    6.1453 H   0  0  0  0  0  0  0  0  0  0  0  0
  -14.2899   -4.8429    5.8107 H   0  0  0  0  0  0  0  0  0  0  0  0
  -16.5864   -6.7790    3.8388 O   0  0  0  0  0  0  0  0  0  0  0  0
  -15.5161   -7.6682    3.7797 C   0  0  0  0  0  0  0  0  0  0  0  0
  -16.4421   -6.0639    3.1843 H   0  0  0  0  0  0  0  0  0  0  0  0
 17 18  1  0  0  0
 18  1  1  0  0  0
  1  2  1  0  0  0
  2  3  1  0  0  0
  2  4  1  0  0  0
  4  5  1  0  0  0
  4  6  1  0  0  0
  6  7  1  0  0  0
  6  8  1  0  0  0
  8  9  1  0  0  0
  8 10  1  0  0  0
 10 11  1  0  0  0
 10  1  1  0  0  0
 17 19  1  0  0  0
  3 12  1  0  0  0
  5 13  1  0  0  0
  7 14  1  0  0  0
  9 15  1  0  0  0
 11 16  1  0  0  0
M  END
> <minimizedAffinity>
-5.39859

> <CNNscore>
0.4528807104

> <CNNaffinity>
3.6751670837

> <CNN_VS>
1.6644122601

> <CNNaffinity_variance>
0.1681674272

$$$$
[H]OC([H])([H])[C@]1([H])[C@@]([H])(O[H])[C@]([H])(O[H])[C@@]([H])(O[H])[C@@]([H])(O[H])[C@]1([H])O[H]


 19 19  0  0  0  0  0  0  0  0999 V2000
  -13.1267   -8.2374    8.1191 C   0  0  0  0  0  0  0  0  0  0  0  0
  -14.0389   -7.0936    7.7914 C   0  0  0  0  0  0  0  0  0  0  0  0
  -13.7130   -5.9203    8.4251 O   0  0  0  0  0  0  0  0  0  0  0  0
  -14.0308   -6.9356    6.2737 C   0  0  0  0  0  0  0  0  0  0  0  0
  -14.9206   -5.8798    5.9932 O   0  0  0  0  0  0  0  0  0  0  0  0
  -14.6373   -8.1804    5.6917 C   0  0  0  0  0  0  0  0  0  0  0  0
  -14.6040   -8.1064    4.3026 O   0  0  0  0  0  0  0  0  0  0  0  0
  -13.9448   -9.4430    6.1312 C   0  0  0  0  0  0  0  0  0  0  0  0
  -12.7034   -9.6156    5.5529 O   0  0  0  0  0  0  0  0  0  0  0  0
  -13.7813   -9.5069    7.6269 C   0  0  0  0  0  0  0  0  0  0  0  0
  -15.0345   -9.6182    8.2371 O   0  0  0  0  0  0  0  0  0  0  0  0
  -13.3689   -5.2430    7.8209 H   0  0  0  0  0  0  0  0  0  0  0  0
  -15.8173   -6.2031    6.2665 H   0  0  0  0  0  0  0  0  0  0  0  0
  -15.5017   -7.8287    3.9780 H   0  0  0  0  0  0  0  0  0  0  0  0
  -12.1124  -10.1303    6.1901 H   0  0  0  0  0  0  0  0  0  0  0  0
  -15.4849  -10.4423    7.9577 H   0  0  0  0  0  0  0  0  0  0  0  0
  -14.1909   -7.9110   10.1816 O   0  0  0  0  0  0  0  0  0  0  0  0
  -12.9778   -8.3125    9.6278 C   0  0  0  0  0  0  0  0  0  0  0  0
  -14.4540   -8.5552   10.8718 H   0  0  0  0  0  0  0  0  0  0  0  0
 17 18  1  0  0  0
 18  1  1  0  0  0
  1  2  1  0  0  0
  2  3  1  0  0  0
  2  4  1  0  0  0
  4  5  1  0  0  0
  4  6  1  0  0  0
  6  7  1  0  0  0
  6  8  1  0  0  0
  8  9  1  0  0  0
  8 10  1  0  0  0
 10 11  1  0  0  0
 10  1  1  0  0  0
 17 19  1  0  0  0
  3 12  1  0  0  0
  5 13  1  0  0  0
  7 14  1  0  0  0
  9 15  1  0  0  0
 11 16  1  0  0  0
M  END
> <minimizedAffinity>
-4.31821

> <CNNscore>
0.4493863881

> <CNNaffinity>
3.5358371735

> <CNN_VS>
1.5889570713

> <CNNaffinity_variance>
0.4741578102

$$$$
[H]OC([H])([H])[C@]1([H])[C@@]([H])(O[H])[C@]([H])(O[H])[C@@]([H])(O[H])[C@@]([H])(O[H])[C@]1([H])O[H]


 19 19  0  0  0  0  0  0  0  0999 V2000
  -14.9446   -7.0139    7.2038 C   0  0  0  0  0  0  0  0  0  0  0  0
  -16.0580   -8.0060    7.0491 C   0  0  0  0  0  0  0  0  0  0  0  0
  -16.8213   -8.1693    8.1784 O   0  0  0  0  0  0  0  0  0  0  0  0
  -16.9002   -7.5514    5.8606 C   0  0  0  0  0  0  0  0  0  0  0  0
  -17.9153   -8.5181    5.7175 O   0  0  0  0  0  0  0  0  0  0  0  0
  -16.0345   -7.6471    4.6369 C   0  0  0  0  0  0  0  0  0  0  0  0
  -16.7441   -7.1913    3.5302 O   0  0  0  0  0  0  0  0  0  0  0  0
  -14.7520   -6.8665    4.7512 C   0  0  0  0  0  0  0  0  0  0  0  0
  -14.9351   -5.5002    4.6794 O   0  0  0  0  0  0  0  0  0  0  0  0
  -14.0128   -7.1769    6.0259 C   0  0  0  0  0  0  0  0  0  0  0  0
  -13.5630   -8.5008    6.0035 O   0  0  0  0  0  0  0  0  0  0  0  0
  -17.7190   -7.8116    8.0874 H   0  0  0  0  0  0  0  0  0  0  0  0
  -17.4533   -9.3589    5.4668 H   0  0  0  0  0  0  0  0  0  0  0  0
  -17.0906   -7.9774    3.0297 H   0  0  0  0  0  0  0  0  0  0  0  0
  -14.2176   -5.0432    5.2238 H   0  0  0  0  0  0  0  0  0  0  0  0
  -12.9381   -8.6428    5.2622 H   0  0  0  0  0  0  0  0  0  0  0  0
  -14.1981   -8.7250    8.6209 O   0  0  0  0  0  0  0  0  0  0  0  0
  -14.1886   -7.3395    8.4791 C   0  0  0  0  0  0  0  0  0  0  0  0
  -13.2899   -9.0294    8.8286 H   0  0  0  0  0  0  0  0  0  0  0  0
 17 18  1  0  0  0
 18  1  1  0  0  0
  1  2  1  0  0  0
  2  3  1  0  0  0
  2  4  1  0  0  0
  4  5  1  0  0  0
  4  6  1  0  0  0
  6  7  1  0  0  0
  6  8  1  0  0  0
  8  9  1  0  0  0
  8 10  1  0  0  0
 10 11  1  0  0  0
 10  1  1  0  0  0
 17 19  1  0  0  0
  3 12  1  0  0  0
  5 13  1  0  0  0
  7 14  1  0  0  0
  9 15  1  0  0  0
 11 16  1  0  0  0
M  END
> <minimizedAffinity>
-5.49041

> <CNNscore>
0.4474577010

> <CNNaffinity>
3.6339859962

> <CNN_VS>
1.6260550022

> <CNNaffinity_variance>
0.1564201415

$$$$
[H]OC([H])([H])[C@]1([H])[C@@]([H])(O[H])[C@]([H])(O[H])[C@@]([H])(O[H])[C@@]([H])(O[H])[C@]1([H])O[H]


 19 19  0  0  0  0  0  0  0  0999 V2000
  -15.6214   -6.5397    6.3027 C   0  0  0  0  0  0  0  0  0  0  0  0
  -15.9054   -7.9334    5.8287 C   0  0  0  0  0  0  0  0  0  0  0  0
  -15.7070   -8.8993    6.7839 O   0  0  0  0  0  0  0  0  0  0  0  0
  -17.3386   -7.9446    5.3052 C   0  0  0  0  0  0  0  0  0  0  0  0
  -17.5655   -9.2536    4.8359 O   0  0  0  0  0  0  0  0  0  0  0  0
  -17.3836   -7.0402    4.1068 C   0  0  0  0  0  0  0  0  0  0  0  0
  -18.6867   -6.9757    3.6234 O   0  0  0  0  0  0  0  0  0  0  0  0
  -16.8988   -5.6441    4.3947 C   0  0  0  0  0  0  0  0  0  0  0  0
  -17.7824   -4.9041    5.1543 O   0  0  0  0  0  0  0  0  0  0  0  0
  -15.5627   -5.6414    5.0893 C   0  0  0  0  0  0  0  0  0  0  0  0
  -14.5784   -6.1342    4.2271 O   0  0  0  0  0  0  0  0  0  0  0  0
  -16.5322   -9.3080    7.0905 H   0  0  0  0  0  0  0  0  0  0  0  0
  -16.9530   -9.3737    4.0655 H   0  0  0  0  0  0  0  0  0  0  0  0
  -18.7661   -7.5858    2.8424 H   0  0  0  0  0  0  0  0  0  0  0  0
  -17.2624   -4.2401    5.7099 H   0  0  0  0  0  0  0  0  0  0  0  0
  -14.4954   -5.5655    3.4335 H   0  0  0  0  0  0  0  0  0  0  0  0
  -13.4661   -7.4604    6.3207 O   0  0  0  0  0  0  0  0  0  0  0  0
  -14.2659   -6.5344    6.9859 C   0  0  0  0  0  0  0  0  0  0  0  0
  -12.5965   -7.0504    6.1301 H   0  0  0  0  0  0  0  0  0  0  0  0
 17 18  1  0  0  0
 18  1  1  0  0  0
  1  2  1  0  0  0
  2  3  1  0  0  0
  2  4  1  0  0  0
  4  5  1  0  0  0
  4  6  1  0  0  0
  6  7  1  0  0  0
  6  8  1  0  0  0
  8  9  1  0  0  0
  8 10  1  0  0  0
 10 11  1  0  0  0
 10  1  1  0  0  0
 17 19  1  0  0  0
  3 12  1  0  0  0
  5 13  1  0  0  0
  7 14  1  0  0  0
  9 15  1  0  0  0
 11 16  1  0  0  0
M  END
> <minimizedAffinity>
-5.72974

> <CNNscore>
0.4448544085

> <CNNaffinity>
3.6421191692

> <CNN_VS>
1.6202127934

> <CNNaffinity_variance>
0.0949078053

$$$$
[H]OC([H])([H])[C@]1([H])[C@@]([H])(O[H])[C@]([H])(O[H])[C@@]([H])(O[H])[C@@]([H])(O[H])[C@]1([H])O[H]


 19 19  0  0  0  0  0  0  0  0999 V2000
  -14.2285   -7.4044    6.2325 C   0  0  0  0  0  0  0  0  0  0  0  0
  -15.1257   -7.7271    7.3895 C   0  0  0  0  0  0  0  0  0  0  0  0
  -16.4489   -7.4367    7.1678 O   0  0  0  0  0  0  0  0  0  0  0  0
  -14.9199   -9.2031    7.7171 C   0  0  0  0  0  0  0  0  0  0  0  0
  -15.7467   -9.4688    8.8267 O   0  0  0  0  0  0  0  0  0  0  0  0
  -13.5015   -9.3634    8.1849 C   0  0  0  0  0  0  0  0  0  0  0  0
  -13.2487  -10.7064    8.4466 O   0  0  0  0  0  0  0  0  0  0  0  0
  -12.4863   -8.8583    7.1944 C   0  0  0  0  0  0  0  0  0  0  0  0
  -12.3541   -9.6691    6.0851 O   0  0  0  0  0  0  0  0  0  0  0  0
  -12.8009   -7.4629    6.7238 C   0  0  0  0  0  0  0  0  0  0  0  0
  -12.6660   -6.5623    7.7848 O   0  0  0  0  0  0  0  0  0  0  0  0
  -17.0048   -8.2281    7.0854 H   0  0  0  0  0  0  0  0  0  0  0  0
  -15.3771   -8.9309    9.5732 H   0  0  0  0  0  0  0  0  0  0  0  0
  -13.3157  -10.8567    9.4271 H   0  0  0  0  0  0  0  0  0  0  0  0
  -12.0910   -9.1014    5.2922 H   0  0  0  0  0  0  0  0  0  0  0  0
  -11.7453   -6.5560    8.1201 H   0  0  0  0  0  0  0  0  0  0  0  0
  -15.4368   -6.0882    4.7157 O   0  0  0  0  0  0  0  0  0  0  0  0
  -14.5335   -5.9909    5.7713 C   0  0  0  0  0  0  0  0  0  0  0  0
  -16.1693   -5.4544    4.8648 H   0  0  0  0  0  0  0  0  0  0  0  0
 17 18  1  0  0  0
 18  1  1  0  0  0
  1  2  1  0  0  0
  2  3  1  0  0  0
  2  4  1  0  0  0
  4  5  1  0  0  0
  4  6  1  0  0  0
  6  7  1  0  0  0
  6  8  1  0  0  0
  8  9  1  0  0  0
  8 10  1  0  0  0
 10 11  1  0  0  0
 10  1  1  0  0  0
 17 19  1  0  0  0
  3 12  1  0  0  0
  5 13  1  0  0  0
  7 14  1  0  0  0
  9 15  1  0  0  0
 11 16  1  0  0  0
M  END
> <minimizedAffinity>
-3.54541

> <CNNscore>
0.4426018596

> <CNNaffinity>
3.4403903484

> <CNN_VS>
1.5227231979

> <CNNaffinity_variance>
0.3039644361

$$$$
[H]OC([H])([H])[C@]1([H])[C@@]([H])(O[H])[C@]([H])(O[H])[C@@]([H])(O[H])[C@@]([H])(O[H])[C@]1([H])O[H]


 19 19  0  0  0  0  0  0  0  0999 V2000
  -16.2778   -7.0553    4.3560 C   0  0  0  0  0  0  0  0  0  0  0  0
  -17.0002   -6.8319    5.6506 C   0  0  0  0  0  0  0  0  0  0  0  0
  -18.3414   -6.5782    5.5050 O   0  0  0  0  0  0  0  0  0  0  0  0
  -16.7502   -8.0607    6.5201 C   0  0  0  0  0  0  0  0  0  0  0  0
  -17.4097   -7.8085    7.7394 O   0  0  0  0  0  0  0  0  0  0  0  0
  -15.2795   -8.1021    6.8229 C   0  0  0  0  0  0  0  0  0  0  0  0
  -14.9924   -9.2386    7.5726 O   0  0  0  0  0  0  0  0  0  0  0  0
  -14.4164   -8.0988    5.5892 C   0  0  0  0  0  0  0  0  0  0  0  0
  -14.4448   -9.2936    4.8986 O   0  0  0  0  0  0  0  0  0  0  0  0
  -14.7946   -6.9948    4.6374 C   0  0  0  0  0  0  0  0  0  0  0  0
  -14.5087   -5.7530    5.2130 O   0  0  0  0  0  0  0  0  0  0  0  0
  -18.9037   -7.3018    5.8250 H   0  0  0  0  0  0  0  0  0  0  0  0
  -16.9367   -7.0384    8.1474 H   0  0  0  0  0  0  0  0  0  0  0  0
  -14.9183   -8.9775    8.5290 H   0  0  0  0  0  0  0  0  0  0  0  0
  -14.2978   -9.1094    3.9165 H   0  0  0  0  0  0  0  0  0  0  0  0
  -13.5494   -5.6664    5.3933 H   0  0  0  0  0  0  0  0  0  0  0  0
  -16.8099   -4.7803    4.1702 O   0  0  0  0  0  0  0  0  0  0  0  0
  -16.6451   -5.9316    3.4040 C   0  0  0  0  0  0  0  0  0  0  0  0
  -16.3206   -4.0441    3.7469 H   0  0  0  0  0  0  0  0  0  0  0  0
 17 18  1  0  0  0
 18  1  1  0  0  0
  1  2  1  0  0  0
  2  3  1  0  0  0
  2  4  1  0  0  0
  4  5  1  0  0  0
  4  6  1  0  0  0
  6  7  1  0  0  0
  6  8  1  0  0  0
  8  9  1  0  0  0
  8 10  1  0  0  0
 10 11  1  0  0  0
 10  1  1  0  0  0
 17 19  1  0  0  0
  3 12  1  0  0  0
  5 13  1  0  0  0
  7 14  1  0  0  0
  9 15  1  0  0  0
 11 16  1  0  0  0
M  END
> <minimizedAffinity>
-4.74064

> <CNNscore>
0.4386784434

> <CNNaffinity>
3.5753936768

> <CNN_VS>
1.5684481859

> <CNNaffinity_variance>
0.1182735562

$$$$
[H]c1nc(N([H])c2c([H])c(OC([H])([H])[H])c(OC([H])([H])[H])c(OC([H])([H])[H])c2[H])nc(N([H])c2nc3c(c([H])c2[H])OC(C([H])([H])[H])(C([H])([H])[H])C(=O)N3[H])c1F


 37 40  0  0  0  0  0  0  0  0999 V2000
  -10.5879   -8.4888    8.2966 C   0  0  0  0  0  0  0  0  0  0  0  0
   -9.2718   -8.2607    8.2112 N   0  0  0  0  0  0  0  0  0  0  0  0
   -8.6943   -7.3880    7.3829 C   0  0  0  0  0  0  0  0  0  0  0  0
   -9.4844   -6.6588    6.5474 C   0  0  0  0  0  0  0  0  0  0  0  0
   -9.0342   -5.7516    5.6692 F   0  0  0  0  0  0  0  0  0  0  0  0
  -10.8741   -6.8513    6.5879 C   0  0  0  0  0  0  0  0  0  0  0  0
  -11.3542   -7.7496    7.4536 N   0  0  0  0  0  0  0  0  0  0  0  0
  -11.2253   -9.3996    9.1576 N   0  0  0  0  0  0  0  0  0  0  0  0
  -10.7252  -10.3404    9.2725 H   0  0  0  0  0  0  0  0  0  0  0  0
  -14.7072   -8.4278   10.1354 C   0  0  0  0  0  0  0  0  0  0  0  0
  -13.5507   -8.6231    9.3667 C   0  0  0  0  0  0  0  0  0  0  0  0
  -12.4288   -9.1882    9.8558 C   0  0  0  0  0  0  0  0  0  0  0  0
  -12.4672   -9.5862   11.2073 C   0  0  0  0  0  0  0  0  0  0  0  0
  -13.5809   -9.4104   11.9865 C   0  0  0  0  0  0  0  0  0  0  0  0
  -14.7162   -8.8280   11.4596 C   0  0  0  0  0  0  0  0  0  0  0  0
  -16.3664   -8.3938    8.3943 C   0  0  0  0  0  0  0  0  0  0  0  0
  -15.8176   -7.8400    9.5601 O   0  0  0  0  0  0  0  0  0  0  0  0
  -13.5813   -9.8100   13.2968 O   0  0  0  0  0  0  0  0  0  0  0  0
  -12.7456  -10.8765   13.6956 C   0  0  0  0  0  0  0  0  0  0  0  0
  -15.8721   -8.6279   12.2114 O   0  0  0  0  0  0  0  0  0  0  0  0
  -16.3384   -9.7025   13.0166 C   0  0  0  0  0  0  0  0  0  0  0  0
  -11.7216   -6.1076    5.7310 N   0  0  0  0  0  0  0  0  0  0  0  0
  -11.3611   -5.2519    5.2878 H   0  0  0  0  0  0  0  0  0  0  0  0
  -13.0450   -6.5598    5.5051 C   0  0  0  0  0  0  0  0  0  0  0  0
  -13.3541   -7.9261    5.5788 C   0  0  0  0  0  0  0  0  0  0  0  0
  -14.6434   -8.3514    5.3573 C   0  0  0  0  0  0  0  0  0  0  0  0
  -15.6453   -7.4555    5.0622 C   0  0  0  0  0  0  0  0  0  0  0  0
  -16.9560   -7.8497    4.8331 O   0  0  0  0  0  0  0  0  0  0  0  0
  -17.8702   -7.0438    4.1055 C   0  0  0  0  0  0  0  0  0  0  0  0
  -19.2840   -7.4099    4.4567 C   0  0  0  0  0  0  0  0  0  0  0  0
  -17.6250   -7.1936    2.6273 C   0  0  0  0  0  0  0  0  0  0  0  0
  -17.6807   -5.6047    4.4624 C   0  0  0  0  0  0  0  0  0  0  0  0
  -18.6781   -4.8231    4.5540 O   0  0  0  0  0  0  0  0  0  0  0  0
  -16.3547   -5.1666    4.6888 N   0  0  0  0  0  0  0  0  0  0  0  0
  -15.3288   -6.0996    4.9912 C   0  0  0  0  0  0  0  0  0  0  0  0
  -14.0563   -5.7326    5.2151 N   0  0  0  0  0  0  0  0  0  0  0  0
  -16.1445   -4.1534    4.6302 H   0  0  0  0  0  0  0  0  0  0  0  0
 16 17  1  0  0  0
 17 10  1  0  0  0
 10 11  2  0  0  0
 11 12  1  0  0  0
 12  8  1  0  0  0
  8  1  1  0  0  0
  1  2  2  0  0  0
  2  3  1  0  0  0
  3  4  2  0  0  0
  4  5  1  0  0  0
  4  6  1  0  0  0
  6 22  1  0  0  0
 22 24  1  0  0  0
 24 25  2  0  0  0
 25 26  1  0  0  0
 26 27  2  0  0  0
 27 28  1  0  0  0
 28 29  1  0  0  0
 29 30  1  0  0  0
 29 31  1  0  0  0
 29 32  1  0  0  0
 32 33  2  0  0  0
 32 34  1  0  0  0
 34 35  1  0  0  0
 35 36  2  0  0  0
  6  7  2  0  0  0
 12 13  2  0  0  0
 13 14  1  0  0  0
 14 18  1  0  0  0
 18 19  1  0  0  0
 14 15  2  0  0  0
 15 20  1  0  0  0
 20 21  1  0  0  0
 15 10  1  0  0  0
  7  1  1  0  0  0
 36 24  1  0  0  0
 35 27  1  0  0  0
  8  9  1  0  0  0
 22 23  1  0  0  0
 34 37  1  0  0  0
M  END
> <minimizedAffinity>
18.75956

> <CNNscore>
0.4070513248

> <CNNaffinity>
6.9723458290

> <CNN_VS>
2.8381025791

> <CNNaffinity_variance>
0.2846849561

$$$$
[H]c1nc(N([H])c2c([H])c(OC([H])([H])[H])c(OC([H])([H])[H])c(OC([H])([H])[H])c2[H])nc(N([H])c2nc3c(c([H])c2[H])OC(C([H])([H])[H])(C([H])([H])[H])C(=O)N3[H])c1F


 37 40  0  0  0  0  0  0  0  0999 V2000
  -10.7776   -8.7587    8.2713 C   0  0  0  0  0  0  0  0  0  0  0  0
   -9.4530   -8.5678    8.2520 N   0  0  0  0  0  0  0  0  0  0  0  0
   -8.8183   -7.6520    7.5173 C   0  0  0  0  0  0  0  0  0  0  0  0
   -9.5535   -6.8341    6.7145 C   0  0  0  0  0  0  0  0  0  0  0  0
   -9.0429   -5.8759    5.9283 F   0  0  0  0  0  0  0  0  0  0  0  0
  -10.9488   -6.9837    6.6893 C   0  0  0  0  0  0  0  0  0  0  0  0
  -11.4885   -7.9310    7.4627 N   0  0  0  0  0  0  0  0  0  0  0  0
  -11.4746   -9.7130    9.0333 N   0  0  0  0  0  0  0  0  0  0  0  0
  -11.1249  -10.7205    8.9275 H   0  0  0  0  0  0  0  0  0  0  0  0
  -13.7572   -9.4971   11.9943 C   0  0  0  0  0  0  0  0  0  0  0  0
  -12.6260   -9.7575   11.2073 C   0  0  0  0  0  0  0  0  0  0  0  0
  -12.5609   -9.4653    9.8929 C   0  0  0  0  0  0  0  0  0  0  0  0
  -13.7067   -8.8705    9.3272 C   0  0  0  0  0  0  0  0  0  0  0  0
  -14.8283   -8.6021   10.0676 C   0  0  0  0  0  0  0  0  0  0  0  0
  -14.8677   -8.9127   11.4121 C   0  0  0  0  0  0  0  0  0  0  0  0
  -12.5538   -9.7092   14.0661 C   0  0  0  0  0  0  0  0  0  0  0  0
  -13.7454   -9.8273   13.3360 O   0  0  0  0  0  0  0  0  0  0  0  0
  -15.9235   -8.0229    9.4831 O   0  0  0  0  0  0  0  0  0  0  0  0
  -15.8495   -7.6048    8.1361 C   0  0  0  0  0  0  0  0  0  0  0  0
  -15.9844   -8.6596   12.2060 O   0  0  0  0  0  0  0  0  0  0  0  0
  -16.4734   -9.7138   13.0247 C   0  0  0  0  0  0  0  0  0  0  0  0
  -11.7401   -6.1477    5.8643 N   0  0  0  0  0  0  0  0  0  0  0  0
  -11.3382   -5.2711    5.5055 H   0  0  0  0  0  0  0  0  0  0  0  0
  -13.0658   -6.5386    5.5533 C   0  0  0  0  0  0  0  0  0  0  0  0
  -13.4188   -7.8957    5.5150 C   0  0  0  0  0  0  0  0  0  0  0  0
  -14.7098   -8.2611    5.2117 C   0  0  0  0  0  0  0  0  0  0  0  0
  -15.6708   -7.3138    4.9427 C   0  0  0  0  0  0  0  0  0  0  0  0
  -16.9819   -7.6471    4.6331 O   0  0  0  0  0  0  0  0  0  0  0  0
  -17.8398   -6.7615    3.9300 C   0  0  0  0  0  0  0  0  0  0  0  0
  -19.2776   -7.1047    4.1967 C   0  0  0  0  0  0  0  0  0  0  0  0
  -17.5369   -6.8133    2.4558 C   0  0  0  0  0  0  0  0  0  0  0  0
  -17.6223   -5.3586    4.3979 C   0  0  0  0  0  0  0  0  0  0  0  0
  -18.5987   -4.5529    4.5060 O   0  0  0  0  0  0  0  0  0  0  0  0
  -16.2946   -4.9818    4.7085 N   0  0  0  0  0  0  0  0  0  0  0  0
  -15.3109   -5.9675    4.9831 C   0  0  0  0  0  0  0  0  0  0  0  0
  -14.0385   -5.6598    5.2839 N   0  0  0  0  0  0  0  0  0  0  0  0
  -16.0515   -3.9745    4.7322 H   0  0  0  0  0  0  0  0  0  0  0  0
 16 17  1  0  0  0
 17 10  1  0  0  0
 10 11  2  0  0  0
 11 12  1  0  0  0
 12  8  1  0  0  0
  8  1  1  0  0  0
  1  2  2  0  0  0
  2  3  1  0  0  0
  3  4  2  0  0  0
  4  5  1  0  0  0
  4  6  1  0  0  0
  6 22  1  0  0  0
 22 24  1  0  0  0
 24 25  2  0  0  0
 25 26  1  0  0  0
 26 27  2  0  0  0
 27 28  1  0  0  0
 28 29  1  0  0  0
 29 30  1  0  0  0
 29 31  1  0  0  0
 29 32  1  0  0  0
 32 33  2  0  0  0
 32 34  1  0  0  0
 34 35  1  0  0  0
 35 36  2  0  0  0
  6  7  2  0  0  0
 12 13  2  0  0  0
 13 14  1  0  0  0
 14 18  1  0  0  0
 18 19  1  0  0  0
 14 15  2  0  0  0
 15 20  1  0  0  0
 20 21  1  0  0  0
 15 10  1  0  0  0
  7  1  1  0  0  0
 36 24  1  0  0  0
 35 27  1  0  0  0
  8  9  1  0  0  0
 22 23  1  0  0  0
 34 37  1  0  0  0
M  END
> <minimizedAffinity>
19.52074

> <CNNscore>
0.4057856202

> <CNNaffinity>
7.0395903587

> <CNN_VS>
2.8565645218

> <CNNaffinity_variance>
0.3952540457

$$$$
[H]c1nc(N([H])c2c([H])c(OC([H])([H])[H])c(OC([H])([H])[H])c(OC([H])([H])[H])c2[H])nc(N([H])c2nc3c(c([H])c2[H])OC(C([H])([H])[H])(C([H])([H])[H])C(=O)N3[H])c1F


 37 40  0  0  0  0  0  0  0  0999 V2000
  -12.3703   -8.5511    7.5769 C   0  0  0  0  0  0  0  0  0  0  0  0
  -11.8731   -9.7154    7.1425 N   0  0  0  0  0  0  0  0  0  0  0  0
  -10.5747  -10.0081    7.0427 C   0  0  0  0  0  0  0  0  0  0  0  0
   -9.6624   -9.0647    7.4051 C   0  0  0  0  0  0  0  0  0  0  0  0
   -8.3329   -9.2288    7.3538 F   0  0  0  0  0  0  0  0  0  0  0  0
  -10.1197   -7.8216    7.8694 C   0  0  0  0  0  0  0  0  0  0  0  0
  -11.4407   -7.6270    7.9322 N   0  0  0  0  0  0  0  0  0  0  0  0
  -13.7303   -8.2133    7.6936 N   0  0  0  0  0  0  0  0  0  0  0  0
  -14.1799   -8.4624    8.6340 H   0  0  0  0  0  0  0  0  0  0  0  0
  -15.3464   -5.7560    5.3755 C   0  0  0  0  0  0  0  0  0  0  0  0
  -14.5027   -6.2984    6.3556 C   0  0  0  0  0  0  0  0  0  0  0  0
  -14.5266   -7.5990    6.7093 C   0  0  0  0  0  0  0  0  0  0  0  0
  -15.4587   -8.4132    6.0349 C   0  0  0  0  0  0  0  0  0  0  0  0
  -16.2974   -7.9156    5.0720 C   0  0  0  0  0  0  0  0  0  0  0  0
  -16.2518   -6.5789    4.7300 C   0  0  0  0  0  0  0  0  0  0  0  0
  -14.4262   -3.9921    4.0237 C   0  0  0  0  0  0  0  0  0  0  0  0
  -15.2608   -4.4111    5.0700 O   0  0  0  0  0  0  0  0  0  0  0  0
  -17.1908   -8.7378    4.4376 O   0  0  0  0  0  0  0  0  0  0  0  0
  -18.4946   -8.8790    4.9618 C   0  0  0  0  0  0  0  0  0  0  0  0
  -17.0838   -6.0266    3.7583 O   0  0  0  0  0  0  0  0  0  0  0  0
  -18.2696   -5.3718    4.1895 C   0  0  0  0  0  0  0  0  0  0  0  0
   -9.1947   -6.8204    8.2536 N   0  0  0  0  0  0  0  0  0  0  0  0
   -9.4370   -6.1819    9.0232 H   0  0  0  0  0  0  0  0  0  0  0  0
   -7.9584   -6.7222    7.5688 C   0  0  0  0  0  0  0  0  0  0  0  0
   -7.9232   -6.6367    6.1692 C   0  0  0  0  0  0  0  0  0  0  0  0
   -6.7157   -6.5418    5.5171 C   0  0  0  0  0  0  0  0  0  0  0  0
   -5.5307   -6.5289    6.2165 C   0  0  0  0  0  0  0  0  0  0  0  0
   -4.2954   -6.4345    5.5911 O   0  0  0  0  0  0  0  0  0  0  0  0
   -3.0973   -6.8659    6.2179 C   0  0  0  0  0  0  0  0  0  0  0  0
   -1.9098   -6.1834    5.6015 C   0  0  0  0  0  0  0  0  0  0  0  0
   -2.9729   -8.3632    6.1153 C   0  0  0  0  0  0  0  0  0  0  0  0
   -3.1178   -6.5017    7.6675 C   0  0  0  0  0  0  0  0  0  0  0  0
   -2.0575   -6.1220    8.2552 O   0  0  0  0  0  0  0  0  0  0  0  0
   -4.3592   -6.6007    8.3388 N   0  0  0  0  0  0  0  0  0  0  0  0
   -5.5754   -6.6143    7.6073 C   0  0  0  0  0  0  0  0  0  0  0  0
   -6.7778   -6.7054    8.1990 N   0  0  0  0  0  0  0  0  0  0  0  0
   -4.3663   -6.6631    9.3734 H   0  0  0  0  0  0  0  0  0  0  0  0
 16 17  1  0  0  0
 17 10  1  0  0  0
 10 11  2  0  0  0
 11 12  1  0  0  0
 12  8  1  0  0  0
  8  1  1  0  0  0
  1  2  2  0  0  0
  2  3  1  0  0  0
  3  4  2  0  0  0
  4  5  1  0  0  0
  4  6  1  0  0  0
  6 22  1  0  0  0
 22 24  1  0  0  0
 24 25  2  0  0  0
 25 26  1  0  0  0
 26 27  2  0  0  0
 27 28  1  0  0  0
 28 29  1  0  0  0
 29 30  1  0  0  0
 29 31  1  0  0  0
 29 32  1  0  0  0
 32 33  2  0  0  0
 32 34  1  0  0  0
 34 35  1  0  0  0
 35 36  2  0  0  0
  6  7  2  0  0  0
 12 13  2  0  0  0
 13 14  1  0  0  0
 14 18  1  0  0  0
 18 19  1  0  0  0
 14 15  2  0  0  0
 15 20  1  0  0  0
 20 21  1  0  0  0
 15 10  1  0  0  0
  7  1  1  0  0  0
 36 24  1  0  0  0
 35 27  1  0  0  0
  8  9  1  0  0  0
 22 23  1  0  0  0
 34 37  1  0  0  0
M  END
> <minimizedAffinity>
-8.40480

> <CNNscore>
0.3654082716

> <CNNaffinity>
7.3645377159

> <CNN_VS>
2.6910629272

> <CNNaffinity_variance>
0.0623571649

$$$$
[H]c1nc(N([H])c2c([H])c(OC([H])([H])[H])c(OC([H])([H])[H])c(OC([H])([H])[H])c2[H])nc(N([H])c2nc3c(c([H])c2[H])OC(C([H])([H])[H])(C([H])([H])[H])C(=O)N3[H])c1F


 37 40  0  0  0  0  0  0  0  0999 V2000
  -12.3876   -8.4739    7.6826 C   0  0  0  0  0  0  0  0  0  0  0  0
  -11.9785   -9.6141    7.1135 N   0  0  0  0  0  0  0  0  0  0  0  0
  -10.7057   -9.9896    6.9711 C   0  0  0  0  0  0  0  0  0  0  0  0
   -9.7256   -9.1651    7.4331 C   0  0  0  0  0  0  0  0  0  0  0  0
   -8.4122   -9.4210    7.3536 F   0  0  0  0  0  0  0  0  0  0  0  0
  -10.0890   -7.9531    8.0407 C   0  0  0  0  0  0  0  0  0  0  0  0
  -11.3918   -7.6690    8.1350 N   0  0  0  0  0  0  0  0  0  0  0  0
  -13.7185   -8.0511    7.8472 N   0  0  0  0  0  0  0  0  0  0  0  0
  -14.0734   -8.0552    8.8584 H   0  0  0  0  0  0  0  0  0  0  0  0
  -16.3046   -7.9363    5.1411 C   0  0  0  0  0  0  0  0  0  0  0  0
  -15.4742   -8.4186    6.1630 C   0  0  0  0  0  0  0  0  0  0  0  0
  -14.5974   -7.6399    6.8279 C   0  0  0  0  0  0  0  0  0  0  0  0
  -14.5489   -6.2846    6.4441 C   0  0  0  0  0  0  0  0  0  0  0  0
  -15.3465   -5.7806    5.4501 C   0  0  0  0  0  0  0  0  0  0  0  0
  -16.2353   -6.6013    4.7851 C   0  0  0  0  0  0  0  0  0  0  0  0
  -18.5050   -8.8885    4.9495 C   0  0  0  0  0  0  0  0  0  0  0  0
  -17.1773   -8.7996    4.5066 O   0  0  0  0  0  0  0  0  0  0  0  0
  -15.2715   -4.4572    5.1041 O   0  0  0  0  0  0  0  0  0  0  0  0
  -14.4405   -4.0683    4.0305 C   0  0  0  0  0  0  0  0  0  0  0  0
  -17.0662   -6.1358    3.7681 O   0  0  0  0  0  0  0  0  0  0  0  0
  -18.2340   -5.4149    4.1384 C   0  0  0  0  0  0  0  0  0  0  0  0
   -9.0920   -7.0748    8.5309 N   0  0  0  0  0  0  0  0  0  0  0  0
   -9.2472   -6.5877    9.4237 H   0  0  0  0  0  0  0  0  0  0  0  0
   -7.9054   -6.8883    7.7797 C   0  0  0  0  0  0  0  0  0  0  0  0
   -7.9593   -6.7422    6.3857 C   0  0  0  0  0  0  0  0  0  0  0  0
   -6.7992   -6.5617    5.6688 C   0  0  0  0  0  0  0  0  0  0  0  0
   -5.5758   -6.5210    6.2972 C   0  0  0  0  0  0  0  0  0  0  0  0
   -4.3864   -6.3407    5.6052 O   0  0  0  0  0  0  0  0  0  0  0  0
   -3.1339   -6.7398    6.1406 C   0  0  0  0  0  0  0  0  0  0  0  0
   -2.0185   -5.9753    5.4868 C   0  0  0  0  0  0  0  0  0  0  0  0
   -2.9477   -8.2236    5.9636 C   0  0  0  0  0  0  0  0  0  0  0  0
   -3.0829   -6.4384    7.6038 C   0  0  0  0  0  0  0  0  0  0  0  0
   -2.0073   -6.0329    8.1447 O   0  0  0  0  0  0  0  0  0  0  0  0
   -4.2753   -6.6254    8.3417 N   0  0  0  0  0  0  0  0  0  0  0  0
   -5.5319   -6.6670    7.6830 C   0  0  0  0  0  0  0  0  0  0  0  0
   -6.6907   -6.8409    8.3396 N   0  0  0  0  0  0  0  0  0  0  0  0
   -4.2167   -6.7316    9.3710 H   0  0  0  0  0  0  0  0  0  0  0  0
 16 17  1  0  0  0
 17 10  1  0  0  0
 10 11  2  0  0  0
 11 12  1  0  0  0
 12  8  1  0  0  0
  8  1  1  0  0  0
  1  2  2  0  0  0
  2  3  1  0  0  0
  3  4  2  0  0  0
  4  5  1  0  0  0
  4  6  1  0  0  0
  6 22  1  0  0  0
 22 24  1  0  0  0
 24 25  2  0  0  0
 25 26  1  0  0  0
 26 27  2  0  0  0
 27 28  1  0  0  0
 28 29  1  0  0  0
 29 30  1  0  0  0
 29 31  1  0  0  0
 29 32  1  0  0  0
 32 33  2  0  0  0
 32 34  1  0  0  0
 34 35  1  0  0  0
 35 36  2  0  0  0
  6  7  2  0  0  0
 12 13  2  0  0  0
 13 14  1  0  0  0
 14 18  1  0  0  0
 18 19  1  0  0  0
 14 15  2  0  0  0
 15 20  1  0  0  0
 20 21  1  0  0  0
 15 10  1  0  0  0
  7  1  1  0  0  0
 36 24  1  0  0  0
 35 27  1  0  0  0
  8  9  1  0  0  0
 22 23  1  0  0  0
 34 37  1  0  0  0
M  END
> <minimizedAffinity>
-8.30563

> <CNNscore>
0.3603773415

> <CNNaffinity>
7.3669624329

> <CNN_VS>
2.6548862457

> <CNNaffinity_variance>
0.0596880503

$$$$
[H]c1nc(N([H])c2c([H])c(OC([H])([H])[H])c(OC([H])([H])[H])c(OC([H])([H])[H])c2[H])nc(N([H])c2nc3c(c([H])c2[H])OC(C([H])([H])[H])(C([H])([H])[H])C(=O)N3[H])c1F


 37 40  0  0  0  0  0  0  0  0999 V2000
   -7.9260   -7.2939    7.4691 C   0  0  0  0  0  0  0  0  0  0  0  0
   -7.8204   -8.4997    6.8979 N   0  0  0  0  0  0  0  0  0  0  0  0
   -8.7628   -9.4446    6.9155 C   0  0  0  0  0  0  0  0  0  0  0  0
   -9.9346   -9.1869    7.5592 C   0  0  0  0  0  0  0  0  0  0  0  0
  -10.9597  -10.0457    7.6518 F   0  0  0  0  0  0  0  0  0  0  0  0
  -10.1080   -7.9398    8.1793 C   0  0  0  0  0  0  0  0  0  0  0  0
   -9.1034   -7.0612    8.1046 N   0  0  0  0  0  0  0  0  0  0  0  0
   -6.9528   -6.2789    7.4677 N   0  0  0  0  0  0  0  0  0  0  0  0
   -7.3042   -5.3139    7.7740 H   0  0  0  0  0  0  0  0  0  0  0  0
   -3.3622   -7.3214    7.2573 C   0  0  0  0  0  0  0  0  0  0  0  0
   -4.7033   -7.2565    7.6620 C   0  0  0  0  0  0  0  0  0  0  0  0
   -5.6001   -6.4180    7.1054 C   0  0  0  0  0  0  0  0  0  0  0  0
   -5.1220   -5.5877    6.0717 C   0  0  0  0  0  0  0  0  0  0  0  0
   -3.8180   -5.6259    5.6517 C   0  0  0  0  0  0  0  0  0  0  0  0
   -2.9206   -6.4943    6.2402 C   0  0  0  0  0  0  0  0  0  0  0  0
   -1.6702   -7.7545    8.9112 C   0  0  0  0  0  0  0  0  0  0  0  0
   -2.5042   -8.2084    7.8790 O   0  0  0  0  0  0  0  0  0  0  0  0
   -3.3893   -4.8035    4.6435 O   0  0  0  0  0  0  0  0  0  0  0  0
   -3.9456   -3.5112    4.5205 C   0  0  0  0  0  0  0  0  0  0  0  0
   -1.5856   -6.5695    5.8483 O   0  0  0  0  0  0  0  0  0  0  0  0
   -1.2205   -7.5768    4.9141 C   0  0  0  0  0  0  0  0  0  0  0  0
  -11.3159   -7.6427    8.8565 N   0  0  0  0  0  0  0  0  0  0  0  0
  -11.2770   -7.3082    9.8286 H   0  0  0  0  0  0  0  0  0  0  0  0
  -12.5482   -7.8137    8.1788 C   0  0  0  0  0  0  0  0  0  0  0  0
  -13.4633   -8.7906    8.5984 C   0  0  0  0  0  0  0  0  0  0  0  0
  -14.6562   -8.9457    7.9311 C   0  0  0  0  0  0  0  0  0  0  0  0
  -14.9730   -8.1547    6.8507 C   0  0  0  0  0  0  0  0  0  0  0  0
  -16.1667   -8.2842    6.1548 O   0  0  0  0  0  0  0  0  0  0  0  0
  -16.3158   -7.8250    4.8201 C   0  0  0  0  0  0  0  0  0  0  0  0
  -17.7656   -7.5867    4.5081 C   0  0  0  0  0  0  0  0  0  0  0  0
  -15.7141   -8.8200    3.8631 C   0  0  0  0  0  0  0  0  0  0  0  0
  -15.6022   -6.5235    4.6435 C   0  0  0  0  0  0  0  0  0  0  0  0
  -16.0911   -5.6112    3.9069 O   0  0  0  0  0  0  0  0  0  0  0  0
  -14.3745   -6.3641    5.3283 N   0  0  0  0  0  0  0  0  0  0  0  0
  -14.0575   -7.1864    6.4409 C   0  0  0  0  0  0  0  0  0  0  0  0
  -12.9063   -7.0725    7.1236 N   0  0  0  0  0  0  0  0  0  0  0  0
  -13.7103   -5.6373    5.0045 H   0  0  0  0  0  0  0  0  0  0  0  0
 16 17  1  0  0  0
 17 10  1  0  0  0
 10 11  2  0  0  0
 11 12  1  0  0  0
 12  8  1  0  0  0
  8  1  1  0  0  0
  1  2  2  0  0  0
  2  3  1  0  0  0
  3  4  2  0  0  0
  4  5  1  0  0  0
  4  6  1  0  0  0
  6 22  1  0  0  0
 22 24  1  0  0  0
 24 25  2  0  0  0
 25 26  1  0  0  0
 26 27  2  0  0  0
 27 28  1  0  0  0
 28 29  1  0  0  0
 29 30  1  0  0  0
 29 31  1  0  0  0
 29 32  1  0  0  0
 32 33  2  0  0  0
 32 34  1  0  0  0
 34 35  1  0  0  0
 35 36  2  0  0  0
  6  7  2  0  0  0
 12 13  2  0  0  0
 13 14  1  0  0  0
 14 18  1  0  0  0
 18 19  1  0  0  0
 14 15  2  0  0  0
 15 20  1  0  0  0
 20 21  1  0  0  0
 15 10  1  0  0  0
  7  1  1  0  0  0
 36 24  1  0  0  0
 35 27  1  0  0  0
  8  9  1  0  0  0
 22 23  1  0  0  0
 34 37  1  0  0  0
M  END
> <minimizedAffinity>
-8.39903

> <CNNscore>
0.3446378708

> <CNNaffinity>
7.2844915390

> <CNN_VS>
2.5105116367

> <CNNaffinity_variance>
0.1373743564

$$$$
[H]c1nc(N([H])c2c([H])c(OC([H])([H])[H])c(OC([H])([H])[H])c(OC([H])([H])[H])c2[H])nc(N([H])c2nc3c(c([H])c2[H])OC(C([H])([H])[H])(C([H])([H])[H])C(=O)N3[H])c1F


 37 40  0  0  0  0  0  0  0  0999 V2000
   -7.9249   -7.2650    7.1672 C   0  0  0  0  0  0  0  0  0  0  0  0
   -7.7998   -8.5342    6.7612 N   0  0  0  0  0  0  0  0  0  0  0  0
   -8.7118   -9.4923    6.9390 C   0  0  0  0  0  0  0  0  0  0  0  0
   -9.8707   -9.1801    7.5818 C   0  0  0  0  0  0  0  0  0  0  0  0
  -10.8657  -10.0449    7.8251 F   0  0  0  0  0  0  0  0  0  0  0  0
  -10.0634   -7.8650    8.0329 C   0  0  0  0  0  0  0  0  0  0  0  0
   -9.0890   -6.9788    7.8053 N   0  0  0  0  0  0  0  0  0  0  0  0
   -6.9838   -6.2345    6.9948 N   0  0  0  0  0  0  0  0  0  0  0  0
   -7.3858   -5.3101    6.6307 H   0  0  0  0  0  0  0  0  0  0  0  0
   -3.3088   -6.9205    6.7780 C   0  0  0  0  0  0  0  0  0  0  0  0
   -4.6694   -6.8619    6.4437 C   0  0  0  0  0  0  0  0  0  0  0  0
   -5.6018   -6.3132    7.2480 C   0  0  0  0  0  0  0  0  0  0  0  0
   -5.1403   -5.7858    8.4709 C   0  0  0  0  0  0  0  0  0  0  0  0
   -3.8179   -5.8262    8.8282 C   0  0  0  0  0  0  0  0  0  0  0  0
   -2.8844   -6.3950    7.9852 C   0  0  0  0  0  0  0  0  0  0  0  0
   -2.2679   -8.8954    5.8824 C   0  0  0  0  0  0  0  0  0  0  0  0
   -2.4146   -7.5007    5.8985 O   0  0  0  0  0  0  0  0  0  0  0  0
   -3.4063   -5.3032   10.0256 O   0  0  0  0  0  0  0  0  0  0  0  0
   -4.3720   -4.8595   10.9558 C   0  0  0  0  0  0  0  0  0  0  0  0
   -1.5296   -6.4601    8.3042 O   0  0  0  0  0  0  0  0  0  0  0  0
   -1.0826   -7.5526    9.0962 C   0  0  0  0  0  0  0  0  0  0  0  0
  -11.2586   -7.5102    8.7047 N   0  0  0  0  0  0  0  0  0  0  0  0
  -11.2023   -7.1046    9.6486 H   0  0  0  0  0  0  0  0  0  0  0  0
  -12.5025   -7.7227    8.0608 C   0  0  0  0  0  0  0  0  0  0  0  0
  -13.3815   -8.7159    8.5175 C   0  0  0  0  0  0  0  0  0  0  0  0
  -14.5862   -8.9113    7.8828 C   0  0  0  0  0  0  0  0  0  0  0  0
  -14.9499   -8.1452    6.7992 C   0  0  0  0  0  0  0  0  0  0  0  0
  -16.1568   -8.3155    6.1356 O   0  0  0  0  0  0  0  0  0  0  0  0
  -16.3506   -7.8807    4.7985 C   0  0  0  0  0  0  0  0  0  0  0  0
  -17.8133   -7.6839    4.5196 C   0  0  0  0  0  0  0  0  0  0  0  0
  -15.7474   -8.8746    3.8414 C   0  0  0  0  0  0  0  0  0  0  0  0
  -15.6752   -6.5644    4.5850 C   0  0  0  0  0  0  0  0  0  0  0  0
  -16.2055   -5.6761    3.8476 O   0  0  0  0  0  0  0  0  0  0  0  0
  -14.4355   -6.3635    5.2362 N   0  0  0  0  0  0  0  0  0  0  0  0
  -14.0700   -7.1604    6.3525 C   0  0  0  0  0  0  0  0  0  0  0  0
  -12.9056   -7.0070    7.0042 N   0  0  0  0  0  0  0  0  0  0  0  0
  -13.7984   -5.6252    4.8852 H   0  0  0  0  0  0  0  0  0  0  0  0
 16 17  1  0  0  0
 17 10  1  0  0  0
 10 11  2  0  0  0
 11 12  1  0  0  0
 12  8  1  0  0  0
  8  1  1  0  0  0
  1  2  2  0  0  0
  2  3  1  0  0  0
  3  4  2  0  0  0
  4  5  1  0  0  0
  4  6  1  0  0  0
  6 22  1  0  0  0
 22 24  1  0  0  0
 24 25  2  0  0  0
 25 26  1  0  0  0
 26 27  2  0  0  0
 27 28  1  0  0  0
 28 29  1  0  0  0
 29 30  1  0  0  0
 29 31  1  0  0  0
 29 32  1  0  0  0
 32 33  2  0  0  0
 32 34  1  0  0  0
 34 35  1  0  0  0
 35 36  2  0  0  0
  6  7  2  0  0  0
 12 13  2  0  0  0
 13 14  1  0  0  0
 14 18  1  0  0  0
 18 19  1  0  0  0
 14 15  2  0  0  0
 15 20  1  0  0  0
 20 21  1  0  0  0
 15 10  1  0  0  0
  7  1  1  0  0  0
 36 24  1  0  0  0
 35 27  1  0  0  0
  8  9  1  0  0  0
 22 23  1  0  0  0
 34 37  1  0  0  0
M  END
> <minimizedAffinity>
-8.12016

> <CNNscore>
0.3428860903

> <CNNaffinity>
7.3627510071

> <CNN_VS>
2.5245850086

> <CNNaffinity_variance>
0.2188957036

$$$$
[H]c1nc(N([H])c2c([H])c(OC([H])([H])[H])c(OC([H])([H])[H])c(OC([H])([H])[H])c2[H])nc(N([H])c2nc3c(c([H])c2[H])OC(C([H])([H])[H])(C([H])([H])[H])C(=O)N3[H])c1F


 37 40  0  0  0  0  0  0  0  0999 V2000
   -7.8217   -7.2589    7.4990 C   0  0  0  0  0  0  0  0  0  0  0  0
   -7.6818   -8.4164    6.8418 N   0  0  0  0  0  0  0  0  0  0  0  0
   -8.5958   -9.3876    6.7910 C   0  0  0  0  0  0  0  0  0  0  0  0
   -9.7732   -9.2122    7.4519 C   0  0  0  0  0  0  0  0  0  0  0  0
  -10.7722  -10.1055    7.4822 F   0  0  0  0  0  0  0  0  0  0  0  0
   -9.9820   -8.0190    8.1609 C   0  0  0  0  0  0  0  0  0  0  0  0
   -9.0040   -7.1079    8.1499 N   0  0  0  0  0  0  0  0  0  0  0  0
   -6.8790   -6.2180    7.5709 N   0  0  0  0  0  0  0  0  0  0  0  0
   -7.2321   -5.3182    8.0337 H   0  0  0  0  0  0  0  0  0  0  0  0
   -3.7249   -5.6755    5.6263 C   0  0  0  0  0  0  0  0  0  0  0  0
   -5.0573   -5.5676    6.0503 C   0  0  0  0  0  0  0  0  0  0  0  0
   -5.5542   -6.2555    7.0978 C   0  0  0  0  0  0  0  0  0  0  0  0
   -4.6553   -7.1098    7.7678 C   0  0  0  0  0  0  0  0  0  0  0  0
   -3.3472   -7.2384    7.3800 C   0  0  0  0  0  0  0  0  0  0  0  0
   -2.8651   -6.5221    6.3028 C   0  0  0  0  0  0  0  0  0  0  0  0
   -3.6773   -3.5931    4.4236 C   0  0  0  0  0  0  0  0  0  0  0  0
   -3.2921   -4.9364    4.5420 O   0  0  0  0  0  0  0  0  0  0  0  0
   -2.5025   -8.0789    8.0558 O   0  0  0  0  0  0  0  0  0  0  0  0
   -1.5769   -7.5378    8.9751 C   0  0  0  0  0  0  0  0  0  0  0  0
   -1.5440   -6.6194    5.8706 O   0  0  0  0  0  0  0  0  0  0  0  0
   -1.2055   -7.6870    4.9953 C   0  0  0  0  0  0  0  0  0  0  0  0
  -11.1965   -7.8078    8.8581 N   0  0  0  0  0  0  0  0  0  0  0  0
  -11.1652   -7.5437    9.8520 H   0  0  0  0  0  0  0  0  0  0  0  0
  -12.4248   -7.9656    8.1701 C   0  0  0  0  0  0  0  0  0  0  0  0
  -13.3194   -8.9835    8.5321 C   0  0  0  0  0  0  0  0  0  0  0  0
  -14.5087   -9.1252    7.8554 C   0  0  0  0  0  0  0  0  0  0  0  0
  -14.8416   -8.2808    6.8213 C   0  0  0  0  0  0  0  0  0  0  0  0
  -16.0322   -8.3953    6.1175 O   0  0  0  0  0  0  0  0  0  0  0  0
  -16.1905   -7.8641    4.8108 C   0  0  0  0  0  0  0  0  0  0  0  0
  -17.6449   -7.6387    4.5108 C   0  0  0  0  0  0  0  0  0  0  0  0
  -15.5680   -8.7904    3.7997 C   0  0  0  0  0  0  0  0  0  0  0  0
  -15.5041   -6.5401    4.7096 C   0  0  0  0  0  0  0  0  0  0  0  0
  -16.0118   -5.5978    4.0253 O   0  0  0  0  0  0  0  0  0  0  0  0
  -14.2802   -6.3945    5.4040 N   0  0  0  0  0  0  0  0  0  0  0  0
  -13.9464   -7.2720    6.4685 C   0  0  0  0  0  0  0  0  0  0  0  0
  -12.7980   -7.1732    7.1582 N   0  0  0  0  0  0  0  0  0  0  0  0
  -13.6312   -5.6368    5.1230 H   0  0  0  0  0  0  0  0  0  0  0  0
 16 17  1  0  0  0
 17 10  1  0  0  0
 10 11  2  0  0  0
 11 12  1  0  0  0
 12  8  1  0  0  0
  8  1  1  0  0  0
  1  2  2  0  0  0
  2  3  1  0  0  0
  3  4  2  0  0  0
  4  5  1  0  0  0
  4  6  1  0  0  0
  6 22  1  0  0  0
 22 24  1  0  0  0
 24 25  2  0  0  0
 25 26  1  0  0  0
 26 27  2  0  0  0
 27 28  1  0  0  0
 28 29  1  0  0  0
 29 30  1  0  0  0
 29 31  1  0  0  0
 29 32  1  0  0  0
 32 33  2  0  0  0
 32 34  1  0  0  0
 34 35  1  0  0  0
 35 36  2  0  0  0
  6  7  2  0  0  0
 12 13  2  0  0  0
 13 14  1  0  0  0
 14 18  1  0  0  0
 18 19  1  0  0  0
 14 15  2  0  0  0
 15 20  1  0  0  0
 20 21  1  0  0  0
 15 10  1  0  0  0
  7  1  1  0  0  0
 36 24  1  0  0  0
 35 27  1  0  0  0
  8  9  1  0  0  0
 22 23  1  0  0  0
 34 37  1  0  0  0
M  END
> <minimizedAffinity>
-8.29194

> <CNNscore>
0.3332254887

> <CNNaffinity>
7.2459235191

> <CNN_VS>
2.4145264626

> <CNNaffinity_variance>
0.1253703237

$$$$
[H]c1nc(N([H])c2c([H])c(OC([H])([H])[H])c(OC([H])([H])[H])c(OC([H])([H])[H])c2[H])nc(N([H])c2nc3c(c([H])c2[H])OC(C([H])([H])[H])(C([H])([H])[H])C(=O)N3[H])c1F


 37 40  0  0  0  0  0  0  0  0999 V2000
   -8.0664   -7.1953    7.2558 C   0  0  0  0  0  0  0  0  0  0  0  0
   -7.9244   -8.4613    6.8452 N   0  0  0  0  0  0  0  0  0  0  0  0
   -8.8273   -9.4300    7.0116 C   0  0  0  0  0  0  0  0  0  0  0  0
   -9.9945   -9.1332    7.6468 C   0  0  0  0  0  0  0  0  0  0  0  0
  -10.9819  -10.0098    7.8784 F   0  0  0  0  0  0  0  0  0  0  0  0
  -10.2049   -7.8224    8.1022 C   0  0  0  0  0  0  0  0  0  0  0  0
   -9.2384   -6.9246    7.8862 N   0  0  0  0  0  0  0  0  0  0  0  0
   -7.1352   -6.1540    7.0953 N   0  0  0  0  0  0  0  0  0  0  0  0
   -7.5243   -5.2642    6.6419 H   0  0  0  0  0  0  0  0  0  0  0  0
   -3.8922   -5.8700    8.9462 C   0  0  0  0  0  0  0  0  0  0  0  0
   -5.2649   -5.8344    8.6617 C   0  0  0  0  0  0  0  0  0  0  0  0
   -5.7775   -6.1820    7.4643 C   0  0  0  0  0  0  0  0  0  0  0  0
   -4.8525   -6.5947    6.4843 C   0  0  0  0  0  0  0  0  0  0  0  0
   -3.5049   -6.6415    6.7291 C   0  0  0  0  0  0  0  0  0  0  0  0
   -3.0072   -6.2791    7.9647 C   0  0  0  0  0  0  0  0  0  0  0  0
   -4.2776   -4.7333   11.0306 C   0  0  0  0  0  0  0  0  0  0  0  0
   -3.4453   -5.4970   10.1994 O   0  0  0  0  0  0  0  0  0  0  0  0
   -2.6356   -7.0482    5.7515 O   0  0  0  0  0  0  0  0  0  0  0  0
   -1.9798   -6.0786    4.9613 C   0  0  0  0  0  0  0  0  0  0  0  0
   -1.6462   -6.3097    8.2613 O   0  0  0  0  0  0  0  0  0  0  0  0
   -1.0976   -7.5259    8.7517 C   0  0  0  0  0  0  0  0  0  0  0  0
  -11.4090   -7.4836    8.7664 N   0  0  0  0  0  0  0  0  0  0  0  0
  -11.3652   -7.0971    9.7189 H   0  0  0  0  0  0  0  0  0  0  0  0
  -12.6445   -7.6852    8.1030 C   0  0  0  0  0  0  0  0  0  0  0  0
  -13.5575   -8.6417    8.5712 C   0  0  0  0  0  0  0  0  0  0  0  0
  -14.7535   -8.8270    7.9174 C   0  0  0  0  0  0  0  0  0  0  0  0
  -15.0754   -8.0864    6.8033 C   0  0  0  0  0  0  0  0  0  0  0  0
  -16.2724   -8.2474    6.1198 O   0  0  0  0  0  0  0  0  0  0  0  0
  -16.4278   -7.8499    4.7661 C   0  0  0  0  0  0  0  0  0  0  0  0
  -17.8790   -7.6259    4.4503 C   0  0  0  0  0  0  0  0  0  0  0  0
  -15.8305   -8.8878    3.8530 C   0  0  0  0  0  0  0  0  0  0  0  0
  -15.7150   -6.5580    4.5267 C   0  0  0  0  0  0  0  0  0  0  0  0
  -16.2075   -5.6803    3.7513 O   0  0  0  0  0  0  0  0  0  0  0  0
  -14.4842   -6.3676    5.1977 N   0  0  0  0  0  0  0  0  0  0  0  0
  -14.1619   -7.1380    6.3453 C   0  0  0  0  0  0  0  0  0  0  0  0
  -13.0076   -6.9932    7.0166 N   0  0  0  0  0  0  0  0  0  0  0  0
  -13.8216   -5.6565    4.8378 H   0  0  0  0  0  0  0  0  0  0  0  0
 16 17  1  0  0  0
 17 10  1  0  0  0
 10 11  2  0  0  0
 11 12  1  0  0  0
 12  8  1  0  0  0
  8  1  1  0  0  0
  1  2  2  0  0  0
  2  3  1  0  0  0
  3  4  2  0  0  0
  4  5  1  0  0  0
  4  6  1  0  0  0
  6 22  1  0  0  0
 22 24  1  0  0  0
 24 25  2  0  0  0
 25 26  1  0  0  0
 26 27  2  0  0  0
 27 28  1  0  0  0
 28 29  1  0  0  0
 29 30  1  0  0  0
 29 31  1  0  0  0
 29 32  1  0  0  0
 32 33  2  0  0  0
 32 34  1  0  0  0
 34 35  1  0  0  0
 35 36  2  0  0  0
  6  7  2  0  0  0
 12 13  2  0  0  0
 13 14  1  0  0  0
 14 18  1  0  0  0
 18 19  1  0  0  0
 14 15  2  0  0  0
 15 20  1  0  0  0
 20 21  1  0  0  0
 15 10  1  0  0  0
  7  1  1  0  0  0
 36 24  1  0  0  0
 35 27  1  0  0  0
  8  9  1  0  0  0
 22 23  1  0  0  0
 34 37  1  0  0  0
M  END
> <minimizedAffinity>
-8.09152

> <CNNscore>
0.3234151006

> <CNNaffinity>
7.3289732933

> <CNN_VS>
2.3703005314

> <CNNaffinity_variance>
0.2785474062

$$$$
[H]c1nc(N([H])c2c([H])c(OC([H])([H])[H])c(OC([H])([H])[H])c(OC([H])([H])[H])c2[H])nc(N([H])c2nc3c(c([H])c2[H])OC(C([H])([H])[H])(C([H])([H])[H])C(=O)N3[H])c1F


 37 40  0  0  0  0  0  0  0  0999 V2000
   -9.3817   -9.8755    7.3044 C   0  0  0  0  0  0  0  0  0  0  0  0
   -8.4601  -10.5851    7.9665 N   0  0  0  0  0  0  0  0  0  0  0  0
   -7.1674  -10.2673    8.0633 C   0  0  0  0  0  0  0  0  0  0  0  0
   -6.7249   -9.1359    7.4485 C   0  0  0  0  0  0  0  0  0  0  0  0
   -5.4563   -8.7033    7.4669 F   0  0  0  0  0  0  0  0  0  0  0  0
   -7.6424   -8.3472    6.7370 C   0  0  0  0  0  0  0  0  0  0  0  0
   -8.9157   -8.7521    6.7000 N   0  0  0  0  0  0  0  0  0  0  0  0
  -10.7484  -10.1836    7.1846 N   0  0  0  0  0  0  0  0  0  0  0  0
  -10.9757  -11.2304    7.1528 H   0  0  0  0  0  0  0  0  0  0  0  0
  -13.0643   -7.2893    7.7167 C   0  0  0  0  0  0  0  0  0  0  0  0
  -11.9640   -8.1490    7.8455 C   0  0  0  0  0  0  0  0  0  0  0  0
  -11.8091   -9.2625    7.1015 C   0  0  0  0  0  0  0  0  0  0  0  0
  -12.8252   -9.5338    6.1632 C   0  0  0  0  0  0  0  0  0  0  0  0
  -13.9134   -8.7146    6.0114 C   0  0  0  0  0  0  0  0  0  0  0  0
  -14.0468   -7.5807    6.7875 C   0  0  0  0  0  0  0  0  0  0  0  0
  -13.5230   -6.3048    9.8628 C   0  0  0  0  0  0  0  0  0  0  0  0
  -13.1504   -6.1667    8.5179 O   0  0  0  0  0  0  0  0  0  0  0  0
  -14.8815   -9.0107    5.0885 O   0  0  0  0  0  0  0  0  0  0  0  0
  -14.6559   -8.7087    3.7274 C   0  0  0  0  0  0  0  0  0  0  0  0
  -15.1344   -6.7177    6.6703 O   0  0  0  0  0  0  0  0  0  0  0  0
  -15.0801   -5.7082    5.6710 C   0  0  0  0  0  0  0  0  0  0  0  0
   -7.2118   -7.1648    6.0871 N   0  0  0  0  0  0  0  0  0  0  0  0
   -7.7214   -6.8346    5.2565 H   0  0  0  0  0  0  0  0  0  0  0  0
   -6.0898   -6.4656    6.5965 C   0  0  0  0  0  0  0  0  0  0  0  0
   -5.0814   -6.0106    5.7341 C   0  0  0  0  0  0  0  0  0  0  0  0
   -3.9975   -5.3330    6.2423 C   0  0  0  0  0  0  0  0  0  0  0  0
   -3.8814   -5.0901    7.5917 C   0  0  0  0  0  0  0  0  0  0  0  0
   -2.8020   -4.4101    8.1379 O   0  0  0  0  0  0  0  0  0  0  0  0
   -2.4388   -4.5435    9.5035 C   0  0  0  0  0  0  0  0  0  0  0  0
   -1.6388   -3.3534    9.9503 C   0  0  0  0  0  0  0  0  0  0  0  0
   -1.6675   -5.8205    9.7088 C   0  0  0  0  0  0  0  0  0  0  0  0
   -3.6652   -4.6017   10.3562 C   0  0  0  0  0  0  0  0  0  0  0  0
   -3.6882   -4.0431   11.4970 O   0  0  0  0  0  0  0  0  0  0  0  0
   -4.7796   -5.2998    9.8347 N   0  0  0  0  0  0  0  0  0  0  0  0
   -4.8886   -5.5459    8.4411 C   0  0  0  0  0  0  0  0  0  0  0  0
   -5.9271   -6.2026    7.8985 N   0  0  0  0  0  0  0  0  0  0  0  0
   -5.5152   -5.6287   10.4865 H   0  0  0  0  0  0  0  0  0  0  0  0
 16 17  1  0  0  0
 17 10  1  0  0  0
 10 11  2  0  0  0
 11 12  1  0  0  0
 12  8  1  0  0  0
  8  1  1  0  0  0
  1  2  2  0  0  0
  2  3  1  0  0  0
  3  4  2  0  0  0
  4  5  1  0  0  0
  4  6  1  0  0  0
  6 22  1  0  0  0
 22 24  1  0  0  0
 24 25  2  0  0  0
 25 26  1  0  0  0
 26 27  2  0  0  0
 27 28  1  0  0  0
 28 29  1  0  0  0
 29 30  1  0  0  0
 29 31  1  0  0  0
 29 32  1  0  0  0
 32 33  2  0  0  0
 32 34  1  0  0  0
 34 35  1  0  0  0
 35 36  2  0  0  0
  6  7  2  0  0  0
 12 13  2  0  0  0
 13 14  1  0  0  0
 14 18  1  0  0  0
 18 19  1  0  0  0
 14 15  2  0  0  0
 15 20  1  0  0  0
 20 21  1  0  0  0
 15 10  1  0  0  0
  7  1  1  0  0  0
 36 24  1  0  0  0
 35 27  1  0  0  0
  8  9  1  0  0  0
 22 23  1  0  0  0
 34 37  1  0  0  0
M  END
> <minimizedAffinity>
-7.00703

> <CNNscore>
0.2677141726

> <CNNaffinity>
7.0726737976

> <CNN_VS>
1.8934550285

> <CNNaffinity_variance>
0.1198440045

$$$$
[H]c1c([H])c([H])c(C([H])([H])[C@@]2([H])C(=O)N3C([H])([H])C([H])([H])C([H])([H])[C@@]3([H])C(=O)N([H])[C@@]([H])(C([H])([H])c3c([H])n([H])c4c([H])c([H])c([H])c([H])c34)C(=O)N([H])[C@@]([H])(C([H])([H])c3c([H])c([H])c([H])c([H])c3[H])C(=O)N([H])[C@]([H])(C([H])([H])c3c([H])n([H])c4c([H])c([H])c([H])c([H])c34)C(=O)N([H])[C@@]([H])(C([H])([H])c3c([H])c([H])c([H])c([H])c3[H])C(=O)N([H])[C@@]([H])(C([H])(C([H])([H])[H])C([H])([H])[H])C(=O)N2[H])c([H])c1[H]


 83 91  0  0  0  0  0  0  0  0999 V2000
  -10.0177   -7.9901    7.6103 C   0  0  0  0  0  0  0  0  0  0  0  0
  -10.1262   -8.2563    9.0251 N   0  0  0  0  0  0  0  0  0  0  0  0
  -10.5303   -7.5699   10.1493 C   0  0  0  0  0  0  0  0  0  0  0  0
  -11.7035   -7.9528   10.5908 O   0  0  0  0  0  0  0  0  0  0  0  0
   -9.9684   -6.5030   10.9956 C   0  0  0  0  0  0  0  0  0  0  0  0
   -8.6774   -6.8293   11.5523 N   0  0  0  0  0  0  0  0  0  0  0  0
   -7.9646   -6.3942   12.6488 C   0  0  0  0  0  0  0  0  0  0  0  0
   -7.6175   -7.2694   13.5417 O   0  0  0  0  0  0  0  0  0  0  0  0
   -7.4841   -5.0487   13.0276 C   0  0  0  0  0  0  0  0  0  0  0  0
   -6.1255   -5.1262   13.5741 N   0  0  0  0  0  0  0  0  0  0  0  0
   -4.8720   -5.0663   13.0271 C   0  0  0  0  0  0  0  0  0  0  0  0
   -4.1223   -4.0800   13.4338 O   0  0  0  0  0  0  0  0  0  0  0  0
   -4.2048   -5.9493   12.0342 C   0  0  0  0  0  0  0  0  0  0  0  0
   -2.8522   -5.5052   11.7780 N   0  0  0  0  0  0  0  0  0  0  0  0
   -2.1689   -5.3848   10.5575 C   0  0  0  0  0  0  0  0  0  0  0  0
   -1.0657   -6.0520   10.4986 O   0  0  0  0  0  0  0  0  0  0  0  0
   -2.5265   -4.6231    9.3705 C   0  0  0  0  0  0  0  0  0  0  0  0
   -3.8907   -4.7344    8.9021 N   0  0  0  0  0  0  0  0  0  0  0  0
   -4.2084   -5.3946    7.6520 C   0  0  0  0  0  0  0  0  0  0  0  0
   -5.0502   -4.8730    6.8626 O   0  0  0  0  0  0  0  0  0  0  0  0
   -3.5594   -6.6255    7.3285 C   0  0  0  0  0  0  0  0  0  0  0  0
   -2.7737   -6.5714    6.0119 C   0  0  0  0  0  0  0  0  0  0  0  0
   -2.2346   -7.9790    6.0171 C   0  0  0  0  0  0  0  0  0  0  0  0
   -3.0572   -8.7650    6.9934 C   0  0  0  0  0  0  0  0  0  0  0  0
   -4.2435   -7.8732    7.2026 N   0  0  0  0  0  0  0  0  0  0  0  0
   -5.6070   -8.2149    7.3043 C   0  0  0  0  0  0  0  0  0  0  0  0
   -5.8383   -9.0937    8.2691 O   0  0  0  0  0  0  0  0  0  0  0  0
   -6.8400   -7.8588    6.6295 C   0  0  0  0  0  0  0  0  0  0  0  0
   -7.7275   -6.9552    7.3345 N   0  0  0  0  0  0  0  0  0  0  0  0
   -9.1215   -6.8851    7.2451 C   0  0  0  0  0  0  0  0  0  0  0  0
   -9.6759   -5.8083    6.8246 O   0  0  0  0  0  0  0  0  0  0  0  0
   -9.8156   -9.2945    9.2150 H   0  0  0  0  0  0  0  0  0  0  0  0
   -8.1740   -7.5925   10.9683 H   0  0  0  0  0  0  0  0  0  0  0  0
   -6.1692   -5.2695   14.6497 H   0  0  0  0  0  0  0  0  0  0  0  0
   -2.3500   -5.2432   12.6925 H   0  0  0  0  0  0  0  0  0  0  0  0
   -4.6502   -4.3246    9.4574 H   0  0  0  0  0  0  0  0  0  0  0  0
   -7.2495   -6.2745    7.9792 H   0  0  0  0  0  0  0  0  0  0  0  0
  -11.7057   -9.3913    6.5205 C   0  0  0  0  0  0  0  0  0  0  0  0
  -11.3467   -7.9827    6.8961 C   0  0  0  0  0  0  0  0  0  0  0  0
  -12.4116   -7.5247    7.9073 C   0  0  0  0  0  0  0  0  0  0  0  0
  -10.1376   -5.0934   10.5063 C   0  0  0  0  0  0  0  0  0  0  0  0
  -11.5546   -4.6321   10.6507 C   0  0  0  0  0  0  0  0  0  0  0  0
  -12.1701   -3.6810    9.9178 C   0  0  0  0  0  0  0  0  0  0  0  0
  -13.5046   -3.3166   10.1201 C   0  0  0  0  0  0  0  0  0  0  0  0
  -14.2524   -3.9156   11.0802 C   0  0  0  0  0  0  0  0  0  0  0  0
  -13.6329   -4.8995   11.8464 C   0  0  0  0  0  0  0  0  0  0  0  0
  -12.3195   -5.2543   11.6437 C   0  0  0  0  0  0  0  0  0  0  0  0
   -8.3635   -4.3303   14.0037 C   0  0  0  0  0  0  0  0  0  0  0  0
   -8.0196   -3.0152   14.4941 C   0  0  0  0  0  0  0  0  0  0  0  0
   -8.9757   -2.0387   14.7332 C   0  0  0  0  0  0  0  0  0  0  0  0
   -8.3472   -0.9475   15.1421 N   0  0  0  0  0  0  0  0  0  0  0  0
   -7.0075   -1.1571   15.1876 C   0  0  0  0  0  0  0  0  0  0  0  0
   -5.9578   -0.3270   15.5710 C   0  0  0  0  0  0  0  0  0  0  0  0
   -4.6708   -0.8029   15.5516 C   0  0  0  0  0  0  0  0  0  0  0  0
   -4.4687   -2.1231   15.1405 C   0  0  0  0  0  0  0  0  0  0  0  0
   -5.4991   -2.9206   14.7685 C   0  0  0  0  0  0  0  0  0  0  0  0
   -6.8015   -2.4525   14.7823 C   0  0  0  0  0  0  0  0  0  0  0  0
   -8.8020   -0.0336   15.4009 H   0  0  0  0  0  0  0  0  0  0  0  0
   -4.0546   -7.3877   12.5491 C   0  0  0  0  0  0  0  0  0  0  0  0
   -3.0287   -7.5358   13.6022 C   0  0  0  0  0  0  0  0  0  0  0  0
   -2.8665   -6.5912   14.5944 C   0  0  0  0  0  0  0  0  0  0  0  0
   -1.9006   -6.7415   15.5592 C   0  0  0  0  0  0  0  0  0  0  0  0
   -1.0605   -7.8383   15.5705 C   0  0  0  0  0  0  0  0  0  0  0  0
   -1.2188   -8.7988   14.5683 C   0  0  0  0  0  0  0  0  0  0  0  0
   -2.1942   -8.6312   13.6075 C   0  0  0  0  0  0  0  0  0  0  0  0
   -2.1868   -3.1541    9.3684 C   0  0  0  0  0  0  0  0  0  0  0  0
   -2.6141   -2.3992    8.1927 C   0  0  0  0  0  0  0  0  0  0  0  0
   -3.5504   -1.3623    8.2373 C   0  0  0  0  0  0  0  0  0  0  0  0
   -3.7462   -0.9289    7.0183 N   0  0  0  0  0  0  0  0  0  0  0  0
   -2.9710   -1.6446    6.1775 C   0  0  0  0  0  0  0  0  0  0  0  0
   -2.7903   -1.5892    4.7983 C   0  0  0  0  0  0  0  0  0  0  0  0
   -1.9171   -2.4318    4.1481 C   0  0  0  0  0  0  0  0  0  0  0  0
   -1.1891   -3.3630    4.8521 C   0  0  0  0  0  0  0  0  0  0  0  0
   -1.3697   -3.4162    6.2166 C   0  0  0  0  0  0  0  0  0  0  0  0
   -2.2527   -2.5708    6.8922 C   0  0  0  0  0  0  0  0  0  0  0  0
   -4.3959   -0.1456    6.6865 H   0  0  0  0  0  0  0  0  0  0  0  0
   -6.8400   -7.5977    5.1627 C   0  0  0  0  0  0  0  0  0  0  0  0
   -7.1765   -8.7380    4.3053 C   0  0  0  0  0  0  0  0  0  0  0  0
   -8.0830   -9.6743    4.8141 C   0  0  0  0  0  0  0  0  0  0  0  0
   -8.4849  -10.7460    4.0586 C   0  0  0  0  0  0  0  0  0  0  0  0
   -7.9832  -10.8896    2.7904 C   0  0  0  0  0  0  0  0  0  0  0  0
   -7.0906   -9.9832    2.2674 C   0  0  0  0  0  0  0  0  0  0  0  0
   -6.6873   -8.8884    3.0518 C   0  0  0  0  0  0  0  0  0  0  0  0
 38 39  1  0  0  0
 39 40  1  0  0  0
 39  1  1  0  0  0
  1  2  1  0  0  0
  2  3  1  0  0  0
  3  4  2  0  0  0
  3  5  1  0  0  0
  5 41  1  0  0  0
 41 42  1  0  0  0
 42 43  2  0  0  0
 43 44  1  0  0  0
 44 45  2  0  0  0
 45 46  1  0  0  0
 46 47  2  0  0  0
  5  6  1  0  0  0
  6  7  1  0  0  0
  7  8  2  0  0  0
  7  9  1  0  0  0
  9 48  1  0  0  0
 48 49  1  0  0  0
 49 50  2  0  0  0
 50 51  1  0  0  0
 51 52  1  0  0  0
 52 53  2  0  0  0
 53 54  1  0  0  0
 54 55  2  0  0  0
 55 56  1  0  0  0
 56 57  2  0  0  0
  9 10  1  0  0  0
 10 11  1  0  0  0
 11 12  2  0  0  0
 11 13  1  0  0  0
 13 59  1  0  0  0
 59 60  1  0  0  0
 60 61  2  0  0  0
 61 62  1  0  0  0
 62 63  2  0  0  0
 63 64  1  0  0  0
 64 65  2  0  0  0
 13 14  1  0  0  0
 14 15  1  0  0  0
 15 16  2  0  0  0
 15 17  1  0  0  0
 17 66  1  0  0  0
 66 67  1  0  0  0
 67 68  2  0  0  0
 68 69  1  0  0  0
 69 70  1  0  0  0
 70 71  2  0  0  0
 71 72  1  0  0  0
 72 73  2  0  0  0
 73 74  1  0  0  0
 74 75  2  0  0  0
 17 18  1  0  0  0
 18 19  1  0  0  0
 19 20  2  0  0  0
 19 21  1  0  0  0
 21 22  1  0  0  0
 22 23  1  0  0  0
 23 24  1  0  0  0
 24 25  1  0  0  0
 25 26  1  0  0  0
 26 27  2  0  0  0
 26 28  1  0  0  0
 28 77  1  0  0  0
 77 78  1  0  0  0
 78 79  2  0  0  0
 79 80  1  0  0  0
 80 81  2  0  0  0
 81 82  1  0  0  0
 82 83  2  0  0  0
 28 29  1  0  0  0
 29 30  1  0  0  0
 30 31  2  0  0  0
 30  1  1  0  0  0
 47 42  1  0  0  0
 57 49  1  0  0  0
 65 60  1  0  0  0
 75 67  1  0  0  0
 25 21  1  0  0  0
 83 78  1  0  0  0
 57 52  1  0  0  0
 75 70  1  0  0  0
  2 32  1  0  0  0
  6 33  1  0  0  0
 51 58  1  0  0  0
 10 34  1  0  0  0
 14 35  1  0  0  0
 69 76  1  0  0  0
 18 36  1  0  0  0
 29 37  1  0  0  0
M  END
> <minimizedAffinity>
34.15147

> <CNNscore>
0.3169544339

> <CNNaffinity>
7.6237244606

> <CNN_VS>
2.4163732529

> <CNNaffinity_variance>
0.7127332091

$$$$
[H]c1c([H])c([H])c(C([H])([H])[C@@]2([H])C(=O)N3C([H])([H])C([H])([H])C([H])([H])[C@@]3([H])C(=O)N([H])[C@@]([H])(C([H])([H])c3c([H])n([H])c4c([H])c([H])c([H])c([H])c34)C(=O)N([H])[C@@]([H])(C([H])([H])c3c([H])c([H])c([H])c([H])c3[H])C(=O)N([H])[C@]([H])(C([H])([H])c3c([H])n([H])c4c([H])c([H])c([H])c([H])c34)C(=O)N([H])[C@@]([H])(C([H])([H])c3c([H])c([H])c([H])c([H])c3[H])C(=O)N([H])[C@@]([H])(C([H])(C([H])([H])[H])C([H])([H])[H])C(=O)N2[H])c([H])c1[H]


 83 91  0  0  0  0  0  0  0  0999 V2000
  -10.5173   -6.5199   11.3249 C   0  0  0  0  0  0  0  0  0  0  0  0
   -9.7745   -6.7047   12.5490 N   0  0  0  0  0  0  0  0  0  0  0  0
   -9.2243   -5.9000   13.5225 C   0  0  0  0  0  0  0  0  0  0  0  0
   -9.9126   -5.8994   14.6379 O   0  0  0  0  0  0  0  0  0  0  0  0
   -8.0394   -5.0313   13.6310 C   0  0  0  0  0  0  0  0  0  0  0  0
   -6.7963   -5.7178   13.3730 N   0  0  0  0  0  0  0  0  0  0  0  0
   -5.4817   -5.4905   13.7191 C   0  0  0  0  0  0  0  0  0  0  0  0
   -4.8576   -6.4065   14.3936 O   0  0  0  0  0  0  0  0  0  0  0  0
   -4.5881   -4.3437   13.4527 C   0  0  0  0  0  0  0  0  0  0  0  0
   -3.2458   -4.8138   13.0952 N   0  0  0  0  0  0  0  0  0  0  0  0
   -2.6345   -5.1491   11.9171 C   0  0  0  0  0  0  0  0  0  0  0  0
   -1.6010   -4.4252   11.5885 O   0  0  0  0  0  0  0  0  0  0  0  0
   -2.9489   -6.2174   10.9320 C   0  0  0  0  0  0  0  0  0  0  0  0
   -1.9970   -6.2091    9.8429 N   0  0  0  0  0  0  0  0  0  0  0  0
   -2.2199   -6.3318    8.4622 C   0  0  0  0  0  0  0  0  0  0  0  0
   -1.5771   -7.3022    7.9048 O   0  0  0  0  0  0  0  0  0  0  0  0
   -3.0605   -5.5282    7.5878 C   0  0  0  0  0  0  0  0  0  0  0  0
   -4.3999   -5.2342    8.0487 N   0  0  0  0  0  0  0  0  0  0  0  0
   -5.5639   -5.7994    7.3966 C   0  0  0  0  0  0  0  0  0  0  0  0
   -6.5723   -5.0682    7.1677 O   0  0  0  0  0  0  0  0  0  0  0  0
   -5.5511   -7.1766    7.0171 C   0  0  0  0  0  0  0  0  0  0  0  0
   -5.7719   -7.3958    5.5148 C   0  0  0  0  0  0  0  0  0  0  0  0
   -5.6753   -8.8998    5.4934 C   0  0  0  0  0  0  0  0  0  0  0  0
   -5.8562   -9.3756    6.9035 C   0  0  0  0  0  0  0  0  0  0  0  0
   -6.4179   -8.1623    7.5808 N   0  0  0  0  0  0  0  0  0  0  0  0
   -7.4519   -8.0737    8.5343 C   0  0  0  0  0  0  0  0  0  0  0  0
   -7.2172   -8.8167    9.6064 O   0  0  0  0  0  0  0  0  0  0  0  0
   -8.7186   -7.3791    8.6597 C   0  0  0  0  0  0  0  0  0  0  0  0
   -8.7443   -6.2321    9.5456 N   0  0  0  0  0  0  0  0  0  0  0  0
   -9.8294   -5.7467   10.2824 C   0  0  0  0  0  0  0  0  0  0  0  0
  -10.2697   -4.5638   10.0572 O   0  0  0  0  0  0  0  0  0  0  0  0
   -9.6524   -7.7830   12.7297 H   0  0  0  0  0  0  0  0  0  0  0  0
   -6.9520   -6.6120   12.7788 H   0  0  0  0  0  0  0  0  0  0  0  0
   -2.6391   -4.9098   13.9907 H   0  0  0  0  0  0  0  0  0  0  0  0
   -0.9920   -6.0877   10.2068 H   0  0  0  0  0  0  0  0  0  0  0  0
   -4.5322   -4.6003    8.8448 H   0  0  0  0  0  0  0  0  0  0  0  0
   -7.8334   -5.7113    9.6262 H   0  0  0  0  0  0  0  0  0  0  0  0
  -12.2937   -4.9731   10.6523 C   0  0  0  0  0  0  0  0  0  0  0  0
  -11.9575   -6.1298   11.5485 C   0  0  0  0  0  0  0  0  0  0  0  0
  -12.8323   -7.3044   11.0780 C   0  0  0  0  0  0  0  0  0  0  0  0
   -8.1604   -3.6494   13.0561 C   0  0  0  0  0  0  0  0  0  0  0  0
   -9.0346   -2.7797   13.9051 C   0  0  0  0  0  0  0  0  0  0  0  0
  -10.3623   -2.9192   14.1004 C   0  0  0  0  0  0  0  0  0  0  0  0
  -11.1004   -2.0587   14.9185 C   0  0  0  0  0  0  0  0  0  0  0  0
  -10.5017   -1.0268   15.5639 C   0  0  0  0  0  0  0  0  0  0  0  0
   -9.1315   -0.8678   15.3735 C   0  0  0  0  0  0  0  0  0  0  0  0
   -8.4096   -1.7170   14.5673 C   0  0  0  0  0  0  0  0  0  0  0  0
   -4.4795   -3.3687   14.5840 C   0  0  0  0  0  0  0  0  0  0  0  0
   -3.6762   -2.1731   14.4673 C   0  0  0  0  0  0  0  0  0  0  0  0
   -3.3998   -1.3556   15.5537 C   0  0  0  0  0  0  0  0  0  0  0  0
   -2.6748   -0.3362   15.1199 N   0  0  0  0  0  0  0  0  0  0  0  0
   -2.4540   -0.4414   13.7853 C   0  0  0  0  0  0  0  0  0  0  0  0
   -1.7386    0.3642   12.9038 C   0  0  0  0  0  0  0  0  0  0  0  0
   -1.6445    0.0107   11.5812 C   0  0  0  0  0  0  0  0  0  0  0  0
   -2.2824   -1.1632   11.1719 C   0  0  0  0  0  0  0  0  0  0  0  0
   -2.9769   -1.9382   12.0398 C   0  0  0  0  0  0  0  0  0  0  0  0
   -3.0806   -1.5923   13.3759 C   0  0  0  0  0  0  0  0  0  0  0  0
   -2.3099    0.4567   15.7091 H   0  0  0  0  0  0  0  0  0  0  0  0
   -2.8326   -7.6204   11.5441 C   0  0  0  0  0  0  0  0  0  0  0  0
   -2.3286   -7.6208   12.9331 C   0  0  0  0  0  0  0  0  0  0  0  0
   -1.5970   -6.5665   13.4393 C   0  0  0  0  0  0  0  0  0  0  0  0
   -1.1283   -6.5895   14.7301 C   0  0  0  0  0  0  0  0  0  0  0  0
   -1.3712   -7.6640   15.5639 C   0  0  0  0  0  0  0  0  0  0  0  0
   -2.1113   -8.7356   15.0578 C   0  0  0  0  0  0  0  0  0  0  0  0
   -2.5737   -8.6951   13.7589 C   0  0  0  0  0  0  0  0  0  0  0  0
   -2.4829   -4.2308    7.0812 C   0  0  0  0  0  0  0  0  0  0  0  0
   -2.4325   -4.0755    5.6293 C   0  0  0  0  0  0  0  0  0  0  0  0
   -2.8982   -2.9425    4.9558 C   0  0  0  0  0  0  0  0  0  0  0  0
   -2.7534   -3.1369    3.6700 N   0  0  0  0  0  0  0  0  0  0  0  0
   -2.2088   -4.3562    3.4778 C   0  0  0  0  0  0  0  0  0  0  0  0
   -1.8433   -5.0446    2.3243 C   0  0  0  0  0  0  0  0  0  0  0  0
   -1.2823   -6.3007    2.3779 C   0  0  0  0  0  0  0  0  0  0  0  0
   -1.0638   -6.9178    3.5880 C   0  0  0  0  0  0  0  0  0  0  0  0
   -1.4266   -6.2349    4.7279 C   0  0  0  0  0  0  0  0  0  0  0  0
   -1.9987   -4.9612    4.6920 C   0  0  0  0  0  0  0  0  0  0  0  0
   -3.0051   -2.4783    2.8646 H   0  0  0  0  0  0  0  0  0  0  0  0
   -9.5763   -7.1677    7.4600 C   0  0  0  0  0  0  0  0  0  0  0  0
  -10.9158   -7.7607    7.5130 C   0  0  0  0  0  0  0  0  0  0  0  0
  -10.9943   -9.1548    7.5996 C   0  0  0  0  0  0  0  0  0  0  0  0
  -12.2080   -9.7857    7.6986 C   0  0  0  0  0  0  0  0  0  0  0  0
  -13.3510   -9.0278    7.7108 C   0  0  0  0  0  0  0  0  0  0  0  0
  -13.3005   -7.6560    7.6265 C   0  0  0  0  0  0  0  0  0  0  0  0
  -12.0500   -7.0214    7.5264 C   0  0  0  0  0  0  0  0  0  0  0  0
 38 39  1  0  0  0
 39 40  1  0  0  0
 39  1  1  0  0  0
  1  2  1  0  0  0
  2  3  1  0  0  0
  3  4  2  0  0  0
  3  5  1  0  0  0
  5 41  1  0  0  0
 41 42  1  0  0  0
 42 43  2  0  0  0
 43 44  1  0  0  0
 44 45  2  0  0  0
 45 46  1  0  0  0
 46 47  2  0  0  0
  5  6  1  0  0  0
  6  7  1  0  0  0
  7  8  2  0  0  0
  7  9  1  0  0  0
  9 48  1  0  0  0
 48 49  1  0  0  0
 49 50  2  0  0  0
 50 51  1  0  0  0
 51 52  1  0  0  0
 52 53  2  0  0  0
 53 54  1  0  0  0
 54 55  2  0  0  0
 55 56  1  0  0  0
 56 57  2  0  0  0
  9 10  1  0  0  0
 10 11  1  0  0  0
 11 12  2  0  0  0
 11 13  1  0  0  0
 13 59  1  0  0  0
 59 60  1  0  0  0
 60 61  2  0  0  0
 61 62  1  0  0  0
 62 63  2  0  0  0
 63 64  1  0  0  0
 64 65  2  0  0  0
 13 14  1  0  0  0
 14 15  1  0  0  0
 15 16  2  0  0  0
 15 17  1  0  0  0
 17 66  1  0  0  0
 66 67  1  0  0  0
 67 68  2  0  0  0
 68 69  1  0  0  0
 69 70  1  0  0  0
 70 71  2  0  0  0
 71 72  1  0  0  0
 72 73  2  0  0  0
 73 74  1  0  0  0
 74 75  2  0  0  0
 17 18  1  0  0  0
 18 19  1  0  0  0
 19 20  2  0  0  0
 19 21  1  0  0  0
 21 22  1  0  0  0
 22 23  1  0  0  0
 23 24  1  0  0  0
 24 25  1  0  0  0
 25 26  1  0  0  0
 26 27  2  0  0  0
 26 28  1  0  0  0
 28 77  1  0  0  0
 77 78  1  0  0  0
 78 79  2  0  0  0
 79 80  1  0  0  0
 80 81  2  0  0  0
 81 82  1  0  0  0
 82 83  2  0  0  0
 28 29  1  0  0  0
 29 30  1  0  0  0
 30 31  2  0  0  0
 30  1  1  0  0  0
 47 42  1  0  0  0
 57 49  1  0  0  0
 65 60  1  0  0  0
 75 67  1  0  0  0
 25 21  1  0  0  0
 83 78  1  0  0  0
 57 52  1  0  0  0
 75 70  1  0  0  0
  2 32  1  0  0  0
  6 33  1  0  0  0
 51 58  1  0  0  0
 10 34  1  0  0  0
 14 35  1  0  0  0
 69 76  1  0  0  0
 18 36  1  0  0  0
 29 37  1  0  0  0
M  END
> <minimizedAffinity>
23.90348

> <CNNscore>
0.2770817876

> <CNNaffinity>
7.7161359787

> <CNN_VS>
2.1380007267

> <CNNaffinity_variance>
0.5866612196

$$$$
[H]c1c([H])c([H])c(C([H])([H])[C@@]2([H])C(=O)N3C([H])([H])C([H])([H])C([H])([H])[C@@]3([H])C(=O)N([H])[C@@]([H])(C([H])([H])c3c([H])n([H])c4c([H])c([H])c([H])c([H])c34)C(=O)N([H])[C@@]([H])(C([H])([H])c3c([H])c([H])c([H])c([H])c3[H])C(=O)N([H])[C@]([H])(C([H])([H])c3c([H])n([H])c4c([H])c([H])c([H])c([H])c34)C(=O)N([H])[C@@]([H])(C([H])([H])c3c([H])c([H])c([H])c([H])c3[H])C(=O)N([H])[C@@]([H])(C([H])(C([H])([H])[H])C([H])([H])[H])C(=O)N2[H])c([H])c1[H]


 83 91  0  0  0  0  0  0  0  0999 V2000
   -8.7044   -9.5200    6.7263 C   0  0  0  0  0  0  0  0  0  0  0  0
   -8.6687   -9.7021    8.1580 N   0  0  0  0  0  0  0  0  0  0  0  0
   -9.2713   -9.1343    9.2592 C   0  0  0  0  0  0  0  0  0  0  0  0
  -10.2036   -9.8925    9.7824 O   0  0  0  0  0  0  0  0  0  0  0  0
   -9.1286   -7.8755   10.0110 C   0  0  0  0  0  0  0  0  0  0  0  0
   -7.7955   -7.6558   10.5186 N   0  0  0  0  0  0  0  0  0  0  0  0
   -7.2696   -6.9069   11.5493 C   0  0  0  0  0  0  0  0  0  0  0  0
   -6.5969   -7.5215   12.4731 O   0  0  0  0  0  0  0  0  0  0  0  0
   -7.3188   -5.4552   11.8229 C   0  0  0  0  0  0  0  0  0  0  0  0
   -6.0166   -4.9809   12.3021 N   0  0  0  0  0  0  0  0  0  0  0  0
   -4.8915   -4.4995   11.6885 C   0  0  0  0  0  0  0  0  0  0  0  0
   -4.5559   -3.2779   11.9972 O   0  0  0  0  0  0  0  0  0  0  0  0
   -3.9679   -5.1416   10.7163 C   0  0  0  0  0  0  0  0  0  0  0  0
   -2.8874   -4.2463   10.3648 N   0  0  0  0  0  0  0  0  0  0  0  0
   -2.3308   -3.9709    9.1057 C   0  0  0  0  0  0  0  0  0  0  0  0
   -1.0599   -4.1820    9.0293 O   0  0  0  0  0  0  0  0  0  0  0  0
   -2.9784   -3.4870    7.8959 C   0  0  0  0  0  0  0  0  0  0  0  0
   -4.2131   -4.1322    7.5060 N   0  0  0  0  0  0  0  0  0  0  0  0
   -4.2924   -4.9538    6.3150 C   0  0  0  0  0  0  0  0  0  0  0  0
   -5.2884   -4.8427    5.5408 O   0  0  0  0  0  0  0  0  0  0  0  0
   -3.2380   -5.8750    6.0315 C   0  0  0  0  0  0  0  0  0  0  0  0
   -2.5641   -5.6299    4.6752 C   0  0  0  0  0  0  0  0  0  0  0  0
   -1.5368   -6.7312    4.7355 C   0  0  0  0  0  0  0  0  0  0  0  0
   -1.9793   -7.6924    5.7975 C   0  0  0  0  0  0  0  0  0  0  0  0
   -3.4076   -7.2933    6.0149 N   0  0  0  0  0  0  0  0  0  0  0  0
   -4.5405   -8.1093    6.2068 C   0  0  0  0  0  0  0  0  0  0  0  0
   -4.4005   -8.9372    7.2323 O   0  0  0  0  0  0  0  0  0  0  0  0
   -5.8341   -8.2885    5.5767 C   0  0  0  0  0  0  0  0  0  0  0  0
   -6.9770   -7.7307    6.2721 N   0  0  0  0  0  0  0  0  0  0  0  0
   -8.2974   -8.1912    6.2509 C   0  0  0  0  0  0  0  0  0  0  0  0
   -9.2257   -7.4323    5.7968 O   0  0  0  0  0  0  0  0  0  0  0  0
   -7.9867  -10.5330    8.3924 H   0  0  0  0  0  0  0  0  0  0  0  0
   -7.0580   -8.2178    9.9554 H   0  0  0  0  0  0  0  0  0  0  0  0
   -5.9756   -5.0503   13.3851 H   0  0  0  0  0  0  0  0  0  0  0  0
   -2.4966   -3.7494   11.2352 H   0  0  0  0  0  0  0  0  0  0  0  0
   -5.0562   -3.9947    8.0747 H   0  0  0  0  0  0  0  0  0  0  0  0
   -6.7725   -6.8753    6.8500 H   0  0  0  0  0  0  0  0  0  0  0  0
   -9.9380  -11.5597    6.1619 C   0  0  0  0  0  0  0  0  0  0  0  0
   -9.9573  -10.0606    6.0824 C   0  0  0  0  0  0  0  0  0  0  0  0
  -11.1507   -9.6019    6.9379 C   0  0  0  0  0  0  0  0  0  0  0  0
   -9.8264   -6.6705    9.4489 C   0  0  0  0  0  0  0  0  0  0  0  0
  -11.1913   -7.0177    8.9411 C   0  0  0  0  0  0  0  0  0  0  0  0
  -11.7407   -6.6218    7.7740 C   0  0  0  0  0  0  0  0  0  0  0  0
  -13.0266   -7.0007    7.3771 C   0  0  0  0  0  0  0  0  0  0  0  0
  -13.7916   -7.7985    8.1632 C   0  0  0  0  0  0  0  0  0  0  0  0
  -13.2403   -8.2164    9.3717 C   0  0  0  0  0  0  0  0  0  0  0  0
  -11.9747   -7.8406    9.7580 C   0  0  0  0  0  0  0  0  0  0  0  0
   -8.3778   -5.0456   12.7991 C   0  0  0  0  0  0  0  0  0  0  0  0
   -9.7469   -5.4814   12.6450 C   0  0  0  0  0  0  0  0  0  0  0  0
  -10.2832   -6.5215   13.3905 C   0  0  0  0  0  0  0  0  0  0  0  0
  -11.5356   -6.6974   12.9986 N   0  0  0  0  0  0  0  0  0  0  0  0
  -11.8582   -5.8138   12.0208 C   0  0  0  0  0  0  0  0  0  0  0  0
  -13.0455   -5.6028   11.3251 C   0  0  0  0  0  0  0  0  0  0  0  0
  -13.1170   -4.6041   10.3867 C   0  0  0  0  0  0  0  0  0  0  0  0
  -11.9742   -3.8302   10.1681 C   0  0  0  0  0  0  0  0  0  0  0  0
  -10.8240   -4.0466   10.8511 C   0  0  0  0  0  0  0  0  0  0  0  0
  -10.7384   -5.0513   11.7991 C   0  0  0  0  0  0  0  0  0  0  0  0
  -12.2058   -7.4159   13.3775 H   0  0  0  0  0  0  0  0  0  0  0  0
   -3.2763   -6.3785   11.3065 C   0  0  0  0  0  0  0  0  0  0  0  0
   -2.7123   -6.1554   12.6539 C   0  0  0  0  0  0  0  0  0  0  0  0
   -1.5770   -5.3961   12.8482 C   0  0  0  0  0  0  0  0  0  0  0  0
   -1.0618   -5.2083   14.1074 C   0  0  0  0  0  0  0  0  0  0  0  0
   -1.6589   -5.7703   15.2194 C   0  0  0  0  0  0  0  0  0  0  0  0
   -2.8089   -6.5408   15.0302 C   0  0  0  0  0  0  0  0  0  0  0  0
   -3.3119   -6.7188   13.7581 C   0  0  0  0  0  0  0  0  0  0  0  0
   -3.2143   -2.0015    7.7898 C   0  0  0  0  0  0  0  0  0  0  0  0
   -2.5104   -1.3166    6.7081 C   0  0  0  0  0  0  0  0  0  0  0  0
   -1.4324   -0.4506    6.9129 C   0  0  0  0  0  0  0  0  0  0  0  0
   -1.0618    0.0301    5.7537 N   0  0  0  0  0  0  0  0  0  0  0  0
   -1.8582   -0.4909    4.7974 C   0  0  0  0  0  0  0  0  0  0  0  0
   -1.8903   -0.3242    3.4157 C   0  0  0  0  0  0  0  0  0  0  0  0
   -2.8066   -0.9840    2.6280 C   0  0  0  0  0  0  0  0  0  0  0  0
   -3.7267   -1.8377    3.1913 C   0  0  0  0  0  0  0  0  0  0  0  0
   -3.6932   -2.0009    4.5587 C   0  0  0  0  0  0  0  0  0  0  0  0
   -2.7723   -1.3380    5.3731 C   0  0  0  0  0  0  0  0  0  0  0  0
   -0.2712    0.7195    5.5408 H   0  0  0  0  0  0  0  0  0  0  0  0
   -5.9698   -8.1554    4.0990 C   0  0  0  0  0  0  0  0  0  0  0  0
   -6.6744   -9.2444    3.4160 C   0  0  0  0  0  0  0  0  0  0  0  0
   -6.4373   -9.3983    2.0458 C   0  0  0  0  0  0  0  0  0  0  0  0
   -7.0219  -10.4197    1.3417 C   0  0  0  0  0  0  0  0  0  0  0  0
   -7.8480  -11.2932    2.0018 C   0  0  0  0  0  0  0  0  0  0  0  0
   -8.0974  -11.1630    3.3481 C   0  0  0  0  0  0  0  0  0  0  0  0
   -7.4911  -10.1123    4.0586 C   0  0  0  0  0  0  0  0  0  0  0  0
 38 39  1  0  0  0
 39 40  1  0  0  0
 39  1  1  0  0  0
  1  2  1  0  0  0
  2  3  1  0  0  0
  3  4  2  0  0  0
  3  5  1  0  0  0
  5 41  1  0  0  0
 41 42  1  0  0  0
 42 43  2  0  0  0
 43 44  1  0  0  0
 44 45  2  0  0  0
 45 46  1  0  0  0
 46 47  2  0  0  0
  5  6  1  0  0  0
  6  7  1  0  0  0
  7  8  2  0  0  0
  7  9  1  0  0  0
  9 48  1  0  0  0
 48 49  1  0  0  0
 49 50  2  0  0  0
 50 51  1  0  0  0
 51 52  1  0  0  0
 52 53  2  0  0  0
 53 54  1  0  0  0
 54 55  2  0  0  0
 55 56  1  0  0  0
 56 57  2  0  0  0
  9 10  1  0  0  0
 10 11  1  0  0  0
 11 12  2  0  0  0
 11 13  1  0  0  0
 13 59  1  0  0  0
 59 60  1  0  0  0
 60 61  2  0  0  0
 61 62  1  0  0  0
 62 63  2  0  0  0
 63 64  1  0  0  0
 64 65  2  0  0  0
 13 14  1  0  0  0
 14 15  1  0  0  0
 15 16  2  0  0  0
 15 17  1  0  0  0
 17 66  1  0  0  0
 66 67  1  0  0  0
 67 68  2  0  0  0
 68 69  1  0  0  0
 69 70  1  0  0  0
 70 71  2  0  0  0
 71 72  1  0  0  0
 72 73  2  0  0  0
 73 74  1  0  0  0
 74 75  2  0  0  0
 17 18  1  0  0  0
 18 19  1  0  0  0
 19 20  2  0  0  0
 19 21  1  0  0  0
 21 22  1  0  0  0
 22 23  1  0  0  0
 23 24  1  0  0  0
 24 25  1  0  0  0
 25 26  1  0  0  0
 26 27  2  0  0  0
 26 28  1  0  0  0
 28 77  1  0  0  0
 77 78  1  0  0  0
 78 79  2  0  0  0
 79 80  1  0  0  0
 80 81  2  0  0  0
 81 82  1  0  0  0
 82 83  2  0  0  0
 28 29  1  0  0  0
 29 30  1  0  0  0
 30 31  2  0  0  0
 30  1  1  0  0  0
 47 42  1  0  0  0
 57 49  1  0  0  0
 65 60  1  0  0  0
 75 67  1  0  0  0
 25 21  1  0  0  0
 83 78  1  0  0  0
 57 52  1  0  0  0
 75 70  1  0  0  0
  2 32  1  0  0  0
  6 33  1  0  0  0
 51 58  1  0  0  0
 10 34  1  0  0  0
 14 35  1  0  0  0
 69 76  1  0  0  0
 18 36  1  0  0  0
 29 37  1  0  0  0
M  END
> <minimizedAffinity>
37.89769

> <CNNscore>
0.2258512229

> <CNNaffinity>
7.5026597977

> <CNN_VS>
1.6944849491

> <CNNaffinity_variance>
1.4965330362

$$$$
[H]c1c([H])c([H])c(C([H])([H])[C@@]2([H])C(=O)N3C([H])([H])C([H])([H])C([H])([H])[C@@]3([H])C(=O)N([H])[C@@]([H])(C([H])([H])c3c([H])n([H])c4c([H])c([H])c([H])c([H])c34)C(=O)N([H])[C@@]([H])(C([H])([H])c3c([H])c([H])c([H])c([H])c3[H])C(=O)N([H])[C@]([H])(C([H])([H])c3c([H])n([H])c4c([H])c([H])c([H])c([H])c34)C(=O)N([H])[C@@]([H])(C([H])([H])c3c([H])c([H])c([H])c([H])c3[H])C(=O)N([H])[C@@]([H])(C([H])(C([H])([H])[H])C([H])([H])[H])C(=O)N2[H])c([H])c1[H]


 83 91  0  0  0  0  0  0  0  0999 V2000
  -10.2758   -6.6226   11.5715 C   0  0  0  0  0  0  0  0  0  0  0  0
   -9.3057   -6.7756   12.6297 N   0  0  0  0  0  0  0  0  0  0  0  0
   -8.6328   -5.9505   13.5040 C   0  0  0  0  0  0  0  0  0  0  0  0
   -9.0974   -6.0111   14.7281 O   0  0  0  0  0  0  0  0  0  0  0  0
   -7.5047   -5.0075   13.4118 C   0  0  0  0  0  0  0  0  0  0  0  0
   -6.2925   -5.6071   12.9078 N   0  0  0  0  0  0  0  0  0  0  0  0
   -4.9528   -5.2988   13.0077 C   0  0  0  0  0  0  0  0  0  0  0  0
   -4.1574   -6.1814   13.5292 O   0  0  0  0  0  0  0  0  0  0  0  0
   -4.1981   -4.0921   12.6092 C   0  0  0  0  0  0  0  0  0  0  0  0
   -2.9207   -4.4678   11.9947 N   0  0  0  0  0  0  0  0  0  0  0  0
   -2.5227   -4.7454   10.7146 C   0  0  0  0  0  0  0  0  0  0  0  0
   -1.6164   -3.9505   10.2176 O   0  0  0  0  0  0  0  0  0  0  0  0
   -2.9504   -5.8178    9.7778 C   0  0  0  0  0  0  0  0  0  0  0  0
   -2.2230   -5.7314    8.5304 N   0  0  0  0  0  0  0  0  0  0  0  0
   -2.6940   -5.8488    7.2131 C   0  0  0  0  0  0  0  0  0  0  0  0
   -2.1090   -6.7668    6.5198 O   0  0  0  0  0  0  0  0  0  0  0  0
   -3.7324   -5.0898    6.5329 C   0  0  0  0  0  0  0  0  0  0  0  0
   -4.9765   -4.8911    7.2438 N   0  0  0  0  0  0  0  0  0  0  0  0
   -6.2054   -5.5221    6.8063 C   0  0  0  0  0  0  0  0  0  0  0  0
   -7.2820   -4.8556    6.7895 O   0  0  0  0  0  0  0  0  0  0  0  0
   -6.1791   -6.8899    6.3949 C   0  0  0  0  0  0  0  0  0  0  0  0
   -6.6649   -7.1017    4.9552 C   0  0  0  0  0  0  0  0  0  0  0  0
   -6.4813   -8.5957    4.8764 C   0  0  0  0  0  0  0  0  0  0  0  0
   -6.3635   -9.1024    6.2825 C   0  0  0  0  0  0  0  0  0  0  0  0
   -6.8616   -7.9384    7.0846 N   0  0  0  0  0  0  0  0  0  0  0  0
   -7.7008   -7.9316    8.2167 C   0  0  0  0  0  0  0  0  0  0  0  0
   -7.2229   -8.6728    9.2060 O   0  0  0  0  0  0  0  0  0  0  0  0
   -8.9617   -7.3236    8.5951 C   0  0  0  0  0  0  0  0  0  0  0  0
   -8.8910   -6.1936    9.5002 N   0  0  0  0  0  0  0  0  0  0  0  0
   -9.8458   -5.7911   10.4395 C   0  0  0  0  0  0  0  0  0  0  0  0
  -10.3929   -4.6366   10.3319 O   0  0  0  0  0  0  0  0  0  0  0  0
   -9.0852   -7.8461   12.7559 H   0  0  0  0  0  0  0  0  0  0  0  0
   -6.5017   -6.5010   12.3298 H   0  0  0  0  0  0  0  0  0  0  0  0
   -2.1514   -4.5365   12.7580 H   0  0  0  0  0  0  0  0  0  0  0  0
   -1.1769   -5.5495    8.7030 H   0  0  0  0  0  0  0  0  0  0  0  0
   -4.9954   -4.2786    8.0670 H   0  0  0  0  0  0  0  0  0  0  0  0
   -8.0152   -5.6152    9.4226 H   0  0  0  0  0  0  0  0  0  0  0  0
  -11.5753   -5.5629   13.3572 C   0  0  0  0  0  0  0  0  0  0  0  0
  -11.6694   -6.3312   12.0708 C   0  0  0  0  0  0  0  0  0  0  0  0
  -12.3353   -5.3865   11.0557 C   0  0  0  0  0  0  0  0  0  0  0  0
   -7.8171   -3.6284   12.9063 C   0  0  0  0  0  0  0  0  0  0  0  0
   -8.7154   -2.8915   13.8505 C   0  0  0  0  0  0  0  0  0  0  0  0
   -8.3928   -1.8099   14.5898 C   0  0  0  0  0  0  0  0  0  0  0  0
   -9.3021   -1.1806   15.4451 C   0  0  0  0  0  0  0  0  0  0  0  0
  -10.5725   -1.6389   15.5705 C   0  0  0  0  0  0  0  0  0  0  0  0
  -10.9228   -2.7547   14.8147 C   0  0  0  0  0  0  0  0  0  0  0  0
  -10.0243   -3.3707   13.9747 C   0  0  0  0  0  0  0  0  0  0  0  0
   -3.9388   -3.1283   13.7255 C   0  0  0  0  0  0  0  0  0  0  0  0
   -2.9180   -2.1115   13.6147 C   0  0  0  0  0  0  0  0  0  0  0  0
   -1.9193   -1.9556   14.5651 C   0  0  0  0  0  0  0  0  0  0  0  0
   -1.1665   -0.9303   14.1977 N   0  0  0  0  0  0  0  0  0  0  0  0
   -1.6221   -0.3955   13.0370 C   0  0  0  0  0  0  0  0  0  0  0  0
   -1.1525    0.6624   12.2634 C   0  0  0  0  0  0  0  0  0  0  0  0
   -1.7926    0.9880   11.0941 C   0  0  0  0  0  0  0  0  0  0  0  0
   -2.9068    0.2292   10.7262 C   0  0  0  0  0  0  0  0  0  0  0  0
   -3.3547   -0.7975   11.4887 C   0  0  0  0  0  0  0  0  0  0  0  0
   -2.7190   -1.1353   12.6708 C   0  0  0  0  0  0  0  0  0  0  0  0
   -0.3274   -0.5631   14.7174 H   0  0  0  0  0  0  0  0  0  0  0  0
   -2.6343   -7.2187   10.3201 C   0  0  0  0  0  0  0  0  0  0  0  0
   -2.4003   -8.2242    9.2629 C   0  0  0  0  0  0  0  0  0  0  0  0
   -3.2590   -8.3641    8.1924 C   0  0  0  0  0  0  0  0  0  0  0  0
   -3.0302   -9.3115    7.2247 C   0  0  0  0  0  0  0  0  0  0  0  0
   -1.9374  -10.1545    7.2883 C   0  0  0  0  0  0  0  0  0  0  0  0
   -1.0636  -10.0188    8.3699 C   0  0  0  0  0  0  0  0  0  0  0  0
   -1.3095   -9.0618    9.3325 C   0  0  0  0  0  0  0  0  0  0  0  0
   -3.3419   -3.7501    5.9615 C   0  0  0  0  0  0  0  0  0  0  0  0
   -3.1244   -3.7082    4.5174 C   0  0  0  0  0  0  0  0  0  0  0  0
   -2.6027   -4.7765    3.7822 C   0  0  0  0  0  0  0  0  0  0  0  0
   -2.4899   -4.4033    2.5332 N   0  0  0  0  0  0  0  0  0  0  0  0
   -2.9199   -3.1290    2.4244 C   0  0  0  0  0  0  0  0  0  0  0  0
   -3.0213   -2.2672    1.3358 C   0  0  0  0  0  0  0  0  0  0  0  0
   -3.5119   -0.9878    1.4686 C   0  0  0  0  0  0  0  0  0  0  0  0
   -3.9215   -0.5199    2.6958 C   0  0  0  0  0  0  0  0  0  0  0  0
   -3.8200   -1.3742    3.7715 C   0  0  0  0  0  0  0  0  0  0  0  0
   -3.3228   -2.6743    3.6555 C   0  0  0  0  0  0  0  0  0  0  0  0
   -2.1268   -4.9681    1.6997 H   0  0  0  0  0  0  0  0  0  0  0  0
  -10.0414   -7.1519    7.5830 C   0  0  0  0  0  0  0  0  0  0  0  0
  -11.3737   -7.6201    7.9764 C   0  0  0  0  0  0  0  0  0  0  0  0
  -11.4652   -8.9091    8.5125 C   0  0  0  0  0  0  0  0  0  0  0  0
  -12.6675   -9.4060    8.9468 C   0  0  0  0  0  0  0  0  0  0  0  0
  -13.7860   -8.6186    8.8474 C   0  0  0  0  0  0  0  0  0  0  0  0
  -13.7223   -7.3484    8.3237 C   0  0  0  0  0  0  0  0  0  0  0  0
  -12.4837   -6.8505    7.8830 C   0  0  0  0  0  0  0  0  0  0  0  0
 38 39  1  0  0  0
 39 40  1  0  0  0
 39  1  1  0  0  0
  1  2  1  0  0  0
  2  3  1  0  0  0
  3  4  2  0  0  0
  3  5  1  0  0  0
  5 41  1  0  0  0
 41 42  1  0  0  0
 42 43  2  0  0  0
 43 44  1  0  0  0
 44 45  2  0  0  0
 45 46  1  0  0  0
 46 47  2  0  0  0
  5  6  1  0  0  0
  6  7  1  0  0  0
  7  8  2  0  0  0
  7  9  1  0  0  0
  9 48  1  0  0  0
 48 49  1  0  0  0
 49 50  2  0  0  0
 50 51  1  0  0  0
 51 52  1  0  0  0
 52 53  2  0  0  0
 53 54  1  0  0  0
 54 55  2  0  0  0
 55 56  1  0  0  0
 56 57  2  0  0  0
  9 10  1  0  0  0
 10 11  1  0  0  0
 11 12  2  0  0  0
 11 13  1  0  0  0
 13 59  1  0  0  0
 59 60  1  0  0  0
 60 61  2  0  0  0
 61 62  1  0  0  0
 62 63  2  0  0  0
 63 64  1  0  0  0
 64 65  2  0  0  0
 13 14  1  0  0  0
 14 15  1  0  0  0
 15 16  2  0  0  0
 15 17  1  0  0  0
 17 66  1  0  0  0
 66 67  1  0  0  0
 67 68  2  0  0  0
 68 69  1  0  0  0
 69 70  1  0  0  0
 70 71  2  0  0  0
 71 72  1  0  0  0
 72 73  2  0  0  0
 73 74  1  0  0  0
 74 75  2  0  0  0
 17 18  1  0  0  0
 18 19  1  0  0  0
 19 20  2  0  0  0
 19 21  1  0  0  0
 21 22  1  0  0  0
 22 23  1  0  0  0
 23 24  1  0  0  0
 24 25  1  0  0  0
 25 26  1  0  0  0
 26 27  2  0  0  0
 26 28  1  0  0  0
 28 77  1  0  0  0
 77 78  1  0  0  0
 78 79  2  0  0  0
 79 80  1  0  0  0
 80 81  2  0  0  0
 81 82  1  0  0  0
 82 83  2  0  0  0
 28 29  1  0  0  0
 29 30  1  0  0  0
 30 31  2  0  0  0
 30  1  1  0  0  0
 47 42  1  0  0  0
 57 49  1  0  0  0
 65 60  1  0  0  0
 75 67  1  0  0  0
 25 21  1  0  0  0
 83 78  1  0  0  0
 57 52  1  0  0  0
 75 70  1  0  0  0
  2 32  1  0  0  0
  6 33  1  0  0  0
 51 58  1  0  0  0
 10 34  1  0  0  0
 14 35  1  0  0  0
 69 76  1  0  0  0
 18 36  1  0  0  0
 29 37  1  0  0  0
M  END
> <minimizedAffinity>
25.86188

> <CNNscore>
0.1113740355

> <CNNaffinity>
7.5788660049

> <CNN_VS>
0.8440889120

> <CNNaffinity_variance>
0.5344229937

$$$$
[H]c1c([H])c([H])c(C([H])([H])[C@@]2([H])C(=O)N3C([H])([H])C([H])([H])C([H])([H])[C@@]3([H])C(=O)N([H])[C@@]([H])(C([H])([H])c3c([H])n([H])c4c([H])c([H])c([H])c([H])c34)C(=O)N([H])[C@@]([H])(C([H])([H])c3c([H])c([H])c([H])c([H])c3[H])C(=O)N([H])[C@]([H])(C([H])([H])c3c([H])n([H])c4c([H])c([H])c([H])c([H])c34)C(=O)N([H])[C@@]([H])(C([H])([H])c3c([H])c([H])c([H])c([H])c3[H])C(=O)N([H])[C@@]([H])(C([H])(C([H])([H])[H])C([H])([H])[H])C(=O)N2[H])c([H])c1[H]


 83 91  0  0  0  0  0  0  0  0999 V2000
  -10.6270   -6.9174   11.1904 C   0  0  0  0  0  0  0  0  0  0  0  0
   -9.7634   -7.0531   12.3394 N   0  0  0  0  0  0  0  0  0  0  0  0
   -9.1651   -6.2127   13.2525 C   0  0  0  0  0  0  0  0  0  0  0  0
   -9.7441   -6.2360   14.4281 O   0  0  0  0  0  0  0  0  0  0  0  0
   -8.0209   -5.2847   13.2439 C   0  0  0  0  0  0  0  0  0  0  0  0
   -6.7746   -5.9106   12.8723 N   0  0  0  0  0  0  0  0  0  0  0  0
   -5.4464   -5.6145   13.0911 C   0  0  0  0  0  0  0  0  0  0  0  0
   -4.7156   -6.4917   13.7076 O   0  0  0  0  0  0  0  0  0  0  0  0
   -4.6413   -4.4269   12.7357 C   0  0  0  0  0  0  0  0  0  0  0  0
   -3.3168   -4.8327   12.2546 N   0  0  0  0  0  0  0  0  0  0  0  0
   -2.8033   -5.1481   11.0254 C   0  0  0  0  0  0  0  0  0  0  0  0
   -1.8435   -4.3765   10.5968 O   0  0  0  0  0  0  0  0  0  0  0  0
   -3.1549   -6.2400   10.0796 C   0  0  0  0  0  0  0  0  0  0  0  0
   -2.3118   -6.1944    8.9050 N   0  0  0  0  0  0  0  0  0  0  0  0
   -2.6577   -6.3413    7.5523 C   0  0  0  0  0  0  0  0  0  0  0  0
   -2.0221   -7.2835    6.9410 O   0  0  0  0  0  0  0  0  0  0  0  0
   -3.6170   -5.5891    6.7579 C   0  0  0  0  0  0  0  0  0  0  0  0
   -4.9199   -5.3582    7.3425 N   0  0  0  0  0  0  0  0  0  0  0  0
   -6.1103   -5.9871    6.8065 C   0  0  0  0  0  0  0  0  0  0  0  0
   -7.1715   -5.3095    6.6709 O   0  0  0  0  0  0  0  0  0  0  0  0
   -6.0635   -7.3654    6.4339 C   0  0  0  0  0  0  0  0  0  0  0  0
   -6.4139   -7.6097    4.9603 C   0  0  0  0  0  0  0  0  0  0  0  0
   -6.2436   -9.1072    4.9370 C   0  0  0  0  0  0  0  0  0  0  0  0
   -6.2660   -9.5780    6.3601 C   0  0  0  0  0  0  0  0  0  0  0  0
   -6.8220   -8.3879    7.0819 N   0  0  0  0  0  0  0  0  0  0  0  0
   -7.7643   -8.3421    8.1288 C   0  0  0  0  0  0  0  0  0  0  0  0
   -7.3919   -9.0623    9.1773 O   0  0  0  0  0  0  0  0  0  0  0  0
   -9.0471   -7.7107    8.3706 C   0  0  0  0  0  0  0  0  0  0  0  0
   -9.0471   -6.5581    9.2496 N   0  0  0  0  0  0  0  0  0  0  0  0
  -10.0810   -6.1207   10.0838 C   0  0  0  0  0  0  0  0  0  0  0  0
  -10.6000   -4.9635    9.8958 O   0  0  0  0  0  0  0  0  0  0  0  0
   -9.5702   -8.1222   12.5127 H   0  0  0  0  0  0  0  0  0  0  0  0
   -6.9402   -6.8171   12.2998 H   0  0  0  0  0  0  0  0  0  0  0  0
   -2.6240   -4.8896   13.0889 H   0  0  0  0  0  0  0  0  0  0  0  0
   -1.2844   -6.0195    9.1714 H   0  0  0  0  0  0  0  0  0  0  0  0
   -5.0084   -4.7241    8.1445 H   0  0  0  0  0  0  0  0  0  0  0  0
   -8.1603   -5.9916    9.2409 H   0  0  0  0  0  0  0  0  0  0  0  0
  -12.4895   -5.3787   10.7854 C   0  0  0  0  0  0  0  0  0  0  0  0
  -12.0576   -6.5977   11.5479 C   0  0  0  0  0  0  0  0  0  0  0  0
  -12.9312   -7.7553   11.0351 C   0  0  0  0  0  0  0  0  0  0  0  0
   -8.2657   -3.9161   12.6766 C   0  0  0  0  0  0  0  0  0  0  0  0
   -8.8838   -3.0067   13.6926 C   0  0  0  0  0  0  0  0  0  0  0  0
   -8.2693   -2.0057   14.3567 C   0  0  0  0  0  0  0  0  0  0  0  0
   -8.9298   -1.2001   15.2891 C   0  0  0  0  0  0  0  0  0  0  0  0
  -10.2424   -1.3937   15.5712 C   0  0  0  0  0  0  0  0  0  0  0  0
  -10.8924   -2.4229   14.8950 C   0  0  0  0  0  0  0  0  0  0  0  0
  -10.2381   -3.2130   13.9786 C   0  0  0  0  0  0  0  0  0  0  0  0
   -4.4758   -3.4370   13.8469 C   0  0  0  0  0  0  0  0  0  0  0  0
   -3.4384   -2.4320   13.8058 C   0  0  0  0  0  0  0  0  0  0  0  0
   -2.4612   -2.3333   14.7858 C   0  0  0  0  0  0  0  0  0  0  0  0
   -1.6852   -1.3043   14.4824 N   0  0  0  0  0  0  0  0  0  0  0  0
   -2.1046   -0.7120   13.3361 C   0  0  0  0  0  0  0  0  0  0  0  0
   -1.6014    0.3717   12.6217 C   0  0  0  0  0  0  0  0  0  0  0  0
   -2.2080    0.7583   11.4531 C   0  0  0  0  0  0  0  0  0  0  0  0
   -3.3234    0.0334   11.0253 C   0  0  0  0  0  0  0  0  0  0  0  0
   -3.8043   -1.0190   11.7305 C   0  0  0  0  0  0  0  0  0  0  0  0
   -3.2026   -1.4182   12.9113 C   0  0  0  0  0  0  0  0  0  0  0  0
   -0.8540   -0.9731   15.0378 H   0  0  0  0  0  0  0  0  0  0  0  0
   -2.9102   -7.6296   10.6844 C   0  0  0  0  0  0  0  0  0  0  0  0
   -2.2676   -7.5919   12.0145 C   0  0  0  0  0  0  0  0  0  0  0  0
   -2.2197   -8.7047   12.8285 C   0  0  0  0  0  0  0  0  0  0  0  0
   -1.6268   -8.6475   14.0660 C   0  0  0  0  0  0  0  0  0  0  0  0
   -1.0600   -7.4792   14.5381 C   0  0  0  0  0  0  0  0  0  0  0  0
   -1.1051   -6.3481   13.7193 C   0  0  0  0  0  0  0  0  0  0  0  0
   -1.7050   -6.4242   12.4794 C   0  0  0  0  0  0  0  0  0  0  0  0
   -3.1564   -4.2693    6.1926 C   0  0  0  0  0  0  0  0  0  0  0  0
   -3.3850   -3.0970    7.0341 C   0  0  0  0  0  0  0  0  0  0  0  0
   -3.4830   -3.1520    8.4274 C   0  0  0  0  0  0  0  0  0  0  0  0
   -3.7346   -1.9475    8.8724 N   0  0  0  0  0  0  0  0  0  0  0  0
   -3.8041   -1.1060    7.8201 C   0  0  0  0  0  0  0  0  0  0  0  0
   -4.0349    0.2642    7.7336 C   0  0  0  0  0  0  0  0  0  0  0  0
   -4.0481    0.9212    6.5239 C   0  0  0  0  0  0  0  0  0  0  0  0
   -3.8299    0.2336    5.3524 C   0  0  0  0  0  0  0  0  0  0  0  0
   -3.6020   -1.1220    5.4404 C   0  0  0  0  0  0  0  0  0  0  0  0
   -3.5873   -1.8050    6.6587 C   0  0  0  0  0  0  0  0  0  0  0  0
   -3.8709   -1.6265    9.8843 H   0  0  0  0  0  0  0  0  0  0  0  0
  -10.0240   -7.5539    7.2568 C   0  0  0  0  0  0  0  0  0  0  0  0
  -11.3853   -8.0285    7.5221 C   0  0  0  0  0  0  0  0  0  0  0  0
  -12.4172   -7.0873    7.4405 C   0  0  0  0  0  0  0  0  0  0  0  0
  -13.7237   -7.4585    7.6303 C   0  0  0  0  0  0  0  0  0  0  0  0
  -14.0076   -8.7721    7.9038 C   0  0  0  0  0  0  0  0  0  0  0  0
  -13.0112   -9.7163    7.9896 C   0  0  0  0  0  0  0  0  0  0  0  0
  -11.6760   -9.3230    7.7920 C   0  0  0  0  0  0  0  0  0  0  0  0
 38 39  1  0  0  0
 39 40  1  0  0  0
 39  1  1  0  0  0
  1  2  1  0  0  0
  2  3  1  0  0  0
  3  4  2  0  0  0
  3  5  1  0  0  0
  5 41  1  0  0  0
 41 42  1  0  0  0
 42 43  2  0  0  0
 43 44  1  0  0  0
 44 45  2  0  0  0
 45 46  1  0  0  0
 46 47  2  0  0  0
  5  6  1  0  0  0
  6  7  1  0  0  0
  7  8  2  0  0  0
  7  9  1  0  0  0
  9 48  1  0  0  0
 48 49  1  0  0  0
 49 50  2  0  0  0
 50 51  1  0  0  0
 51 52  1  0  0  0
 52 53  2  0  0  0
 53 54  1  0  0  0
 54 55  2  0  0  0
 55 56  1  0  0  0
 56 57  2  0  0  0
  9 10  1  0  0  0
 10 11  1  0  0  0
 11 12  2  0  0  0
 11 13  1  0  0  0
 13 59  1  0  0  0
 59 60  1  0  0  0
 60 61  2  0  0  0
 61 62  1  0  0  0
 62 63  2  0  0  0
 63 64  1  0  0  0
 64 65  2  0  0  0
 13 14  1  0  0  0
 14 15  1  0  0  0
 15 16  2  0  0  0
 15 17  1  0  0  0
 17 66  1  0  0  0
 66 67  1  0  0  0
 67 68  2  0  0  0
 68 69  1  0  0  0
 69 70  1  0  0  0
 70 71  2  0  0  0
 71 72  1  0  0  0
 72 73  2  0  0  0
 73 74  1  0  0  0
 74 75  2  0  0  0
 17 18  1  0  0  0
 18 19  1  0  0  0
 19 20  2  0  0  0
 19 21  1  0  0  0
 21 22  1  0  0  0
 22 23  1  0  0  0
 23 24  1  0  0  0
 24 25  1  0  0  0
 25 26  1  0  0  0
 26 27  2  0  0  0
 26 28  1  0  0  0
 28 77  1  0  0  0
 77 78  1  0  0  0
 78 79  2  0  0  0
 79 80  1  0  0  0
 80 81  2  0  0  0
 81 82  1  0  0  0
 82 83  2  0  0  0
 28 29  1  0  0  0
 29 30  1  0  0  0
 30 31  2  0  0  0
 30  1  1  0  0  0
 47 42  1  0  0  0
 57 49  1  0  0  0
 65 60  1  0  0  0
 75 67  1  0  0  0
 25 21  1  0  0  0
 83 78  1  0  0  0
 57 52  1  0  0  0
 75 70  1  0  0  0
  2 32  1  0  0  0
  6 33  1  0  0  0
 51 58  1  0  0  0
 10 34  1  0  0  0
 14 35  1  0  0  0
 69 76  1  0  0  0
 18 36  1  0  0  0
 29 37  1  0  0  0
M  END
> <minimizedAffinity>
29.47228

> <CNNscore>
0.0945121422

> <CNNaffinity>
7.6785645485

> <CNN_VS>
0.7257176042

> <CNNaffinity_variance>
0.9327362776

$$$$
[H]c1c([H])c([H])c(C([H])([H])[C@@]2([H])C(=O)N3C([H])([H])C([H])([H])C([H])([H])[C@@]3([H])C(=O)N([H])[C@@]([H])(C([H])([H])c3c([H])n([H])c4c([H])c([H])c([H])c([H])c34)C(=O)N([H])[C@@]([H])(C([H])([H])c3c([H])c([H])c([H])c([H])c3[H])C(=O)N([H])[C@]([H])(C([H])([H])c3c([H])n([H])c4c([H])c([H])c([H])c([H])c34)C(=O)N([H])[C@@]([H])(C([H])([H])c3c([H])c([H])c([H])c([H])c3[H])C(=O)N([H])[C@@]([H])(C([H])(C([H])([H])[H])C([H])([H])[H])C(=O)N2[H])c([H])c1[H]


 83 91  0  0  0  0  0  0  0  0999 V2000
  -10.9565   -6.9401   11.1806 C   0  0  0  0  0  0  0  0  0  0  0  0
  -10.0225   -7.1156   12.2674 N   0  0  0  0  0  0  0  0  0  0  0  0
   -9.3971   -6.3121   13.1954 C   0  0  0  0  0  0  0  0  0  0  0  0
   -9.9043   -6.4261   14.3986 O   0  0  0  0  0  0  0  0  0  0  0  0
   -8.2841   -5.3470   13.1792 C   0  0  0  0  0  0  0  0  0  0  0  0
   -7.0436   -5.9065   12.6985 N   0  0  0  0  0  0  0  0  0  0  0  0
   -5.7144   -5.5791   12.8588 C   0  0  0  0  0  0  0  0  0  0  0  0
   -4.9219   -6.4666   13.3766 O   0  0  0  0  0  0  0  0  0  0  0  0
   -4.9683   -4.3455   12.5326 C   0  0  0  0  0  0  0  0  0  0  0  0
   -3.6628   -4.6761   11.9520 N   0  0  0  0  0  0  0  0  0  0  0  0
   -3.2138   -4.8990   10.6782 C   0  0  0  0  0  0  0  0  0  0  0  0
   -2.3050   -4.0707   10.2441 O   0  0  0  0  0  0  0  0  0  0  0  0
   -3.5874   -5.9431    9.6878 C   0  0  0  0  0  0  0  0  0  0  0  0
   -2.8172   -5.7979    8.4720 N   0  0  0  0  0  0  0  0  0  0  0  0
   -3.2381   -5.8744    7.1348 C   0  0  0  0  0  0  0  0  0  0  0  0
   -2.6115   -6.7558    6.4305 O   0  0  0  0  0  0  0  0  0  0  0  0
   -4.2652   -5.1086    6.4451 C   0  0  0  0  0  0  0  0  0  0  0  0
   -5.5376   -4.9580    7.1166 N   0  0  0  0  0  0  0  0  0  0  0  0
   -6.7380   -5.5934    6.6116 C   0  0  0  0  0  0  0  0  0  0  0  0
   -7.8256   -4.9454    6.5795 O   0  0  0  0  0  0  0  0  0  0  0  0
   -6.6715   -6.9443    6.1517 C   0  0  0  0  0  0  0  0  0  0  0  0
   -7.1011   -7.1108    4.6883 C   0  0  0  0  0  0  0  0  0  0  0  0
   -6.8869   -8.5975    4.5619 C   0  0  0  0  0  0  0  0  0  0  0  0
   -6.8106   -9.1540    5.9519 C   0  0  0  0  0  0  0  0  0  0  0  0
   -7.3588   -8.0293    6.7771 N   0  0  0  0  0  0  0  0  0  0  0  0
   -8.2383   -8.0790    7.8771 C   0  0  0  0  0  0  0  0  0  0  0  0
   -7.7827   -8.8482    8.8556 O   0  0  0  0  0  0  0  0  0  0  0  0
   -9.5231   -7.5074    8.2309 C   0  0  0  0  0  0  0  0  0  0  0  0
   -9.5061   -6.4107    9.1786 N   0  0  0  0  0  0  0  0  0  0  0  0
  -10.5015   -6.0599   10.0963 C   0  0  0  0  0  0  0  0  0  0  0  0
  -11.0657   -4.9118   10.0108 O   0  0  0  0  0  0  0  0  0  0  0  0
   -9.7869   -8.1861   12.3625 H   0  0  0  0  0  0  0  0  0  0  0  0
   -7.2151   -6.7818   12.0810 H   0  0  0  0  0  0  0  0  0  0  0  0
   -2.9204   -4.7599   12.7401 H   0  0  0  0  0  0  0  0  0  0  0  0
   -1.7816   -5.6046    8.6894 H   0  0  0  0  0  0  0  0  0  0  0  0
   -5.5976   -4.3769    7.9604 H   0  0  0  0  0  0  0  0  0  0  0  0
   -8.6390   -5.8148    9.1544 H   0  0  0  0  0  0  0  0  0  0  0  0
  -12.5131   -5.2475   12.0245 C   0  0  0  0  0  0  0  0  0  0  0  0
  -12.3724   -6.6915   11.6387 C   0  0  0  0  0  0  0  0  0  0  0  0
  -13.2939   -6.9022   10.4251 C   0  0  0  0  0  0  0  0  0  0  0  0
   -8.6036   -3.9557   12.7132 C   0  0  0  0  0  0  0  0  0  0  0  0
   -9.4788   -3.2391   13.6941 C   0  0  0  0  0  0  0  0  0  0  0  0
  -10.6911   -3.6376   14.1322 C   0  0  0  0  0  0  0  0  0  0  0  0
  -11.4389   -2.9037   15.0579 C   0  0  0  0  0  0  0  0  0  0  0  0
  -10.9683   -1.7372   15.5654 C   0  0  0  0  0  0  0  0  0  0  0  0
   -9.7185   -1.3107   15.1239 C   0  0  0  0  0  0  0  0  0  0  0  0
   -8.9866   -2.0362   14.2128 C   0  0  0  0  0  0  0  0  0  0  0  0
   -4.7674   -3.4196   13.6920 C   0  0  0  0  0  0  0  0  0  0  0  0
   -3.4864   -2.7989   13.9412 C   0  0  0  0  0  0  0  0  0  0  0  0
   -2.3866   -3.5188   14.3852 C   0  0  0  0  0  0  0  0  0  0  0  0
   -1.3841   -2.6692   14.5464 N   0  0  0  0  0  0  0  0  0  0  0  0
   -1.7705   -1.4087   14.2256 C   0  0  0  0  0  0  0  0  0  0  0  0
   -1.0706   -0.2054   14.2148 C   0  0  0  0  0  0  0  0  0  0  0  0
   -1.7005    0.9455   13.8126 C   0  0  0  0  0  0  0  0  0  0  0  0
   -3.0400    0.8557   13.4249 C   0  0  0  0  0  0  0  0  0  0  0  0
   -3.7105   -0.3217   13.4410 C   0  0  0  0  0  0  0  0  0  0  0  0
   -3.0873   -1.4893   13.8457 C   0  0  0  0  0  0  0  0  0  0  0  0
   -0.4145   -2.9139   14.8766 H   0  0  0  0  0  0  0  0  0  0  0  0
   -3.2651   -7.3576   10.1898 C   0  0  0  0  0  0  0  0  0  0  0  0
   -2.7672   -8.2622    9.1329 C   0  0  0  0  0  0  0  0  0  0  0  0
   -1.5126   -8.8322    9.1981 C   0  0  0  0  0  0  0  0  0  0  0  0
   -1.0634   -9.6628    8.2007 C   0  0  0  0  0  0  0  0  0  0  0  0
   -1.8477   -9.9556    7.1016 C   0  0  0  0  0  0  0  0  0  0  0  0
   -3.1193   -9.3816    7.0287 C   0  0  0  0  0  0  0  0  0  0  0  0
   -3.5537   -8.5497    8.0397 C   0  0  0  0  0  0  0  0  0  0  0  0
   -3.8793   -3.7422    5.9377 C   0  0  0  0  0  0  0  0  0  0  0  0
   -2.9372   -2.9935    6.7663 C   0  0  0  0  0  0  0  0  0  0  0  0
   -1.6515   -3.4457    7.0772 C   0  0  0  0  0  0  0  0  0  0  0  0
   -1.0858   -2.5715    7.8696 N   0  0  0  0  0  0  0  0  0  0  0  0
   -1.9550   -1.5629    8.0878 C   0  0  0  0  0  0  0  0  0  0  0  0
   -1.8588   -0.3923    8.8351 C   0  0  0  0  0  0  0  0  0  0  0  0
   -2.8946    0.5122    8.9003 C   0  0  0  0  0  0  0  0  0  0  0  0
   -4.0678    0.2820    8.2195 C   0  0  0  0  0  0  0  0  0  0  0  0
   -4.1608   -0.8770    7.4809 C   0  0  0  0  0  0  0  0  0  0  0  0
   -3.1210   -1.8065    7.4054 C   0  0  0  0  0  0  0  0  0  0  0  0
   -0.1063   -2.5991    8.3002 H   0  0  0  0  0  0  0  0  0  0  0  0
  -10.5686   -7.3168    7.1868 C   0  0  0  0  0  0  0  0  0  0  0  0
  -11.7443   -8.1868    7.2859 C   0  0  0  0  0  0  0  0  0  0  0  0
  -11.7433   -9.1488    8.3016 C   0  0  0  0  0  0  0  0  0  0  0  0
  -12.8236   -9.9723    8.4909 C   0  0  0  0  0  0  0  0  0  0  0  0
  -13.9112   -9.8405    7.6660 C   0  0  0  0  0  0  0  0  0  0  0  0
  -13.9366   -8.9029    6.6600 C   0  0  0  0  0  0  0  0  0  0  0  0
  -12.8232   -8.0642    6.4771 C   0  0  0  0  0  0  0  0  0  0  0  0
 38 39  1  0  0  0
 39 40  1  0  0  0
 39  1  1  0  0  0
  1  2  1  0  0  0
  2  3  1  0  0  0
  3  4  2  0  0  0
  3  5  1  0  0  0
  5 41  1  0  0  0
 41 42  1  0  0  0
 42 43  2  0  0  0
 43 44  1  0  0  0
 44 45  2  0  0  0
 45 46  1  0  0  0
 46 47  2  0  0  0
  5  6  1  0  0  0
  6  7  1  0  0  0
  7  8  2  0  0  0
  7  9  1  0  0  0
  9 48  1  0  0  0
 48 49  1  0  0  0
 49 50  2  0  0  0
 50 51  1  0  0  0
 51 52  1  0  0  0
 52 53  2  0  0  0
 53 54  1  0  0  0
 54 55  2  0  0  0
 55 56  1  0  0  0
 56 57  2  0  0  0
  9 10  1  0  0  0
 10 11  1  0  0  0
 11 12  2  0  0  0
 11 13  1  0  0  0
 13 59  1  0  0  0
 59 60  1  0  0  0
 60 61  2  0  0  0
 61 62  1  0  0  0
 62 63  2  0  0  0
 63 64  1  0  0  0
 64 65  2  0  0  0
 13 14  1  0  0  0
 14 15  1  0  0  0
 15 16  2  0  0  0
 15 17  1  0  0  0
 17 66  1  0  0  0
 66 67  1  0  0  0
 67 68  2  0  0  0
 68 69  1  0  0  0
 69 70  1  0  0  0
 70 71  2  0  0  0
 71 72  1  0  0  0
 72 73  2  0  0  0
 73 74  1  0  0  0
 74 75  2  0  0  0
 17 18  1  0  0  0
 18 19  1  0  0  0
 19 20  2  0  0  0
 19 21  1  0  0  0
 21 22  1  0  0  0
 22 23  1  0  0  0
 23 24  1  0  0  0
 24 25  1  0  0  0
 25 26  1  0  0  0
 26 27  2  0  0  0
 26 28  1  0  0  0
 28 77  1  0  0  0
 77 78  1  0  0  0
 78 79  2  0  0  0
 79 80  1  0  0  0
 80 81  2  0  0  0
 81 82  1  0  0  0
 82 83  2  0  0  0
 28 29  1  0  0  0
 29 30  1  0  0  0
 30 31  2  0  0  0
 30  1  1  0  0  0
 47 42  1  0  0  0
 57 49  1  0  0  0
 65 60  1  0  0  0
 75 67  1  0  0  0
 25 21  1  0  0  0
 83 78  1  0  0  0
 57 52  1  0  0  0
 75 70  1  0  0  0
  2 32  1  0  0  0
  6 33  1  0  0  0
 51 58  1  0  0  0
 10 34  1  0  0  0
 14 35  1  0  0  0
 69 76  1  0  0  0
 18 36  1  0  0  0
 29 37  1  0  0  0
M  END
> <minimizedAffinity>
29.86201

> <CNNscore>
0.0845543966

> <CNNaffinity>
7.6283979416

> <CNN_VS>
0.6450145841

> <CNNaffinity_variance>
0.8638029099

$$$$
[H]c1c([H])c([H])c(C([H])([H])[C@@]2([H])C(=O)N3C([H])([H])C([H])([H])C([H])([H])[C@@]3([H])C(=O)N([H])[C@@]([H])(C([H])([H])c3c([H])n([H])c4c([H])c([H])c([H])c([H])c34)C(=O)N([H])[C@@]([H])(C([H])([H])c3c([H])c([H])c([H])c([H])c3[H])C(=O)N([H])[C@]([H])(C([H])([H])c3c([H])n([H])c4c([H])c([H])c([H])c([H])c34)C(=O)N([H])[C@@]([H])(C([H])([H])c3c([H])c([H])c([H])c([H])c3[H])C(=O)N([H])[C@@]([H])(C([H])(C([H])([H])[H])C([H])([H])[H])C(=O)N2[H])c([H])c1[H]


 83 91  0  0  0  0  0  0  0  0999 V2000
  -12.0206   -6.9950    9.7365 C   0  0  0  0  0  0  0  0  0  0  0  0
  -11.4142   -7.3623    8.4788 N   0  0  0  0  0  0  0  0  0  0  0  0
  -11.1385   -6.7464    7.2776 C   0  0  0  0  0  0  0  0  0  0  0  0
   -9.8685   -6.4595    7.1272 O   0  0  0  0  0  0  0  0  0  0  0  0
  -11.9193   -6.3267    6.1010 C   0  0  0  0  0  0  0  0  0  0  0  0
  -12.6499   -7.4054    5.4799 N   0  0  0  0  0  0  0  0  0  0  0  0
  -13.1592   -7.6210    4.2174 C   0  0  0  0  0  0  0  0  0  0  0  0
  -12.7484   -8.6613    3.5594 O   0  0  0  0  0  0  0  0  0  0  0  0
  -14.1435   -6.8591    3.4204 C   0  0  0  0  0  0  0  0  0  0  0  0
  -15.0604   -7.7729    2.7313 N   0  0  0  0  0  0  0  0  0  0  0  0
  -16.2571   -8.3511    3.0596 C   0  0  0  0  0  0  0  0  0  0  0  0
  -17.2669   -8.0370    2.2969 O   0  0  0  0  0  0  0  0  0  0  0  0
  -16.6095   -9.2951    4.1529 C   0  0  0  0  0  0  0  0  0  0  0  0
  -18.0072   -9.6618    4.0852 N   0  0  0  0  0  0  0  0  0  0  0  0
  -18.9529   -9.7672    5.1175 C   0  0  0  0  0  0  0  0  0  0  0  0
  -19.5201  -10.9233    5.2020 O   0  0  0  0  0  0  0  0  0  0  0  0
  -19.3754   -8.7687    6.0878 C   0  0  0  0  0  0  0  0  0  0  0  0
  -18.3354   -8.0166    6.7552 N   0  0  0  0  0  0  0  0  0  0  0  0
  -18.0719   -8.1839    8.1702 C   0  0  0  0  0  0  0  0  0  0  0  0
  -17.8700   -7.1660    8.8960 O   0  0  0  0  0  0  0  0  0  0  0  0
  -18.0497   -9.5003    8.7247 C   0  0  0  0  0  0  0  0  0  0  0  0
  -19.0702   -9.7029    9.8523 C   0  0  0  0  0  0  0  0  0  0  0  0
  -18.7789  -11.1498   10.1580 C   0  0  0  0  0  0  0  0  0  0  0  0
  -17.4414  -11.4685    9.5603 C   0  0  0  0  0  0  0  0  0  0  0  0
  -16.8824  -10.1058    9.2828 N   0  0  0  0  0  0  0  0  0  0  0  0
  -15.5705   -9.6267    9.4710 C   0  0  0  0  0  0  0  0  0  0  0  0
  -14.6686  -10.3535    8.8267 O   0  0  0  0  0  0  0  0  0  0  0  0
  -14.9342   -8.5388   10.1881 C   0  0  0  0  0  0  0  0  0  0  0  0
  -14.4908   -7.4102    9.3938 N   0  0  0  0  0  0  0  0  0  0  0  0
  -13.4184   -6.5513    9.6550 C   0  0  0  0  0  0  0  0  0  0  0  0
  -13.6379   -5.3013    9.8373 O   0  0  0  0  0  0  0  0  0  0  0  0
  -11.0787   -8.4083    8.5395 H   0  0  0  0  0  0  0  0  0  0  0  0
  -12.8212   -8.2211    6.1743 H   0  0  0  0  0  0  0  0  0  0  0  0
  -14.6615   -8.0262    1.7536 H   0  0  0  0  0  0  0  0  0  0  0  0
  -18.3048   -9.8712    3.0729 H   0  0  0  0  0  0  0  0  0  0  0  0
  -17.7808   -7.3382    6.2209 H   0  0  0  0  0  0  0  0  0  0  0  0
  -15.0579   -7.2259    8.5267 H   0  0  0  0  0  0  0  0  0  0  0  0
  -11.9494   -4.9884   11.1397 C   0  0  0  0  0  0  0  0  0  0  0  0
  -11.1365   -6.1296   10.6002 C   0  0  0  0  0  0  0  0  0  0  0  0
  -10.7167   -6.9697   11.8186 C   0  0  0  0  0  0  0  0  0  0  0  0
  -12.6423   -5.0146    6.2033 C   0  0  0  0  0  0  0  0  0  0  0  0
  -14.1268   -5.2091    6.2177 C   0  0  0  0  0  0  0  0  0  0  0  0
  -15.0427   -4.4634    5.5653 C   0  0  0  0  0  0  0  0  0  0  0  0
  -16.4149   -4.7226    5.6326 C   0  0  0  0  0  0  0  0  0  0  0  0
  -16.8935   -5.7552    6.3705 C   0  0  0  0  0  0  0  0  0  0  0  0
  -15.9620   -6.5353    7.0507 C   0  0  0  0  0  0  0  0  0  0  0  0
  -14.6128   -6.2761    6.9816 C   0  0  0  0  0  0  0  0  0  0  0  0
  -13.5380   -5.9261    2.4179 C   0  0  0  0  0  0  0  0  0  0  0  0
  -12.9529   -4.6686    2.8236 C   0  0  0  0  0  0  0  0  0  0  0  0
  -11.6515   -4.3156    2.4964 C   0  0  0  0  0  0  0  0  0  0  0  0
  -11.4055   -3.1310    3.0341 N   0  0  0  0  0  0  0  0  0  0  0  0
  -12.4928   -2.6771    3.7068 C   0  0  0  0  0  0  0  0  0  0  0  0
  -12.7170   -1.4926    4.4030 C   0  0  0  0  0  0  0  0  0  0  0  0
  -13.9407   -1.2625    4.9798 C   0  0  0  0  0  0  0  0  0  0  0  0
  -14.9242   -2.2452    4.8393 C   0  0  0  0  0  0  0  0  0  0  0  0
  -14.6930   -3.3946    4.1600 C   0  0  0  0  0  0  0  0  0  0  0  0
  -13.4629   -3.6396    3.5749 C   0  0  0  0  0  0  0  0  0  0  0  0
  -10.5006   -2.5969    2.9633 H   0  0  0  0  0  0  0  0  0  0  0  0
  -15.8493  -10.6237    4.0368 C   0  0  0  0  0  0  0  0  0  0  0  0
  -14.5426  -10.6207    4.7268 C   0  0  0  0  0  0  0  0  0  0  0  0
  -14.4261  -10.2759    6.0575 C   0  0  0  0  0  0  0  0  0  0  0  0
  -13.2014  -10.2694    6.6790 C   0  0  0  0  0  0  0  0  0  0  0  0
  -12.0477  -10.6058    5.9974 C   0  0  0  0  0  0  0  0  0  0  0  0
  -12.1580  -10.9558    4.6493 C   0  0  0  0  0  0  0  0  0  0  0  0
  -13.3964  -10.9566    4.0416 C   0  0  0  0  0  0  0  0  0  0  0  0
  -20.4117   -7.7696    5.6390 C   0  0  0  0  0  0  0  0  0  0  0  0
  -19.8984   -6.5168    5.0898 C   0  0  0  0  0  0  0  0  0  0  0  0
  -20.1063   -5.2688    5.6842 C   0  0  0  0  0  0  0  0  0  0  0  0
  -19.5623   -4.3529    4.9244 N   0  0  0  0  0  0  0  0  0  0  0  0
  -19.0051   -4.9569    3.8544 C   0  0  0  0  0  0  0  0  0  0  0  0
  -18.3023   -4.4580    2.7611 C   0  0  0  0  0  0  0  0  0  0  0  0
  -17.8085   -5.2863    1.7786 C   0  0  0  0  0  0  0  0  0  0  0  0
  -17.9975   -6.6471    1.8512 C   0  0  0  0  0  0  0  0  0  0  0  0
  -18.6935   -7.1385    2.9337 C   0  0  0  0  0  0  0  0  0  0  0  0
  -19.2032   -6.3127    3.9383 C   0  0  0  0  0  0  0  0  0  0  0  0
  -19.5331   -3.2937    5.0756 H   0  0  0  0  0  0  0  0  0  0  0  0
  -15.4638   -8.1064   11.5118 C   0  0  0  0  0  0  0  0  0  0  0  0
  -14.4838   -7.5423   12.4447 C   0  0  0  0  0  0  0  0  0  0  0  0
  -13.8348   -8.4337   13.3058 C   0  0  0  0  0  0  0  0  0  0  0  0
  -12.8721   -7.9936   14.1777 C   0  0  0  0  0  0  0  0  0  0  0  0
  -12.5523   -6.6601   14.1957 C   0  0  0  0  0  0  0  0  0  0  0  0
  -13.1761   -5.7637   13.3596 C   0  0  0  0  0  0  0  0  0  0  0  0
  -14.1606   -6.2277   12.4698 C   0  0  0  0  0  0  0  0  0  0  0  0
 38 39  1  0  0  0
 39 40  1  0  0  0
 39  1  1  0  0  0
  1  2  1  0  0  0
  2  3  1  0  0  0
  3  4  2  0  0  0
  3  5  1  0  0  0
  5 41  1  0  0  0
 41 42  1  0  0  0
 42 43  2  0  0  0
 43 44  1  0  0  0
 44 45  2  0  0  0
 45 46  1  0  0  0
 46 47  2  0  0  0
  5  6  1  0  0  0
  6  7  1  0  0  0
  7  8  2  0  0  0
  7  9  1  0  0  0
  9 48  1  0  0  0
 48 49  1  0  0  0
 49 50  2  0  0  0
 50 51  1  0  0  0
 51 52  1  0  0  0
 52 53  2  0  0  0
 53 54  1  0  0  0
 54 55  2  0  0  0
 55 56  1  0  0  0
 56 57  2  0  0  0
  9 10  1  0  0  0
 10 11  1  0  0  0
 11 12  2  0  0  0
 11 13  1  0  0  0
 13 59  1  0  0  0
 59 60  1  0  0  0
 60 61  2  0  0  0
 61 62  1  0  0  0
 62 63  2  0  0  0
 63 64  1  0  0  0
 64 65  2  0  0  0
 13 14  1  0  0  0
 14 15  1  0  0  0
 15 16  2  0  0  0
 15 17  1  0  0  0
 17 66  1  0  0  0
 66 67  1  0  0  0
 67 68  2  0  0  0
 68 69  1  0  0  0
 69 70  1  0  0  0
 70 71  2  0  0  0
 71 72  1  0  0  0
 72 73  2  0  0  0
 73 74  1  0  0  0
 74 75  2  0  0  0
 17 18  1  0  0  0
 18 19  1  0  0  0
 19 20  2  0  0  0
 19 21  1  0  0  0
 21 22  1  0  0  0
 22 23  1  0  0  0
 23 24  1  0  0  0
 24 25  1  0  0  0
 25 26  1  0  0  0
 26 27  2  0  0  0
 26 28  1  0  0  0
 28 77  1  0  0  0
 77 78  1  0  0  0
 78 79  2  0  0  0
 79 80  1  0  0  0
 80 81  2  0  0  0
 81 82  1  0  0  0
 82 83  2  0  0  0
 28 29  1  0  0  0
 29 30  1  0  0  0
 30 31  2  0  0  0
 30  1  1  0  0  0
 47 42  1  0  0  0
 57 49  1  0  0  0
 65 60  1  0  0  0
 75 67  1  0  0  0
 25 21  1  0  0  0
 83 78  1  0  0  0
 57 52  1  0  0  0
 75 70  1  0  0  0
  2 32  1  0  0  0
  6 33  1  0  0  0
 51 58  1  0  0  0
 10 34  1  0  0  0
 14 35  1  0  0  0
 69 76  1  0  0  0
 18 36  1  0  0  0
 29 37  1  0  0  0
M  END
> <minimizedAffinity>
130.31889

> <CNNscore>
0.0820354447

> <CNNaffinity>
7.1574745178

> <CNN_VS>
0.5871666074

> <CNNaffinity_variance>
6.7508420944

$$$$
[H]c1c([H])c([H])c(C([H])([H])[C@@]2([H])C(=O)N3C([H])([H])C([H])([H])C([H])([H])[C@@]3([H])C(=O)N([H])[C@@]([H])(C([H])([H])c3c([H])n([H])c4c([H])c([H])c([H])c([H])c34)C(=O)N([H])[C@@]([H])(C([H])([H])c3c([H])c([H])c([H])c([H])c3[H])C(=O)N([H])[C@]([H])(C([H])([H])c3c([H])n([H])c4c([H])c([H])c([H])c([H])c34)C(=O)N([H])[C@@]([H])(C([H])([H])c3c([H])c([H])c([H])c([H])c3[H])C(=O)N([H])[C@@]([H])(C([H])(C([H])([H])[H])C([H])([H])[H])C(=O)N2[H])c([H])c1[H]


 83 91  0  0  0  0  0  0  0  0999 V2000
   -9.8347   -9.2667    5.1743 C   0  0  0  0  0  0  0  0  0  0  0  0
  -11.1277   -9.8865    5.3426 N   0  0  0  0  0  0  0  0  0  0  0  0
  -12.4444   -9.5381    5.1354 C   0  0  0  0  0  0  0  0  0  0  0  0
  -12.9674  -10.1115    4.0793 O   0  0  0  0  0  0  0  0  0  0  0  0
  -13.4289   -8.6759    5.8120 C   0  0  0  0  0  0  0  0  0  0  0  0
  -13.6484   -9.0273    7.1946 N   0  0  0  0  0  0  0  0  0  0  0  0
  -14.6795   -8.8254    8.0866 C   0  0  0  0  0  0  0  0  0  0  0  0
  -15.2390   -9.8659    8.6235 O   0  0  0  0  0  0  0  0  0  0  0  0
  -15.3068   -7.5839    8.5863 C   0  0  0  0  0  0  0  0  0  0  0  0
  -15.5698   -7.6874   10.0253 N   0  0  0  0  0  0  0  0  0  0  0  0
  -14.8484   -7.3927   11.1508 C   0  0  0  0  0  0  0  0  0  0  0  0
  -15.3618   -6.4833   11.9316 O   0  0  0  0  0  0  0  0  0  0  0  0
  -13.5594   -7.9429   11.6473 C   0  0  0  0  0  0  0  0  0  0  0  0
  -13.1971   -7.3425   12.9125 N   0  0  0  0  0  0  0  0  0  0  0  0
  -11.9509   -6.8663   13.3497 C   0  0  0  0  0  0  0  0  0  0  0  0
  -11.5295   -7.4074   14.4429 O   0  0  0  0  0  0  0  0  0  0  0  0
  -11.0844   -5.8626   12.7507 C   0  0  0  0  0  0  0  0  0  0  0  0
  -10.8474   -5.9612   11.3271 N   0  0  0  0  0  0  0  0  0  0  0  0
   -9.5431   -6.3104   10.8011 C   0  0  0  0  0  0  0  0  0  0  0  0
   -9.0756   -5.6764    9.8095 O   0  0  0  0  0  0  0  0  0  0  0  0
   -8.8022   -7.3653   11.4168 C   0  0  0  0  0  0  0  0  0  0  0  0
   -7.4296   -6.9208   11.9386 C   0  0  0  0  0  0  0  0  0  0  0  0
   -6.9739   -8.2373   12.5140 C   0  0  0  0  0  0  0  0  0  0  0  0
   -7.8387   -9.3057   11.9155 C   0  0  0  0  0  0  0  0  0  0  0  0
   -8.4759   -8.5921   10.7617 N   0  0  0  0  0  0  0  0  0  0  0  0
   -8.7200   -9.0559    9.4535 C   0  0  0  0  0  0  0  0  0  0  0  0
   -9.4471  -10.1638    9.4362 O   0  0  0  0  0  0  0  0  0  0  0  0
   -8.3860   -8.6413    8.1047 C   0  0  0  0  0  0  0  0  0  0  0  0
   -9.4453   -8.0168    7.3371 N   0  0  0  0  0  0  0  0  0  0  0  0
   -9.6206   -8.0378    5.9498 C   0  0  0  0  0  0  0  0  0  0  0  0
   -9.5984   -6.9376    5.2917 O   0  0  0  0  0  0  0  0  0  0  0  0
  -10.9833  -10.9110    5.7166 H   0  0  0  0  0  0  0  0  0  0  0  0
  -12.8074   -9.5774    7.6033 H   0  0  0  0  0  0  0  0  0  0  0  0
  -16.5614   -8.0986   10.1894 H   0  0  0  0  0  0  0  0  0  0  0  0
  -14.0468   -7.2788   13.5692 H   0  0  0  0  0  0  0  0  0  0  0  0
  -11.6134   -5.7654   10.6728 H   0  0  0  0  0  0  0  0  0  0  0  0
  -10.1521   -7.4834    7.9058 H   0  0  0  0  0  0  0  0  0  0  0  0
   -8.4282  -10.3068    3.4595 C   0  0  0  0  0  0  0  0  0  0  0  0
   -9.3890   -9.1865    3.7350 C   0  0  0  0  0  0  0  0  0  0  0  0
  -10.6218   -9.4535    2.8545 C   0  0  0  0  0  0  0  0  0  0  0  0
  -13.3613   -7.2068    5.5085 C   0  0  0  0  0  0  0  0  0  0  0  0
  -13.8781   -6.9089    4.1353 C   0  0  0  0  0  0  0  0  0  0  0  0
  -14.7797   -5.9619    3.8025 C   0  0  0  0  0  0  0  0  0  0  0  0
  -15.2024   -5.7500    2.4868 C   0  0  0  0  0  0  0  0  0  0  0  0
  -14.7144   -6.5017    1.4687 C   0  0  0  0  0  0  0  0  0  0  0  0
  -13.7828   -7.4842    1.7942 C   0  0  0  0  0  0  0  0  0  0  0  0
  -13.3703   -7.6889    3.0904 C   0  0  0  0  0  0  0  0  0  0  0  0
  -16.5738   -7.2053    7.8838 C   0  0  0  0  0  0  0  0  0  0  0  0
  -16.7182   -7.3768    6.4562 C   0  0  0  0  0  0  0  0  0  0  0  0
  -17.1264   -6.3459    5.6222 C   0  0  0  0  0  0  0  0  0  0  0  0
  -17.1898   -6.8231    4.3889 N   0  0  0  0  0  0  0  0  0  0  0  0
  -16.8380   -8.1333    4.3655 C   0  0  0  0  0  0  0  0  0  0  0  0
  -16.7328   -9.0402    3.3145 C   0  0  0  0  0  0  0  0  0  0  0  0
  -16.3193  -10.3250    3.5621 C   0  0  0  0  0  0  0  0  0  0  0  0
  -16.0170  -10.6710    4.8818 C   0  0  0  0  0  0  0  0  0  0  0  0
  -16.1247   -9.7792    5.8962 C   0  0  0  0  0  0  0  0  0  0  0  0
  -16.5419   -8.4808    5.6602 C   0  0  0  0  0  0  0  0  0  0  0  0
  -17.4715   -6.2812    3.5310 H   0  0  0  0  0  0  0  0  0  0  0  0
  -13.6471   -9.4477   11.9378 C   0  0  0  0  0  0  0  0  0  0  0  0
  -12.8859   -9.8655   13.1335 C   0  0  0  0  0  0  0  0  0  0  0  0
  -11.7964  -10.7067   13.0422 C   0  0  0  0  0  0  0  0  0  0  0  0
  -11.1075  -11.0920   14.1661 C   0  0  0  0  0  0  0  0  0  0  0  0
  -11.4792  -10.6535   15.4225 C   0  0  0  0  0  0  0  0  0  0  0  0
  -12.5820   -9.8016   15.5227 C   0  0  0  0  0  0  0  0  0  0  0  0
  -13.2619   -9.4253   14.3830 C   0  0  0  0  0  0  0  0  0  0  0  0
  -11.4067   -4.4176   13.0366 C   0  0  0  0  0  0  0  0  0  0  0  0
  -10.3366   -3.6307   13.6452 C   0  0  0  0  0  0  0  0  0  0  0  0
  -10.4670   -2.2816   13.9873 C   0  0  0  0  0  0  0  0  0  0  0  0
   -9.3224   -1.8632   14.4638 N   0  0  0  0  0  0  0  0  0  0  0  0
   -8.4478   -2.8903   14.4464 C   0  0  0  0  0  0  0  0  0  0  0  0
   -7.1174   -2.9910   14.8438 C   0  0  0  0  0  0  0  0  0  0  0  0
   -6.4181   -4.1723   14.7396 C   0  0  0  0  0  0  0  0  0  0  0  0
   -7.0224   -5.3003   14.2344 C   0  0  0  0  0  0  0  0  0  0  0  0
   -8.3387   -5.1983   13.8417 C   0  0  0  0  0  0  0  0  0  0  0  0
   -9.0626   -4.0076   13.9383 C   0  0  0  0  0  0  0  0  0  0  0  0
   -9.0667   -0.8870   14.8206 H   0  0  0  0  0  0  0  0  0  0  0  0
   -7.0612   -8.0220    7.8202 C   0  0  0  0  0  0  0  0  0  0  0  0
   -6.3656   -8.5089    6.6253 C   0  0  0  0  0  0  0  0  0  0  0  0
   -7.0955   -8.5474    5.4324 C   0  0  0  0  0  0  0  0  0  0  0  0
   -6.5062   -8.9474    4.2604 C   0  0  0  0  0  0  0  0  0  0  0  0
   -5.1843   -9.3122    4.2728 C   0  0  0  0  0  0  0  0  0  0  0  0
   -4.4452   -9.2834    5.4324 C   0  0  0  0  0  0  0  0  0  0  0  0
   -5.0608   -8.8706    6.6270 C   0  0  0  0  0  0  0  0  0  0  0  0
 38 39  1  0  0  0
 39 40  1  0  0  0
 39  1  1  0  0  0
  1  2  1  0  0  0
  2  3  1  0  0  0
  3  4  2  0  0  0
  3  5  1  0  0  0
  5 41  1  0  0  0
 41 42  1  0  0  0
 42 43  2  0  0  0
 43 44  1  0  0  0
 44 45  2  0  0  0
 45 46  1  0  0  0
 46 47  2  0  0  0
  5  6  1  0  0  0
  6  7  1  0  0  0
  7  8  2  0  0  0
  7  9  1  0  0  0
  9 48  1  0  0  0
 48 49  1  0  0  0
 49 50  2  0  0  0
 50 51  1  0  0  0
 51 52  1  0  0  0
 52 53  2  0  0  0
 53 54  1  0  0  0
 54 55  2  0  0  0
 55 56  1  0  0  0
 56 57  2  0  0  0
  9 10  1  0  0  0
 10 11  1  0  0  0
 11 12  2  0  0  0
 11 13  1  0  0  0
 13 59  1  0  0  0
 59 60  1  0  0  0
 60 61  2  0  0  0
 61 62  1  0  0  0
 62 63  2  0  0  0
 63 64  1  0  0  0
 64 65  2  0  0  0
 13 14  1  0  0  0
 14 15  1  0  0  0
 15 16  2  0  0  0
 15 17  1  0  0  0
 17 66  1  0  0  0
 66 67  1  0  0  0
 67 68  2  0  0  0
 68 69  1  0  0  0
 69 70  1  0  0  0
 70 71  2  0  0  0
 71 72  1  0  0  0
 72 73  2  0  0  0
 73 74  1  0  0  0
 74 75  2  0  0  0
 17 18  1  0  0  0
 18 19  1  0  0  0
 19 20  2  0  0  0
 19 21  1  0  0  0
 21 22  1  0  0  0
 22 23  1  0  0  0
 23 24  1  0  0  0
 24 25  1  0  0  0
 25 26  1  0  0  0
 26 27  2  0  0  0
 26 28  1  0  0  0
 28 77  1  0  0  0
 77 78  1  0  0  0
 78 79  2  0  0  0
 79 80  1  0  0  0
 80 81  2  0  0  0
 81 82  1  0  0  0
 82 83  2  0  0  0
 28 29  1  0  0  0
 29 30  1  0  0  0
 30 31  2  0  0  0
 30  1  1  0  0  0
 47 42  1  0  0  0
 57 49  1  0  0  0
 65 60  1  0  0  0
 75 67  1  0  0  0
 25 21  1  0  0  0
 83 78  1  0  0  0
 57 52  1  0  0  0
 75 70  1  0  0  0
  2 32  1  0  0  0
  6 33  1  0  0  0
 51 58  1  0  0  0
 10 34  1  0  0  0
 14 35  1  0  0  0
 69 76  1  0  0  0
 18 36  1  0  0  0
 29 37  1  0  0  0
M  END
> <minimizedAffinity>
129.60349

> <CNNscore>
0.0695787668

> <CNNaffinity>
7.2535462379

> <CNN_VS>
0.5046927929

> <CNNaffinity_variance>
3.4907519817

$$$$
[H]c1c([H])c([H])c(C([H])([H])[C@@]2([H])C(=O)N3C([H])([H])C([H])([H])C([H])([H])[C@@]3([H])C(=O)N([H])[C@@]([H])(C([H])([H])c3c([H])n([H])c4c([H])c([H])c([H])c([H])c34)C(=O)N([H])[C@@]([H])(C([H])([H])c3c([H])c([H])c([H])c([H])c3[H])C(=O)N([H])[C@]([H])(C([H])([H])c3c([H])n([H])c4c([H])c([H])c([H])c([H])c34)C(=O)N([H])[C@@]([H])(C([H])([H])c3c([H])c([H])c([H])c([H])c3[H])C(=O)N([H])[C@@]([H])(C([H])(C([H])([H])[H])C([H])([H])[H])C(=O)N2[H])c([H])c1[H]


 83 91  0  0  0  0  0  0  0  0999 V2000
   -5.0567   -7.9011   11.6711 C   0  0  0  0  0  0  0  0  0  0  0  0
   -6.0606   -7.1256   12.3602 N   0  0  0  0  0  0  0  0  0  0  0  0
   -7.3114   -7.3469   12.8938 C   0  0  0  0  0  0  0  0  0  0  0  0
   -7.3083   -7.4053   14.2031 O   0  0  0  0  0  0  0  0  0  0  0  0
   -8.6713   -7.5327   12.3586 C   0  0  0  0  0  0  0  0  0  0  0  0
   -9.1210   -6.4360   11.5350 N   0  0  0  0  0  0  0  0  0  0  0  0
  -10.3584   -5.9562   11.1632 C   0  0  0  0  0  0  0  0  0  0  0  0
  -10.6570   -4.7300   11.4647 O   0  0  0  0  0  0  0  0  0  0  0  0
  -11.4762   -6.5993   10.4409 C   0  0  0  0  0  0  0  0  0  0  0  0
  -12.0636   -5.6667    9.4736 N   0  0  0  0  0  0  0  0  0  0  0  0
  -11.8123   -5.3692    8.1612 C   0  0  0  0  0  0  0  0  0  0  0  0
  -12.7906   -5.5987    7.3303 O   0  0  0  0  0  0  0  0  0  0  0  0
  -10.5960   -4.8165    7.5086 C   0  0  0  0  0  0  0  0  0  0  0  0
  -10.8092   -4.6401    6.0888 N   0  0  0  0  0  0  0  0  0  0  0  0
   -9.9611   -4.9505    5.0139 C   0  0  0  0  0  0  0  0  0  0  0  0
   -9.6908   -3.9501    4.2447 O   0  0  0  0  0  0  0  0  0  0  0  0
   -9.3563   -6.2238    4.6531 C   0  0  0  0  0  0  0  0  0  0  0  0
   -8.7285   -6.9796    5.7148 N   0  0  0  0  0  0  0  0  0  0  0  0
   -7.2927   -7.1699    5.7591 C   0  0  0  0  0  0  0  0  0  0  0  0
   -6.8188   -8.3096    6.0426 O   0  0  0  0  0  0  0  0  0  0  0  0
   -6.4334   -6.0644    5.4757 C   0  0  0  0  0  0  0  0  0  0  0  0
   -5.4831   -6.3185    4.2984 C   0  0  0  0  0  0  0  0  0  0  0  0
   -4.7824   -4.9840    4.2866 C   0  0  0  0  0  0  0  0  0  0  0  0
   -5.0438   -4.3346    5.6123 C   0  0  0  0  0  0  0  0  0  0  0  0
   -5.5508   -5.4802    6.4351 N   0  0  0  0  0  0  0  0  0  0  0  0
   -5.2653   -5.8082    7.7757 C   0  0  0  0  0  0  0  0  0  0  0  0
   -5.5445   -4.8170    8.6101 O   0  0  0  0  0  0  0  0  0  0  0  0
   -4.7426   -6.9527    8.4964 C   0  0  0  0  0  0  0  0  0  0  0  0
   -5.7040   -7.7503    9.2318 N   0  0  0  0  0  0  0  0  0  0  0  0
   -5.4843   -8.4928   10.3965 C   0  0  0  0  0  0  0  0  0  0  0  0
   -5.6585   -9.7629   10.3803 O   0  0  0  0  0  0  0  0  0  0  0  0
   -5.6855   -6.1000   12.4944 H   0  0  0  0  0  0  0  0  0  0  0  0
   -8.2858   -5.8720   11.1335 H   0  0  0  0  0  0  0  0  0  0  0  0
  -12.8645   -5.1043    9.9444 H   0  0  0  0  0  0  0  0  0  0  0  0
  -11.7734   -4.2055    5.8922 H   0  0  0  0  0  0  0  0  0  0  0  0
   -9.3111   -7.4042    6.4451 H   0  0  0  0  0  0  0  0  0  0  0  0
   -6.6737   -7.7671    8.8233 H   0  0  0  0  0  0  0  0  0  0  0  0
   -3.3935   -8.0349   13.4645 C   0  0  0  0  0  0  0  0  0  0  0  0
   -4.2965   -8.8398   12.5752 C   0  0  0  0  0  0  0  0  0  0  0  0
   -5.3196   -9.5163   13.5036 C   0  0  0  0  0  0  0  0  0  0  0  0
   -9.0235   -8.9091   11.8724 C   0  0  0  0  0  0  0  0  0  0  0  0
   -7.8607   -9.5613   11.1912 C   0  0  0  0  0  0  0  0  0  0  0  0
   -7.8547  -10.1118    9.9593 C   0  0  0  0  0  0  0  0  0  0  0  0
   -6.7156  -10.6972    9.3987 C   0  0  0  0  0  0  0  0  0  0  0  0
   -5.5448  -10.7374   10.0823 C   0  0  0  0  0  0  0  0  0  0  0  0
   -5.5330  -10.1740   11.3556 C   0  0  0  0  0  0  0  0  0  0  0  0
   -6.6565   -9.5993   11.9030 C   0  0  0  0  0  0  0  0  0  0  0  0
  -12.5598   -7.1317   11.3267 C   0  0  0  0  0  0  0  0  0  0  0  0
  -13.0834   -6.3485   12.4224 C   0  0  0  0  0  0  0  0  0  0  0  0
  -14.3711   -6.5210   12.9093 C   0  0  0  0  0  0  0  0  0  0  0  0
  -14.5578   -5.6425   13.8821 N   0  0  0  0  0  0  0  0  0  0  0  0
  -13.4438   -4.8902   14.0659 C   0  0  0  0  0  0  0  0  0  0  0  0
  -13.1590   -3.8722   14.9718 C   0  0  0  0  0  0  0  0  0  0  0  0
  -11.9198   -3.2827   14.9667 C   0  0  0  0  0  0  0  0  0  0  0  0
  -10.9830   -3.7394   14.0358 C   0  0  0  0  0  0  0  0  0  0  0  0
  -11.2731   -4.7304   13.1584 C   0  0  0  0  0  0  0  0  0  0  0  0
  -12.5194   -5.3323   13.1523 C   0  0  0  0  0  0  0  0  0  0  0  0
  -15.4386   -5.5254   14.4474 H   0  0  0  0  0  0  0  0  0  0  0  0
  -10.2465   -3.4156    8.0299 C   0  0  0  0  0  0  0  0  0  0  0  0
   -9.3909   -3.4282    9.2346 C   0  0  0  0  0  0  0  0  0  0  0  0
   -8.2216   -4.1584    9.2858 C   0  0  0  0  0  0  0  0  0  0  0  0
   -7.4445   -4.1657   10.4182 C   0  0  0  0  0  0  0  0  0  0  0  0
   -7.8041   -3.4459   11.5414 C   0  0  0  0  0  0  0  0  0  0  0  0
   -8.9874   -2.7044   11.4968 C   0  0  0  0  0  0  0  0  0  0  0  0
   -9.7553   -2.7091   10.3509 C   0  0  0  0  0  0  0  0  0  0  0  0
  -10.2099   -7.1947    3.8771 C   0  0  0  0  0  0  0  0  0  0  0  0
   -9.7525   -7.5126    2.5265 C   0  0  0  0  0  0  0  0  0  0  0  0
   -8.4088   -7.4979    2.1412 C   0  0  0  0  0  0  0  0  0  0  0  0
   -8.3411   -7.7802    0.8653 N   0  0  0  0  0  0  0  0  0  0  0  0
   -9.5924   -7.9798    0.4019 C   0  0  0  0  0  0  0  0  0  0  0  0
  -10.0795   -8.3104   -0.8597 C   0  0  0  0  0  0  0  0  0  0  0  0
  -11.4256   -8.4769   -1.0952 C   0  0  0  0  0  0  0  0  0  0  0  0
  -12.3381   -8.3202   -0.0776 C   0  0  0  0  0  0  0  0  0  0  0  0
  -11.8539   -7.9929    1.1698 C   0  0  0  0  0  0  0  0  0  0  0  0
  -10.4921   -7.8180    1.4261 C   0  0  0  0  0  0  0  0  0  0  0  0
   -7.4720   -7.8541    0.2450 H   0  0  0  0  0  0  0  0  0  0  0  0
   -3.6787   -7.7978    7.8852 C   0  0  0  0  0  0  0  0  0  0  0  0
   -3.2389   -7.4086    6.5421 C   0  0  0  0  0  0  0  0  0  0  0  0
   -3.6167   -6.1401    6.0888 C   0  0  0  0  0  0  0  0  0  0  0  0
   -3.2087   -5.6817    4.8622 C   0  0  0  0  0  0  0  0  0  0  0  0
   -2.4216   -6.4881    4.0805 C   0  0  0  0  0  0  0  0  0  0  0  0
   -2.0370   -7.7391    4.5032 C   0  0  0  0  0  0  0  0  0  0  0  0
   -2.4611   -8.1968    5.7630 C   0  0  0  0  0  0  0  0  0  0  0  0
 38 39  1  0  0  0
 39 40  1  0  0  0
 39  1  1  0  0  0
  1  2  1  0  0  0
  2  3  1  0  0  0
  3  4  2  0  0  0
  3  5  1  0  0  0
  5 41  1  0  0  0
 41 42  1  0  0  0
 42 43  2  0  0  0
 43 44  1  0  0  0
 44 45  2  0  0  0
 45 46  1  0  0  0
 46 47  2  0  0  0
  5  6  1  0  0  0
  6  7  1  0  0  0
  7  8  2  0  0  0
  7  9  1  0  0  0
  9 48  1  0  0  0
 48 49  1  0  0  0
 49 50  2  0  0  0
 50 51  1  0  0  0
 51 52  1  0  0  0
 52 53  2  0  0  0
 53 54  1  0  0  0
 54 55  2  0  0  0
 55 56  1  0  0  0
 56 57  2  0  0  0
  9 10  1  0  0  0
 10 11  1  0  0  0
 11 12  2  0  0  0
 11 13  1  0  0  0
 13 59  1  0  0  0
 59 60  1  0  0  0
 60 61  2  0  0  0
 61 62  1  0  0  0
 62 63  2  0  0  0
 63 64  1  0  0  0
 64 65  2  0  0  0
 13 14  1  0  0  0
 14 15  1  0  0  0
 15 16  2  0  0  0
 15 17  1  0  0  0
 17 66  1  0  0  0
 66 67  1  0  0  0
 67 68  2  0  0  0
 68 69  1  0  0  0
 69 70  1  0  0  0
 70 71  2  0  0  0
 71 72  1  0  0  0
 72 73  2  0  0  0
 73 74  1  0  0  0
 74 75  2  0  0  0
 17 18  1  0  0  0
 18 19  1  0  0  0
 19 20  2  0  0  0
 19 21  1  0  0  0
 21 22  1  0  0  0
 22 23  1  0  0  0
 23 24  1  0  0  0
 24 25  1  0  0  0
 25 26  1  0  0  0
 26 27  2  0  0  0
 26 28  1  0  0  0
 28 77  1  0  0  0
 77 78  1  0  0  0
 78 79  2  0  0  0
 79 80  1  0  0  0
 80 81  2  0  0  0
 81 82  1  0  0  0
 82 83  2  0  0  0
 28 29  1  0  0  0
 29 30  1  0  0  0
 30 31  2  0  0  0
 30  1  1  0  0  0
 47 42  1  0  0  0
 57 49  1  0  0  0
 65 60  1  0  0  0
 75 67  1  0  0  0
 25 21  1  0  0  0
 83 78  1  0  0  0
 57 52  1  0  0  0
 75 70  1  0  0  0
  2 32  1  0  0  0
  6 33  1  0  0  0
 51 58  1  0  0  0
 10 34  1  0  0  0
 14 35  1  0  0  0
 69 76  1  0  0  0
 18 36  1  0  0  0
 29 37  1  0  0  0
M  END
> <minimizedAffinity>
351.76532

> <CNNscore>
0.0419837385

> <CNNaffinity>
5.0652670860

> <CNN_VS>
0.2126588523

> <CNNaffinity_variance>
5.8091568947

$$$$
[H]Oc1c([H])c([H])c(C([H])([H])[C@@]2([H])C(=O)N([H])[C@]([H])(C([H])([H])c3c([H])n([H])c4c([H])c([H])c([H])c([H])c34)C(=O)N([H])[C@@]([H])(C([H])([H])c3c([H])c([H])c([H])c([H])c3[H])C(=O)N([H])[C@@]([H])(C([H])(C([H])([H])[H])C([H])([H])[H])C(=O)N([H])[C@@]([H])(C([H])([H])c3c([H])c([H])c([H])c([H])c3[H])C(=O)N([H])[C@@]([H])(C([H])([H])c3c([H])nc([H])n3[H])C(=O)N3C([H])([H])C([H])([H])C([H])([H])[C@@]3([H])C(=O)N2[H])c([H])c1[H]


 81 88  0  0  0  0  0  0  0  0999 V2000
  -12.5145   -5.1105    9.0498 C   0  0  0  0  0  0  0  0  0  0  0  0
  -12.4511   -6.4886    8.6755 N   0  0  0  0  0  0  0  0  0  0  0  0
  -12.9979   -7.1115    7.5243 C   0  0  0  0  0  0  0  0  0  0  0  0
  -13.8507   -8.0498    7.7824 O   0  0  0  0  0  0  0  0  0  0  0  0
  -12.7347   -6.8440    6.1251 C   0  0  0  0  0  0  0  0  0  0  0  0
  -12.4241   -7.9806    5.2991 N   0  0  0  0  0  0  0  0  0  0  0  0
  -11.9776   -9.2654    5.5906 C   0  0  0  0  0  0  0  0  0  0  0  0
  -12.7088  -10.2537    5.2139 O   0  0  0  0  0  0  0  0  0  0  0  0
  -10.7417   -9.7008    6.2914 C   0  0  0  0  0  0  0  0  0  0  0  0
   -9.9324  -10.5309    5.3897 N   0  0  0  0  0  0  0  0  0  0  0  0
   -8.5997  -10.3656    5.0360 C   0  0  0  0  0  0  0  0  0  0  0  0
   -7.8438  -11.3961    5.1625 O   0  0  0  0  0  0  0  0  0  0  0  0
   -7.9092   -9.1532    4.5220 C   0  0  0  0  0  0  0  0  0  0  0  0
   -7.1158   -8.4580    5.4833 N   0  0  0  0  0  0  0  0  0  0  0  0
   -5.7821   -8.1875    5.7383 C   0  0  0  0  0  0  0  0  0  0  0  0
   -5.3284   -7.0473    5.2423 O   0  0  0  0  0  0  0  0  0  0  0  0
   -4.7082   -8.8541    6.4402 C   0  0  0  0  0  0  0  0  0  0  0  0
   -4.6701  -10.3542    6.4510 C   0  0  0  0  0  0  0  0  0  0  0  0
   -3.5634  -10.6350    7.4536 C   0  0  0  0  0  0  0  0  0  0  0  0
   -3.2638   -9.2852    8.0752 C   0  0  0  0  0  0  0  0  0  0  0  0
   -4.5619   -8.6091    7.8602 N   0  0  0  0  0  0  0  0  0  0  0  0
   -5.3815   -7.9732    8.7828 C   0  0  0  0  0  0  0  0  0  0  0  0
   -5.7479   -8.6425    9.8344 O   0  0  0  0  0  0  0  0  0  0  0  0
   -5.9463   -6.6007    8.7924 C   0  0  0  0  0  0  0  0  0  0  0  0
   -7.2063   -6.6008    9.4894 N   0  0  0  0  0  0  0  0  0  0  0  0
   -8.5114   -6.6977    9.0054 C   0  0  0  0  0  0  0  0  0  0  0  0
   -9.1945   -7.7559    9.2777 O   0  0  0  0  0  0  0  0  0  0  0  0
   -9.2657   -5.6907    8.1733 C   0  0  0  0  0  0  0  0  0  0  0  0
   -9.9197   -4.8275    9.1149 N   0  0  0  0  0  0  0  0  0  0  0  0
  -11.2310   -4.4106    9.2302 C   0  0  0  0  0  0  0  0  0  0  0  0
  -11.3687   -3.1549    9.5647 O   0  0  0  0  0  0  0  0  0  0  0  0
  -11.9463   -7.1172    9.3754 H   0  0  0  0  0  0  0  0  0  0  0  0
  -12.5754   -7.7831    4.2476 H   0  0  0  0  0  0  0  0  0  0  0  0
  -10.4679  -11.3570    4.9701 H   0  0  0  0  0  0  0  0  0  0  0  0
   -7.7707   -7.9807    6.2391 H   0  0  0  0  0  0  0  0  0  0  0  0
   -7.1079   -6.5373   10.5541 H   0  0  0  0  0  0  0  0  0  0  0  0
   -9.2368   -4.4453    9.8660 H   0  0  0  0  0  0  0  0  0  0  0  0
  -14.5085   -5.9725   10.3643 C   0  0  0  0  0  0  0  0  0  0  0  0
  -13.3034   -5.1048   10.3793 C   0  0  0  0  0  0  0  0  0  0  0  0
  -12.4304   -5.2470   11.5750 C   0  0  0  0  0  0  0  0  0  0  0  0
  -13.8115   -5.9944    5.4601 C   0  0  0  0  0  0  0  0  0  0  0  0
  -15.0000   -6.7145    5.0428 C   0  0  0  0  0  0  0  0  0  0  0  0
  -16.2288   -6.3812    5.6219 C   0  0  0  0  0  0  0  0  0  0  0  0
  -17.4033   -7.0348    5.2748 C   0  0  0  0  0  0  0  0  0  0  0  0
  -17.3971   -8.0423    4.3400 C   0  0  0  0  0  0  0  0  0  0  0  0
  -16.1909   -8.3903    3.7519 C   0  0  0  0  0  0  0  0  0  0  0  0
  -15.0396   -7.7276    4.1130 C   0  0  0  0  0  0  0  0  0  0  0  0
  -11.0201  -10.3855    7.5921 C   0  0  0  0  0  0  0  0  0  0  0  0
  -12.3617  -10.2973    8.1658 C   0  0  0  0  0  0  0  0  0  0  0  0
  -13.5213  -10.8745    7.6266 C   0  0  0  0  0  0  0  0  0  0  0  0
  -14.5747  -10.6158    8.4167 N   0  0  0  0  0  0  0  0  0  0  0  0
  -14.1844   -9.8850    9.4732 C   0  0  0  0  0  0  0  0  0  0  0  0
  -14.9148   -9.3694   10.5335 C   0  0  0  0  0  0  0  0  0  0  0  0
  -14.2674   -8.6299   11.4743 C   0  0  0  0  0  0  0  0  0  0  0  0
  -12.9002   -8.4064   11.3576 C   0  0  0  0  0  0  0  0  0  0  0  0
  -12.1985   -8.9296   10.2956 C   0  0  0  0  0  0  0  0  0  0  0  0
  -12.8195   -9.6804    9.3306 C   0  0  0  0  0  0  0  0  0  0  0  0
  -15.5786  -10.9232    8.2641 H   0  0  0  0  0  0  0  0  0  0  0  0
   -7.4773   -9.2162    3.1057 C   0  0  0  0  0  0  0  0  0  0  0  0
   -7.6202  -10.4466    2.3444 C   0  0  0  0  0  0  0  0  0  0  0  0
   -7.0073  -10.5849    1.1283 C   0  0  0  0  0  0  0  0  0  0  0  0
   -7.1315  -11.7643    0.4307 C   0  0  0  0  0  0  0  0  0  0  0  0
   -7.8506  -12.8467    0.8843 C   0  0  0  0  0  0  0  0  0  0  0  0
   -7.9768  -14.0370    0.1805 O   0  0  0  0  0  0  0  0  0  0  0  0
   -8.4550  -12.6647    2.1203 C   0  0  0  0  0  0  0  0  0  0  0  0
   -8.3438  -11.4938    2.8348 C   0  0  0  0  0  0  0  0  0  0  0  0
   -8.7687  -14.1032   -0.4652 H   0  0  0  0  0  0  0  0  0  0  0  0
   -4.9185   -5.7106    9.5075 C   0  0  0  0  0  0  0  0  0  0  0  0
   -3.7198   -5.4160    8.7626 C   0  0  0  0  0  0  0  0  0  0  0  0
   -3.6440   -4.8342    7.5185 C   0  0  0  0  0  0  0  0  0  0  0  0
   -2.3520   -4.7113    7.1619 N   0  0  0  0  0  0  0  0  0  0  0  0
   -1.6127   -5.2142    8.1769 C   0  0  0  0  0  0  0  0  0  0  0  0
   -2.4514   -5.6376    9.1403 N   0  0  0  0  0  0  0  0  0  0  0  0
   -2.1927   -6.0811   10.0658 H   0  0  0  0  0  0  0  0  0  0  0  0
   -8.3249   -4.9193    7.2983 C   0  0  0  0  0  0  0  0  0  0  0  0
   -8.4554   -5.2777    5.8796 C   0  0  0  0  0  0  0  0  0  0  0  0
   -7.3528   -5.6741    5.1558 C   0  0  0  0  0  0  0  0  0  0  0  0
   -7.4393   -5.9884    3.8195 C   0  0  0  0  0  0  0  0  0  0  0  0
   -8.6419   -5.9155    3.1570 C   0  0  0  0  0  0  0  0  0  0  0  0
   -9.7645   -5.5206    3.8586 C   0  0  0  0  0  0  0  0  0  0  0  0
   -9.6438   -5.2139    5.1928 C   0  0  0  0  0  0  0  0  0  0  0  0
 38 39  1  0  0  0
 39 40  1  0  0  0
 39  1  1  0  0  0
  1  2  1  0  0  0
  2  3  1  0  0  0
  3  4  2  0  0  0
  3  5  1  0  0  0
  5 41  1  0  0  0
 41 42  1  0  0  0
 42 43  2  0  0  0
 43 44  1  0  0  0
 44 45  2  0  0  0
 45 46  1  0  0  0
 46 47  2  0  0  0
  5  6  1  0  0  0
  6  7  1  0  0  0
  7  8  2  0  0  0
  7  9  1  0  0  0
  9 48  1  0  0  0
 48 49  1  0  0  0
 49 50  2  0  0  0
 50 51  1  0  0  0
 51 52  1  0  0  0
 52 53  2  0  0  0
 53 54  1  0  0  0
 54 55  2  0  0  0
 55 56  1  0  0  0
 56 57  2  0  0  0
  9 10  1  0  0  0
 10 11  1  0  0  0
 11 12  2  0  0  0
 11 13  1  0  0  0
 13 59  1  0  0  0
 59 60  1  0  0  0
 60 61  2  0  0  0
 61 62  1  0  0  0
 62 63  2  0  0  0
 63 64  1  0  0  0
 63 65  1  0  0  0
 65 66  2  0  0  0
 13 14  1  0  0  0
 14 15  1  0  0  0
 15 16  2  0  0  0
 15 17  1  0  0  0
 17 18  1  0  0  0
 18 19  1  0  0  0
 19 20  1  0  0  0
 20 21  1  0  0  0
 21 22  1  0  0  0
 22 23  2  0  0  0
 22 24  1  0  0  0
 24 68  1  0  0  0
 68 69  1  0  0  0
 69 70  2  0  0  0
 70 71  1  0  0  0
 71 72  2  0  0  0
 72 73  1  0  0  0
 24 25  1  0  0  0
 25 26  1  0  0  0
 26 27  2  0  0  0
 26 28  1  0  0  0
 28 75  1  0  0  0
 75 76  1  0  0  0
 76 77  2  0  0  0
 77 78  1  0  0  0
 78 79  2  0  0  0
 79 80  1  0  0  0
 80 81  2  0  0  0
 28 29  1  0  0  0
 29 30  1  0  0  0
 30 31  2  0  0  0
 30  1  1  0  0  0
 47 42  1  0  0  0
 57 49  1  0  0  0
 66 60  1  0  0  0
 21 17  1  0  0  0
 73 69  1  0  0  0
 81 76  1  0  0  0
 57 52  1  0  0  0
  2 32  1  0  0  0
  6 33  1  0  0  0
 51 58  1  0  0  0
 10 34  1  0  0  0
 64 67  1  0  0  0
 14 35  1  0  0  0
 73 74  1  0  0  0
 25 36  1  0  0  0
 29 37  1  0  0  0
M  END
> <minimizedAffinity>
55.12646

> <CNNscore>
0.3089865148

> <CNNaffinity>
7.9290032387

> <CNN_VS>
2.4499549866

> <CNNaffinity_variance>
2.6935620308

$$$$
[H]Oc1c([H])c([H])c(C([H])([H])[C@@]2([H])C(=O)N([H])[C@]([H])(C([H])([H])c3c([H])n([H])c4c([H])c([H])c([H])c([H])c34)C(=O)N([H])[C@@]([H])(C([H])([H])c3c([H])c([H])c([H])c([H])c3[H])C(=O)N([H])[C@@]([H])(C([H])(C([H])([H])[H])C([H])([H])[H])C(=O)N([H])[C@@]([H])(C([H])([H])c3c([H])c([H])c([H])c([H])c3[H])C(=O)N([H])[C@@]([H])(C([H])([H])c3c([H])nc([H])n3[H])C(=O)N3C([H])([H])C([H])([H])C([H])([H])[C@@]3([H])C(=O)N2[H])c([H])c1[H]


 81 88  0  0  0  0  0  0  0  0999 V2000
  -16.9297   -7.4863    5.3857 C   0  0  0  0  0  0  0  0  0  0  0  0
  -15.9446   -8.5094    5.5470 N   0  0  0  0  0  0  0  0  0  0  0  0
  -15.1218   -9.1000    4.5538 C   0  0  0  0  0  0  0  0  0  0  0  0
  -15.2710  -10.3796    4.4323 O   0  0  0  0  0  0  0  0  0  0  0  0
  -14.1548   -8.4754    3.6744 C   0  0  0  0  0  0  0  0  0  0  0  0
  -12.8511   -9.0818    3.6157 N   0  0  0  0  0  0  0  0  0  0  0  0
  -12.1725   -9.9454    4.4694 C   0  0  0  0  0  0  0  0  0  0  0  0
  -11.7956  -11.0806    3.9978 O   0  0  0  0  0  0  0  0  0  0  0  0
  -11.7931   -9.7619    5.8944 C   0  0  0  0  0  0  0  0  0  0  0  0
  -10.3320   -9.8323    6.0265 N   0  0  0  0  0  0  0  0  0  0  0  0
   -9.4777   -8.9068    6.6113 C   0  0  0  0  0  0  0  0  0  0  0  0
   -8.6525   -9.3632    7.4830 O   0  0  0  0  0  0  0  0  0  0  0  0
   -9.3746   -7.4430    6.3710 C   0  0  0  0  0  0  0  0  0  0  0  0
   -9.9746   -6.6236    7.3738 N   0  0  0  0  0  0  0  0  0  0  0  0
   -9.5924   -5.7257    8.3559 C   0  0  0  0  0  0  0  0  0  0  0  0
   -9.5886   -4.4530    7.9922 O   0  0  0  0  0  0  0  0  0  0  0  0
   -9.1816   -5.8196    9.7389 C   0  0  0  0  0  0  0  0  0  0  0  0
   -8.4136   -7.0286   10.1868 C   0  0  0  0  0  0  0  0  0  0  0  0
   -8.3874   -6.8455   11.6950 C   0  0  0  0  0  0  0  0  0  0  0  0
   -9.3399   -5.6948   11.9535 C   0  0  0  0  0  0  0  0  0  0  0  0
  -10.2079   -5.8063   10.7609 N   0  0  0  0  0  0  0  0  0  0  0  0
  -11.5909   -5.9044   10.6904 C   0  0  0  0  0  0  0  0  0  0  0  0
  -12.1695   -6.8485   11.3699 O   0  0  0  0  0  0  0  0  0  0  0  0
  -12.5828   -5.0897    9.9451 C   0  0  0  0  0  0  0  0  0  0  0  0
  -13.7192   -5.9052    9.6027 N   0  0  0  0  0  0  0  0  0  0  0  0
  -14.0160   -6.6024    8.4311 C   0  0  0  0  0  0  0  0  0  0  0  0
  -14.0263   -7.8906    8.4645 O   0  0  0  0  0  0  0  0  0  0  0  0
  -14.3421   -6.0319    7.0734 C   0  0  0  0  0  0  0  0  0  0  0  0
  -15.7665   -5.8575    7.0624 N   0  0  0  0  0  0  0  0  0  0  0  0
  -16.7386   -6.2503    6.1637 C   0  0  0  0  0  0  0  0  0  0  0  0
  -17.6734   -5.3602    5.9595 O   0  0  0  0  0  0  0  0  0  0  0  0
  -15.8478   -8.8810    6.5432 H   0  0  0  0  0  0  0  0  0  0  0  0
  -12.3044   -8.8049    2.7258 H   0  0  0  0  0  0  0  0  0  0  0  0
   -9.9054  -10.7205    5.6088 H   0  0  0  0  0  0  0  0  0  0  0  0
  -11.0770   -6.7306    7.3390 H   0  0  0  0  0  0  0  0  0  0  0  0
  -14.4340   -5.9996   10.3947 H   0  0  0  0  0  0  0  0  0  0  0  0
  -16.1215   -5.3148    7.9318 H   0  0  0  0  0  0  0  0  0  0  0  0
  -18.6660   -9.2745    4.9013 C   0  0  0  0  0  0  0  0  0  0  0  0
  -18.2600   -8.1598    5.7945 C   0  0  0  0  0  0  0  0  0  0  0  0
  -18.3433   -8.4476    7.2513 C   0  0  0  0  0  0  0  0  0  0  0  0
  -14.6847   -8.2402    2.2646 C   0  0  0  0  0  0  0  0  0  0  0  0
  -13.8514   -8.7558    1.1946 C   0  0  0  0  0  0  0  0  0  0  0  0
  -13.4336   -7.8830    0.1846 C   0  0  0  0  0  0  0  0  0  0  0  0
  -12.6420   -8.3112   -0.8722 C   0  0  0  0  0  0  0  0  0  0  0  0
  -12.2381   -9.6218   -0.9618 C   0  0  0  0  0  0  0  0  0  0  0  0
  -12.6395  -10.5058    0.0278 C   0  0  0  0  0  0  0  0  0  0  0  0
  -13.4246  -10.0573    1.0657 C   0  0  0  0  0  0  0  0  0  0  0  0
  -12.4899  -10.7177    6.8104 C   0  0  0  0  0  0  0  0  0  0  0  0
  -13.5813  -10.2262    7.6494 C   0  0  0  0  0  0  0  0  0  0  0  0
  -14.9117  -10.0494    7.2401 C   0  0  0  0  0  0  0  0  0  0  0  0
  -15.6536   -9.6034    8.2655 N   0  0  0  0  0  0  0  0  0  0  0  0
  -14.8863   -9.4667    9.3587 C   0  0  0  0  0  0  0  0  0  0  0  0
  -15.2032   -9.0238   10.6343 C   0  0  0  0  0  0  0  0  0  0  0  0
  -14.2149   -8.9579   11.5670 C   0  0  0  0  0  0  0  0  0  0  0  0
  -12.9192   -9.3313   11.2290 C   0  0  0  0  0  0  0  0  0  0  0  0
  -12.6312   -9.7675    9.9559 C   0  0  0  0  0  0  0  0  0  0  0  0
  -13.6035   -9.8475    8.9922 C   0  0  0  0  0  0  0  0  0  0  0  0
  -16.6908   -9.3802    8.2542 H   0  0  0  0  0  0  0  0  0  0  0  0
   -8.1417   -6.9940    5.6822 C   0  0  0  0  0  0  0  0  0  0  0  0
   -6.8408   -7.1706    6.3072 C   0  0  0  0  0  0  0  0  0  0  0  0
   -6.0104   -8.1822    5.9067 C   0  0  0  0  0  0  0  0  0  0  0  0
   -4.7724   -8.3217    6.4906 C   0  0  0  0  0  0  0  0  0  0  0  0
   -4.2970   -7.4898    7.4787 C   0  0  0  0  0  0  0  0  0  0  0  0
   -3.0479   -7.6304    8.0688 O   0  0  0  0  0  0  0  0  0  0  0  0
   -5.1695   -6.4782    7.8547 C   0  0  0  0  0  0  0  0  0  0  0  0
   -6.4119   -6.3205    7.2840 C   0  0  0  0  0  0  0  0  0  0  0  0
   -3.0008   -8.2263    8.9002 H   0  0  0  0  0  0  0  0  0  0  0  0
  -12.9892   -3.9373   10.8761 C   0  0  0  0  0  0  0  0  0  0  0  0
  -12.3373   -3.9118   12.1618 C   0  0  0  0  0  0  0  0  0  0  0  0
  -12.4405   -4.8550   13.1577 C   0  0  0  0  0  0  0  0  0  0  0  0
  -11.6742   -4.4870   14.2012 N   0  0  0  0  0  0  0  0  0  0  0  0
  -11.0885   -3.3145   13.8670 C   0  0  0  0  0  0  0  0  0  0  0  0
  -11.4972   -2.9763   12.6303 N   0  0  0  0  0  0  0  0  0  0  0  0
  -11.2229   -2.1164   12.0775 H   0  0  0  0  0  0  0  0  0  0  0  0
  -13.6377   -4.7253    6.8676 C   0  0  0  0  0  0  0  0  0  0  0  0
  -14.1454   -3.9909    5.7009 C   0  0  0  0  0  0  0  0  0  0  0  0
  -14.4623   -4.6596    4.5393 C   0  0  0  0  0  0  0  0  0  0  0  0
  -14.9127   -3.9955    3.4221 C   0  0  0  0  0  0  0  0  0  0  0  0
  -15.0621   -2.6288    3.4296 C   0  0  0  0  0  0  0  0  0  0  0  0
  -14.7515   -1.9324    4.5816 C   0  0  0  0  0  0  0  0  0  0  0  0
  -14.3042   -2.6262    5.6804 C   0  0  0  0  0  0  0  0  0  0  0  0
 38 39  1  0  0  0
 39 40  1  0  0  0
 39  1  1  0  0  0
  1  2  1  0  0  0
  2  3  1  0  0  0
  3  4  2  0  0  0
  3  5  1  0  0  0
  5 41  1  0  0  0
 41 42  1  0  0  0
 42 43  2  0  0  0
 43 44  1  0  0  0
 44 45  2  0  0  0
 45 46  1  0  0  0
 46 47  2  0  0  0
  5  6  1  0  0  0
  6  7  1  0  0  0
  7  8  2  0  0  0
  7  9  1  0  0  0
  9 48  1  0  0  0
 48 49  1  0  0  0
 49 50  2  0  0  0
 50 51  1  0  0  0
 51 52  1  0  0  0
 52 53  2  0  0  0
 53 54  1  0  0  0
 54 55  2  0  0  0
 55 56  1  0  0  0
 56 57  2  0  0  0
  9 10  1  0  0  0
 10 11  1  0  0  0
 11 12  2  0  0  0
 11 13  1  0  0  0
 13 59  1  0  0  0
 59 60  1  0  0  0
 60 61  2  0  0  0
 61 62  1  0  0  0
 62 63  2  0  0  0
 63 64  1  0  0  0
 63 65  1  0  0  0
 65 66  2  0  0  0
 13 14  1  0  0  0
 14 15  1  0  0  0
 15 16  2  0  0  0
 15 17  1  0  0  0
 17 18  1  0  0  0
 18 19  1  0  0  0
 19 20  1  0  0  0
 20 21  1  0  0  0
 21 22  1  0  0  0
 22 23  2  0  0  0
 22 24  1  0  0  0
 24 68  1  0  0  0
 68 69  1  0  0  0
 69 70  2  0  0  0
 70 71  1  0  0  0
 71 72  2  0  0  0
 72 73  1  0  0  0
 24 25  1  0  0  0
 25 26  1  0  0  0
 26 27  2  0  0  0
 26 28  1  0  0  0
 28 75  1  0  0  0
 75 76  1  0  0  0
 76 77  2  0  0  0
 77 78  1  0  0  0
 78 79  2  0  0  0
 79 80  1  0  0  0
 80 81  2  0  0  0
 28 29  1  0  0  0
 29 30  1  0  0  0
 30 31  2  0  0  0
 30  1  1  0  0  0
 47 42  1  0  0  0
 57 49  1  0  0  0
 66 60  1  0  0  0
 21 17  1  0  0  0
 73 69  1  0  0  0
 81 76  1  0  0  0
 57 52  1  0  0  0
  2 32  1  0  0  0
  6 33  1  0  0  0
 51 58  1  0  0  0
 10 34  1  0  0  0
 64 67  1  0  0  0
 14 35  1  0  0  0
 73 74  1  0  0  0
 25 36  1  0  0  0
 29 37  1  0  0  0
M  END
> <minimizedAffinity>
64.78072

> <CNNscore>
0.2737244964

> <CNNaffinity>
7.9695868492

> <CNN_VS>
2.1814711094

> <CNNaffinity_variance>
4.3902578354

$$$$
[H]Oc1c([H])c([H])c(C([H])([H])[C@@]2([H])C(=O)N([H])[C@]([H])(C([H])([H])c3c([H])n([H])c4c([H])c([H])c([H])c([H])c34)C(=O)N([H])[C@@]([H])(C([H])([H])c3c([H])c([H])c([H])c([H])c3[H])C(=O)N([H])[C@@]([H])(C([H])(C([H])([H])[H])C([H])([H])[H])C(=O)N([H])[C@@]([H])(C([H])([H])c3c([H])c([H])c([H])c([H])c3[H])C(=O)N([H])[C@@]([H])(C([H])([H])c3c([H])nc([H])n3[H])C(=O)N3C([H])([H])C([H])([H])C([H])([H])[C@@]3([H])C(=O)N2[H])c([H])c1[H]


 81 88  0  0  0  0  0  0  0  0999 V2000
   -8.1034   -9.4310    7.3605 C   0  0  0  0  0  0  0  0  0  0  0  0
   -6.6988   -9.2557    7.1612 N   0  0  0  0  0  0  0  0  0  0  0  0
   -6.0340   -8.7066    6.0348 C   0  0  0  0  0  0  0  0  0  0  0  0
   -5.2008   -9.5150    5.4635 O   0  0  0  0  0  0  0  0  0  0  0  0
   -6.1595   -7.3874    5.4495 C   0  0  0  0  0  0  0  0  0  0  0  0
   -4.9348   -6.6751    5.1976 N   0  0  0  0  0  0  0  0  0  0  0  0
   -3.6438   -6.8111    5.6975 C   0  0  0  0  0  0  0  0  0  0  0  0
   -2.6972   -7.0404    4.8580 O   0  0  0  0  0  0  0  0  0  0  0  0
   -3.1590   -6.7278    7.0997 C   0  0  0  0  0  0  0  0  0  0  0  0
   -2.1875   -5.6328    7.2192 N   0  0  0  0  0  0  0  0  0  0  0  0
   -2.2024   -4.5655    8.1075 C   0  0  0  0  0  0  0  0  0  0  0  0
   -1.1223   -4.3607    8.7714 O   0  0  0  0  0  0  0  0  0  0  0  0
   -3.3010   -3.6089    8.4058 C   0  0  0  0  0  0  0  0  0  0  0  0
   -3.9996   -3.8544    9.6259 N   0  0  0  0  0  0  0  0  0  0  0  0
   -4.1696   -3.2685   10.8688 C   0  0  0  0  0  0  0  0  0  0  0  0
   -5.2192   -2.4703   10.9822 O   0  0  0  0  0  0  0  0  0  0  0  0
   -3.4699   -3.3063   12.1334 C   0  0  0  0  0  0  0  0  0  0  0  0
   -1.9786   -3.4729   12.1325 C   0  0  0  0  0  0  0  0  0  0  0  0
   -1.6839   -3.6900   13.6072 C   0  0  0  0  0  0  0  0  0  0  0  0
   -3.0484   -3.8627   14.2448 C   0  0  0  0  0  0  0  0  0  0  0  0
   -3.8180   -4.3475   13.0782 N   0  0  0  0  0  0  0  0  0  0  0  0
   -4.5995   -5.4885   12.9574 C   0  0  0  0  0  0  0  0  0  0  0  0
   -4.0556   -6.6321   13.2477 O   0  0  0  0  0  0  0  0  0  0  0  0
   -6.0132   -5.6541   12.5368 C   0  0  0  0  0  0  0  0  0  0  0  0
   -6.1842   -6.9392   11.9101 N   0  0  0  0  0  0  0  0  0  0  0  0
   -6.1650   -7.3018   10.5628 C   0  0  0  0  0  0  0  0  0  0  0  0
   -5.1987   -8.0394   10.1352 O   0  0  0  0  0  0  0  0  0  0  0  0
   -7.1629   -6.9353    9.4928 C   0  0  0  0  0  0  0  0  0  0  0  0
   -8.1567   -7.9701    9.5240 N   0  0  0  0  0  0  0  0  0  0  0  0
   -8.6978   -8.7618    8.5304 C   0  0  0  0  0  0  0  0  0  0  0  0
   -9.9843   -8.9618    8.6430 O   0  0  0  0  0  0  0  0  0  0  0  0
   -6.0879   -9.6118    7.9610 H   0  0  0  0  0  0  0  0  0  0  0  0
   -5.0570   -5.8833    4.4726 H   0  0  0  0  0  0  0  0  0  0  0  0
   -1.3807   -5.6962    6.5188 H   0  0  0  0  0  0  0  0  0  0  0  0
   -4.5950   -4.7850    9.5393 H   0  0  0  0  0  0  0  0  0  0  0  0
   -6.3269   -7.7407   12.6061 H   0  0  0  0  0  0  0  0  0  0  0  0
   -8.5372   -8.1453   10.5244 H   0  0  0  0  0  0  0  0  0  0  0  0
   -9.1941  -11.5380    6.4560 C   0  0  0  0  0  0  0  0  0  0  0  0
   -8.2905  -10.9607    7.4834 C   0  0  0  0  0  0  0  0  0  0  0  0
   -7.0101  -11.6894    7.6880 C   0  0  0  0  0  0  0  0  0  0  0  0
   -7.0441   -7.3595    4.2084 C   0  0  0  0  0  0  0  0  0  0  0  0
   -7.2180   -8.6364    3.5418 C   0  0  0  0  0  0  0  0  0  0  0  0
   -7.9798   -9.6271    4.1701 C   0  0  0  0  0  0  0  0  0  0  0  0
   -8.1800  -10.8734    3.5925 C   0  0  0  0  0  0  0  0  0  0  0  0
   -7.6301  -11.1782    2.3704 C   0  0  0  0  0  0  0  0  0  0  0  0
   -6.8710  -10.2122    1.7281 C   0  0  0  0  0  0  0  0  0  0  0  0
   -6.6866   -8.9837    2.3214 C   0  0  0  0  0  0  0  0  0  0  0  0
   -2.6126   -8.0256    7.6052 C   0  0  0  0  0  0  0  0  0  0  0  0
   -2.1536   -9.0240    6.6413 C   0  0  0  0  0  0  0  0  0  0  0  0
   -1.9017   -8.7919    5.2806 C   0  0  0  0  0  0  0  0  0  0  0  0
   -1.4744   -9.9199    4.6924 N   0  0  0  0  0  0  0  0  0  0  0  0
   -1.4245  -10.9140    5.5934 C   0  0  0  0  0  0  0  0  0  0  0  0
   -1.0663  -12.2461    5.4489 C   0  0  0  0  0  0  0  0  0  0  0  0
   -1.1276  -13.0606    6.5369 C   0  0  0  0  0  0  0  0  0  0  0  0
   -1.5438  -12.5493    7.7608 C   0  0  0  0  0  0  0  0  0  0  0  0
   -1.8937  -11.2234    7.8775 C   0  0  0  0  0  0  0  0  0  0  0  0
   -1.8420  -10.3747    6.8016 C   0  0  0  0  0  0  0  0  0  0  0  0
   -1.2077  -10.0477    3.6735 H   0  0  0  0  0  0  0  0  0  0  0  0
   -3.0819   -2.2192    7.9399 C   0  0  0  0  0  0  0  0  0  0  0  0
   -3.3240   -1.8590    6.5522 C   0  0  0  0  0  0  0  0  0  0  0  0
   -3.8563   -2.7712    5.6815 C   0  0  0  0  0  0  0  0  0  0  0  0
   -4.1025   -2.4082    4.3774 C   0  0  0  0  0  0  0  0  0  0  0  0
   -3.8429   -1.1542    3.8728 C   0  0  0  0  0  0  0  0  0  0  0  0
   -4.0906   -0.7874    2.5566 O   0  0  0  0  0  0  0  0  0  0  0  0
   -3.3045   -0.2607    4.7881 C   0  0  0  0  0  0  0  0  0  0  0  0
   -3.0504   -0.6027    6.0967 C   0  0  0  0  0  0  0  0  0  0  0  0
   -3.3272   -0.9358    1.8905 H   0  0  0  0  0  0  0  0  0  0  0  0
   -6.8638   -5.5425   13.8112 C   0  0  0  0  0  0  0  0  0  0  0  0
   -6.9794   -4.2197   14.3727 C   0  0  0  0  0  0  0  0  0  0  0  0
   -8.1062   -3.4312   14.4005 C   0  0  0  0  0  0  0  0  0  0  0  0
   -7.8228   -2.2706   15.0205 N   0  0  0  0  0  0  0  0  0  0  0  0
   -6.5209   -2.3244   15.3834 C   0  0  0  0  0  0  0  0  0  0  0  0
   -6.0208   -3.5089   14.9862 N   0  0  0  0  0  0  0  0  0  0  0  0
   -5.0324   -3.8637   15.1175 H   0  0  0  0  0  0  0  0  0  0  0  0
   -7.7713   -5.5954    9.7759 C   0  0  0  0  0  0  0  0  0  0  0  0
   -9.2379   -5.6472    9.8442 C   0  0  0  0  0  0  0  0  0  0  0  0
   -9.8770   -5.7364   11.0610 C   0  0  0  0  0  0  0  0  0  0  0  0
  -11.2470   -5.8151   11.1545 C   0  0  0  0  0  0  0  0  0  0  0  0
  -12.0300   -5.8076   10.0243 C   0  0  0  0  0  0  0  0  0  0  0  0
  -11.4154   -5.7191    8.7903 C   0  0  0  0  0  0  0  0  0  0  0  0
  -10.0445   -5.6417    8.7318 C   0  0  0  0  0  0  0  0  0  0  0  0
 38 39  1  0  0  0
 39 40  1  0  0  0
 39  1  1  0  0  0
  1  2  1  0  0  0
  2  3  1  0  0  0
  3  4  2  0  0  0
  3  5  1  0  0  0
  5 41  1  0  0  0
 41 42  1  0  0  0
 42 43  2  0  0  0
 43 44  1  0  0  0
 44 45  2  0  0  0
 45 46  1  0  0  0
 46 47  2  0  0  0
  5  6  1  0  0  0
  6  7  1  0  0  0
  7  8  2  0  0  0
  7  9  1  0  0  0
  9 48  1  0  0  0
 48 49  1  0  0  0
 49 50  2  0  0  0
 50 51  1  0  0  0
 51 52  1  0  0  0
 52 53  2  0  0  0
 53 54  1  0  0  0
 54 55  2  0  0  0
 55 56  1  0  0  0
 56 57  2  0  0  0
  9 10  1  0  0  0
 10 11  1  0  0  0
 11 12  2  0  0  0
 11 13  1  0  0  0
 13 59  1  0  0  0
 59 60  1  0  0  0
 60 61  2  0  0  0
 61 62  1  0  0  0
 62 63  2  0  0  0
 63 64  1  0  0  0
 63 65  1  0  0  0
 65 66  2  0  0  0
 13 14  1  0  0  0
 14 15  1  0  0  0
 15 16  2  0  0  0
 15 17  1  0  0  0
 17 18  1  0  0  0
 18 19  1  0  0  0
 19 20  1  0  0  0
 20 21  1  0  0  0
 21 22  1  0  0  0
 22 23  2  0  0  0
 22 24  1  0  0  0
 24 68  1  0  0  0
 68 69  1  0  0  0
 69 70  2  0  0  0
 70 71  1  0  0  0
 71 72  2  0  0  0
 72 73  1  0  0  0
 24 25  1  0  0  0
 25 26  1  0  0  0
 26 27  2  0  0  0
 26 28  1  0  0  0
 28 75  1  0  0  0
 75 76  1  0  0  0
 76 77  2  0  0  0
 77 78  1  0  0  0
 78 79  2  0  0  0
 79 80  1  0  0  0
 80 81  2  0  0  0
 28 29  1  0  0  0
 29 30  1  0  0  0
 30 31  2  0  0  0
 30  1  1  0  0  0
 47 42  1  0  0  0
 57 49  1  0  0  0
 66 60  1  0  0  0
 21 17  1  0  0  0
 73 69  1  0  0  0
 81 76  1  0  0  0
 57 52  1  0  0  0
  2 32  1  0  0  0
  6 33  1  0  0  0
 51 58  1  0  0  0
 10 34  1  0  0  0
 64 67  1  0  0  0
 14 35  1  0  0  0
 73 74  1  0  0  0
 25 36  1  0  0  0
 29 37  1  0  0  0
M  END
> <minimizedAffinity>
29.27919

> <CNNscore>
0.2624629736

> <CNNaffinity>
7.1099181175

> <CNN_VS>
1.8660902977

> <CNNaffinity_variance>
1.0191788673

$$$$
[H]Oc1c([H])c([H])c(C([H])([H])[C@@]2([H])C(=O)N([H])[C@]([H])(C([H])([H])c3c([H])n([H])c4c([H])c([H])c([H])c([H])c34)C(=O)N([H])[C@@]([H])(C([H])([H])c3c([H])c([H])c([H])c([H])c3[H])C(=O)N([H])[C@@]([H])(C([H])(C([H])([H])[H])C([H])([H])[H])C(=O)N([H])[C@@]([H])(C([H])([H])c3c([H])c([H])c([H])c([H])c3[H])C(=O)N([H])[C@@]([H])(C([H])([H])c3c([H])nc([H])n3[H])C(=O)N3C([H])([H])C([H])([H])C([H])([H])[C@@]3([H])C(=O)N2[H])c([H])c1[H]


 81 88  0  0  0  0  0  0  0  0999 V2000
   -6.2506   -9.7111    4.5716 C   0  0  0  0  0  0  0  0  0  0  0  0
   -6.9259   -9.0241    5.6276 N   0  0  0  0  0  0  0  0  0  0  0  0
   -7.2862   -9.5191    6.9073 C   0  0  0  0  0  0  0  0  0  0  0  0
   -8.5560   -9.4821    7.1530 O   0  0  0  0  0  0  0  0  0  0  0  0
   -6.4397  -10.0498    7.9564 C   0  0  0  0  0  0  0  0  0  0  0  0
   -6.6321   -9.5079    9.2755 N   0  0  0  0  0  0  0  0  0  0  0  0
   -7.2173   -8.3335    9.7374 C   0  0  0  0  0  0  0  0  0  0  0  0
   -8.2077   -8.4371   10.5508 O   0  0  0  0  0  0  0  0  0  0  0  0
   -6.8688   -6.9209    9.4352 C   0  0  0  0  0  0  0  0  0  0  0  0
   -6.4950   -6.2309   10.6767 N   0  0  0  0  0  0  0  0  0  0  0  0
   -5.3330   -5.5202   10.9471 C   0  0  0  0  0  0  0  0  0  0  0  0
   -5.4855   -4.3384   11.4260 O   0  0  0  0  0  0  0  0  0  0  0  0
   -3.9166   -5.9336   10.7632 C   0  0  0  0  0  0  0  0  0  0  0  0
   -3.2713   -5.3812    9.6162 N   0  0  0  0  0  0  0  0  0  0  0  0
   -2.2595   -4.4849    9.3168 C   0  0  0  0  0  0  0  0  0  0  0  0
   -1.0602   -5.0180    9.1456 O   0  0  0  0  0  0  0  0  0  0  0  0
   -2.1680   -3.0542    9.1301 C   0  0  0  0  0  0  0  0  0  0  0  0
   -3.0731   -2.1597    9.9254 C   0  0  0  0  0  0  0  0  0  0  0  0
   -2.8266   -0.8063    9.2801 C   0  0  0  0  0  0  0  0  0  0  0  0
   -2.0021   -1.1191    8.0470 C   0  0  0  0  0  0  0  0  0  0  0  0
   -2.4176   -2.5185    7.8078 N   0  0  0  0  0  0  0  0  0  0  0  0
   -2.9261   -3.0956    6.6521 C   0  0  0  0  0  0  0  0  0  0  0  0
   -3.9700   -2.5473    6.1065 O   0  0  0  0  0  0  0  0  0  0  0  0
   -2.4764   -4.2833    5.8839 C   0  0  0  0  0  0  0  0  0  0  0  0
   -3.6072   -4.8989    5.2389 N   0  0  0  0  0  0  0  0  0  0  0  0
   -4.4103   -5.9671    5.6399 C   0  0  0  0  0  0  0  0  0  0  0  0
   -5.6404   -5.7346    5.9454 O   0  0  0  0  0  0  0  0  0  0  0  0
   -4.0210   -7.4187    5.7687 C   0  0  0  0  0  0  0  0  0  0  0  0
   -4.2795   -8.0011    4.4828 N   0  0  0  0  0  0  0  0  0  0  0  0
   -4.9818   -9.1277    4.1031 C   0  0  0  0  0  0  0  0  0  0  0  0
   -4.4202   -9.8132    3.1427 O   0  0  0  0  0  0  0  0  0  0  0  0
   -7.2092   -8.0211    5.3965 H   0  0  0  0  0  0  0  0  0  0  0  0
   -6.2430  -10.1532   10.0499 H   0  0  0  0  0  0  0  0  0  0  0  0
   -7.2327   -6.3060   11.4485 H   0  0  0  0  0  0  0  0  0  0  0  0
   -3.7033   -5.8172    8.6935 H   0  0  0  0  0  0  0  0  0  0  0  0
   -3.8766   -4.4362    4.3113 H   0  0  0  0  0  0  0  0  0  0  0  0
   -3.8308   -7.4322    3.6757 H   0  0  0  0  0  0  0  0  0  0  0  0
   -6.6686   -9.4955    2.0764 C   0  0  0  0  0  0  0  0  0  0  0  0
   -7.2718   -9.7398    3.4112 C   0  0  0  0  0  0  0  0  0  0  0  0
   -8.2065  -10.8943    3.4866 C   0  0  0  0  0  0  0  0  0  0  0  0
   -6.4332  -11.5731    8.0139 C   0  0  0  0  0  0  0  0  0  0  0  0
   -5.1542  -12.1761    8.3391 C   0  0  0  0  0  0  0  0  0  0  0  0
   -5.1372  -13.4387    8.9408 C   0  0  0  0  0  0  0  0  0  0  0  0
   -3.9498  -14.0698    9.2853 C   0  0  0  0  0  0  0  0  0  0  0  0
   -2.7381  -13.4679    9.0437 C   0  0  0  0  0  0  0  0  0  0  0  0
   -2.7295  -12.2162    8.4480 C   0  0  0  0  0  0  0  0  0  0  0  0
   -3.9202  -11.6105    8.1157 C   0  0  0  0  0  0  0  0  0  0  0  0
   -7.9490   -6.2007    8.6918 C   0  0  0  0  0  0  0  0  0  0  0  0
   -9.3377   -6.3792    9.1117 C   0  0  0  0  0  0  0  0  0  0  0  0
   -9.9369   -5.7815   10.2307 C   0  0  0  0  0  0  0  0  0  0  0  0
  -11.2267   -6.1435   10.3108 N   0  0  0  0  0  0  0  0  0  0  0  0
  -11.5344   -6.9645    9.2941 C   0  0  0  0  0  0  0  0  0  0  0  0
  -12.7253   -7.6005    8.9761 C   0  0  0  0  0  0  0  0  0  0  0  0
  -12.7611   -8.4121    7.8848 C   0  0  0  0  0  0  0  0  0  0  0  0
  -11.6161   -8.5881    7.1161 C   0  0  0  0  0  0  0  0  0  0  0  0
  -10.4470   -7.9452    7.4533 C   0  0  0  0  0  0  0  0  0  0  0  0
  -10.3764   -7.1192    8.5456 C   0  0  0  0  0  0  0  0  0  0  0  0
  -11.9285   -5.8484   11.0498 H   0  0  0  0  0  0  0  0  0  0  0  0
   -3.1504   -6.1610   12.0111 C   0  0  0  0  0  0  0  0  0  0  0  0
   -2.7880   -5.0443   12.8689 C   0  0  0  0  0  0  0  0  0  0  0  0
   -1.6779   -4.2916   12.5956 C   0  0  0  0  0  0  0  0  0  0  0  0
   -1.3614   -3.2229   13.4024 C   0  0  0  0  0  0  0  0  0  0  0  0
   -2.1058   -2.8472   14.4974 C   0  0  0  0  0  0  0  0  0  0  0  0
   -1.7866   -1.7690   15.3123 O   0  0  0  0  0  0  0  0  0  0  0  0
   -3.2220   -3.6359   14.7384 C   0  0  0  0  0  0  0  0  0  0  0  0
   -3.5569   -4.7090   13.9445 C   0  0  0  0  0  0  0  0  0  0  0  0
   -1.1779   -1.9662   16.1117 H   0  0  0  0  0  0  0  0  0  0  0  0
   -1.4590   -3.7756    4.8509 C   0  0  0  0  0  0  0  0  0  0  0  0
   -1.9305   -3.7053    3.4903 C   0  0  0  0  0  0  0  0  0  0  0  0
   -2.5778   -2.6473    2.8954 C   0  0  0  0  0  0  0  0  0  0  0  0
   -2.8465   -2.9535    1.6126 N   0  0  0  0  0  0  0  0  0  0  0  0
   -2.3711   -4.2013    1.3966 C   0  0  0  0  0  0  0  0  0  0  0  0
   -1.8187   -4.6461    2.5402 N   0  0  0  0  0  0  0  0  0  0  0  0
   -1.3576   -5.5841    2.7067 H   0  0  0  0  0  0  0  0  0  0  0  0
   -2.5739   -7.5458    6.1366 C   0  0  0  0  0  0  0  0  0  0  0  0
   -2.0323   -8.8777    5.8351 C   0  0  0  0  0  0  0  0  0  0  0  0
   -1.9235   -9.3079    4.5313 C   0  0  0  0  0  0  0  0  0  0  0  0
   -1.4469  -10.5601    4.2200 C   0  0  0  0  0  0  0  0  0  0  0  0
   -1.0602  -11.4311    5.2111 C   0  0  0  0  0  0  0  0  0  0  0  0
   -1.1587  -11.0257    6.5280 C   0  0  0  0  0  0  0  0  0  0  0  0
   -1.6388   -9.7681    6.8049 C   0  0  0  0  0  0  0  0  0  0  0  0
 38 39  1  0  0  0
 39 40  1  0  0  0
 39  1  1  0  0  0
  1  2  1  0  0  0
  2  3  1  0  0  0
  3  4  2  0  0  0
  3  5  1  0  0  0
  5 41  1  0  0  0
 41 42  1  0  0  0
 42 43  2  0  0  0
 43 44  1  0  0  0
 44 45  2  0  0  0
 45 46  1  0  0  0
 46 47  2  0  0  0
  5  6  1  0  0  0
  6  7  1  0  0  0
  7  8  2  0  0  0
  7  9  1  0  0  0
  9 48  1  0  0  0
 48 49  1  0  0  0
 49 50  2  0  0  0
 50 51  1  0  0  0
 51 52  1  0  0  0
 52 53  2  0  0  0
 53 54  1  0  0  0
 54 55  2  0  0  0
 55 56  1  0  0  0
 56 57  2  0  0  0
  9 10  1  0  0  0
 10 11  1  0  0  0
 11 12  2  0  0  0
 11 13  1  0  0  0
 13 59  1  0  0  0
 59 60  1  0  0  0
 60 61  2  0  0  0
 61 62  1  0  0  0
 62 63  2  0  0  0
 63 64  1  0  0  0
 63 65  1  0  0  0
 65 66  2  0  0  0
 13 14  1  0  0  0
 14 15  1  0  0  0
 15 16  2  0  0  0
 15 17  1  0  0  0
 17 18  1  0  0  0
 18 19  1  0  0  0
 19 20  1  0  0  0
 20 21  1  0  0  0
 21 22  1  0  0  0
 22 23  2  0  0  0
 22 24  1  0  0  0
 24 68  1  0  0  0
 68 69  1  0  0  0
 69 70  2  0  0  0
 70 71  1  0  0  0
 71 72  2  0  0  0
 72 73  1  0  0  0
 24 25  1  0  0  0
 25 26  1  0  0  0
 26 27  2  0  0  0
 26 28  1  0  0  0
 28 75  1  0  0  0
 75 76  1  0  0  0
 76 77  2  0  0  0
 77 78  1  0  0  0
 78 79  2  0  0  0
 79 80  1  0  0  0
 80 81  2  0  0  0
 28 29  1  0  0  0
 29 30  1  0  0  0
 30 31  2  0  0  0
 30  1  1  0  0  0
 47 42  1  0  0  0
 57 49  1  0  0  0
 66 60  1  0  0  0
 21 17  1  0  0  0
 73 69  1  0  0  0
 81 76  1  0  0  0
 57 52  1  0  0  0
  2 32  1  0  0  0
  6 33  1  0  0  0
 51 58  1  0  0  0
 10 34  1  0  0  0
 64 67  1  0  0  0
 14 35  1  0  0  0
 73 74  1  0  0  0
 25 36  1  0  0  0
 29 37  1  0  0  0
M  END
> <minimizedAffinity>
29.91477

> <CNNscore>
0.2450412214

> <CNNaffinity>
7.3827276230

> <CNN_VS>
1.8090726137

> <CNNaffinity_variance>
1.0870249271

$$$$
[H]Oc1c([H])c([H])c(C([H])([H])[C@@]2([H])C(=O)N([H])[C@]([H])(C([H])([H])c3c([H])n([H])c4c([H])c([H])c([H])c([H])c34)C(=O)N([H])[C@@]([H])(C([H])([H])c3c([H])c([H])c([H])c([H])c3[H])C(=O)N([H])[C@@]([H])(C([H])(C([H])([H])[H])C([H])([H])[H])C(=O)N([H])[C@@]([H])(C([H])([H])c3c([H])c([H])c([H])c([H])c3[H])C(=O)N([H])[C@@]([H])(C([H])([H])c3c([H])nc([H])n3[H])C(=O)N3C([H])([H])C([H])([H])C([H])([H])[C@@]3([H])C(=O)N2[H])c([H])c1[H]


 81 88  0  0  0  0  0  0  0  0999 V2000
  -16.5408  -10.9067    3.7152 C   0  0  0  0  0  0  0  0  0  0  0  0
  -16.4229   -9.4828    3.7600 N   0  0  0  0  0  0  0  0  0  0  0  0
  -17.3360   -8.5432    4.3038 C   0  0  0  0  0  0  0  0  0  0  0  0
  -17.7786   -7.6773    3.4502 O   0  0  0  0  0  0  0  0  0  0  0  0
  -17.8298   -8.4244    5.6605 C   0  0  0  0  0  0  0  0  0  0  0  0
  -17.7594   -7.1181    6.2598 N   0  0  0  0  0  0  0  0  0  0  0  0
  -17.0088   -5.9842    5.9664 C   0  0  0  0  0  0  0  0  0  0  0  0
  -17.6434   -4.9000    5.6922 O   0  0  0  0  0  0  0  0  0  0  0  0
  -15.5335   -5.8127    5.9196 C   0  0  0  0  0  0  0  0  0  0  0  0
  -15.1253   -4.8010    6.9029 N   0  0  0  0  0  0  0  0  0  0  0  0
  -14.1799   -4.9188    7.9132 C   0  0  0  0  0  0  0  0  0  0  0  0
  -13.2878   -3.9967    7.9702 O   0  0  0  0  0  0  0  0  0  0  0  0
  -14.0481   -5.9702    8.9564 C   0  0  0  0  0  0  0  0  0  0  0  0
  -13.0273   -6.9372    8.7122 N   0  0  0  0  0  0  0  0  0  0  0  0
  -11.8070   -7.3244    9.2395 C   0  0  0  0  0  0  0  0  0  0  0  0
  -11.8572   -8.3013   10.1311 O   0  0  0  0  0  0  0  0  0  0  0  0
  -10.4295   -6.9243    9.0588 C   0  0  0  0  0  0  0  0  0  0  0  0
  -10.1266   -5.4887    8.7438 C   0  0  0  0  0  0  0  0  0  0  0  0
   -8.6445   -5.5436    8.4135 C   0  0  0  0  0  0  0  0  0  0  0  0
   -8.3268   -7.0241    8.3420 C   0  0  0  0  0  0  0  0  0  0  0  0
   -9.6644   -7.5583    8.0050 N   0  0  0  0  0  0  0  0  0  0  0  0
  -10.0371   -8.3889    6.9569 C   0  0  0  0  0  0  0  0  0  0  0  0
   -9.7281   -8.0215    5.7497 O   0  0  0  0  0  0  0  0  0  0  0  0
  -10.7600   -9.6852    6.9584 C   0  0  0  0  0  0  0  0  0  0  0  0
  -11.5072   -9.8240    5.7353 N   0  0  0  0  0  0  0  0  0  0  0  0
  -12.8436   -9.5415    5.4510 C   0  0  0  0  0  0  0  0  0  0  0  0
  -13.1125   -8.5716    4.6461 O   0  0  0  0  0  0  0  0  0  0  0  0
  -14.0693  -10.2460    5.9768 C   0  0  0  0  0  0  0  0  0  0  0  0
  -14.3308  -11.3072    5.0468 N   0  0  0  0  0  0  0  0  0  0  0  0
  -15.4753  -11.6833    4.3720 C   0  0  0  0  0  0  0  0  0  0  0  0
  -15.6546  -12.9755    4.2958 O   0  0  0  0  0  0  0  0  0  0  0  0
  -15.5418   -9.0944    3.2989 H   0  0  0  0  0  0  0  0  0  0  0  0
  -18.4298   -7.0105    7.1003 H   0  0  0  0  0  0  0  0  0  0  0  0
  -15.6410   -3.8690    6.7994 H   0  0  0  0  0  0  0  0  0  0  0  0
  -13.3107   -7.5765    7.8526 H   0  0  0  0  0  0  0  0  0  0  0  0
  -10.9220  -10.1835    4.9134 H   0  0  0  0  0  0  0  0  0  0  0  0
  -13.4508  -11.9109    4.8532 H   0  0  0  0  0  0  0  0  0  0  0  0
  -15.6122  -10.4684    1.3930 C   0  0  0  0  0  0  0  0  0  0  0  0
  -16.5802  -11.2461    2.2074 C   0  0  0  0  0  0  0  0  0  0  0  0
  -16.6075  -12.7089    1.9404 C   0  0  0  0  0  0  0  0  0  0  0  0
  -19.2245   -9.0103    5.8485 C   0  0  0  0  0  0  0  0  0  0  0  0
  -19.4210   -9.7634    7.0731 C   0  0  0  0  0  0  0  0  0  0  0  0
  -20.4247  -10.7367    7.1127 C   0  0  0  0  0  0  0  0  0  0  0  0
  -20.6718  -11.4879    8.2535 C   0  0  0  0  0  0  0  0  0  0  0  0
  -19.9297  -11.2978    9.3946 C   0  0  0  0  0  0  0  0  0  0  0  0
  -18.9289  -10.3387    9.3795 C   0  0  0  0  0  0  0  0  0  0  0  0
  -18.7031   -9.6062    8.2360 C   0  0  0  0  0  0  0  0  0  0  0  0
  -15.0264   -5.5031    4.5465 C   0  0  0  0  0  0  0  0  0  0  0  0
  -15.0502   -4.1185    4.0784 C   0  0  0  0  0  0  0  0  0  0  0  0
  -14.2094   -3.0889    4.5273 C   0  0  0  0  0  0  0  0  0  0  0  0
  -14.4867   -1.9501    3.8738 N   0  0  0  0  0  0  0  0  0  0  0  0
  -15.4826   -2.1573    2.9977 C   0  0  0  0  0  0  0  0  0  0  0  0
  -16.1136   -1.2832    2.1250 C   0  0  0  0  0  0  0  0  0  0  0  0
  -17.1284   -1.7531    1.3501 C   0  0  0  0  0  0  0  0  0  0  0  0
  -17.5109   -3.0862    1.4455 C   0  0  0  0  0  0  0  0  0  0  0  0
  -16.8681   -3.9330    2.3195 C   0  0  0  0  0  0  0  0  0  0  0  0
  -15.8408   -3.4926    3.1139 C   0  0  0  0  0  0  0  0  0  0  0  0
  -14.0144   -1.0086    4.0019 H   0  0  0  0  0  0  0  0  0  0  0  0
  -14.3469   -5.5366   10.3417 C   0  0  0  0  0  0  0  0  0  0  0  0
  -13.2800   -5.4058   11.3207 C   0  0  0  0  0  0  0  0  0  0  0  0
  -12.9598   -6.4532   12.1417 C   0  0  0  0  0  0  0  0  0  0  0  0
  -11.9315   -6.3227   13.0465 C   0  0  0  0  0  0  0  0  0  0  0  0
  -11.1802   -5.1780   13.1873 C   0  0  0  0  0  0  0  0  0  0  0  0
  -10.1426   -5.0455   14.1006 O   0  0  0  0  0  0  0  0  0  0  0  0
  -11.5372   -4.1415   12.3363 C   0  0  0  0  0  0  0  0  0  0  0  0
  -12.5620   -4.2506   11.4242 C   0  0  0  0  0  0  0  0  0  0  0  0
  -10.3937   -4.6905   15.0277 H   0  0  0  0  0  0  0  0  0  0  0  0
   -9.6907  -10.7813    7.0810 C   0  0  0  0  0  0  0  0  0  0  0  0
   -8.3331  -10.3180    7.2255 C   0  0  0  0  0  0  0  0  0  0  0  0
   -7.5409  -10.4222    8.3452 C   0  0  0  0  0  0  0  0  0  0  0  0
   -6.3333   -9.8863    8.0882 N   0  0  0  0  0  0  0  0  0  0  0  0
   -6.3615   -9.4439    6.8102 C   0  0  0  0  0  0  0  0  0  0  0  0
   -7.5770   -9.7109    6.2981 N   0  0  0  0  0  0  0  0  0  0  0  0
   -7.9229   -9.4932    5.3218 H   0  0  0  0  0  0  0  0  0  0  0  0
  -13.8182  -10.7849    7.3524 C   0  0  0  0  0  0  0  0  0  0  0  0
  -14.4010   -9.9386    8.4024 C   0  0  0  0  0  0  0  0  0  0  0  0
  -15.4482   -9.0915    8.1148 C   0  0  0  0  0  0  0  0  0  0  0  0
  -15.9953   -8.2671    9.0703 C   0  0  0  0  0  0  0  0  0  0  0  0
  -15.5087   -8.2623   10.3562 C   0  0  0  0  0  0  0  0  0  0  0  0
  -14.4584   -9.1021   10.6728 C   0  0  0  0  0  0  0  0  0  0  0  0
  -13.9348   -9.9134    9.6948 C   0  0  0  0  0  0  0  0  0  0  0  0
 38 39  1  0  0  0
 39 40  1  0  0  0
 39  1  1  0  0  0
  1  2  1  0  0  0
  2  3  1  0  0  0
  3  4  2  0  0  0
  3  5  1  0  0  0
  5 41  1  0  0  0
 41 42  1  0  0  0
 42 43  2  0  0  0
 43 44  1  0  0  0
 44 45  2  0  0  0
 45 46  1  0  0  0
 46 47  2  0  0  0
  5  6  1  0  0  0
  6  7  1  0  0  0
  7  8  2  0  0  0
  7  9  1  0  0  0
  9 48  1  0  0  0
 48 49  1  0  0  0
 49 50  2  0  0  0
 50 51  1  0  0  0
 51 52  1  0  0  0
 52 53  2  0  0  0
 53 54  1  0  0  0
 54 55  2  0  0  0
 55 56  1  0  0  0
 56 57  2  0  0  0
  9 10  1  0  0  0
 10 11  1  0  0  0
 11 12  2  0  0  0
 11 13  1  0  0  0
 13 59  1  0  0  0
 59 60  1  0  0  0
 60 61  2  0  0  0
 61 62  1  0  0  0
 62 63  2  0  0  0
 63 64  1  0  0  0
 63 65  1  0  0  0
 65 66  2  0  0  0
 13 14  1  0  0  0
 14 15  1  0  0  0
 15 16  2  0  0  0
 15 17  1  0  0  0
 17 18  1  0  0  0
 18 19  1  0  0  0
 19 20  1  0  0  0
 20 21  1  0  0  0
 21 22  1  0  0  0
 22 23  2  0  0  0
 22 24  1  0  0  0
 24 68  1  0  0  0
 68 69  1  0  0  0
 69 70  2  0  0  0
 70 71  1  0  0  0
 71 72  2  0  0  0
 72 73  1  0  0  0
 24 25  1  0  0  0
 25 26  1  0  0  0
 26 27  2  0  0  0
 26 28  1  0  0  0
 28 75  1  0  0  0
 75 76  1  0  0  0
 76 77  2  0  0  0
 77 78  1  0  0  0
 78 79  2  0  0  0
 79 80  1  0  0  0
 80 81  2  0  0  0
 28 29  1  0  0  0
 29 30  1  0  0  0
 30 31  2  0  0  0
 30  1  1  0  0  0
 47 42  1  0  0  0
 57 49  1  0  0  0
 66 60  1  0  0  0
 21 17  1  0  0  0
 73 69  1  0  0  0
 81 76  1  0  0  0
 57 52  1  0  0  0
  2 32  1  0  0  0
  6 33  1  0  0  0
 51 58  1  0  0  0
 10 34  1  0  0  0
 64 67  1  0  0  0
 14 35  1  0  0  0
 73 74  1  0  0  0
 25 36  1  0  0  0
 29 37  1  0  0  0
M  END
> <minimizedAffinity>
67.08351

> <CNNscore>
0.2227131426

> <CNNaffinity>
7.7076950073

> <CNN_VS>
1.7166049480

> <CNNaffinity_variance>
3.7261300087

$$$$
[H]Oc1c([H])c([H])c(C([H])([H])[C@@]2([H])C(=O)N([H])[C@]([H])(C([H])([H])c3c([H])n([H])c4c([H])c([H])c([H])c([H])c34)C(=O)N([H])[C@@]([H])(C([H])([H])c3c([H])c([H])c([H])c([H])c3[H])C(=O)N([H])[C@@]([H])(C([H])(C([H])([H])[H])C([H])([H])[H])C(=O)N([H])[C@@]([H])(C([H])([H])c3c([H])c([H])c([H])c([H])c3[H])C(=O)N([H])[C@@]([H])(C([H])([H])c3c([H])nc([H])n3[H])C(=O)N3C([H])([H])C([H])([H])C([H])([H])[C@@]3([H])C(=O)N2[H])c([H])c1[H]


 81 88  0  0  0  0  0  0  0  0999 V2000
   -6.6018   -9.7284    4.7308 C   0  0  0  0  0  0  0  0  0  0  0  0
   -7.1310   -8.9901    5.8344 N   0  0  0  0  0  0  0  0  0  0  0  0
   -7.2205   -9.3866    7.1935 C   0  0  0  0  0  0  0  0  0  0  0  0
   -8.4261   -9.4053    7.6631 O   0  0  0  0  0  0  0  0  0  0  0  0
   -6.1639   -9.7655    8.1093 C   0  0  0  0  0  0  0  0  0  0  0  0
   -6.1617   -9.1176    9.3941 N   0  0  0  0  0  0  0  0  0  0  0  0
   -6.7449   -7.9439    9.8604 C   0  0  0  0  0  0  0  0  0  0  0  0
   -7.5652   -8.0331   10.8465 O   0  0  0  0  0  0  0  0  0  0  0  0
   -6.5651   -6.5463    9.3886 C   0  0  0  0  0  0  0  0  0  0  0  0
   -6.0323   -5.7235   10.4823 N   0  0  0  0  0  0  0  0  0  0  0  0
   -4.8992   -4.9208   10.4789 C   0  0  0  0  0  0  0  0  0  0  0  0
   -5.0553   -3.7116   10.8823 O   0  0  0  0  0  0  0  0  0  0  0  0
   -3.5098   -5.2614   10.0729 C   0  0  0  0  0  0  0  0  0  0  0  0
   -3.1217   -4.7781    8.7873 N   0  0  0  0  0  0  0  0  0  0  0  0
   -2.2506   -3.8526    8.2382 C   0  0  0  0  0  0  0  0  0  0  0  0
   -1.0629   -4.3244    7.8938 O   0  0  0  0  0  0  0  0  0  0  0  0
   -2.3041   -2.4422    7.9250 C   0  0  0  0  0  0  0  0  0  0  0  0
   -3.1208   -1.5358    8.7986 C   0  0  0  0  0  0  0  0  0  0  0  0
   -3.0971   -0.2348    8.0139 C   0  0  0  0  0  0  0  0  0  0  0  0
   -2.4815   -0.6083    6.6798 C   0  0  0  0  0  0  0  0  0  0  0  0
   -2.8237   -2.0466    6.6322 N   0  0  0  0  0  0  0  0  0  0  0  0
   -3.4822   -2.7577    5.6382 C   0  0  0  0  0  0  0  0  0  0  0  0
   -4.6451   -2.3272    5.2506 O   0  0  0  0  0  0  0  0  0  0  0  0
   -3.0849   -3.9811    4.8975 C   0  0  0  0  0  0  0  0  0  0  0  0
   -4.2609   -4.7218    4.5206 N   0  0  0  0  0  0  0  0  0  0  0  0
   -4.8959   -5.7959    5.1448 C   0  0  0  0  0  0  0  0  0  0  0  0
   -6.0670   -5.6125    5.6504 O   0  0  0  0  0  0  0  0  0  0  0  0
   -4.3793   -7.2028    5.3152 C   0  0  0  0  0  0  0  0  0  0  0  0
   -4.8150   -7.9157    4.1484 N   0  0  0  0  0  0  0  0  0  0  0  0
   -5.4844   -9.1135    3.9938 C   0  0  0  0  0  0  0  0  0  0  0  0
   -5.0500   -9.8486    3.0045 O   0  0  0  0  0  0  0  0  0  0  0  0
   -7.5271   -8.0319    5.5800 H   0  0  0  0  0  0  0  0  0  0  0  0
   -5.5934   -9.6638   10.1332 H   0  0  0  0  0  0  0  0  0  0  0  0
   -6.6142   -5.7725   11.3792 H   0  0  0  0  0  0  0  0  0  0  0  0
   -3.6748   -5.3228    7.9965 H   0  0  0  0  0  0  0  0  0  0  0  0
   -4.7246   -4.3637    3.6240 H   0  0  0  0  0  0  0  0  0  0  0  0
   -4.5610   -7.3969    3.2304 H   0  0  0  0  0  0  0  0  0  0  0  0
   -7.4249  -10.3394    2.4078 C   0  0  0  0  0  0  0  0  0  0  0  0
   -7.8065   -9.9264    3.7823 C   0  0  0  0  0  0  0  0  0  0  0  0
   -8.9110  -10.7083    4.3993 C   0  0  0  0  0  0  0  0  0  0  0  0
   -6.0300  -11.2738    8.2853 C   0  0  0  0  0  0  0  0  0  0  0  0
   -4.6764  -11.7899    8.2044 C   0  0  0  0  0  0  0  0  0  0  0  0
   -4.3501  -12.9436    8.9249 C   0  0  0  0  0  0  0  0  0  0  0  0
   -3.0729  -13.4866    8.8987 C   0  0  0  0  0  0  0  0  0  0  0  0
   -2.0756  -12.9019    8.1555 C   0  0  0  0  0  0  0  0  0  0  0  0
   -2.3750  -11.7575    7.4326 C   0  0  0  0  0  0  0  0  0  0  0  0
   -3.6491  -11.2378    7.4748 C   0  0  0  0  0  0  0  0  0  0  0  0
   -7.8117   -5.9653    8.8000 C   0  0  0  0  0  0  0  0  0  0  0  0
   -9.0493   -6.7412    8.8555 C   0  0  0  0  0  0  0  0  0  0  0  0
   -9.2121   -8.0554    8.3919 C   0  0  0  0  0  0  0  0  0  0  0  0
  -10.4683   -8.4706    8.6162 N   0  0  0  0  0  0  0  0  0  0  0  0
  -11.1719   -7.4951    9.2128 C   0  0  0  0  0  0  0  0  0  0  0  0
  -12.4987   -7.4557    9.6151 C   0  0  0  0  0  0  0  0  0  0  0  0
  -12.9753   -6.3152   10.1834 C   0  0  0  0  0  0  0  0  0  0  0  0
  -12.1335   -5.2212   10.3489 C   0  0  0  0  0  0  0  0  0  0  0  0
  -10.8207   -5.2863    9.9412 C   0  0  0  0  0  0  0  0  0  0  0  0
  -10.3077   -6.4206    9.3662 C   0  0  0  0  0  0  0  0  0  0  0  0
  -10.8815   -9.4172    8.3732 H   0  0  0  0  0  0  0  0  0  0  0  0
   -2.5202   -5.3256   11.1741 C   0  0  0  0  0  0  0  0  0  0  0  0
   -2.6661   -6.3017   12.2418 C   0  0  0  0  0  0  0  0  0  0  0  0
   -1.6971   -7.2441   12.4573 C   0  0  0  0  0  0  0  0  0  0  0  0
   -1.8376   -8.1458   13.4870 C   0  0  0  0  0  0  0  0  0  0  0  0
   -2.9170   -8.1663   14.3407 C   0  0  0  0  0  0  0  0  0  0  0  0
   -3.0597   -9.0764   15.3798 O   0  0  0  0  0  0  0  0  0  0  0  0
   -3.8752   -7.1947   14.0879 C   0  0  0  0  0  0  0  0  0  0  0  0
   -3.7546   -6.2834   13.0637 C   0  0  0  0  0  0  0  0  0  0  0  0
   -3.5423   -9.9514   15.1565 H   0  0  0  0  0  0  0  0  0  0  0  0
   -2.3080   -3.5088    3.6593 C   0  0  0  0  0  0  0  0  0  0  0  0
   -2.9489   -2.4862    2.8706 C   0  0  0  0  0  0  0  0  0  0  0  0
   -3.6960   -2.6710    1.7304 C   0  0  0  0  0  0  0  0  0  0  0  0
   -4.1383   -1.4789    1.2892 N   0  0  0  0  0  0  0  0  0  0  0  0
   -3.6722   -0.5427    2.1471 C   0  0  0  0  0  0  0  0  0  0  0  0
   -2.9538   -1.1642    3.1003 N   0  0  0  0  0  0  0  0  0  0  0  0
   -2.4550   -0.7179    3.9201 H   0  0  0  0  0  0  0  0  0  0  0  0
   -2.8845   -7.2063    5.4218 C   0  0  0  0  0  0  0  0  0  0  0  0
   -2.4128   -7.7830    6.6879 C   0  0  0  0  0  0  0  0  0  0  0  0
   -1.5006   -8.8149    6.6877 C   0  0  0  0  0  0  0  0  0  0  0  0
   -1.0624   -9.3935    7.8561 C   0  0  0  0  0  0  0  0  0  0  0  0
   -1.5263   -8.9556    9.0740 C   0  0  0  0  0  0  0  0  0  0  0  0
   -2.4421   -7.9217    9.1040 C   0  0  0  0  0  0  0  0  0  0  0  0
   -2.8593   -7.3654    7.9185 C   0  0  0  0  0  0  0  0  0  0  0  0
 38 39  1  0  0  0
 39 40  1  0  0  0
 39  1  1  0  0  0
  1  2  1  0  0  0
  2  3  1  0  0  0
  3  4  2  0  0  0
  3  5  1  0  0  0
  5 41  1  0  0  0
 41 42  1  0  0  0
 42 43  2  0  0  0
 43 44  1  0  0  0
 44 45  2  0  0  0
 45 46  1  0  0  0
 46 47  2  0  0  0
  5  6  1  0  0  0
  6  7  1  0  0  0
  7  8  2  0  0  0
  7  9  1  0  0  0
  9 48  1  0  0  0
 48 49  1  0  0  0
 49 50  2  0  0  0
 50 51  1  0  0  0
 51 52  1  0  0  0
 52 53  2  0  0  0
 53 54  1  0  0  0
 54 55  2  0  0  0
 55 56  1  0  0  0
 56 57  2  0  0  0
  9 10  1  0  0  0
 10 11  1  0  0  0
 11 12  2  0  0  0
 11 13  1  0  0  0
 13 59  1  0  0  0
 59 60  1  0  0  0
 60 61  2  0  0  0
 61 62  1  0  0  0
 62 63  2  0  0  0
 63 64  1  0  0  0
 63 65  1  0  0  0
 65 66  2  0  0  0
 13 14  1  0  0  0
 14 15  1  0  0  0
 15 16  2  0  0  0
 15 17  1  0  0  0
 17 18  1  0  0  0
 18 19  1  0  0  0
 19 20  1  0  0  0
 20 21  1  0  0  0
 21 22  1  0  0  0
 22 23  2  0  0  0
 22 24  1  0  0  0
 24 68  1  0  0  0
 68 69  1  0  0  0
 69 70  2  0  0  0
 70 71  1  0  0  0
 71 72  2  0  0  0
 72 73  1  0  0  0
 24 25  1  0  0  0
 25 26  1  0  0  0
 26 27  2  0  0  0
 26 28  1  0  0  0
 28 75  1  0  0  0
 75 76  1  0  0  0
 76 77  2  0  0  0
 77 78  1  0  0  0
 78 79  2  0  0  0
 79 80  1  0  0  0
 80 81  2  0  0  0
 28 29  1  0  0  0
 29 30  1  0  0  0
 30 31  2  0  0  0
 30  1  1  0  0  0
 47 42  1  0  0  0
 57 49  1  0  0  0
 66 60  1  0  0  0
 21 17  1  0  0  0
 73 69  1  0  0  0
 81 76  1  0  0  0
 57 52  1  0  0  0
  2 32  1  0  0  0
  6 33  1  0  0  0
 51 58  1  0  0  0
 10 34  1  0  0  0
 64 67  1  0  0  0
 14 35  1  0  0  0
 73 74  1  0  0  0
 25 36  1  0  0  0
 29 37  1  0  0  0
M  END
> <minimizedAffinity>
31.25649

> <CNNscore>
0.2076933384

> <CNNaffinity>
7.2809228897

> <CNN_VS>
1.5121991634

> <CNNaffinity_variance>
1.6984201670

$$$$
[H]Oc1c([H])c([H])c(C([H])([H])[C@@]2([H])C(=O)N([H])[C@]([H])(C([H])([H])c3c([H])n([H])c4c([H])c([H])c([H])c([H])c34)C(=O)N([H])[C@@]([H])(C([H])([H])c3c([H])c([H])c([H])c([H])c3[H])C(=O)N([H])[C@@]([H])(C([H])(C([H])([H])[H])C([H])([H])[H])C(=O)N([H])[C@@]([H])(C([H])([H])c3c([H])c([H])c([H])c([H])c3[H])C(=O)N([H])[C@@]([H])(C([H])([H])c3c([H])nc([H])n3[H])C(=O)N3C([H])([H])C([H])([H])C([H])([H])[C@@]3([H])C(=O)N2[H])c([H])c1[H]


 81 88  0  0  0  0  0  0  0  0999 V2000
  -13.4086   -9.2345    5.3238 C   0  0  0  0  0  0  0  0  0  0  0  0
  -13.7593   -8.9091    6.6708 N   0  0  0  0  0  0  0  0  0  0  0  0
  -12.9590   -9.0179    7.8369 C   0  0  0  0  0  0  0  0  0  0  0  0
  -13.4482   -9.7977    8.7462 O   0  0  0  0  0  0  0  0  0  0  0  0
  -11.6919   -8.3849    8.1414 C   0  0  0  0  0  0  0  0  0  0  0  0
  -11.5936   -7.7186    9.4130 N   0  0  0  0  0  0  0  0  0  0  0  0
  -12.5485   -7.2367   10.3024 C   0  0  0  0  0  0  0  0  0  0  0  0
  -12.5451   -7.7082   11.4987 O   0  0  0  0  0  0  0  0  0  0  0  0
  -13.6131   -6.2222   10.0889 C   0  0  0  0  0  0  0  0  0  0  0  0
  -13.4084   -5.0948   11.0077 N   0  0  0  0  0  0  0  0  0  0  0  0
  -13.3065   -3.7445   10.6998 C   0  0  0  0  0  0  0  0  0  0  0  0
  -14.0641   -2.9490   11.3650 O   0  0  0  0  0  0  0  0  0  0  0  0
  -12.4342   -3.0738    9.6997 C   0  0  0  0  0  0  0  0  0  0  0  0
  -13.0896   -2.6830    8.4936 N   0  0  0  0  0  0  0  0  0  0  0  0
  -13.4574   -1.5234    7.8327 C   0  0  0  0  0  0  0  0  0  0  0  0
  -12.5853   -1.0746    6.9439 O   0  0  0  0  0  0  0  0  0  0  0  0
  -14.5993   -0.6369    7.8586 C   0  0  0  0  0  0  0  0  0  0  0  0
  -15.3317   -0.4355    9.1528 C   0  0  0  0  0  0  0  0  0  0  0  0
  -16.5531    0.3500    8.7057 C   0  0  0  0  0  0  0  0  0  0  0  0
  -16.5029    0.2990    7.1914 C   0  0  0  0  0  0  0  0  0  0  0  0
  -15.7254   -0.9450    7.0015 N   0  0  0  0  0  0  0  0  0  0  0  0
  -16.0384   -2.0665    6.2455 C   0  0  0  0  0  0  0  0  0  0  0  0
  -17.1785   -2.6495    6.4648 O   0  0  0  0  0  0  0  0  0  0  0  0
  -15.2740   -2.7594    5.1785 C   0  0  0  0  0  0  0  0  0  0  0  0
  -15.6054   -4.1608    5.1780 N   0  0  0  0  0  0  0  0  0  0  0  0
  -14.9652   -5.2451    5.7790 C   0  0  0  0  0  0  0  0  0  0  0  0
  -15.5593   -5.8548    6.7465 O   0  0  0  0  0  0  0  0  0  0  0  0
  -13.6169   -5.8281    5.4364 C   0  0  0  0  0  0  0  0  0  0  0  0
  -13.8723   -6.8237    4.4349 N   0  0  0  0  0  0  0  0  0  0  0  0
  -13.4976   -8.1488    4.3324 C   0  0  0  0  0  0  0  0  0  0  0  0
  -13.1556   -8.5193    3.1268 O   0  0  0  0  0  0  0  0  0  0  0  0
  -14.7622   -8.5662    6.7992 H   0  0  0  0  0  0  0  0  0  0  0  0
  -10.5701   -7.5739    9.7275 H   0  0  0  0  0  0  0  0  0  0  0  0
  -13.3320   -5.3862   12.0346 H   0  0  0  0  0  0  0  0  0  0  0  0
  -13.3702   -3.5812    7.9084 H   0  0  0  0  0  0  0  0  0  0  0  0
  -16.5047   -4.3890    4.6428 H   0  0  0  0  0  0  0  0  0  0  0  0
  -14.4743   -6.4406    3.6179 H   0  0  0  0  0  0  0  0  0  0  0  0
  -14.6573  -11.3253    6.0425 C   0  0  0  0  0  0  0  0  0  0  0  0
  -14.3758  -10.3764    4.9355 C   0  0  0  0  0  0  0  0  0  0  0  0
  -15.5686   -9.8994    4.1860 C   0  0  0  0  0  0  0  0  0  0  0  0
  -10.4938   -9.3057    7.9407 C   0  0  0  0  0  0  0  0  0  0  0  0
   -9.2684   -8.6479    7.5272 C   0  0  0  0  0  0  0  0  0  0  0  0
   -9.2775   -7.2621    7.3378 C   0  0  0  0  0  0  0  0  0  0  0  0
   -8.1431   -6.5705    6.9354 C   0  0  0  0  0  0  0  0  0  0  0  0
   -6.9604   -7.2323    6.7074 C   0  0  0  0  0  0  0  0  0  0  0  0
   -6.9267   -8.6063    6.8888 C   0  0  0  0  0  0  0  0  0  0  0  0
   -8.0648   -9.2698    7.2880 C   0  0  0  0  0  0  0  0  0  0  0  0
  -14.9917   -6.7936   10.1940 C   0  0  0  0  0  0  0  0  0  0  0  0
  -15.2805   -7.7554   11.2562 C   0  0  0  0  0  0  0  0  0  0  0  0
  -16.4165   -7.7479   12.0796 C   0  0  0  0  0  0  0  0  0  0  0  0
  -16.3739   -8.7830   12.9326 N   0  0  0  0  0  0  0  0  0  0  0  0
  -15.2558   -9.4975   12.7279 C   0  0  0  0  0  0  0  0  0  0  0  0
  -14.7765  -10.6282   13.3724 C   0  0  0  0  0  0  0  0  0  0  0  0
  -13.5830  -11.1485   12.9776 C   0  0  0  0  0  0  0  0  0  0  0  0
  -12.8725  -10.5443   11.9466 C   0  0  0  0  0  0  0  0  0  0  0  0
  -13.3705   -9.4229   11.3233 C   0  0  0  0  0  0  0  0  0  0  0  0
  -14.5707   -8.8736   11.6953 C   0  0  0  0  0  0  0  0  0  0  0  0
  -17.0935   -9.0322   13.6714 H   0  0  0  0  0  0  0  0  0  0  0  0
  -11.3455   -2.2387   10.2597 C   0  0  0  0  0  0  0  0  0  0  0  0
  -10.7668   -2.5524   11.5561 C   0  0  0  0  0  0  0  0  0  0  0  0
  -10.6622   -3.8520   11.9729 C   0  0  0  0  0  0  0  0  0  0  0  0
  -10.0900   -4.1348   13.1918 C   0  0  0  0  0  0  0  0  0  0  0  0
   -9.6009   -3.1730   14.0463 C   0  0  0  0  0  0  0  0  0  0  0  0
   -9.0238   -3.4577   15.2768 O   0  0  0  0  0  0  0  0  0  0  0  0
   -9.7262   -1.8699   13.5856 C   0  0  0  0  0  0  0  0  0  0  0  0
  -10.2950   -1.5647   12.3701 C   0  0  0  0  0  0  0  0  0  0  0  0
   -9.6567   -3.4884   16.0811 H   0  0  0  0  0  0  0  0  0  0  0  0
  -15.6753   -2.0955    3.8526 C   0  0  0  0  0  0  0  0  0  0  0  0
  -16.4949   -2.8942    2.9756 C   0  0  0  0  0  0  0  0  0  0  0  0
  -16.9664   -2.5358    1.7340 C   0  0  0  0  0  0  0  0  0  0  0  0
  -17.6836   -3.5517    1.2193 N   0  0  0  0  0  0  0  0  0  0  0  0
  -17.6665   -4.5495    2.1324 C   0  0  0  0  0  0  0  0  0  0  0  0
  -16.9438   -4.1401    3.1912 N   0  0  0  0  0  0  0  0  0  0  0  0
  -16.7374   -4.6843    4.0752 H   0  0  0  0  0  0  0  0  0  0  0  0
  -12.6990   -4.7639    4.9164 C   0  0  0  0  0  0  0  0  0  0  0  0
  -12.4541   -4.8890    3.4733 C   0  0  0  0  0  0  0  0  0  0  0  0
  -13.3868   -5.4894    2.6568 C   0  0  0  0  0  0  0  0  0  0  0  0
  -13.1727   -5.6461    1.3071 C   0  0  0  0  0  0  0  0  0  0  0  0
  -12.0085   -5.2039    0.7243 C   0  0  0  0  0  0  0  0  0  0  0  0
  -11.0554   -4.5979    1.5197 C   0  0  0  0  0  0  0  0  0  0  0  0
  -11.3005   -4.4567    2.8646 C   0  0  0  0  0  0  0  0  0  0  0  0
 38 39  1  0  0  0
 39 40  1  0  0  0
 39  1  1  0  0  0
  1  2  1  0  0  0
  2  3  1  0  0  0
  3  4  2  0  0  0
  3  5  1  0  0  0
  5 41  1  0  0  0
 41 42  1  0  0  0
 42 43  2  0  0  0
 43 44  1  0  0  0
 44 45  2  0  0  0
 45 46  1  0  0  0
 46 47  2  0  0  0
  5  6  1  0  0  0
  6  7  1  0  0  0
  7  8  2  0  0  0
  7  9  1  0  0  0
  9 48  1  0  0  0
 48 49  1  0  0  0
 49 50  2  0  0  0
 50 51  1  0  0  0
 51 52  1  0  0  0
 52 53  2  0  0  0
 53 54  1  0  0  0
 54 55  2  0  0  0
 55 56  1  0  0  0
 56 57  2  0  0  0
  9 10  1  0  0  0
 10 11  1  0  0  0
 11 12  2  0  0  0
 11 13  1  0  0  0
 13 59  1  0  0  0
 59 60  1  0  0  0
 60 61  2  0  0  0
 61 62  1  0  0  0
 62 63  2  0  0  0
 63 64  1  0  0  0
 63 65  1  0  0  0
 65 66  2  0  0  0
 13 14  1  0  0  0
 14 15  1  0  0  0
 15 16  2  0  0  0
 15 17  1  0  0  0
 17 18  1  0  0  0
 18 19  1  0  0  0
 19 20  1  0  0  0
 20 21  1  0  0  0
 21 22  1  0  0  0
 22 23  2  0  0  0
 22 24  1  0  0  0
 24 68  1  0  0  0
 68 69  1  0  0  0
 69 70  2  0  0  0
 70 71  1  0  0  0
 71 72  2  0  0  0
 72 73  1  0  0  0
 24 25  1  0  0  0
 25 26  1  0  0  0
 26 27  2  0  0  0
 26 28  1  0  0  0
 28 75  1  0  0  0
 75 76  1  0  0  0
 76 77  2  0  0  0
 77 78  1  0  0  0
 78 79  2  0  0  0
 79 80  1  0  0  0
 80 81  2  0  0  0
 28 29  1  0  0  0
 29 30  1  0  0  0
 30 31  2  0  0  0
 30  1  1  0  0  0
 47 42  1  0  0  0
 57 49  1  0  0  0
 66 60  1  0  0  0
 21 17  1  0  0  0
 73 69  1  0  0  0
 81 76  1  0  0  0
 57 52  1  0  0  0
  2 32  1  0  0  0
  6 33  1  0  0  0
 51 58  1  0  0  0
 10 34  1  0  0  0
 64 67  1  0  0  0
 14 35  1  0  0  0
 73 74  1  0  0  0
 25 36  1  0  0  0
 29 37  1  0  0  0
M  END
> <minimizedAffinity>
129.78067

> <CNNscore>
0.2027764320

> <CNNaffinity>
6.7448625565

> <CNN_VS>
1.3676991463

> <CNNaffinity_variance>
10.5526952744

$$$$
[H]Oc1c([H])c([H])c(C([H])([H])[C@@]2([H])C(=O)N([H])[C@]([H])(C([H])([H])c3c([H])n([H])c4c([H])c([H])c([H])c([H])c34)C(=O)N([H])[C@@]([H])(C([H])([H])c3c([H])c([H])c([H])c([H])c3[H])C(=O)N([H])[C@@]([H])(C([H])(C([H])([H])[H])C([H])([H])[H])C(=O)N([H])[C@@]([H])(C([H])([H])c3c([H])c([H])c([H])c([H])c3[H])C(=O)N([H])[C@@]([H])(C([H])([H])c3c([H])nc([H])n3[H])C(=O)N3C([H])([H])C([H])([H])C([H])([H])[C@@]3([H])C(=O)N2[H])c([H])c1[H]


 81 88  0  0  0  0  0  0  0  0999 V2000
  -10.0202   -8.5438    5.7617 C   0  0  0  0  0  0  0  0  0  0  0  0
  -11.4332   -8.6065    5.5551 N   0  0  0  0  0  0  0  0  0  0  0  0
  -12.4673   -8.4899    6.5192 C   0  0  0  0  0  0  0  0  0  0  0  0
  -13.2412   -9.5241    6.5958 O   0  0  0  0  0  0  0  0  0  0  0  0
  -12.7682   -7.3896    7.4121 C   0  0  0  0  0  0  0  0  0  0  0  0
  -14.1333   -6.9352    7.4375 N   0  0  0  0  0  0  0  0  0  0  0  0
  -15.1926   -7.0787    6.5474 C   0  0  0  0  0  0  0  0  0  0  0  0
  -16.2605   -7.6536    6.9746 O   0  0  0  0  0  0  0  0  0  0  0  0
  -15.2980   -6.6559    5.1267 C   0  0  0  0  0  0  0  0  0  0  0  0
  -16.4034   -5.7002    4.9795 N   0  0  0  0  0  0  0  0  0  0  0  0
  -16.3704   -4.4292    4.4211 C   0  0  0  0  0  0  0  0  0  0  0  0
  -17.2561   -4.1759    3.5263 O   0  0  0  0  0  0  0  0  0  0  0  0
  -15.4477   -3.3002    4.7130 C   0  0  0  0  0  0  0  0  0  0  0  0
  -14.4182   -3.0973    3.7456 N   0  0  0  0  0  0  0  0  0  0  0  0
  -14.0487   -2.1628    2.7933 C   0  0  0  0  0  0  0  0  0  0  0  0
  -13.1890   -1.2434    3.2025 O   0  0  0  0  0  0  0  0  0  0  0  0
  -14.3686   -1.9208    1.4043 C   0  0  0  0  0  0  0  0  0  0  0  0
  -15.7426   -2.2618    0.9065 C   0  0  0  0  0  0  0  0  0  0  0  0
  -15.5891   -2.0803   -0.5943 C   0  0  0  0  0  0  0  0  0  0  0  0
  -14.0991   -1.8941   -0.8030 C   0  0  0  0  0  0  0  0  0  0  0  0
  -13.5823   -2.5957    0.3924 N   0  0  0  0  0  0  0  0  0  0  0  0
  -12.6472   -3.6188    0.4714 C   0  0  0  0  0  0  0  0  0  0  0  0
  -12.8540   -4.6883   -0.2367 O   0  0  0  0  0  0  0  0  0  0  0  0
  -11.3905   -3.7240    1.2541 C   0  0  0  0  0  0  0  0  0  0  0  0
  -11.1356   -5.1040    1.5768 N   0  0  0  0  0  0  0  0  0  0  0  0
  -11.4352   -5.8380    2.7250 C   0  0  0  0  0  0  0  0  0  0  0  0
  -12.3111   -6.7799    2.6453 O   0  0  0  0  0  0  0  0  0  0  0  0
  -10.8487   -5.6753    4.1052 C   0  0  0  0  0  0  0  0  0  0  0  0
   -9.6947   -6.5278    4.1349 N   0  0  0  0  0  0  0  0  0  0  0  0
   -9.2862   -7.4992    5.0272 C   0  0  0  0  0  0  0  0  0  0  0  0
   -8.0025   -7.4995    5.2715 O   0  0  0  0  0  0  0  0  0  0  0  0
  -11.7278   -8.7897    4.5454 H   0  0  0  0  0  0  0  0  0  0  0  0
  -14.3679   -6.3764    8.3321 H   0  0  0  0  0  0  0  0  0  0  0  0
  -17.3362   -6.0604    5.3612 H   0  0  0  0  0  0  0  0  0  0  0  0
  -13.6920   -3.9334    3.7862 H   0  0  0  0  0  0  0  0  0  0  0  0
  -10.6566   -5.6478    0.7881 H   0  0  0  0  0  0  0  0  0  0  0  0
   -9.0372   -6.3601    3.2886 H   0  0  0  0  0  0  0  0  0  0  0  0
  -10.4131  -11.0519    5.7137 C   0  0  0  0  0  0  0  0  0  0  0  0
   -9.5037   -9.9388    5.3405 C   0  0  0  0  0  0  0  0  0  0  0  0
   -8.9934   -9.9735    3.9439 C   0  0  0  0  0  0  0  0  0  0  0  0
  -12.2656   -7.6115    8.8340 C   0  0  0  0  0  0  0  0  0  0  0  0
  -11.0214   -8.3499    8.9439 C   0  0  0  0  0  0  0  0  0  0  0  0
  -10.9447   -9.4112    9.8517 C   0  0  0  0  0  0  0  0  0  0  0  0
   -9.7835  -10.1544   10.0132 C   0  0  0  0  0  0  0  0  0  0  0  0
   -8.6581   -9.8685    9.2779 C   0  0  0  0  0  0  0  0  0  0  0  0
   -8.7098   -8.8209    8.3714 C   0  0  0  0  0  0  0  0  0  0  0  0
   -9.8730   -8.0984    8.2294 C   0  0  0  0  0  0  0  0  0  0  0  0
  -15.4196   -7.8103    4.1830 C   0  0  0  0  0  0  0  0  0  0  0  0
  -15.3005   -7.5663    2.7467 C   0  0  0  0  0  0  0  0  0  0  0  0
  -14.1226   -7.2104    2.0725 C   0  0  0  0  0  0  0  0  0  0  0  0
  -14.3642   -7.0842    0.7585 N   0  0  0  0  0  0  0  0  0  0  0  0
  -15.6582   -7.3376    0.5058 C   0  0  0  0  0  0  0  0  0  0  0  0
  -16.3669   -7.3127   -0.6862 C   0  0  0  0  0  0  0  0  0  0  0  0
  -17.6983   -7.5915   -0.6604 C   0  0  0  0  0  0  0  0  0  0  0  0
  -18.3183   -7.8929    0.5469 C   0  0  0  0  0  0  0  0  0  0  0  0
  -17.5921   -7.9110    1.7158 C   0  0  0  0  0  0  0  0  0  0  0  0
  -16.2486   -7.6363    1.7253 C   0  0  0  0  0  0  0  0  0  0  0  0
  -13.6665   -6.8243    0.0026 H   0  0  0  0  0  0  0  0  0  0  0  0
  -16.0565   -2.1409    5.4068 C   0  0  0  0  0  0  0  0  0  0  0  0
  -16.6264   -2.2918    6.7359 C   0  0  0  0  0  0  0  0  0  0  0  0
  -17.9693   -2.1210    6.9382 C   0  0  0  0  0  0  0  0  0  0  0  0
  -18.4978   -2.2912    8.1971 C   0  0  0  0  0  0  0  0  0  0  0  0
  -17.7475   -2.6313    9.2997 C   0  0  0  0  0  0  0  0  0  0  0  0
  -18.2802   -2.8027   10.5706 O   0  0  0  0  0  0  0  0  0  0  0  0
  -16.3921   -2.7952    9.0508 C   0  0  0  0  0  0  0  0  0  0  0  0
  -15.8427   -2.6300    7.7999 C   0  0  0  0  0  0  0  0  0  0  0  0
  -18.3147   -1.9708   11.1665 H   0  0  0  0  0  0  0  0  0  0  0  0
  -10.2752   -3.1477    0.3688 C   0  0  0  0  0  0  0  0  0  0  0  0
   -8.9423   -3.2218    0.9135 C   0  0  0  0  0  0  0  0  0  0  0  0
   -8.5727   -3.0070    2.2209 C   0  0  0  0  0  0  0  0  0  0  0  0
   -7.2436   -3.1811    2.3427 N   0  0  0  0  0  0  0  0  0  0  0  0
   -6.7738   -3.5045    1.1162 C   0  0  0  0  0  0  0  0  0  0  0  0
   -7.8112   -3.5263    0.2593 N   0  0  0  0  0  0  0  0  0  0  0  0
   -7.7828   -3.7448   -0.7759 H   0  0  0  0  0  0  0  0  0  0  0  0
  -10.4697   -4.2466    4.3518 C   0  0  0  0  0  0  0  0  0  0  0  0
  -11.6234   -3.3395    4.2848 C   0  0  0  0  0  0  0  0  0  0  0  0
  -12.5861   -3.3611    5.2695 C   0  0  0  0  0  0  0  0  0  0  0  0
  -13.6913   -2.5438    5.2188 C   0  0  0  0  0  0  0  0  0  0  0  0
  -13.8720   -1.6706    4.1723 C   0  0  0  0  0  0  0  0  0  0  0  0
  -12.9219   -1.6280    3.1704 C   0  0  0  0  0  0  0  0  0  0  0  0
  -11.8292   -2.4577    3.2513 C   0  0  0  0  0  0  0  0  0  0  0  0
 38 39  1  0  0  0
 39 40  1  0  0  0
 39  1  1  0  0  0
  1  2  1  0  0  0
  2  3  1  0  0  0
  3  4  2  0  0  0
  3  5  1  0  0  0
  5 41  1  0  0  0
 41 42  1  0  0  0
 42 43  2  0  0  0
 43 44  1  0  0  0
 44 45  2  0  0  0
 45 46  1  0  0  0
 46 47  2  0  0  0
  5  6  1  0  0  0
  6  7  1  0  0  0
  7  8  2  0  0  0
  7  9  1  0  0  0
  9 48  1  0  0  0
 48 49  1  0  0  0
 49 50  2  0  0  0
 50 51  1  0  0  0
 51 52  1  0  0  0
 52 53  2  0  0  0
 53 54  1  0  0  0
 54 55  2  0  0  0
 55 56  1  0  0  0
 56 57  2  0  0  0
  9 10  1  0  0  0
 10 11  1  0  0  0
 11 12  2  0  0  0
 11 13  1  0  0  0
 13 59  1  0  0  0
 59 60  1  0  0  0
 60 61  2  0  0  0
 61 62  1  0  0  0
 62 63  2  0  0  0
 63 64  1  0  0  0
 63 65  1  0  0  0
 65 66  2  0  0  0
 13 14  1  0  0  0
 14 15  1  0  0  0
 15 16  2  0  0  0
 15 17  1  0  0  0
 17 18  1  0  0  0
 18 19  1  0  0  0
 19 20  1  0  0  0
 20 21  1  0  0  0
 21 22  1  0  0  0
 22 23  2  0  0  0
 22 24  1  0  0  0
 24 68  1  0  0  0
 68 69  1  0  0  0
 69 70  2  0  0  0
 70 71  1  0  0  0
 71 72  2  0  0  0
 72 73  1  0  0  0
 24 25  1  0  0  0
 25 26  1  0  0  0
 26 27  2  0  0  0
 26 28  1  0  0  0
 28 75  1  0  0  0
 75 76  1  0  0  0
 76 77  2  0  0  0
 77 78  1  0  0  0
 78 79  2  0  0  0
 79 80  1  0  0  0
 80 81  2  0  0  0
 28 29  1  0  0  0
 29 30  1  0  0  0
 30 31  2  0  0  0
 30  1  1  0  0  0
 47 42  1  0  0  0
 57 49  1  0  0  0
 66 60  1  0  0  0
 21 17  1  0  0  0
 73 69  1  0  0  0
 81 76  1  0  0  0
 57 52  1  0  0  0
  2 32  1  0  0  0
  6 33  1  0  0  0
 51 58  1  0  0  0
 10 34  1  0  0  0
 64 67  1  0  0  0
 14 35  1  0  0  0
 73 74  1  0  0  0
 25 36  1  0  0  0
 29 37  1  0  0  0
M  END
> <minimizedAffinity>
327.69302

> <CNNscore>
0.1887131333

> <CNNaffinity>
6.1134080887

> <CNN_VS>
1.1536804438

> <CNNaffinity_variance>
12.3832435608

$$$$
[H]Oc1c([H])c([H])c(C([H])([H])[C@@]2([H])C(=O)N([H])[C@]([H])(C([H])([H])c3c([H])n([H])c4c([H])c([H])c([H])c([H])c34)C(=O)N([H])[C@@]([H])(C([H])([H])c3c([H])c([H])c([H])c([H])c3[H])C(=O)N([H])[C@@]([H])(C([H])(C([H])([H])[H])C([H])([H])[H])C(=O)N([H])[C@@]([H])(C([H])([H])c3c([H])c([H])c([H])c([H])c3[H])C(=O)N([H])[C@@]([H])(C([H])([H])c3c([H])nc([H])n3[H])C(=O)N3C([H])([H])C([H])([H])C([H])([H])[C@@]3([H])C(=O)N2[H])c([H])c1[H]


 81 88  0  0  0  0  0  0  0  0999 V2000
   -7.2076   -9.4922    6.9001 C   0  0  0  0  0  0  0  0  0  0  0  0
   -5.9290   -9.0654    6.4244 N   0  0  0  0  0  0  0  0  0  0  0  0
   -5.6078   -8.4869    5.1696 C   0  0  0  0  0  0  0  0  0  0  0  0
   -4.7462   -9.1611    4.4787 O   0  0  0  0  0  0  0  0  0  0  0  0
   -6.1045   -7.2656    4.5692 C   0  0  0  0  0  0  0  0  0  0  0  0
   -5.1181   -6.3522    4.0562 N   0  0  0  0  0  0  0  0  0  0  0  0
   -3.7572   -6.1980    4.3000 C   0  0  0  0  0  0  0  0  0  0  0  0
   -2.9538   -6.3045    3.3017 O   0  0  0  0  0  0  0  0  0  0  0  0
   -3.0513   -5.9151    5.5766 C   0  0  0  0  0  0  0  0  0  0  0  0
   -2.3183   -4.6475    5.4620 N   0  0  0  0  0  0  0  0  0  0  0  0
   -2.3877   -3.5379    6.2941 C   0  0  0  0  0  0  0  0  0  0  0  0
   -1.2692   -3.0782    6.7264 O   0  0  0  0  0  0  0  0  0  0  0  0
   -3.5847   -2.7908    6.7633 C   0  0  0  0  0  0  0  0  0  0  0  0
   -3.9832   -3.0716    8.1047 N   0  0  0  0  0  0  0  0  0  0  0  0
   -4.0385   -2.4355    9.3332 C   0  0  0  0  0  0  0  0  0  0  0  0
   -5.1900   -1.8482    9.6178 O   0  0  0  0  0  0  0  0  0  0  0  0
   -3.1265   -2.2402   10.4378 C   0  0  0  0  0  0  0  0  0  0  0  0
   -1.6584   -2.1159   10.1529 C   0  0  0  0  0  0  0  0  0  0  0  0
   -1.0608   -2.1579   11.5493 C   0  0  0  0  0  0  0  0  0  0  0  0
   -2.2211   -2.5407   12.4466 C   0  0  0  0  0  0  0  0  0  0  0  0
   -3.0760   -3.2530   11.4720 N   0  0  0  0  0  0  0  0  0  0  0  0
   -3.6170   -4.5292   11.5501 C   0  0  0  0  0  0  0  0  0  0  0  0
   -2.8077   -5.5207   11.7730 O   0  0  0  0  0  0  0  0  0  0  0  0
   -5.0199   -4.9960   11.4197 C   0  0  0  0  0  0  0  0  0  0  0  0
   -5.0370   -6.3344   10.8885 N   0  0  0  0  0  0  0  0  0  0  0  0
   -5.1913   -6.7891    9.5785 C   0  0  0  0  0  0  0  0  0  0  0  0
   -4.1898   -7.3574    8.9997 O   0  0  0  0  0  0  0  0  0  0  0  0
   -6.4216   -6.7053    8.7099 C   0  0  0  0  0  0  0  0  0  0  0  0
   -7.1607   -7.9068    8.9741 N   0  0  0  0  0  0  0  0  0  0  0  0
   -7.7015   -8.8620    8.1365 C   0  0  0  0  0  0  0  0  0  0  0  0
   -8.8773   -9.2970    8.5052 O   0  0  0  0  0  0  0  0  0  0  0  0
   -5.1224   -9.2344    7.1031 H   0  0  0  0  0  0  0  0  0  0  0  0
   -5.5297   -5.6571    3.3387 H   0  0  0  0  0  0  0  0  0  0  0  0
   -1.6577   -4.6080    4.6209 H   0  0  0  0  0  0  0  0  0  0  0  0
   -4.3819   -4.1034    8.1719 H   0  0  0  0  0  0  0  0  0  0  0  0
   -4.8835   -7.0923   11.6296 H   0  0  0  0  0  0  0  0  0  0  0  0
   -7.3077   -8.0744   10.0356 H   0  0  0  0  0  0  0  0  0  0  0  0
   -6.2012  -11.3717    8.2793 C   0  0  0  0  0  0  0  0  0  0  0  0
   -7.0531  -11.0152    7.1163 C   0  0  0  0  0  0  0  0  0  0  0  0
   -8.3425  -11.7505    7.0215 C   0  0  0  0  0  0  0  0  0  0  0  0
   -7.1881   -7.5044    3.5241 C   0  0  0  0  0  0  0  0  0  0  0  0
   -7.3414   -8.8813    3.0928 C   0  0  0  0  0  0  0  0  0  0  0  0
   -6.7987   -9.2673    1.8628 C   0  0  0  0  0  0  0  0  0  0  0  0
   -6.9153  -10.5658    1.3862 C   0  0  0  0  0  0  0  0  0  0  0  0
   -7.5753  -11.5257    2.1155 C   0  0  0  0  0  0  0  0  0  0  0  0
   -8.1215  -11.1669    3.3381 C   0  0  0  0  0  0  0  0  0  0  0  0
   -7.9929   -9.8727    3.7893 C   0  0  0  0  0  0  0  0  0  0  0  0
   -2.1687   -7.0404    6.0159 C   0  0  0  0  0  0  0  0  0  0  0  0
   -1.8296   -7.1628    7.4325 C   0  0  0  0  0  0  0  0  0  0  0  0
   -1.6668   -6.0963    8.3296 C   0  0  0  0  0  0  0  0  0  0  0  0
   -1.3787   -6.5642    9.5538 N   0  0  0  0  0  0  0  0  0  0  0  0
   -1.3365   -7.9059    9.5316 C   0  0  0  0  0  0  0  0  0  0  0  0
   -1.0615   -8.8173   10.5403 C   0  0  0  0  0  0  0  0  0  0  0  0
   -1.0606  -10.1441   10.2393 C   0  0  0  0  0  0  0  0  0  0  0  0
   -1.3322  -10.5586    8.9404 C   0  0  0  0  0  0  0  0  0  0  0  0
   -1.6022   -9.6337    7.9577 C   0  0  0  0  0  0  0  0  0  0  0  0
   -1.6127   -8.2892    8.2270 C   0  0  0  0  0  0  0  0  0  0  0  0
   -1.2033   -5.9937   10.4310 H   0  0  0  0  0  0  0  0  0  0  0  0
   -3.7426   -1.4251    6.2101 C   0  0  0  0  0  0  0  0  0  0  0  0
   -3.8669   -1.2192    4.7761 C   0  0  0  0  0  0  0  0  0  0  0  0
   -3.4583   -2.1868    3.8985 C   0  0  0  0  0  0  0  0  0  0  0  0
   -3.6048   -1.9877    2.5450 C   0  0  0  0  0  0  0  0  0  0  0  0
   -4.1499   -0.8493    1.9962 C   0  0  0  0  0  0  0  0  0  0  0  0
   -4.2976   -0.6475    0.6302 O   0  0  0  0  0  0  0  0  0  0  0  0
   -4.5511    0.1053    2.9202 C   0  0  0  0  0  0  0  0  0  0  0  0
   -4.4139   -0.0733    4.2778 C   0  0  0  0  0  0  0  0  0  0  0  0
   -3.5137   -0.1986    0.1483 H   0  0  0  0  0  0  0  0  0  0  0  0
   -5.6273   -4.9526   12.8300 C   0  0  0  0  0  0  0  0  0  0  0  0
   -4.9121   -5.6887   13.8425 C   0  0  0  0  0  0  0  0  0  0  0  0
   -3.7713   -5.2909   14.5001 C   0  0  0  0  0  0  0  0  0  0  0  0
   -3.4112   -6.2412   15.3826 N   0  0  0  0  0  0  0  0  0  0  0  0
   -4.3209   -7.2373   15.2834 C   0  0  0  0  0  0  0  0  0  0  0  0
   -5.2246   -6.8916   14.3482 N   0  0  0  0  0  0  0  0  0  0  0  0
   -6.0651   -7.4515   14.0313 H   0  0  0  0  0  0  0  0  0  0  0  0
   -7.2280   -5.4900    9.0539 C   0  0  0  0  0  0  0  0  0  0  0  0
   -8.6745   -5.7396    8.9924 C   0  0  0  0  0  0  0  0  0  0  0  0
   -9.4024   -5.9128   10.1487 C   0  0  0  0  0  0  0  0  0  0  0  0
  -10.7522   -6.1759   10.1213 C   0  0  0  0  0  0  0  0  0  0  0  0
  -11.4245   -6.2756    8.9260 C   0  0  0  0  0  0  0  0  0  0  0  0
  -10.7191   -6.1063    7.7504 C   0  0  0  0  0  0  0  0  0  0  0  0
   -9.3714   -5.8444    7.8128 C   0  0  0  0  0  0  0  0  0  0  0  0
 38 39  1  0  0  0
 39 40  1  0  0  0
 39  1  1  0  0  0
  1  2  1  0  0  0
  2  3  1  0  0  0
  3  4  2  0  0  0
  3  5  1  0  0  0
  5 41  1  0  0  0
 41 42  1  0  0  0
 42 43  2  0  0  0
 43 44  1  0  0  0
 44 45  2  0  0  0
 45 46  1  0  0  0
 46 47  2  0  0  0
  5  6  1  0  0  0
  6  7  1  0  0  0
  7  8  2  0  0  0
  7  9  1  0  0  0
  9 48  1  0  0  0
 48 49  1  0  0  0
 49 50  2  0  0  0
 50 51  1  0  0  0
 51 52  1  0  0  0
 52 53  2  0  0  0
 53 54  1  0  0  0
 54 55  2  0  0  0
 55 56  1  0  0  0
 56 57  2  0  0  0
  9 10  1  0  0  0
 10 11  1  0  0  0
 11 12  2  0  0  0
 11 13  1  0  0  0
 13 59  1  0  0  0
 59 60  1  0  0  0
 60 61  2  0  0  0
 61 62  1  0  0  0
 62 63  2  0  0  0
 63 64  1  0  0  0
 63 65  1  0  0  0
 65 66  2  0  0  0
 13 14  1  0  0  0
 14 15  1  0  0  0
 15 16  2  0  0  0
 15 17  1  0  0  0
 17 18  1  0  0  0
 18 19  1  0  0  0
 19 20  1  0  0  0
 20 21  1  0  0  0
 21 22  1  0  0  0
 22 23  2  0  0  0
 22 24  1  0  0  0
 24 68  1  0  0  0
 68 69  1  0  0  0
 69 70  2  0  0  0
 70 71  1  0  0  0
 71 72  2  0  0  0
 72 73  1  0  0  0
 24 25  1  0  0  0
 25 26  1  0  0  0
 26 27  2  0  0  0
 26 28  1  0  0  0
 28 75  1  0  0  0
 75 76  1  0  0  0
 76 77  2  0  0  0
 77 78  1  0  0  0
 78 79  2  0  0  0
 79 80  1  0  0  0
 80 81  2  0  0  0
 28 29  1  0  0  0
 29 30  1  0  0  0
 30 31  2  0  0  0
 30  1  1  0  0  0
 47 42  1  0  0  0
 57 49  1  0  0  0
 66 60  1  0  0  0
 21 17  1  0  0  0
 73 69  1  0  0  0
 81 76  1  0  0  0
 57 52  1  0  0  0
  2 32  1  0  0  0
  6 33  1  0  0  0
 51 58  1  0  0  0
 10 34  1  0  0  0
 64 67  1  0  0  0
 14 35  1  0  0  0
 73 74  1  0  0  0
 25 36  1  0  0  0
 29 37  1  0  0  0
M  END
> <minimizedAffinity>
33.61167

> <CNNscore>
0.1877166033

> <CNNaffinity>
7.1237878799

> <CNN_VS>
1.3372532129

> <CNNaffinity_variance>
0.6052047610

$$$$
[H]C1=C2C([H])([H])C([H])([H])C3([H])C4([H])C([H])([H])C([H])([H])[C@]([H])(c5c([H])nc([H])c([H])c5[H])[C@@]4(C([H])([H])[H])C([H])([H])C([H])([H])C3([H])[C@@]2(C([H])([H])[H])C([H])([H])C([H])([H])C1=O


 26 30  0  0  0  0  0  0  0  0999 V2000
  -12.6359   -5.3735    7.7433 C   0  0  0  0  0  0  0  0  0  0  0  0
  -12.5032   -6.8148    7.4042 C   0  0  0  0  0  0  0  0  0  0  0  0
  -12.7813   -7.1652    5.9881 C   0  0  0  0  0  0  0  0  0  0  0  0
  -14.1709   -6.7048    5.6053 C   0  0  0  0  0  0  0  0  0  0  0  0
  -15.1512   -7.4933    6.4084 C   0  0  0  0  0  0  0  0  0  0  0  0
  -14.9465   -7.1929    7.8732 C   0  0  0  0  0  0  0  0  0  0  0  0
  -15.8592   -8.0786    8.7336 C   0  0  0  0  0  0  0  0  0  0  0  0
  -17.2719   -8.0691    8.2712 C   0  0  0  0  0  0  0  0  0  0  0  0
  -17.4164   -8.1822    6.7896 C   0  0  0  0  0  0  0  0  0  0  0  0
  -18.2446   -9.0283    6.2452 C   0  0  0  0  0  0  0  0  0  0  0  0
  -18.3923   -9.1457    4.8098 C   0  0  0  0  0  0  0  0  0  0  0  0
  -18.8160  -10.1779    4.2539 O   0  0  0  0  0  0  0  0  0  0  0  0
  -18.0077   -7.9516    3.9976 C   0  0  0  0  0  0  0  0  0  0  0  0
  -16.6374   -7.5421    4.4997 C   0  0  0  0  0  0  0  0  0  0  0  0
  -16.5807   -7.2931    5.9666 C   0  0  0  0  0  0  0  0  0  0  0  0
  -17.0503   -5.8747    6.2073 C   0  0  0  0  0  0  0  0  0  0  0  0
  -13.5673   -7.5571    8.2341 C   0  0  0  0  0  0  0  0  0  0  0  0
  -13.1072   -7.3239    9.6117 C   0  0  0  0  0  0  0  0  0  0  0  0
  -11.5768   -7.3328    9.4749 C   0  0  0  0  0  0  0  0  0  0  0  0
  -11.3142   -7.5013    7.9935 C   0  0  0  0  0  0  0  0  0  0  0  0
   -9.9967   -7.0799    7.6526 C   0  0  0  0  0  0  0  0  0  0  0  0
   -9.5311   -6.8122    6.3946 C   0  0  0  0  0  0  0  0  0  0  0  0
   -8.2097   -6.4070    6.1700 C   0  0  0  0  0  0  0  0  0  0  0  0
   -7.3346   -6.2659    7.2247 C   0  0  0  0  0  0  0  0  0  0  0  0
   -7.7954   -6.5296    8.4594 N   0  0  0  0  0  0  0  0  0  0  0  0
   -9.0621   -6.9192    8.6845 C   0  0  0  0  0  0  0  0  0  0  0  0
  2  1  1  0  0  0
  2  3  1  0  0  0
  3  4  1  0  0  0
  4  5  1  0  0  0
  5  6  1  0  0  0
  6  7  1  0  0  0
  7  8  1  0  0  0
  8  9  1  0  0  0
  9 10  2  0  0  0
 10 11  1  0  0  0
 11 12  2  0  0  0
 11 13  1  0  0  0
 13 14  1  0  0  0
 14 15  1  0  0  0
 15 16  1  0  0  0
  6 17  1  0  0  0
 17 18  1  0  0  0
 18 19  1  0  0  0
 19 20  1  0  0  0
 20 21  1  0  0  0
 21 22  2  0  0  0
 22 23  1  0  0  0
 23 24  2  0  0  0
 24 25  1  0  0  0
 25 26  2  0  0  0
 17  2  1  0  0  0
 26 21  1  0  0  0
 20  2  1  0  0  0
 15  5  1  0  0  0
 15  9  1  0  0  0
M  END
> <minimizedAffinity>
7.27516

> <CNNscore>
0.5137411356

> <CNNaffinity>
7.2598772049

> <CNN_VS>
3.7296974659

> <CNNaffinity_variance>
2.0858607292

$$$$
[H]C1=C2C([H])([H])C([H])([H])C3([H])C4([H])C([H])([H])C([H])([H])[C@]([H])(c5c([H])nc([H])c([H])c5[H])[C@@]4(C([H])([H])[H])C([H])([H])C([H])([H])C3([H])[C@@]2(C([H])([H])[H])C([H])([H])C([H])([H])C1=O


 26 30  0  0  0  0  0  0  0  0999 V2000
  -12.2005   -9.0219    5.7447 C   0  0  0  0  0  0  0  0  0  0  0  0
  -12.1180   -8.4315    7.1065 C   0  0  0  0  0  0  0  0  0  0  0  0
  -11.5657   -7.0545    7.1724 C   0  0  0  0  0  0  0  0  0  0  0  0
  -10.1886   -7.0197    6.5466 C   0  0  0  0  0  0  0  0  0  0  0  0
   -9.2814   -7.8512    7.3911 C   0  0  0  0  0  0  0  0  0  0  0  0
   -9.7648   -9.2809    7.3776 C   0  0  0  0  0  0  0  0  0  0  0  0
   -8.9233  -10.1393    8.3329 C   0  0  0  0  0  0  0  0  0  0  0  0
   -7.4616   -9.9575    8.1330 C   0  0  0  0  0  0  0  0  0  0  0  0
   -7.0544   -8.5311    7.9645 C   0  0  0  0  0  0  0  0  0  0  0  0
   -6.0593   -8.0197    8.6328 C   0  0  0  0  0  0  0  0  0  0  0  0
   -5.6565   -6.6380    8.4766 C   0  0  0  0  0  0  0  0  0  0  0  0
   -5.0358   -6.0091    9.3560 O   0  0  0  0  0  0  0  0  0  0  0  0
   -6.0221   -5.9759    7.1877 C   0  0  0  0  0  0  0  0  0  0  0  0
   -7.4940   -6.2730    6.9807 C   0  0  0  0  0  0  0  0  0  0  0  0
   -7.8272   -7.7240    7.0067 C   0  0  0  0  0  0  0  0  0  0  0  0
   -7.5604   -8.2784    5.6240 C   0  0  0  0  0  0  0  0  0  0  0  0
  -11.1384   -9.3122    7.9044 C   0  0  0  0  0  0  0  0  0  0  0  0
  -11.8497  -10.5986    7.9601 C   0  0  0  0  0  0  0  0  0  0  0  0
  -13.3242  -10.1782    8.0597 C   0  0  0  0  0  0  0  0  0  0  0  0
  -13.3099   -8.6666    7.9763 C   0  0  0  0  0  0  0  0  0  0  0  0
  -14.5870   -8.1592    7.6009 C   0  0  0  0  0  0  0  0  0  0  0  0
  -14.8659   -7.4017    6.4966 C   0  0  0  0  0  0  0  0  0  0  0  0
  -16.1624   -6.9488    6.2234 C   0  0  0  0  0  0  0  0  0  0  0  0
  -17.2029   -7.2594    7.0715 C   0  0  0  0  0  0  0  0  0  0  0  0
  -16.9254   -8.0038    8.1555 N   0  0  0  0  0  0  0  0  0  0  0  0
  -15.6839   -8.4429    8.4258 C   0  0  0  0  0  0  0  0  0  0  0  0
  2  1  1  0  0  0
  2  3  1  0  0  0
  3  4  1  0  0  0
  4  5  1  0  0  0
  5  6  1  0  0  0
  6  7  1  0  0  0
  7  8  1  0  0  0
  8  9  1  0  0  0
  9 10  2  0  0  0
 10 11  1  0  0  0
 11 12  2  0  0  0
 11 13  1  0  0  0
 13 14  1  0  0  0
 14 15  1  0  0  0
 15 16  1  0  0  0
  6 17  1  0  0  0
 17 18  1  0  0  0
 18 19  1  0  0  0
 19 20  1  0  0  0
 20 21  1  0  0  0
 21 22  2  0  0  0
 22 23  1  0  0  0
 23 24  2  0  0  0
 24 25  1  0  0  0
 25 26  2  0  0  0
 17  2  1  0  0  0
 26 21  1  0  0  0
 20  2  1  0  0  0
 15  5  1  0  0  0
 15  9  1  0  0  0
M  END
> <minimizedAffinity>
-1.83572

> <CNNscore>
0.4476989210

> <CNNaffinity>
6.7485337257

> <CNN_VS>
3.0213112831

> <CNNaffinity_variance>
0.4729231000

$$$$
[H]C1=C2C([H])([H])C([H])([H])C3([H])C4([H])C([H])([H])C([H])([H])[C@]([H])(c5c([H])nc([H])c([H])c5[H])[C@@]4(C([H])([H])[H])C([H])([H])C([H])([H])C3([H])[C@@]2(C([H])([H])[H])C([H])([H])C([H])([H])C1=O


 26 30  0  0  0  0  0  0  0  0999 V2000
   -9.1444   -5.9747    7.1080 C   0  0  0  0  0  0  0  0  0  0  0  0
   -9.2867   -7.3127    7.7401 C   0  0  0  0  0  0  0  0  0  0  0  0
  -10.1136   -8.2895    6.9866 C   0  0  0  0  0  0  0  0  0  0  0  0
  -11.4945   -7.7198    6.7455 C   0  0  0  0  0  0  0  0  0  0  0  0
  -12.1656   -7.5712    8.0703 C   0  0  0  0  0  0  0  0  0  0  0  0
  -11.3924   -6.5829    8.9089 C   0  0  0  0  0  0  0  0  0  0  0  0
  -11.9886   -6.4977   10.3212 C   0  0  0  0  0  0  0  0  0  0  0  0
  -13.4634   -6.3118   10.3127 C   0  0  0  0  0  0  0  0  0  0  0  0
  -14.1699   -7.1845    9.3287 C   0  0  0  0  0  0  0  0  0  0  0  0
  -15.2185   -7.8827    9.6623 C   0  0  0  0  0  0  0  0  0  0  0  0
  -15.9108   -8.7317    8.7159 C   0  0  0  0  0  0  0  0  0  0  0  0
  -16.6090   -9.7047    9.0622 O   0  0  0  0  0  0  0  0  0  0  0  0
  -15.7532   -8.3893    7.2697 C   0  0  0  0  0  0  0  0  0  0  0  0
  -14.2630   -8.2181    7.0521 C   0  0  0  0  0  0  0  0  0  0  0  0
  -13.6300   -7.2221    7.9601 C   0  0  0  0  0  0  0  0  0  0  0  0
  -13.8373   -5.8524    7.3507 C   0  0  0  0  0  0  0  0  0  0  0  0
  -10.0203   -7.0877    9.0754 C   0  0  0  0  0  0  0  0  0  0  0  0
   -9.0516   -6.2789    9.8313 C   0  0  0  0  0  0  0  0  0  0  0  0
   -7.6961   -6.8368    9.3704 C   0  0  0  0  0  0  0  0  0  0  0  0
   -8.0331   -7.8781    8.3245 C   0  0  0  0  0  0  0  0  0  0  0  0
   -6.9107   -8.1539    7.4917 C   0  0  0  0  0  0  0  0  0  0  0  0
   -6.9390   -8.7687    6.2701 C   0  0  0  0  0  0  0  0  0  0  0  0
   -5.7700   -8.9961    5.5336 C   0  0  0  0  0  0  0  0  0  0  0  0
   -4.5463   -8.6007    6.0280 C   0  0  0  0  0  0  0  0  0  0  0  0
   -4.5221   -7.9970    7.2284 N   0  0  0  0  0  0  0  0  0  0  0  0
   -5.6391   -7.7746    7.9425 C   0  0  0  0  0  0  0  0  0  0  0  0
  2  1  1  0  0  0
  2  3  1  0  0  0
  3  4  1  0  0  0
  4  5  1  0  0  0
  5  6  1  0  0  0
  6  7  1  0  0  0
  7  8  1  0  0  0
  8  9  1  0  0  0
  9 10  2  0  0  0
 10 11  1  0  0  0
 11 12  2  0  0  0
 11 13  1  0  0  0
 13 14  1  0  0  0
 14 15  1  0  0  0
 15 16  1  0  0  0
  6 17  1  0  0  0
 17 18  1  0  0  0
 18 19  1  0  0  0
 19 20  1  0  0  0
 20 21  1  0  0  0
 21 22  2  0  0  0
 22 23  1  0  0  0
 23 24  2  0  0  0
 24 25  1  0  0  0
 25 26  2  0  0  0
 17  2  1  0  0  0
 26 21  1  0  0  0
 20  2  1  0  0  0
 15  5  1  0  0  0
 15  9  1  0  0  0
M  END
> <minimizedAffinity>
0.49837

> <CNNscore>
0.4066395462

> <CNNaffinity>
6.6319365501

> <CNN_VS>
2.6968076229

> <CNNaffinity_variance>
0.7855714560

$$$$
[H]C1=C2C([H])([H])C([H])([H])C3([H])C4([H])C([H])([H])C([H])([H])[C@]([H])(c5c([H])nc([H])c([H])c5[H])[C@@]4(C([H])([H])[H])C([H])([H])C([H])([H])C3([H])[C@@]2(C([H])([H])[H])C([H])([H])C([H])([H])C1=O


 26 30  0  0  0  0  0  0  0  0999 V2000
  -16.3056   -6.3059    7.1805 C   0  0  0  0  0  0  0  0  0  0  0  0
  -14.9129   -6.7332    6.8845 C   0  0  0  0  0  0  0  0  0  0  0  0
  -14.4002   -7.8547    7.7122 C   0  0  0  0  0  0  0  0  0  0  0  0
  -14.4948   -7.4988    9.1798 C   0  0  0  0  0  0  0  0  0  0  0  0
  -13.5642   -6.3603    9.4353 C   0  0  0  0  0  0  0  0  0  0  0  0
  -14.0150   -5.1632    8.6343 C   0  0  0  0  0  0  0  0  0  0  0  0
  -13.0103   -4.0115    8.7818 C   0  0  0  0  0  0  0  0  0  0  0  0
  -12.6563   -3.7352   10.1988 C   0  0  0  0  0  0  0  0  0  0  0  0
  -12.3997   -4.9674   11.0019 C   0  0  0  0  0  0  0  0  0  0  0  0
  -11.3454   -5.0838   11.7589 C   0  0  0  0  0  0  0  0  0  0  0  0
  -11.0875   -6.2742   12.5415 C   0  0  0  0  0  0  0  0  0  0  0  0
   -9.9456   -6.6043   12.9174 O   0  0  0  0  0  0  0  0  0  0  0  0
  -12.2724   -7.1149   12.8912 C   0  0  0  0  0  0  0  0  0  0  0  0
  -13.0260   -7.3169   11.5915 C   0  0  0  0  0  0  0  0  0  0  0  0
  -13.3928   -6.0489   10.9023 C   0  0  0  0  0  0  0  0  0  0  0  0
  -14.6777   -5.5465   11.5245 C   0  0  0  0  0  0  0  0  0  0  0  0
  -14.0096   -5.5287    7.2090 C   0  0  0  0  0  0  0  0  0  0  0  0
  -14.4479   -4.5340    6.2178 C   0  0  0  0  0  0  0  0  0  0  0  0
  -14.7840   -5.3914    4.9878 C   0  0  0  0  0  0  0  0  0  0  0  0
  -14.5682   -6.8221    5.4334 C   0  0  0  0  0  0  0  0  0  0  0  0
  -15.2565   -7.7356    4.5842 C   0  0  0  0  0  0  0  0  0  0  0  0
  -16.4034   -7.4838    3.8827 C   0  0  0  0  0  0  0  0  0  0  0  0
  -17.0025   -8.4600    3.0771 C   0  0  0  0  0  0  0  0  0  0  0  0
  -16.4436   -9.7148    2.9697 C   0  0  0  0  0  0  0  0  0  0  0  0
  -15.3167   -9.9588    3.6603 N   0  0  0  0  0  0  0  0  0  0  0  0
  -14.7347   -9.0279    4.4361 C   0  0  0  0  0  0  0  0  0  0  0  0
  2  1  1  0  0  0
  2  3  1  0  0  0
  3  4  1  0  0  0
  4  5  1  0  0  0
  5  6  1  0  0  0
  6  7  1  0  0  0
  7  8  1  0  0  0
  8  9  1  0  0  0
  9 10  2  0  0  0
 10 11  1  0  0  0
 11 12  2  0  0  0
 11 13  1  0  0  0
 13 14  1  0  0  0
 14 15  1  0  0  0
 15 16  1  0  0  0
  6 17  1  0  0  0
 17 18  1  0  0  0
 18 19  1  0  0  0
 19 20  1  0  0  0
 20 21  1  0  0  0
 21 22  2  0  0  0
 22 23  1  0  0  0
 23 24  2  0  0  0
 24 25  1  0  0  0
 25 26  2  0  0  0
 17  2  1  0  0  0
 26 21  1  0  0  0
 20  2  1  0  0  0
 15  5  1  0  0  0
 15  9  1  0  0  0
M  END
> <minimizedAffinity>
24.85178

> <CNNscore>
0.4037022889

> <CNNaffinity>
6.6435875893

> <CNN_VS>
2.6820316315

> <CNNaffinity_variance>
0.6031047106

$$$$
[H]C1=C2C([H])([H])C([H])([H])C3([H])C4([H])C([H])([H])C([H])([H])[C@]([H])(c5c([H])nc([H])c([H])c5[H])[C@@]4(C([H])([H])[H])C([H])([H])C([H])([H])C3([H])[C@@]2(C([H])([H])[H])C([H])([H])C([H])([H])C1=O


 26 30  0  0  0  0  0  0  0  0999 V2000
  -13.8059   -6.3552    5.5766 C   0  0  0  0  0  0  0  0  0  0  0  0
  -14.2823   -7.2893    6.6304 C   0  0  0  0  0  0  0  0  0  0  0  0
  -14.9460   -6.6513    7.7957 C   0  0  0  0  0  0  0  0  0  0  0  0
  -14.0160   -5.6407    8.4305 C   0  0  0  0  0  0  0  0  0  0  0  0
  -12.8511   -6.3830    8.9956 C   0  0  0  0  0  0  0  0  0  0  0  0
  -12.1058   -7.0633    7.8732 C   0  0  0  0  0  0  0  0  0  0  0  0
  -10.9719   -7.9334    8.4341 C   0  0  0  0  0  0  0  0  0  0  0  0
  -10.1238   -7.2095    9.4171 C   0  0  0  0  0  0  0  0  0  0  0  0
  -10.9050   -6.3977   10.3968 C   0  0  0  0  0  0  0  0  0  0  0  0
  -10.6703   -6.4584   11.6772 C   0  0  0  0  0  0  0  0  0  0  0  0
  -11.4220   -5.6754   12.6353 C   0  0  0  0  0  0  0  0  0  0  0  0
  -11.5375   -5.9989   13.8336 O   0  0  0  0  0  0  0  0  0  0  0  0
  -12.0714   -4.4317   12.1207 C   0  0  0  0  0  0  0  0  0  0  0  0
  -12.8131   -4.8490   10.8664 C   0  0  0  0  0  0  0  0  0  0  0  0
  -11.9550   -5.5219    9.8524 C   0  0  0  0  0  0  0  0  0  0  0  0
  -11.2722   -4.4409    9.0427 C   0  0  0  0  0  0  0  0  0  0  0  0
  -13.0294   -7.9855    7.1939 C   0  0  0  0  0  0  0  0  0  0  0  0
  -12.5468   -8.7478    6.0320 C   0  0  0  0  0  0  0  0  0  0  0  0
  -13.8454   -9.1648    5.3242 C   0  0  0  0  0  0  0  0  0  0  0  0
  -14.9564   -8.5250    6.1293 C   0  0  0  0  0  0  0  0  0  0  0  0
  -16.1569   -8.4323    5.3680 C   0  0  0  0  0  0  0  0  0  0  0  0
  -16.2545   -8.4410    4.0036 C   0  0  0  0  0  0  0  0  0  0  0  0
  -17.4906   -8.3390    3.3538 C   0  0  0  0  0  0  0  0  0  0  0  0
  -18.6544   -8.2261    4.0825 C   0  0  0  0  0  0  0  0  0  0  0  0
  -18.5549   -8.2180    5.4227 N   0  0  0  0  0  0  0  0  0  0  0  0
  -17.3727   -8.3153    6.0552 C   0  0  0  0  0  0  0  0  0  0  0  0
  2  1  1  0  0  0
  2  3  1  0  0  0
  3  4  1  0  0  0
  4  5  1  0  0  0
  5  6  1  0  0  0
  6  7  1  0  0  0
  7  8  1  0  0  0
  8  9  1  0  0  0
  9 10  2  0  0  0
 10 11  1  0  0  0
 11 12  2  0  0  0
 11 13  1  0  0  0
 13 14  1  0  0  0
 14 15  1  0  0  0
 15 16  1  0  0  0
  6 17  1  0  0  0
 17 18  1  0  0  0
 18 19  1  0  0  0
 19 20  1  0  0  0
 20 21  1  0  0  0
 21 22  2  0  0  0
 22 23  1  0  0  0
 23 24  2  0  0  0
 24 25  1  0  0  0
 25 26  2  0  0  0
 17  2  1  0  0  0
 26 21  1  0  0  0
 20  2  1  0  0  0
 15  5  1  0  0  0
 15  9  1  0  0  0
M  END
> <minimizedAffinity>
4.07116

> <CNNscore>
0.3974570036

> <CNNaffinity>
6.7770295143

> <CNN_VS>
2.6935777664

> <CNNaffinity_variance>
0.4367296100

$$$$
[H]C1=C2C([H])([H])C([H])([H])C3([H])C4([H])C([H])([H])C([H])([H])[C@]([H])(c5c([H])nc([H])c([H])c5[H])[C@@]4(C([H])([H])[H])C([H])([H])C([H])([H])C3([H])[C@@]2(C([H])([H])[H])C([H])([H])C([H])([H])C1=O


 26 30  0  0  0  0  0  0  0  0999 V2000
  -10.1854   -7.1872    6.4540 C   0  0  0  0  0  0  0  0  0  0  0  0
   -9.6944   -7.7285    7.7486 C   0  0  0  0  0  0  0  0  0  0  0  0
   -9.0271   -6.7452    8.6392 C   0  0  0  0  0  0  0  0  0  0  0  0
   -7.8671   -6.0969    7.9155 C   0  0  0  0  0  0  0  0  0  0  0  0
   -6.8444   -7.1519    7.6535 C   0  0  0  0  0  0  0  0  0  0  0  0
   -7.4363   -8.1998    6.7428 C   0  0  0  0  0  0  0  0  0  0  0  0
   -6.4497   -9.3604    6.5504 C   0  0  0  0  0  0  0  0  0  0  0  0
   -5.0830   -8.8998    6.1904 C   0  0  0  0  0  0  0  0  0  0  0  0
   -4.6128   -7.7355    6.9980 C   0  0  0  0  0  0  0  0  0  0  0  0
   -3.4358   -7.7211    7.5573 C   0  0  0  0  0  0  0  0  0  0  0  0
   -2.9704   -6.5972    8.3423 C   0  0  0  0  0  0  0  0  0  0  0  0
   -2.0869   -6.6997    9.2158 O   0  0  0  0  0  0  0  0  0  0  0  0
   -3.6053   -5.2744    8.0589 C   0  0  0  0  0  0  0  0  0  0  0  0
   -5.0995   -5.5289    8.0722 C   0  0  0  0  0  0  0  0  0  0  0  0
   -5.5385   -6.5997    7.1354 C   0  0  0  0  0  0  0  0  0  0  0  0
   -5.6965   -5.9726    5.7672 C   0  0  0  0  0  0  0  0  0  0  0  0
   -8.6187   -8.7752    7.4030 C   0  0  0  0  0  0  0  0  0  0  0  0
   -9.3988   -9.8026    6.6959 C   0  0  0  0  0  0  0  0  0  0  0  0
  -10.7521   -9.7755    7.4232 C   0  0  0  0  0  0  0  0  0  0  0  0
  -10.6292   -8.6641    8.4438 C   0  0  0  0  0  0  0  0  0  0  0  0
  -11.9111   -8.2148    8.8731 C   0  0  0  0  0  0  0  0  0  0  0  0
  -12.1626   -7.1699    9.7193 C   0  0  0  0  0  0  0  0  0  0  0  0
  -13.4675   -6.8142   10.0816 C   0  0  0  0  0  0  0  0  0  0  0  0
  -14.5446   -7.5173    9.5878 C   0  0  0  0  0  0  0  0  0  0  0  0
  -14.2940   -8.5432    8.7566 N   0  0  0  0  0  0  0  0  0  0  0  0
  -13.0446   -8.8918    8.4033 C   0  0  0  0  0  0  0  0  0  0  0  0
  2  1  1  0  0  0
  2  3  1  0  0  0
  3  4  1  0  0  0
  4  5  1  0  0  0
  5  6  1  0  0  0
  6  7  1  0  0  0
  7  8  1  0  0  0
  8  9  1  0  0  0
  9 10  2  0  0  0
 10 11  1  0  0  0
 11 12  2  0  0  0
 11 13  1  0  0  0
 13 14  1  0  0  0
 14 15  1  0  0  0
 15 16  1  0  0  0
  6 17  1  0  0  0
 17 18  1  0  0  0
 18 19  1  0  0  0
 19 20  1  0  0  0
 20 21  1  0  0  0
 21 22  2  0  0  0
 22 23  1  0  0  0
 23 24  2  0  0  0
 24 25  1  0  0  0
 25 26  2  0  0  0
 17  2  1  0  0  0
 26 21  1  0  0  0
 20  2  1  0  0  0
 15  5  1  0  0  0
 15  9  1  0  0  0
M  END
> <minimizedAffinity>
-5.03374

> <CNNscore>
0.3530135751

> <CNNaffinity>
6.3110113144

> <CNN_VS>
2.2278726101

> <CNNaffinity_variance>
0.1738670617

$$$$
[H]C1=C2C([H])([H])C([H])([H])C3([H])C4([H])C([H])([H])C([H])([H])[C@]([H])(c5c([H])nc([H])c([H])c5[H])[C@@]4(C([H])([H])[H])C([H])([H])C([H])([H])C3([H])[C@@]2(C([H])([H])[H])C([H])([H])C([H])([H])C1=O


 26 30  0  0  0  0  0  0  0  0999 V2000
  -14.2549   -6.0546    4.8919 C   0  0  0  0  0  0  0  0  0  0  0  0
  -15.3144   -6.8710    5.5406 C   0  0  0  0  0  0  0  0  0  0  0  0
  -15.6938   -6.4495    6.9132 C   0  0  0  0  0  0  0  0  0  0  0  0
  -14.4733   -6.4431    7.8075 C   0  0  0  0  0  0  0  0  0  0  0  0
  -13.9981   -7.8514    7.9428 C   0  0  0  0  0  0  0  0  0  0  0  0
  -13.5807   -8.3655    6.5865 C   0  0  0  0  0  0  0  0  0  0  0  0
  -13.1997   -9.8504    6.6712 C   0  0  0  0  0  0  0  0  0  0  0  0
  -12.2551  -10.1394    7.7819 C   0  0  0  0  0  0  0  0  0  0  0  0
  -12.6093   -9.4551    9.0608 C   0  0  0  0  0  0  0  0  0  0  0  0
  -12.6420  -10.0972   10.1944 C   0  0  0  0  0  0  0  0  0  0  0  0
  -12.9840   -9.4430   11.4397 C   0  0  0  0  0  0  0  0  0  0  0  0
  -13.4363  -10.0568   12.4261 O   0  0  0  0  0  0  0  0  0  0  0  0
  -12.7691   -7.9654   11.5006 C   0  0  0  0  0  0  0  0  0  0  0  0
  -13.4186   -7.4078   10.2496 C   0  0  0  0  0  0  0  0  0  0  0  0
  -12.9203   -8.0186    8.9864 C   0  0  0  0  0  0  0  0  0  0  0  0
  -11.6476   -7.2961    8.6011 C   0  0  0  0  0  0  0  0  0  0  0  0
  -14.7412   -8.2932    5.6847 C   0  0  0  0  0  0  0  0  0  0  0  0
  -14.5795   -8.7080    4.2827 C   0  0  0  0  0  0  0  0  0  0  0  0
  -15.7718   -8.0394    3.5810 C   0  0  0  0  0  0  0  0  0  0  0  0
  -16.4655   -7.2366    4.6610 C   0  0  0  0  0  0  0  0  0  0  0  0
  -17.2925   -6.2224    4.0982 C   0  0  0  0  0  0  0  0  0  0  0  0
  -16.8945   -5.2366    3.2373 C   0  0  0  0  0  0  0  0  0  0  0  0
  -17.7934   -4.2822    2.7455 C   0  0  0  0  0  0  0  0  0  0  0  0
  -19.1185   -4.3133    3.1216 C   0  0  0  0  0  0  0  0  0  0  0  0
  -19.5061   -5.2831    3.9673 N   0  0  0  0  0  0  0  0  0  0  0  0
  -18.6503   -6.2034    4.4446 C   0  0  0  0  0  0  0  0  0  0  0  0
  2  1  1  0  0  0
  2  3  1  0  0  0
  3  4  1  0  0  0
  4  5  1  0  0  0
  5  6  1  0  0  0
  6  7  1  0  0  0
  7  8  1  0  0  0
  8  9  1  0  0  0
  9 10  2  0  0  0
 10 11  1  0  0  0
 11 12  2  0  0  0
 11 13  1  0  0  0
 13 14  1  0  0  0
 14 15  1  0  0  0
 15 16  1  0  0  0
  6 17  1  0  0  0
 17 18  1  0  0  0
 18 19  1  0  0  0
 19 20  1  0  0  0
 20 21  1  0  0  0
 21 22  2  0  0  0
 22 23  1  0  0  0
 23 24  2  0  0  0
 24 25  1  0  0  0
 25 26  2  0  0  0
 17  2  1  0  0  0
 26 21  1  0  0  0
 20  2  1  0  0  0
 15  5  1  0  0  0
 15  9  1  0  0  0
M  END
> <minimizedAffinity>
5.32158

> <CNNscore>
0.3504401147

> <CNNaffinity>
6.6703248024

> <CNN_VS>
2.3375494480

> <CNNaffinity_variance>
0.3532518446

$$$$
[H]C1=C2C([H])([H])C([H])([H])C3([H])C4([H])C([H])([H])C([H])([H])[C@]([H])(c5c([H])nc([H])c([H])c5[H])[C@@]4(C([H])([H])[H])C([H])([H])C([H])([H])C3([H])[C@@]2(C([H])([H])[H])C([H])([H])C([H])([H])C1=O


 26 30  0  0  0  0  0  0  0  0999 V2000
  -13.6274   -9.3152    8.0350 C   0  0  0  0  0  0  0  0  0  0  0  0
  -13.2883   -8.2217    7.0868 C   0  0  0  0  0  0  0  0  0  0  0  0
  -12.4264   -8.6137    5.9427 C   0  0  0  0  0  0  0  0  0  0  0  0
  -11.1406   -9.2280    6.4514 C   0  0  0  0  0  0  0  0  0  0  0  0
  -10.3809   -8.1658    7.1739 C   0  0  0  0  0  0  0  0  0  0  0  0
  -11.1837   -7.7076    8.3670 C   0  0  0  0  0  0  0  0  0  0  0  0
  -10.4839   -6.5314    9.0630 C   0  0  0  0  0  0  0  0  0  0  0  0
   -9.0439   -6.7919    9.3242 C   0  0  0  0  0  0  0  0  0  0  0  0
   -8.3319   -7.4205    8.1723 C   0  0  0  0  0  0  0  0  0  0  0  0
   -7.1895   -6.9641    7.7423 C   0  0  0  0  0  0  0  0  0  0  0  0
   -6.4910   -7.5664    6.6263 C   0  0  0  0  0  0  0  0  0  0  0  0
   -5.6649   -6.9458    5.9289 O   0  0  0  0  0  0  0  0  0  0  0  0
   -6.8055   -8.9978    6.3339 C   0  0  0  0  0  0  0  0  0  0  0  0
   -8.3185   -9.0841    6.3036 C   0  0  0  0  0  0  0  0  0  0  0  0
   -8.9773   -8.5828    7.5412 C   0  0  0  0  0  0  0  0  0  0  0  0
   -8.9717   -9.7108    8.5502 C   0  0  0  0  0  0  0  0  0  0  0  0
  -12.4740   -7.1881    7.8872 C   0  0  0  0  0  0  0  0  0  0  0  0
  -13.4580   -6.7093    8.8704 C   0  0  0  0  0  0  0  0  0  0  0  0
  -14.7788   -6.7402    8.0859 C   0  0  0  0  0  0  0  0  0  0  0  0
  -14.4197   -7.3128    6.7313 C   0  0  0  0  0  0  0  0  0  0  0  0
  -15.5714   -7.8227    6.0657 C   0  0  0  0  0  0  0  0  0  0  0  0
  -15.6011   -8.4074    4.8294 C   0  0  0  0  0  0  0  0  0  0  0  0
  -16.7948   -8.8721    4.2638 C   0  0  0  0  0  0  0  0  0  0  0  0
  -17.9845   -8.7502    4.9478 C   0  0  0  0  0  0  0  0  0  0  0  0
  -17.9517   -8.1753    6.1622 N   0  0  0  0  0  0  0  0  0  0  0  0
  -16.8106   -7.7263    6.7130 C   0  0  0  0  0  0  0  0  0  0  0  0
  2  1  1  0  0  0
  2  3  1  0  0  0
  3  4  1  0  0  0
  4  5  1  0  0  0
  5  6  1  0  0  0
  6  7  1  0  0  0
  7  8  1  0  0  0
  8  9  1  0  0  0
  9 10  2  0  0  0
 10 11  1  0  0  0
 11 12  2  0  0  0
 11 13  1  0  0  0
 13 14  1  0  0  0
 14 15  1  0  0  0
 15 16  1  0  0  0
  6 17  1  0  0  0
 17 18  1  0  0  0
 18 19  1  0  0  0
 19 20  1  0  0  0
 20 21  1  0  0  0
 21 22  2  0  0  0
 22 23  1  0  0  0
 23 24  2  0  0  0
 24 25  1  0  0  0
 25 26  2  0  0  0
 17  2  1  0  0  0
 26 21  1  0  0  0
 20  2  1  0  0  0
 15  5  1  0  0  0
 15  9  1  0  0  0
M  END
> <minimizedAffinity>
-5.78919

> <CNNscore>
0.3213910758

> <CNNaffinity>
6.8180375099

> <CNN_VS>
2.1912565231

> <CNNaffinity_variance>
0.2250688970

$$$$
[H]C1=C2C([H])([H])C([H])([H])C3([H])C4([H])C([H])([H])C([H])([H])[C@]([H])(c5c([H])nc([H])c([H])c5[H])[C@@]4(C([H])([H])[H])C([H])([H])C([H])([H])C3([H])[C@@]2(C([H])([H])[H])C([H])([H])C([H])([H])C1=O


 26 30  0  0  0  0  0  0  0  0999 V2000
   -8.7005   -6.8905    6.3421 C   0  0  0  0  0  0  0  0  0  0  0  0
   -8.3507   -7.6934    7.5433 C   0  0  0  0  0  0  0  0  0  0  0  0
   -7.8571   -6.9161    8.7085 C   0  0  0  0  0  0  0  0  0  0  0  0
   -6.6508   -6.0950    8.3081 C   0  0  0  0  0  0  0  0  0  0  0  0
   -5.5474   -7.0401    7.9662 C   0  0  0  0  0  0  0  0  0  0  0  0
   -5.9602   -7.8740    6.7779 C   0  0  0  0  0  0  0  0  0  0  0  0
   -4.8957   -8.9383    6.4754 C   0  0  0  0  0  0  0  0  0  0  0  0
   -3.5211   -8.3758    6.4142 C   0  0  0  0  0  0  0  0  0  0  0  0
   -3.2219   -7.4086    7.5114 C   0  0  0  0  0  0  0  0  0  0  0  0
   -2.1287   -7.4897    8.2162 C   0  0  0  0  0  0  0  0  0  0  0  0
   -1.8292   -6.5570    9.2821 C   0  0  0  0  0  0  0  0  0  0  0  0
   -1.0605   -6.8290   10.2251 O   0  0  0  0  0  0  0  0  0  0  0  0
   -2.4933   -5.2202    9.2079 C   0  0  0  0  0  0  0  0  0  0  0  0
   -3.9609   -5.5081    8.9613 C   0  0  0  0  0  0  0  0  0  0  0  0
   -4.2178   -6.3548    7.7637 C   0  0  0  0  0  0  0  0  0  0  0  0
   -4.2330   -5.4436    6.5553 C   0  0  0  0  0  0  0  0  0  0  0  0
   -7.1845   -8.6105    7.1297 C   0  0  0  0  0  0  0  0  0  0  0  0
   -7.8108   -9.4742    6.1169 C   0  0  0  0  0  0  0  0  0  0  0  0
   -9.2456   -9.6425    6.6406 C   0  0  0  0  0  0  0  0  0  0  0  0
   -9.3147   -8.7827    7.8847 C   0  0  0  0  0  0  0  0  0  0  0  0
  -10.6634   -8.4715    8.2217 C   0  0  0  0  0  0  0  0  0  0  0  0
  -11.0845   -7.4317    9.0044 C   0  0  0  0  0  0  0  0  0  0  0  0
  -12.4412   -7.2187    9.2775 C   0  0  0  0  0  0  0  0  0  0  0  0
  -13.3981   -8.0625    8.7574 C   0  0  0  0  0  0  0  0  0  0  0  0
  -12.9811   -9.0831    7.9887 N   0  0  0  0  0  0  0  0  0  0  0  0
  -11.6808   -9.2952    7.7212 C   0  0  0  0  0  0  0  0  0  0  0  0
  2  1  1  0  0  0
  2  3  1  0  0  0
  3  4  1  0  0  0
  4  5  1  0  0  0
  5  6  1  0  0  0
  6  7  1  0  0  0
  7  8  1  0  0  0
  8  9  1  0  0  0
  9 10  2  0  0  0
 10 11  1  0  0  0
 11 12  2  0  0  0
 11 13  1  0  0  0
 13 14  1  0  0  0
 14 15  1  0  0  0
 15 16  1  0  0  0
  6 17  1  0  0  0
 17 18  1  0  0  0
 18 19  1  0  0  0
 19 20  1  0  0  0
 20 21  1  0  0  0
 21 22  2  0  0  0
 22 23  1  0  0  0
 23 24  2  0  0  0
 24 25  1  0  0  0
 25 26  2  0  0  0
 17  2  1  0  0  0
 26 21  1  0  0  0
 20  2  1  0  0  0
 15  5  1  0  0  0
 15  9  1  0  0  0
M  END
> <minimizedAffinity>
-5.82948

> <CNNscore>
0.2935346067

> <CNNaffinity>
6.1591424942

> <CNN_VS>
1.8079215288

> <CNNaffinity_variance>
0.1782110035

$$$$
[H]c1c([H])c([H])c(C([H])([H])[C@@]([H])(C(=O)N([H])[C@]([H])(C(=O)N([H])C([H])([H])C(=O)N([H])[C@]([H])(C(=O)N([H])[C@]([H])(C(=O)N([H])[C@]([H])(C(=O)N([H])[H])C([H])([H])c2c([H])n([H])c3c([H])c([H])c([H])c([H])c23)C([H])([H])C([H])(C([H])([H])[H])C([H])([H])[H])C([H])([H])c2c([H])n([H])c3c([H])c([H])c([H])c([H])c23)C([H])(C([H])([H])[H])C([H])([H])[H])N([H])[H])c([H])c1[H]


 70 74  0  0  0  0  0  0  0  0999 V2000
   -2.9712   -4.2462   10.6487 C   0  0  0  0  0  0  0  0  0  0  0  0
   -4.3157   -5.6829    8.9680 N   0  0  0  0  0  0  0  0  0  0  0  0
   -3.6458   -4.5275    9.4093 C   0  0  0  0  0  0  0  0  0  0  0  0
   -3.6659   -3.5851    8.4805 O   0  0  0  0  0  0  0  0  0  0  0  0
   -4.3899   -6.4987    9.5896 H   0  0  0  0  0  0  0  0  0  0  0  0
   -4.8815   -5.7414    7.6503 C   0  0  0  0  0  0  0  0  0  0  0  0
   -6.1525   -6.5039    7.5590 C   0  0  0  0  0  0  0  0  0  0  0  0
   -6.8898   -6.4374    6.5432 O   0  0  0  0  0  0  0  0  0  0  0  0
   -6.5533   -7.3271    8.6353 N   0  0  0  0  0  0  0  0  0  0  0  0
   -6.0439   -7.4666    9.5287 H   0  0  0  0  0  0  0  0  0  0  0  0
   -7.8295   -8.0802    8.5225 C   0  0  0  0  0  0  0  0  0  0  0  0
   -7.5953   -9.3028    7.7209 C   0  0  0  0  0  0  0  0  0  0  0  0
   -7.2237   -9.2116    6.3475 N   0  0  0  0  0  0  0  0  0  0  0  0
   -7.7273  -10.4213    8.2388 O   0  0  0  0  0  0  0  0  0  0  0  0
   -7.1768  -10.0753    5.7783 H   0  0  0  0  0  0  0  0  0  0  0  0
   -7.0116   -8.2913    5.9596 H   0  0  0  0  0  0  0  0  0  0  0  0
   -8.8220   -7.1307    7.9671 C   0  0  0  0  0  0  0  0  0  0  0  0
  -10.2315   -7.4407    8.1644 C   0  0  0  0  0  0  0  0  0  0  0  0
  -10.8831   -8.5039    7.4931 C   0  0  0  0  0  0  0  0  0  0  0  0
  -12.1635   -8.4705    7.8643 N   0  0  0  0  0  0  0  0  0  0  0  0
  -12.3760   -7.4681    8.7254 C   0  0  0  0  0  0  0  0  0  0  0  0
  -13.5146   -7.0701    9.3774 C   0  0  0  0  0  0  0  0  0  0  0  0
  -13.4976   -5.9981   10.2551 C   0  0  0  0  0  0  0  0  0  0  0  0
  -12.2973   -5.3465   10.4541 C   0  0  0  0  0  0  0  0  0  0  0  0
  -11.1680   -5.7522    9.8002 C   0  0  0  0  0  0  0  0  0  0  0  0
  -11.1586   -6.8124    8.9214 C   0  0  0  0  0  0  0  0  0  0  0  0
  -12.8994   -9.1309    7.5435 H   0  0  0  0  0  0  0  0  0  0  0  0
   -3.9357   -5.9842    6.5343 C   0  0  0  0  0  0  0  0  0  0  0  0
   -3.3054   -8.4353    6.7246 C   0  0  0  0  0  0  0  0  0  0  0  0
   -2.8638   -6.9921    6.8336 C   0  0  0  0  0  0  0  0  0  0  0  0
   -1.8130   -6.8134    5.7310 C   0  0  0  0  0  0  0  0  0  0  0  0
   -3.4162   -2.8845   11.1108 N   0  0  0  0  0  0  0  0  0  0  0  0
   -2.5225   -1.8128   11.2015 C   0  0  0  0  0  0  0  0  0  0  0  0
   -1.3088   -2.0627   10.8693 O   0  0  0  0  0  0  0  0  0  0  0  0
   -4.4103   -2.8177   11.3395 H   0  0  0  0  0  0  0  0  0  0  0  0
   -2.8211   -0.4306   11.6342 C   0  0  0  0  0  0  0  0  0  0  0  0
   -2.4415   -0.2450   13.0278 N   0  0  0  0  0  0  0  0  0  0  0  0
   -2.8356    0.8103   13.8555 C   0  0  0  0  0  0  0  0  0  0  0  0
   -3.5707    1.7243   13.4182 O   0  0  0  0  0  0  0  0  0  0  0  0
   -1.7957   -0.9928   13.3909 H   0  0  0  0  0  0  0  0  0  0  0  0
   -2.3746    0.8770   15.3071 C   0  0  0  0  0  0  0  0  0  0  0  0
   -3.4090    0.4751   16.1646 N   0  0  0  0  0  0  0  0  0  0  0  0
   -4.4927   -0.3776   16.2238 C   0  0  0  0  0  0  0  0  0  0  0  0
   -4.8589   -1.0985   15.2730 O   0  0  0  0  0  0  0  0  0  0  0  0
   -3.2980    1.0170   17.1558 H   0  0  0  0  0  0  0  0  0  0  0  0
   -5.3075   -0.5084   17.4468 C   0  0  0  0  0  0  0  0  0  0  0  0
   -4.5219   -0.9679   18.6024 N   0  0  0  0  0  0  0  0  0  0  0  0
   -4.3952   -2.0093   18.5955 H   0  0  0  0  0  0  0  0  0  0  0  0
   -5.0052   -0.6801   19.4976 H   0  0  0  0  0  0  0  0  0  0  0  0
   -6.1316    0.6429   17.8645 C   0  0  0  0  0  0  0  0  0  0  0  0
   -7.6049    0.5045   17.5901 C   0  0  0  0  0  0  0  0  0  0  0  0
   -8.2105   -0.6817   17.3514 C   0  0  0  0  0  0  0  0  0  0  0  0
   -9.5752   -0.7504   17.1324 C   0  0  0  0  0  0  0  0  0  0  0  0
  -10.3872    0.3819   17.1440 C   0  0  0  0  0  0  0  0  0  0  0  0
   -9.7161    1.5722   17.3929 C   0  0  0  0  0  0  0  0  0  0  0  0
   -8.3700    1.6785   17.6159 C   0  0  0  0  0  0  0  0  0  0  0  0
   -1.0682    0.1430   15.2963 C   0  0  0  0  0  0  0  0  0  0  0  0
    0.1706    0.9938   15.4515 C   0  0  0  0  0  0  0  0  0  0  0  0
   -1.0310   -0.9960   16.3079 C   0  0  0  0  0  0  0  0  0  0  0  0
   -2.9877   -5.1480   11.7954 C   0  0  0  0  0  0  0  0  0  0  0  0
   -4.0298   -5.1300   12.8069 C   0  0  0  0  0  0  0  0  0  0  0  0
   -5.3807   -5.4396   12.5939 C   0  0  0  0  0  0  0  0  0  0  0  0
   -6.0782   -5.2690   13.7273 N   0  0  0  0  0  0  0  0  0  0  0  0
   -5.2522   -4.8569   14.7043 C   0  0  0  0  0  0  0  0  0  0  0  0
   -5.4437   -4.5543   16.0392 C   0  0  0  0  0  0  0  0  0  0  0  0
   -4.4267   -4.1659   16.8544 C   0  0  0  0  0  0  0  0  0  0  0  0
   -3.1731   -4.0818   16.2870 C   0  0  0  0  0  0  0  0  0  0  0  0
   -2.9644   -4.3726   14.9796 C   0  0  0  0  0  0  0  0  0  0  0  0
   -3.9818   -4.7715   14.1296 C   0  0  0  0  0  0  0  0  0  0  0  0
   -7.0976   -5.4165   13.8588 H   0  0  0  0  0  0  0  0  0  0  0  0
 29 30  1  0  0  0
 30 31  1  0  0  0
 30 28  1  0  0  0
 28  6  1  0  0  0
  6  2  1  0  0  0
  2  3  1  0  0  0
  3  4  2  0  0  0
  3  1  1  0  0  0
  1 60  1  0  0  0
 60 61  1  0  0  0
 61 62  2  0  0  0
 62 63  1  0  0  0
 63 64  1  0  0  0
 64 65  2  0  0  0
 65 66  1  0  0  0
 66 67  2  0  0  0
 67 68  1  0  0  0
 68 69  2  0  0  0
  1 32  1  0  0  0
 32 33  1  0  0  0
 33 34  2  0  0  0
 33 36  1  0  0  0
 36 37  1  0  0  0
 37 38  1  0  0  0
 38 39  2  0  0  0
 38 41  1  0  0  0
 41 42  1  0  0  0
 42 43  1  0  0  0
 43 44  2  0  0  0
 43 46  1  0  0  0
 46 47  1  0  0  0
 46 50  1  0  0  0
 50 51  1  0  0  0
 51 52  2  0  0  0
 52 53  1  0  0  0
 53 54  2  0  0  0
 54 55  1  0  0  0
 55 56  2  0  0  0
 41 57  1  0  0  0
 57 58  1  0  0  0
 57 59  1  0  0  0
  6  7  1  0  0  0
  7  8  2  0  0  0
  7  9  1  0  0  0
  9 11  1  0  0  0
 11 17  1  0  0  0
 17 18  1  0  0  0
 18 19  2  0  0  0
 19 20  1  0  0  0
 20 21  1  0  0  0
 21 22  2  0  0  0
 22 23  1  0  0  0
 23 24  2  0  0  0
 24 25  1  0  0  0
 25 26  2  0  0  0
 11 12  1  0  0  0
 12 13  1  0  0  0
 12 14  2  0  0  0
 69 61  1  0  0  0
 56 51  1  0  0  0
 26 18  1  0  0  0
 69 64  1  0  0  0
 26 21  1  0  0  0
  2  5  1  0  0  0
 63 70  1  0  0  0
 32 35  1  0  0  0
 37 40  1  0  0  0
 42 45  1  0  0  0
 47 48  1  0  0  0
 47 49  1  0  0  0
  9 10  1  0  0  0
 20 27  1  0  0  0
 13 15  1  0  0  0
 13 16  1  0  0  0
M  END
> <minimizedAffinity>
-7.40855

> <CNNscore>
0.2205619663

> <CNNaffinity>
6.9327774048

> <CNN_VS>
1.5291069746

> <CNNaffinity_variance>
0.6306928396

$$$$
[H]c1c([H])c([H])c(C([H])([H])[C@@]([H])(C(=O)N([H])[C@]([H])(C(=O)N([H])C([H])([H])C(=O)N([H])[C@]([H])(C(=O)N([H])[C@]([H])(C(=O)N([H])[C@]([H])(C(=O)N([H])[H])C([H])([H])c2c([H])n([H])c3c([H])c([H])c([H])c([H])c23)C([H])([H])C([H])(C([H])([H])[H])C([H])([H])[H])C([H])([H])c2c([H])n([H])c3c([H])c([H])c([H])c([H])c23)C([H])(C([H])([H])[H])C([H])([H])[H])N([H])[H])c([H])c1[H]


 70 74  0  0  0  0  0  0  0  0999 V2000
   -1.5805   -4.7823    9.9717 C   0  0  0  0  0  0  0  0  0  0  0  0
   -3.2161   -5.6714    8.1742 N   0  0  0  0  0  0  0  0  0  0  0  0
   -2.7942   -4.8055    9.1993 C   0  0  0  0  0  0  0  0  0  0  0  0
   -3.7044   -3.8747    9.4368 O   0  0  0  0  0  0  0  0  0  0  0  0
   -2.6135   -6.4534    7.8864 H   0  0  0  0  0  0  0  0  0  0  0  0
   -4.4726   -5.4632    7.5125 C   0  0  0  0  0  0  0  0  0  0  0  0
   -5.5745   -6.3339    7.9951 C   0  0  0  0  0  0  0  0  0  0  0  0
   -5.4758   -6.9927    9.0609 O   0  0  0  0  0  0  0  0  0  0  0  0
   -6.7679   -6.4325    7.2449 N   0  0  0  0  0  0  0  0  0  0  0  0
   -6.9762   -5.9497    6.3501 H   0  0  0  0  0  0  0  0  0  0  0  0
   -7.8569   -7.3107    7.7461 C   0  0  0  0  0  0  0  0  0  0  0  0
   -7.6593   -8.6750    7.2061 C   0  0  0  0  0  0  0  0  0  0  0  0
   -7.0688   -8.8707    5.9233 N   0  0  0  0  0  0  0  0  0  0  0  0
   -8.0134   -9.6628    7.8660 O   0  0  0  0  0  0  0  0  0  0  0  0
   -7.0447   -9.8232    5.5181 H   0  0  0  0  0  0  0  0  0  0  0  0
   -6.6821   -8.0613    5.4357 H   0  0  0  0  0  0  0  0  0  0  0  0
   -9.1279   -6.6501    7.3676 C   0  0  0  0  0  0  0  0  0  0  0  0
  -10.3107   -6.9676    8.1561 C   0  0  0  0  0  0  0  0  0  0  0  0
  -10.6979   -6.2165    9.2926 C   0  0  0  0  0  0  0  0  0  0  0  0
  -11.7823   -6.8065    9.7967 N   0  0  0  0  0  0  0  0  0  0  0  0
  -12.1179   -7.8752    9.0642 C   0  0  0  0  0  0  0  0  0  0  0  0
  -13.1569   -8.7609    9.1910 C   0  0  0  0  0  0  0  0  0  0  0  0
  -13.3246   -9.7993    8.2892 C   0  0  0  0  0  0  0  0  0  0  0  0
  -12.4142   -9.9111    7.2578 C   0  0  0  0  0  0  0  0  0  0  0  0
  -11.3830   -9.0222    7.1398 C   0  0  0  0  0  0  0  0  0  0  0  0
  -11.1927   -7.9834    8.0238 C   0  0  0  0  0  0  0  0  0  0  0  0
  -12.3065   -6.4847   10.6348 H   0  0  0  0  0  0  0  0  0  0  0  0
   -4.4244   -5.2891    6.0407 C   0  0  0  0  0  0  0  0  0  0  0  0
   -2.4586   -5.1840    4.4388 C   0  0  0  0  0  0  0  0  0  0  0  0
   -3.2418   -4.5088    5.5435 C   0  0  0  0  0  0  0  0  0  0  0  0
   -3.8251   -3.2440    4.9016 C   0  0  0  0  0  0  0  0  0  0  0  0
   -1.0173   -3.3887    9.8937 N   0  0  0  0  0  0  0  0  0  0  0  0
   -0.0387   -3.0447    8.9558 C   0  0  0  0  0  0  0  0  0  0  0  0
    0.3458   -3.9858    8.1731 O   0  0  0  0  0  0  0  0  0  0  0  0
   -1.4134   -2.7322   10.5698 H   0  0  0  0  0  0  0  0  0  0  0  0
    0.5969   -1.7229    8.7668 C   0  0  0  0  0  0  0  0  0  0  0  0
   -0.4135   -0.7127    8.4854 N   0  0  0  0  0  0  0  0  0  0  0  0
   -0.9460   -0.4075    7.2296 C   0  0  0  0  0  0  0  0  0  0  0  0
   -0.5514   -1.0095    6.2055 O   0  0  0  0  0  0  0  0  0  0  0  0
   -0.7243   -0.1799    9.3384 H   0  0  0  0  0  0  0  0  0  0  0  0
   -2.0141    0.6694    7.0761 C   0  0  0  0  0  0  0  0  0  0  0  0
   -2.6359    0.9166    8.3087 N   0  0  0  0  0  0  0  0  0  0  0  0
   -2.8676    1.9292    9.2175 C   0  0  0  0  0  0  0  0  0  0  0  0
   -2.4232    3.0885    9.0900 O   0  0  0  0  0  0  0  0  0  0  0  0
   -3.1435   -0.0349    8.6631 H   0  0  0  0  0  0  0  0  0  0  0  0
   -3.6846    1.7108   10.4264 C   0  0  0  0  0  0  0  0  0  0  0  0
   -3.8172    0.2866   10.7689 N   0  0  0  0  0  0  0  0  0  0  0  0
   -4.5643   -0.1810   10.1999 H   0  0  0  0  0  0  0  0  0  0  0  0
   -4.0467    0.1880   11.7962 H   0  0  0  0  0  0  0  0  0  0  0  0
   -3.3369    2.4598   11.6500 C   0  0  0  0  0  0  0  0  0  0  0  0
   -4.4161    3.3731   12.1662 C   0  0  0  0  0  0  0  0  0  0  0  0
   -5.3897    3.8932   11.3837 C   0  0  0  0  0  0  0  0  0  0  0  0
   -6.3728    4.7061   11.9201 C   0  0  0  0  0  0  0  0  0  0  0  0
   -6.4115    5.0296   13.2748 C   0  0  0  0  0  0  0  0  0  0  0  0
   -5.3901    4.4708   14.0323 C   0  0  0  0  0  0  0  0  0  0  0  0
   -4.4035    3.6615   13.5376 C   0  0  0  0  0  0  0  0  0  0  0  0
   -1.3030    1.7704    6.3496 C   0  0  0  0  0  0  0  0  0  0  0  0
   -2.1688    2.9070    5.8588 C   0  0  0  0  0  0  0  0  0  0  0  0
   -0.1316    2.3327    7.1455 C   0  0  0  0  0  0  0  0  0  0  0  0
   -1.5007   -5.2326   11.3570 C   0  0  0  0  0  0  0  0  0  0  0  0
   -2.2349   -4.6044   12.4414 C   0  0  0  0  0  0  0  0  0  0  0  0
   -1.6998   -3.7110   13.3804 C   0  0  0  0  0  0  0  0  0  0  0  0
   -2.6374   -3.3651   14.2756 N   0  0  0  0  0  0  0  0  0  0  0  0
   -3.7912   -3.9881   13.9798 C   0  0  0  0  0  0  0  0  0  0  0  0
   -5.0477   -3.9740   14.5554 C   0  0  0  0  0  0  0  0  0  0  0  0
   -6.0893   -4.6912   14.0552 C   0  0  0  0  0  0  0  0  0  0  0  0
   -5.8390   -5.4494   12.9314 C   0  0  0  0  0  0  0  0  0  0  0  0
   -4.6134   -5.4782   12.3528 C   0  0  0  0  0  0  0  0  0  0  0  0
   -3.5377   -4.7566   12.8411 C   0  0  0  0  0  0  0  0  0  0  0  0
   -2.5192   -2.7253   15.0850 H   0  0  0  0  0  0  0  0  0  0  0  0
 29 30  1  0  0  0
 30 31  1  0  0  0
 30 28  1  0  0  0
 28  6  1  0  0  0
  6  2  1  0  0  0
  2  3  1  0  0  0
  3  4  2  0  0  0
  3  1  1  0  0  0
  1 60  1  0  0  0
 60 61  1  0  0  0
 61 62  2  0  0  0
 62 63  1  0  0  0
 63 64  1  0  0  0
 64 65  2  0  0  0
 65 66  1  0  0  0
 66 67  2  0  0  0
 67 68  1  0  0  0
 68 69  2  0  0  0
  1 32  1  0  0  0
 32 33  1  0  0  0
 33 34  2  0  0  0
 33 36  1  0  0  0
 36 37  1  0  0  0
 37 38  1  0  0  0
 38 39  2  0  0  0
 38 41  1  0  0  0
 41 42  1  0  0  0
 42 43  1  0  0  0
 43 44  2  0  0  0
 43 46  1  0  0  0
 46 47  1  0  0  0
 46 50  1  0  0  0
 50 51  1  0  0  0
 51 52  2  0  0  0
 52 53  1  0  0  0
 53 54  2  0  0  0
 54 55  1  0  0  0
 55 56  2  0  0  0
 41 57  1  0  0  0
 57 58  1  0  0  0
 57 59  1  0  0  0
  6  7  1  0  0  0
  7  8  2  0  0  0
  7  9  1  0  0  0
  9 11  1  0  0  0
 11 17  1  0  0  0
 17 18  1  0  0  0
 18 19  2  0  0  0
 19 20  1  0  0  0
 20 21  1  0  0  0
 21 22  2  0  0  0
 22 23  1  0  0  0
 23 24  2  0  0  0
 24 25  1  0  0  0
 25 26  2  0  0  0
 11 12  1  0  0  0
 12 13  1  0  0  0
 12 14  2  0  0  0
 69 61  1  0  0  0
 56 51  1  0  0  0
 26 18  1  0  0  0
 69 64  1  0  0  0
 26 21  1  0  0  0
  2  5  1  0  0  0
 63 70  1  0  0  0
 32 35  1  0  0  0
 37 40  1  0  0  0
 42 45  1  0  0  0
 47 48  1  0  0  0
 47 49  1  0  0  0
  9 10  1  0  0  0
 20 27  1  0  0  0
 13 15  1  0  0  0
 13 16  1  0  0  0
M  END
> <minimizedAffinity>
-7.10871

> <CNNscore>
0.1406074762

> <CNNaffinity>
6.7552652359

> <CNN_VS>
0.9498407841

> <CNNaffinity_variance>
0.4781674445

$$$$
[H]c1c([H])c([H])c(C([H])([H])[C@@]([H])(C(=O)N([H])[C@]([H])(C(=O)N([H])C([H])([H])C(=O)N([H])[C@]([H])(C(=O)N([H])[C@]([H])(C(=O)N([H])[C@]([H])(C(=O)N([H])[H])C([H])([H])c2c([H])n([H])c3c([H])c([H])c([H])c([H])c23)C([H])([H])C([H])(C([H])([H])[H])C([H])([H])[H])C([H])([H])c2c([H])n([H])c3c([H])c([H])c([H])c([H])c23)C([H])(C([H])([H])[H])C([H])([H])[H])N([H])[H])c([H])c1[H]


 70 74  0  0  0  0  0  0  0  0999 V2000
   -1.8586   -4.4509   10.2124 C   0  0  0  0  0  0  0  0  0  0  0  0
   -2.1175   -6.7523    9.0579 N   0  0  0  0  0  0  0  0  0  0  0  0
   -1.8398   -5.3744    9.1093 C   0  0  0  0  0  0  0  0  0  0  0  0
   -1.5009   -4.9153    7.9153 O   0  0  0  0  0  0  0  0  0  0  0  0
   -2.4051   -7.2472    9.9123 H   0  0  0  0  0  0  0  0  0  0  0  0
   -1.9859   -7.4792    7.8274 C   0  0  0  0  0  0  0  0  0  0  0  0
   -3.2725   -7.9225    7.2331 C   0  0  0  0  0  0  0  0  0  0  0  0
   -3.3101   -8.7094    6.2537 O   0  0  0  0  0  0  0  0  0  0  0  0
   -4.4911   -7.4536    7.7735 N   0  0  0  0  0  0  0  0  0  0  0  0
   -4.6012   -6.8003    8.5723 H   0  0  0  0  0  0  0  0  0  0  0  0
   -5.7665   -7.9095    7.1621 C   0  0  0  0  0  0  0  0  0  0  0  0
   -6.0703   -7.0537    5.9927 C   0  0  0  0  0  0  0  0  0  0  0  0
   -5.6863   -5.6808    5.9771 N   0  0  0  0  0  0  0  0  0  0  0  0
   -6.6695   -7.5253    5.0153 O   0  0  0  0  0  0  0  0  0  0  0  0
   -6.0080   -5.0749    5.2015 H   0  0  0  0  0  0  0  0  0  0  0  0
   -5.0998   -5.3297    6.7355 H   0  0  0  0  0  0  0  0  0  0  0  0
   -6.7748   -7.8918    8.2475 C   0  0  0  0  0  0  0  0  0  0  0  0
   -8.0453   -8.5580    7.9952 C   0  0  0  0  0  0  0  0  0  0  0  0
   -8.1307   -9.8853    7.5087 C   0  0  0  0  0  0  0  0  0  0  0  0
   -9.4261  -10.1563    7.3460 N   0  0  0  0  0  0  0  0  0  0  0  0
  -10.1733   -9.1025    7.6962 C   0  0  0  0  0  0  0  0  0  0  0  0
  -11.5336   -8.9319    7.7139 C   0  0  0  0  0  0  0  0  0  0  0  0
  -12.0988   -7.7413    8.1416 C   0  0  0  0  0  0  0  0  0  0  0  0
  -11.2485   -6.7346    8.5522 C   0  0  0  0  0  0  0  0  0  0  0  0
   -9.8942   -6.9156    8.5318 C   0  0  0  0  0  0  0  0  0  0  0  0
   -9.3074   -8.0876    8.1091 C   0  0  0  0  0  0  0  0  0  0  0  0
   -9.8128  -11.0589    7.0046 H   0  0  0  0  0  0  0  0  0  0  0  0
   -0.8998   -8.4871    7.7672 C   0  0  0  0  0  0  0  0  0  0  0  0
   -0.9035  -11.0012    8.1142 C   0  0  0  0  0  0  0  0  0  0  0  0
   -1.0536   -9.6278    8.7314 C   0  0  0  0  0  0  0  0  0  0  0  0
    0.1212   -9.5004    9.7088 C   0  0  0  0  0  0  0  0  0  0  0  0
   -2.7788   -5.0137   11.2622 N   0  0  0  0  0  0  0  0  0  0  0  0
   -4.0856   -4.5420   11.4209 C   0  0  0  0  0  0  0  0  0  0  0  0
   -4.4467   -3.6058   10.6216 O   0  0  0  0  0  0  0  0  0  0  0  0
   -2.3701   -5.7597   11.8292 H   0  0  0  0  0  0  0  0  0  0  0  0
   -5.0919   -5.0020   12.4021 C   0  0  0  0  0  0  0  0  0  0  0  0
   -4.5663   -4.8879   13.7554 N   0  0  0  0  0  0  0  0  0  0  0  0
   -5.3221   -4.7992   14.9279 C   0  0  0  0  0  0  0  0  0  0  0  0
   -6.5730   -4.7963   14.8823 O   0  0  0  0  0  0  0  0  0  0  0  0
   -3.5150   -4.8555   13.7967 H   0  0  0  0  0  0  0  0  0  0  0  0
   -4.6418   -4.6971   16.2883 C   0  0  0  0  0  0  0  0  0  0  0  0
   -5.2069   -3.6548   17.0374 N   0  0  0  0  0  0  0  0  0  0  0  0
   -4.8558   -2.5542   17.7927 C   0  0  0  0  0  0  0  0  0  0  0  0
   -3.6753   -2.2285   18.0339 O   0  0  0  0  0  0  0  0  0  0  0  0
   -6.3381   -3.7286   16.9774 H   0  0  0  0  0  0  0  0  0  0  0  0
   -5.8741   -1.6580   18.3727 C   0  0  0  0  0  0  0  0  0  0  0  0
   -5.3614   -0.8841   19.5137 N   0  0  0  0  0  0  0  0  0  0  0  0
   -5.3747   -1.4454   20.4000 H   0  0  0  0  0  0  0  0  0  0  0  0
   -5.9454   -0.0124   19.6429 H   0  0  0  0  0  0  0  0  0  0  0  0
   -6.5963   -0.7420   17.4680 C   0  0  0  0  0  0  0  0  0  0  0  0
   -8.0938   -0.7473   17.6188 C   0  0  0  0  0  0  0  0  0  0  0  0
   -8.7223   -0.7975   18.8160 C   0  0  0  0  0  0  0  0  0  0  0  0
  -10.1037   -0.7719   18.8941 C   0  0  0  0  0  0  0  0  0  0  0  0
  -10.9102   -0.6958   17.7604 C   0  0  0  0  0  0  0  0  0  0  0  0
  -10.2155   -0.6472   16.5586 C   0  0  0  0  0  0  0  0  0  0  0  0
   -8.8521   -0.6681   16.4428 C   0  0  0  0  0  0  0  0  0  0  0  0
   -4.6693   -6.1042   16.8029 C   0  0  0  0  0  0  0  0  0  0  0  0
   -3.8987   -7.1206   15.9932 C   0  0  0  0  0  0  0  0  0  0  0  0
   -4.2512   -6.1986   18.2652 C   0  0  0  0  0  0  0  0  0  0  0  0
   -0.6528   -3.9631   10.8729 C   0  0  0  0  0  0  0  0  0  0  0  0
   -0.6653   -2.9183   11.8818 C   0  0  0  0  0  0  0  0  0  0  0  0
    0.0030   -2.9640   13.1137 C   0  0  0  0  0  0  0  0  0  0  0  0
   -0.2657   -1.8595   13.8264 N   0  0  0  0  0  0  0  0  0  0  0  0
   -1.0902   -1.0627   13.1249 C   0  0  0  0  0  0  0  0  0  0  0  0
   -1.6540    0.1732   13.3797 C   0  0  0  0  0  0  0  0  0  0  0  0
   -2.4628    0.8060   12.4881 C   0  0  0  0  0  0  0  0  0  0  0  0
   -2.7055    0.1542   11.2978 C   0  0  0  0  0  0  0  0  0  0  0  0
   -2.1636   -1.0590   11.0292 C   0  0  0  0  0  0  0  0  0  0  0  0
   -1.3364   -1.7231   11.9187 C   0  0  0  0  0  0  0  0  0  0  0  0
    0.0864   -1.6307   14.7762 H   0  0  0  0  0  0  0  0  0  0  0  0
 29 30  1  0  0  0
 30 31  1  0  0  0
 30 28  1  0  0  0
 28  6  1  0  0  0
  6  2  1  0  0  0
  2  3  1  0  0  0
  3  4  2  0  0  0
  3  1  1  0  0  0
  1 60  1  0  0  0
 60 61  1  0  0  0
 61 62  2  0  0  0
 62 63  1  0  0  0
 63 64  1  0  0  0
 64 65  2  0  0  0
 65 66  1  0  0  0
 66 67  2  0  0  0
 67 68  1  0  0  0
 68 69  2  0  0  0
  1 32  1  0  0  0
 32 33  1  0  0  0
 33 34  2  0  0  0
 33 36  1  0  0  0
 36 37  1  0  0  0
 37 38  1  0  0  0
 38 39  2  0  0  0
 38 41  1  0  0  0
 41 42  1  0  0  0
 42 43  1  0  0  0
 43 44  2  0  0  0
 43 46  1  0  0  0
 46 47  1  0  0  0
 46 50  1  0  0  0
 50 51  1  0  0  0
 51 52  2  0  0  0
 52 53  1  0  0  0
 53 54  2  0  0  0
 54 55  1  0  0  0
 55 56  2  0  0  0
 41 57  1  0  0  0
 57 58  1  0  0  0
 57 59  1  0  0  0
  6  7  1  0  0  0
  7  8  2  0  0  0
  7  9  1  0  0  0
  9 11  1  0  0  0
 11 17  1  0  0  0
 17 18  1  0  0  0
 18 19  2  0  0  0
 19 20  1  0  0  0
 20 21  1  0  0  0
 21 22  2  0  0  0
 22 23  1  0  0  0
 23 24  2  0  0  0
 24 25  1  0  0  0
 25 26  2  0  0  0
 11 12  1  0  0  0
 12 13  1  0  0  0
 12 14  2  0  0  0
 69 61  1  0  0  0
 56 51  1  0  0  0
 26 18  1  0  0  0
 69 64  1  0  0  0
 26 21  1  0  0  0
  2  5  1  0  0  0
 63 70  1  0  0  0
 32 35  1  0  0  0
 37 40  1  0  0  0
 42 45  1  0  0  0
 47 48  1  0  0  0
 47 49  1  0  0  0
  9 10  1  0  0  0
 20 27  1  0  0  0
 13 15  1  0  0  0
 13 16  1  0  0  0
M  END
> <minimizedAffinity>
-6.90327

> <CNNscore>
0.1369554102

> <CNNaffinity>
6.6534986496

> <CNN_VS>
0.9112326503

> <CNNaffinity_variance>
0.5039055347

$$$$
[H]c1c([H])c([H])c(C([H])([H])[C@@]([H])(C(=O)N([H])[C@]([H])(C(=O)N([H])C([H])([H])C(=O)N([H])[C@]([H])(C(=O)N([H])[C@]([H])(C(=O)N([H])[C@]([H])(C(=O)N([H])[H])C([H])([H])c2c([H])n([H])c3c([H])c([H])c([H])c([H])c23)C([H])([H])C([H])(C([H])([H])[H])C([H])([H])[H])C([H])([H])c2c([H])n([H])c3c([H])c([H])c([H])c([H])c23)C([H])(C([H])([H])[H])C([H])([H])[H])N([H])[H])c([H])c1[H]


 70 74  0  0  0  0  0  0  0  0999 V2000
   -2.2989   -4.0065   10.5596 C   0  0  0  0  0  0  0  0  0  0  0  0
   -4.0132   -4.5270    8.6923 N   0  0  0  0  0  0  0  0  0  0  0  0
   -2.9041   -4.7909    9.5162 C   0  0  0  0  0  0  0  0  0  0  0  0
   -2.3836   -5.9766    9.2434 O   0  0  0  0  0  0  0  0  0  0  0  0
   -4.5162   -3.6348    8.7838 H   0  0  0  0  0  0  0  0  0  0  0  0
   -4.4616   -5.4993    7.7365 C   0  0  0  0  0  0  0  0  0  0  0  0
   -5.5646   -6.3706    8.2154 C   0  0  0  0  0  0  0  0  0  0  0  0
   -5.5302   -6.9158    9.3474 O   0  0  0  0  0  0  0  0  0  0  0  0
   -6.6852   -6.6002    7.3857 N   0  0  0  0  0  0  0  0  0  0  0  0
   -6.8360   -6.2185    6.4325 H   0  0  0  0  0  0  0  0  0  0  0  0
   -7.7766   -7.4765    7.8850 C   0  0  0  0  0  0  0  0  0  0  0  0
   -7.5366   -8.8584    7.4108 C   0  0  0  0  0  0  0  0  0  0  0  0
   -7.1416   -9.1066    6.0636 N   0  0  0  0  0  0  0  0  0  0  0  0
   -7.6839   -9.8161    8.1840 O   0  0  0  0  0  0  0  0  0  0  0  0
   -7.0905  -10.0833    5.7237 H   0  0  0  0  0  0  0  0  0  0  0  0
   -6.9176   -8.3094    5.4662 H   0  0  0  0  0  0  0  0  0  0  0  0
   -9.0441   -6.8559    7.4338 C   0  0  0  0  0  0  0  0  0  0  0  0
  -10.2863   -7.4130    7.9515 C   0  0  0  0  0  0  0  0  0  0  0  0
  -10.8016   -8.6617    7.5262 C   0  0  0  0  0  0  0  0  0  0  0  0
  -11.9633   -8.8373    8.1569 N   0  0  0  0  0  0  0  0  0  0  0  0
  -12.2253   -7.7958    8.9557 C   0  0  0  0  0  0  0  0  0  0  0  0
  -13.2789   -7.5530    9.7988 C   0  0  0  0  0  0  0  0  0  0  0  0
  -13.3336   -6.3960   10.5591 C   0  0  0  0  0  0  0  0  0  0  0  0
  -12.2918   -5.4980   10.4428 C   0  0  0  0  0  0  0  0  0  0  0  0
  -11.2458   -5.7504    9.6005 C   0  0  0  0  0  0  0  0  0  0  0  0
  -11.1688   -6.8909    8.8324 C   0  0  0  0  0  0  0  0  0  0  0  0
  -12.5820   -9.6668    8.0566 H   0  0  0  0  0  0  0  0  0  0  0  0
   -3.4085   -6.2052    6.9671 C   0  0  0  0  0  0  0  0  0  0  0  0
   -4.0681   -4.5023    5.2046 C   0  0  0  0  0  0  0  0  0  0  0  0
   -3.1682   -5.6560    5.5905 C   0  0  0  0  0  0  0  0  0  0  0  0
   -1.7544   -5.0630    5.6262 C   0  0  0  0  0  0  0  0  0  0  0  0
   -1.8840   -2.6906    9.9582 N   0  0  0  0  0  0  0  0  0  0  0  0
   -0.5602   -2.4408    9.5831 C   0  0  0  0  0  0  0  0  0  0  0  0
    0.2713   -3.3969    9.7837 O   0  0  0  0  0  0  0  0  0  0  0  0
   -2.6442   -2.0164    9.8464 H   0  0  0  0  0  0  0  0  0  0  0  0
   -0.0167   -1.2035    8.9826 C   0  0  0  0  0  0  0  0  0  0  0  0
   -0.5301   -0.0347    9.6835 N   0  0  0  0  0  0  0  0  0  0  0  0
   -1.3005    0.9887    9.1242 C   0  0  0  0  0  0  0  0  0  0  0  0
   -1.6011    0.9702    7.9092 O   0  0  0  0  0  0  0  0  0  0  0  0
   -0.2514    0.0032   10.6979 H   0  0  0  0  0  0  0  0  0  0  0  0
   -1.7868    2.1543    9.9779 C   0  0  0  0  0  0  0  0  0  0  0  0
   -2.1556    1.7022   11.2532 N   0  0  0  0  0  0  0  0  0  0  0  0
   -2.7804    0.6465   11.8857 C   0  0  0  0  0  0  0  0  0  0  0  0
   -3.2876   -0.3205   11.2811 O   0  0  0  0  0  0  0  0  0  0  0  0
   -1.7905    2.4467   12.0285 H   0  0  0  0  0  0  0  0  0  0  0  0
   -2.8860    0.5791   13.3558 C   0  0  0  0  0  0  0  0  0  0  0  0
   -3.7557   -0.5167   13.8100 N   0  0  0  0  0  0  0  0  0  0  0  0
   -4.7695   -0.2506   13.7661 H   0  0  0  0  0  0  0  0  0  0  0  0
   -3.5058   -0.7803   14.8029 H   0  0  0  0  0  0  0  0  0  0  0  0
   -1.6393    0.5503   14.1458 C   0  0  0  0  0  0  0  0  0  0  0  0
   -0.9521   -0.7875   14.2027 C   0  0  0  0  0  0  0  0  0  0  0  0
   -0.2958   -1.3336   13.1530 C   0  0  0  0  0  0  0  0  0  0  0  0
    0.3416   -2.5561   13.2727 C   0  0  0  0  0  0  0  0  0  0  0  0
    0.3403   -3.2809   14.4627 C   0  0  0  0  0  0  0  0  0  0  0  0
   -0.3472   -2.6764   15.5073 C   0  0  0  0  0  0  0  0  0  0  0  0
   -0.9866   -1.4691   15.4268 C   0  0  0  0  0  0  0  0  0  0  0  0
   -0.7081    3.1822    9.8188 C   0  0  0  0  0  0  0  0  0  0  0  0
   -1.1640    4.5622    9.4060 C   0  0  0  0  0  0  0  0  0  0  0  0
    0.1812    3.2898   11.0515 C   0  0  0  0  0  0  0  0  0  0  0  0
   -2.9419   -3.7425   11.8423 C   0  0  0  0  0  0  0  0  0  0  0  0
   -3.6201   -4.7662   12.6180 C   0  0  0  0  0  0  0  0  0  0  0  0
   -5.0037   -4.9928   12.6391 C   0  0  0  0  0  0  0  0  0  0  0  0
   -5.2978   -5.9767   13.5026 N   0  0  0  0  0  0  0  0  0  0  0  0
   -4.1658   -6.4297   14.0685 C   0  0  0  0  0  0  0  0  0  0  0  0
   -3.9029   -7.4221   14.9938 C   0  0  0  0  0  0  0  0  0  0  0  0
   -2.6428   -7.7177   15.4112 C   0  0  0  0  0  0  0  0  0  0  0  0
   -1.6175   -6.9739   14.8672 C   0  0  0  0  0  0  0  0  0  0  0  0
   -1.8542   -5.9952   13.9596 C   0  0  0  0  0  0  0  0  0  0  0  0
   -3.1266   -5.6761   13.5174 C   0  0  0  0  0  0  0  0  0  0  0  0
   -6.2418   -6.3471   13.7260 H   0  0  0  0  0  0  0  0  0  0  0  0
 29 30  1  0  0  0
 30 31  1  0  0  0
 30 28  1  0  0  0
 28  6  1  0  0  0
  6  2  1  0  0  0
  2  3  1  0  0  0
  3  4  2  0  0  0
  3  1  1  0  0  0
  1 60  1  0  0  0
 60 61  1  0  0  0
 61 62  2  0  0  0
 62 63  1  0  0  0
 63 64  1  0  0  0
 64 65  2  0  0  0
 65 66  1  0  0  0
 66 67  2  0  0  0
 67 68  1  0  0  0
 68 69  2  0  0  0
  1 32  1  0  0  0
 32 33  1  0  0  0
 33 34  2  0  0  0
 33 36  1  0  0  0
 36 37  1  0  0  0
 37 38  1  0  0  0
 38 39  2  0  0  0
 38 41  1  0  0  0
 41 42  1  0  0  0
 42 43  1  0  0  0
 43 44  2  0  0  0
 43 46  1  0  0  0
 46 47  1  0  0  0
 46 50  1  0  0  0
 50 51  1  0  0  0
 51 52  2  0  0  0
 52 53  1  0  0  0
 53 54  2  0  0  0
 54 55  1  0  0  0
 55 56  2  0  0  0
 41 57  1  0  0  0
 57 58  1  0  0  0
 57 59  1  0  0  0
  6  7  1  0  0  0
  7  8  2  0  0  0
  7  9  1  0  0  0
  9 11  1  0  0  0
 11 17  1  0  0  0
 17 18  1  0  0  0
 18 19  2  0  0  0
 19 20  1  0  0  0
 20 21  1  0  0  0
 21 22  2  0  0  0
 22 23  1  0  0  0
 23 24  2  0  0  0
 24 25  1  0  0  0
 25 26  2  0  0  0
 11 12  1  0  0  0
 12 13  1  0  0  0
 12 14  2  0  0  0
 69 61  1  0  0  0
 56 51  1  0  0  0
 26 18  1  0  0  0
 69 64  1  0  0  0
 26 21  1  0  0  0
  2  5  1  0  0  0
 63 70  1  0  0  0
 32 35  1  0  0  0
 37 40  1  0  0  0
 42 45  1  0  0  0
 47 48  1  0  0  0
 47 49  1  0  0  0
  9 10  1  0  0  0
 20 27  1  0  0  0
 13 15  1  0  0  0
 13 16  1  0  0  0
M  END
> <minimizedAffinity>
-6.11945

> <CNNscore>
0.1342154443

> <CNNaffinity>
6.9871892929

> <CNN_VS>
0.9377887249

> <CNNaffinity_variance>
0.4969590604

$$$$
[H]c1c([H])c([H])c(C([H])([H])[C@@]([H])(C(=O)N([H])[C@]([H])(C(=O)N([H])C([H])([H])C(=O)N([H])[C@]([H])(C(=O)N([H])[C@]([H])(C(=O)N([H])[C@]([H])(C(=O)N([H])[H])C([H])([H])c2c([H])n([H])c3c([H])c([H])c([H])c([H])c23)C([H])([H])C([H])(C([H])([H])[H])C([H])([H])[H])C([H])([H])c2c([H])n([H])c3c([H])c([H])c([H])c([H])c23)C([H])(C([H])([H])[H])C([H])([H])[H])N([H])[H])c([H])c1[H]


 70 74  0  0  0  0  0  0  0  0999 V2000
   -2.8408   -4.1932    9.5912 C   0  0  0  0  0  0  0  0  0  0  0  0
   -4.4872   -5.5027    8.0841 N   0  0  0  0  0  0  0  0  0  0  0  0
   -3.4023   -5.3624    8.9684 C   0  0  0  0  0  0  0  0  0  0  0  0
   -2.8590   -6.5380    9.2409 O   0  0  0  0  0  0  0  0  0  0  0  0
   -5.0036   -4.6694    7.7735 H   0  0  0  0  0  0  0  0  0  0  0  0
   -4.8925   -6.8006    7.6246 C   0  0  0  0  0  0  0  0  0  0  0  0
   -6.1631   -7.2937    8.2142 C   0  0  0  0  0  0  0  0  0  0  0  0
   -6.3606   -7.2863    9.4554 O   0  0  0  0  0  0  0  0  0  0  0  0
   -7.1821   -7.7865    7.3682 N   0  0  0  0  0  0  0  0  0  0  0  0
   -7.1463   -7.8534    6.3331 H   0  0  0  0  0  0  0  0  0  0  0  0
   -8.4448   -8.2759    7.9801 C   0  0  0  0  0  0  0  0  0  0  0  0
   -8.5516   -9.7355    7.7562 C   0  0  0  0  0  0  0  0  0  0  0  0
   -9.6643  -10.2837    7.0532 N   0  0  0  0  0  0  0  0  0  0  0  0
   -7.6729  -10.4970    8.1858 O   0  0  0  0  0  0  0  0  0  0  0  0
   -9.7763  -11.3120    7.0077 H   0  0  0  0  0  0  0  0  0  0  0  0
  -10.3246   -9.6435    6.6099 H   0  0  0  0  0  0  0  0  0  0  0  0
   -9.5321   -7.4570    7.3951 C   0  0  0  0  0  0  0  0  0  0  0  0
  -10.6340   -7.0799    8.2698 C   0  0  0  0  0  0  0  0  0  0  0  0
  -10.4733   -6.2009    9.3685 C   0  0  0  0  0  0  0  0  0  0  0  0
  -11.6582   -6.1164    9.9744 N   0  0  0  0  0  0  0  0  0  0  0  0
  -12.5634   -6.8726    9.3418 C   0  0  0  0  0  0  0  0  0  0  0  0
  -13.8963   -7.0757    9.5909 C   0  0  0  0  0  0  0  0  0  0  0  0
  -14.6576   -7.8999    8.7780 C   0  0  0  0  0  0  0  0  0  0  0  0
  -14.0317   -8.5068    7.7080 C   0  0  0  0  0  0  0  0  0  0  0  0
  -12.7029   -8.2967    7.4678 C   0  0  0  0  0  0  0  0  0  0  0  0
  -11.9238   -7.4846    8.2616 C   0  0  0  0  0  0  0  0  0  0  0  0
  -11.8634   -5.5401   10.8150 H   0  0  0  0  0  0  0  0  0  0  0  0
   -3.8267   -7.8255    7.5127 C   0  0  0  0  0  0  0  0  0  0  0  0
   -2.3786   -6.7779    5.7108 C   0  0  0  0  0  0  0  0  0  0  0  0
   -3.2269   -7.9543    6.1422 C   0  0  0  0  0  0  0  0  0  0  0  0
   -2.2534   -9.1360    6.2296 C   0  0  0  0  0  0  0  0  0  0  0  0
   -3.0826   -3.0264    8.6716 N   0  0  0  0  0  0  0  0  0  0  0  0
   -2.2192   -2.7385    7.6099 C   0  0  0  0  0  0  0  0  0  0  0  0
   -1.2155   -3.5256    7.4717 O   0  0  0  0  0  0  0  0  0  0  0  0
   -3.9208   -2.4825    8.8873 H   0  0  0  0  0  0  0  0  0  0  0  0
   -2.3359   -1.6339    6.6336 C   0  0  0  0  0  0  0  0  0  0  0  0
   -2.5369   -0.3682    7.3252 N   0  0  0  0  0  0  0  0  0  0  0  0
   -3.7098    0.3919    7.3278 C   0  0  0  0  0  0  0  0  0  0  0  0
   -4.7153    0.0164    6.6836 O   0  0  0  0  0  0  0  0  0  0  0  0
   -1.6834   -0.0307    7.8407 H   0  0  0  0  0  0  0  0  0  0  0  0
   -3.7906    1.6987    8.1087 C   0  0  0  0  0  0  0  0  0  0  0  0
   -3.4331    1.4874    9.4483 N   0  0  0  0  0  0  0  0  0  0  0  0
   -3.4239    0.5094   10.4221 C   0  0  0  0  0  0  0  0  0  0  0  0
   -3.8790   -0.6404   10.2526 O   0  0  0  0  0  0  0  0  0  0  0  0
   -2.9687    2.4376    9.8605 H   0  0  0  0  0  0  0  0  0  0  0  0
   -2.8525    0.7558   11.7598 C   0  0  0  0  0  0  0  0  0  0  0  0
   -3.4266   -0.1233   12.7900 N   0  0  0  0  0  0  0  0  0  0  0  0
   -4.3493    0.2365   13.1361 H   0  0  0  0  0  0  0  0  0  0  0  0
   -2.7553   -0.2038   13.6027 H   0  0  0  0  0  0  0  0  0  0  0  0
   -1.3834    0.7542   11.9038 C   0  0  0  0  0  0  0  0  0  0  0  0
   -0.7394   -0.6049   11.8481 C   0  0  0  0  0  0  0  0  0  0  0  0
   -0.5418   -1.3814   12.9384 C   0  0  0  0  0  0  0  0  0  0  0  0
    0.0314   -2.6356   12.8221 C   0  0  0  0  0  0  0  0  0  0  0  0
    0.4317   -3.1581   11.5940 C   0  0  0  0  0  0  0  0  0  0  0  0
    0.2071   -2.3212   10.5085 C   0  0  0  0  0  0  0  0  0  0  0  0
   -0.3585   -1.0774   10.5847 C   0  0  0  0  0  0  0  0  0  0  0  0
   -3.0209    2.6648    7.2602 C   0  0  0  0  0  0  0  0  0  0  0  0
   -3.8234    3.4301    6.2342 C   0  0  0  0  0  0  0  0  0  0  0  0
   -2.1965    3.6412    8.0901 C   0  0  0  0  0  0  0  0  0  0  0  0
   -3.1579   -3.7775   10.9532 C   0  0  0  0  0  0  0  0  0  0  0  0
   -3.6807   -4.6840   11.9605 C   0  0  0  0  0  0  0  0  0  0  0  0
   -5.0264   -4.7979   12.3378 C   0  0  0  0  0  0  0  0  0  0  0  0
   -5.1535   -5.6888   13.3328 N   0  0  0  0  0  0  0  0  0  0  0  0
   -3.9450   -6.1872   13.6455 C   0  0  0  0  0  0  0  0  0  0  0  0
   -3.5189   -7.1262   14.5657 C   0  0  0  0  0  0  0  0  0  0  0  0
   -2.2141   -7.4894   14.6895 C   0  0  0  0  0  0  0  0  0  0  0  0
   -1.3145   -6.8716   13.8471 C   0  0  0  0  0  0  0  0  0  0  0  0
   -1.7118   -5.9469   12.9390 C   0  0  0  0  0  0  0  0  0  0  0  0
   -3.0332   -5.5612   12.7921 C   0  0  0  0  0  0  0  0  0  0  0  0
   -6.0323   -5.9656   13.8118 H   0  0  0  0  0  0  0  0  0  0  0  0
 29 30  1  0  0  0
 30 31  1  0  0  0
 30 28  1  0  0  0
 28  6  1  0  0  0
  6  2  1  0  0  0
  2  3  1  0  0  0
  3  4  2  0  0  0
  3  1  1  0  0  0
  1 60  1  0  0  0
 60 61  1  0  0  0
 61 62  2  0  0  0
 62 63  1  0  0  0
 63 64  1  0  0  0
 64 65  2  0  0  0
 65 66  1  0  0  0
 66 67  2  0  0  0
 67 68  1  0  0  0
 68 69  2  0  0  0
  1 32  1  0  0  0
 32 33  1  0  0  0
 33 34  2  0  0  0
 33 36  1  0  0  0
 36 37  1  0  0  0
 37 38  1  0  0  0
 38 39  2  0  0  0
 38 41  1  0  0  0
 41 42  1  0  0  0
 42 43  1  0  0  0
 43 44  2  0  0  0
 43 46  1  0  0  0
 46 47  1  0  0  0
 46 50  1  0  0  0
 50 51  1  0  0  0
 51 52  2  0  0  0
 52 53  1  0  0  0
 53 54  2  0  0  0
 54 55  1  0  0  0
 55 56  2  0  0  0
 41 57  1  0  0  0
 57 58  1  0  0  0
 57 59  1  0  0  0
  6  7  1  0  0  0
  7  8  2  0  0  0
  7  9  1  0  0  0
  9 11  1  0  0  0
 11 17  1  0  0  0
 17 18  1  0  0  0
 18 19  2  0  0  0
 19 20  1  0  0  0
 20 21  1  0  0  0
 21 22  2  0  0  0
 22 23  1  0  0  0
 23 24  2  0  0  0
 24 25  1  0  0  0
 25 26  2  0  0  0
 11 12  1  0  0  0
 12 13  1  0  0  0
 12 14  2  0  0  0
 69 61  1  0  0  0
 56 51  1  0  0  0
 26 18  1  0  0  0
 69 64  1  0  0  0
 26 21  1  0  0  0
  2  5  1  0  0  0
 63 70  1  0  0  0
 32 35  1  0  0  0
 37 40  1  0  0  0
 42 45  1  0  0  0
 47 48  1  0  0  0
 47 49  1  0  0  0
  9 10  1  0  0  0
 20 27  1  0  0  0
 13 15  1  0  0  0
 13 16  1  0  0  0
M  END
> <minimizedAffinity>
-6.85094

> <CNNscore>
0.1303867698

> <CNNaffinity>
6.9646010399

> <CNN_VS>
0.9080918431

> <CNNaffinity_variance>
0.4394723773

$$$$
[H]c1c([H])c([H])c(C([H])([H])[C@@]([H])(C(=O)N([H])[C@]([H])(C(=O)N([H])C([H])([H])C(=O)N([H])[C@]([H])(C(=O)N([H])[C@]([H])(C(=O)N([H])[C@]([H])(C(=O)N([H])[H])C([H])([H])c2c([H])n([H])c3c([H])c([H])c([H])c([H])c23)C([H])([H])C([H])(C([H])([H])[H])C([H])([H])[H])C([H])([H])c2c([H])n([H])c3c([H])c([H])c([H])c([H])c23)C([H])(C([H])([H])[H])C([H])([H])[H])N([H])[H])c([H])c1[H]


 70 74  0  0  0  0  0  0  0  0999 V2000
   -6.5576   -6.6604    7.7652 C   0  0  0  0  0  0  0  0  0  0  0  0
   -9.1124   -6.3255    8.0049 N   0  0  0  0  0  0  0  0  0  0  0  0
   -7.8621   -6.8817    8.3304 C   0  0  0  0  0  0  0  0  0  0  0  0
   -7.9708   -7.7329    9.3379 O   0  0  0  0  0  0  0  0  0  0  0  0
   -9.1855   -5.6515    7.2318 H   0  0  0  0  0  0  0  0  0  0  0  0
  -10.2856   -6.6761    8.7537 C   0  0  0  0  0  0  0  0  0  0  0  0
  -11.2032   -7.6135    8.0579 C   0  0  0  0  0  0  0  0  0  0  0  0
  -10.7696   -8.5761    7.3757 O   0  0  0  0  0  0  0  0  0  0  0  0
  -12.6005   -7.4279    8.1574 N   0  0  0  0  0  0  0  0  0  0  0  0
  -13.0875   -6.6751    8.6801 H   0  0  0  0  0  0  0  0  0  0  0  0
  -13.4998   -8.3775    7.4518 C   0  0  0  0  0  0  0  0  0  0  0  0
  -13.2259   -9.7486    7.9386 C   0  0  0  0  0  0  0  0  0  0  0  0
  -12.7668   -9.9692    9.2702 N   0  0  0  0  0  0  0  0  0  0  0  0
  -13.3887  -10.7203    7.1862 O   0  0  0  0  0  0  0  0  0  0  0  0
  -12.4735  -10.9213    9.5524 H   0  0  0  0  0  0  0  0  0  0  0  0
  -12.7401   -9.1776    9.9144 H   0  0  0  0  0  0  0  0  0  0  0  0
  -13.2799   -8.1564    6.0034 C   0  0  0  0  0  0  0  0  0  0  0  0
  -14.4578   -7.9880    5.1631 C   0  0  0  0  0  0  0  0  0  0  0  0
  -15.0946   -9.0719    4.5110 C   0  0  0  0  0  0  0  0  0  0  0  0
  -16.0957   -8.5595    3.7944 N   0  0  0  0  0  0  0  0  0  0  0  0
  -16.1473   -7.2305    3.9442 C   0  0  0  0  0  0  0  0  0  0  0  0
  -17.0096   -6.3006    3.4230 C   0  0  0  0  0  0  0  0  0  0  0  0
  -16.8852   -4.9566    3.7360 C   0  0  0  0  0  0  0  0  0  0  0  0
  -15.8679   -4.5850    4.5916 C   0  0  0  0  0  0  0  0  0  0  0  0
  -15.0148   -5.5201    5.1065 C   0  0  0  0  0  0  0  0  0  0  0  0
  -15.1153   -6.8612    4.8095 C   0  0  0  0  0  0  0  0  0  0  0  0
  -16.7551   -9.1071    3.2061 H   0  0  0  0  0  0  0  0  0  0  0  0
  -10.9636   -5.5726    9.4761 C   0  0  0  0  0  0  0  0  0  0  0  0
  -11.3305   -5.7541   11.9808 C   0  0  0  0  0  0  0  0  0  0  0  0
  -11.8658   -6.0185   10.5904 C   0  0  0  0  0  0  0  0  0  0  0  0
  -13.1220   -5.1466   10.4754 C   0  0  0  0  0  0  0  0  0  0  0  0
   -5.5669   -6.6435    8.8982 N   0  0  0  0  0  0  0  0  0  0  0  0
   -4.7622   -5.5284    9.1520 C   0  0  0  0  0  0  0  0  0  0  0  0
   -4.9205   -4.5292    8.3630 O   0  0  0  0  0  0  0  0  0  0  0  0
   -5.5439   -7.5006    9.4549 H   0  0  0  0  0  0  0  0  0  0  0  0
   -3.7558   -5.3743   10.2244 C   0  0  0  0  0  0  0  0  0  0  0  0
   -2.9667   -4.1699   10.0068 N   0  0  0  0  0  0  0  0  0  0  0  0
   -1.8193   -4.0686    9.2150 C   0  0  0  0  0  0  0  0  0  0  0  0
   -1.3629   -5.0716    8.6212 O   0  0  0  0  0  0  0  0  0  0  0  0
   -3.3266   -3.3310   10.5312 H   0  0  0  0  0  0  0  0  0  0  0  0
   -1.0929   -2.7371    9.0612 C   0  0  0  0  0  0  0  0  0  0  0  0
   -1.8836   -1.8327    8.3376 N   0  0  0  0  0  0  0  0  0  0  0  0
   -3.0680   -1.1287    8.4188 C   0  0  0  0  0  0  0  0  0  0  0  0
   -3.8642   -1.2218    9.3754 O   0  0  0  0  0  0  0  0  0  0  0  0
   -1.3530   -1.5722    7.3684 H   0  0  0  0  0  0  0  0  0  0  0  0
   -3.4812   -0.1865    7.3614 C   0  0  0  0  0  0  0  0  0  0  0  0
   -4.1389    1.0139    7.8999 N   0  0  0  0  0  0  0  0  0  0  0  0
   -5.1505    0.8380    8.1153 H   0  0  0  0  0  0  0  0  0  0  0  0
   -4.0621    1.8044    7.2022 H   0  0  0  0  0  0  0  0  0  0  0  0
   -2.4747    0.2335    6.3666 C   0  0  0  0  0  0  0  0  0  0  0  0
   -2.5858   -0.4393    5.0249 C   0  0  0  0  0  0  0  0  0  0  0  0
   -3.7581   -0.6088    4.3708 C   0  0  0  0  0  0  0  0  0  0  0  0
   -3.7953   -1.2111    3.1254 C   0  0  0  0  0  0  0  0  0  0  0  0
   -2.6446   -1.6704    2.4879 C   0  0  0  0  0  0  0  0  0  0  0  0
   -1.4698   -1.4725    3.2020 C   0  0  0  0  0  0  0  0  0  0  0  0
   -1.3941   -0.8796    4.4330 C   0  0  0  0  0  0  0  0  0  0  0  0
   -0.6512   -2.4132   10.4560 C   0  0  0  0  0  0  0  0  0  0  0  0
    0.4496   -3.2805   11.0204 C   0  0  0  0  0  0  0  0  0  0  0  0
   -0.2761   -0.9457   10.6228 C   0  0  0  0  0  0  0  0  0  0  0  0
   -6.0034   -7.4666    6.6830 C   0  0  0  0  0  0  0  0  0  0  0  0
   -4.5907   -7.4825    6.3456 C   0  0  0  0  0  0  0  0  0  0  0  0
   -3.7087   -8.5489    6.5715 C   0  0  0  0  0  0  0  0  0  0  0  0
   -2.4672   -8.2102    6.1920 N   0  0  0  0  0  0  0  0  0  0  0  0
   -2.4716   -6.9537    5.7143 C   0  0  0  0  0  0  0  0  0  0  0  0
   -1.4867   -6.1385    5.1893 C   0  0  0  0  0  0  0  0  0  0  0  0
   -1.7405   -4.8789    4.7437 C   0  0  0  0  0  0  0  0  0  0  0  0
   -3.0426   -4.4364    4.8395 C   0  0  0  0  0  0  0  0  0  0  0  0
   -4.0228   -5.2196    5.3528 C   0  0  0  0  0  0  0  0  0  0  0  0
   -3.7910   -6.5051    5.8114 C   0  0  0  0  0  0  0  0  0  0  0  0
   -1.6152   -8.8006    6.2523 H   0  0  0  0  0  0  0  0  0  0  0  0
 29 30  1  0  0  0
 30 31  1  0  0  0
 30 28  1  0  0  0
 28  6  1  0  0  0
  6  2  1  0  0  0
  2  3  1  0  0  0
  3  4  2  0  0  0
  3  1  1  0  0  0
  1 60  1  0  0  0
 60 61  1  0  0  0
 61 62  2  0  0  0
 62 63  1  0  0  0
 63 64  1  0  0  0
 64 65  2  0  0  0
 65 66  1  0  0  0
 66 67  2  0  0  0
 67 68  1  0  0  0
 68 69  2  0  0  0
  1 32  1  0  0  0
 32 33  1  0  0  0
 33 34  2  0  0  0
 33 36  1  0  0  0
 36 37  1  0  0  0
 37 38  1  0  0  0
 38 39  2  0  0  0
 38 41  1  0  0  0
 41 42  1  0  0  0
 42 43  1  0  0  0
 43 44  2  0  0  0
 43 46  1  0  0  0
 46 47  1  0  0  0
 46 50  1  0  0  0
 50 51  1  0  0  0
 51 52  2  0  0  0
 52 53  1  0  0  0
 53 54  2  0  0  0
 54 55  1  0  0  0
 55 56  2  0  0  0
 41 57  1  0  0  0
 57 58  1  0  0  0
 57 59  1  0  0  0
  6  7  1  0  0  0
  7  8  2  0  0  0
  7  9  1  0  0  0
  9 11  1  0  0  0
 11 17  1  0  0  0
 17 18  1  0  0  0
 18 19  2  0  0  0
 19 20  1  0  0  0
 20 21  1  0  0  0
 21 22  2  0  0  0
 22 23  1  0  0  0
 23 24  2  0  0  0
 24 25  1  0  0  0
 25 26  2  0  0  0
 11 12  1  0  0  0
 12 13  1  0  0  0
 12 14  2  0  0  0
 69 61  1  0  0  0
 56 51  1  0  0  0
 26 18  1  0  0  0
 69 64  1  0  0  0
 26 21  1  0  0  0
  2  5  1  0  0  0
 63 70  1  0  0  0
 32 35  1  0  0  0
 37 40  1  0  0  0
 42 45  1  0  0  0
 47 48  1  0  0  0
 47 49  1  0  0  0
  9 10  1  0  0  0
 20 27  1  0  0  0
 13 15  1  0  0  0
 13 16  1  0  0  0
M  END
> <minimizedAffinity>
-7.11494

> <CNNscore>
0.1183715835

> <CNNaffinity>
7.5411834717

> <CNN_VS>
0.8926618099

> <CNNaffinity_variance>
0.2421135604

$$$$
[H]c1c([H])c([H])c(C([H])([H])[C@@]([H])(C(=O)N([H])[C@]([H])(C(=O)N([H])C([H])([H])C(=O)N([H])[C@]([H])(C(=O)N([H])[C@]([H])(C(=O)N([H])[C@]([H])(C(=O)N([H])[H])C([H])([H])c2c([H])n([H])c3c([H])c([H])c([H])c([H])c23)C([H])([H])C([H])(C([H])([H])[H])C([H])([H])[H])C([H])([H])c2c([H])n([H])c3c([H])c([H])c([H])c([H])c23)C([H])(C([H])([H])[H])C([H])([H])[H])N([H])[H])c([H])c1[H]


 70 74  0  0  0  0  0  0  0  0999 V2000
   -4.7786   -5.7475    9.1653 C   0  0  0  0  0  0  0  0  0  0  0  0
   -3.7943   -6.8267    7.0292 N   0  0  0  0  0  0  0  0  0  0  0  0
   -3.7342   -6.1540    8.2630 C   0  0  0  0  0  0  0  0  0  0  0  0
   -2.4813   -5.8898    8.5972 O   0  0  0  0  0  0  0  0  0  0  0  0
   -4.7071   -7.0895    6.6351 H   0  0  0  0  0  0  0  0  0  0  0  0
   -2.5922   -7.1666    6.3226 C   0  0  0  0  0  0  0  0  0  0  0  0
   -2.3031   -6.3046    5.1485 C   0  0  0  0  0  0  0  0  0  0  0  0
   -3.1024   -5.4095    4.7749 O   0  0  0  0  0  0  0  0  0  0  0  0
   -1.1029   -6.4870    4.4253 N   0  0  0  0  0  0  0  0  0  0  0  0
   -0.3642   -7.1888    4.6223 H   0  0  0  0  0  0  0  0  0  0  0  0
   -0.8349   -5.6138    3.2532 C   0  0  0  0  0  0  0  0  0  0  0  0
   -0.3196   -6.4467    2.1429 C   0  0  0  0  0  0  0  0  0  0  0  0
   -0.2696   -7.8666    2.2617 N   0  0  0  0  0  0  0  0  0  0  0  0
    0.0804   -5.9128    1.0980 O   0  0  0  0  0  0  0  0  0  0  0  0
    0.1984   -8.4194    1.5218 H   0  0  0  0  0  0  0  0  0  0  0  0
   -0.7001   -8.3032    3.0780 H   0  0  0  0  0  0  0  0  0  0  0  0
    0.0772   -4.5486    3.7312 C   0  0  0  0  0  0  0  0  0  0  0  0
   -0.4732   -3.2077    3.8755 C   0  0  0  0  0  0  0  0  0  0  0  0
   -0.6098   -2.3145    2.7850 C   0  0  0  0  0  0  0  0  0  0  0  0
   -1.0936   -1.1732    3.2766 N   0  0  0  0  0  0  0  0  0  0  0  0
   -1.2796   -1.2734    4.5982 C   0  0  0  0  0  0  0  0  0  0  0  0
   -1.7705   -0.3719    5.5072 C   0  0  0  0  0  0  0  0  0  0  0  0
   -1.8963   -0.7042    6.8465 C   0  0  0  0  0  0  0  0  0  0  0  0
   -1.5147   -1.9725    7.2348 C   0  0  0  0  0  0  0  0  0  0  0  0
   -1.0278   -2.8638    6.3205 C   0  0  0  0  0  0  0  0  0  0  0  0
   -0.8906   -2.5577    4.9848 C   0  0  0  0  0  0  0  0  0  0  0  0
   -1.3085   -0.3223    2.7193 H   0  0  0  0  0  0  0  0  0  0  0  0
   -2.3397   -8.6114    6.1033 C   0  0  0  0  0  0  0  0  0  0  0  0
   -1.4391   -9.4746    8.3135 C   0  0  0  0  0  0  0  0  0  0  0  0
   -1.1642   -9.1606    6.8590 C   0  0  0  0  0  0  0  0  0  0  0  0
   -0.8566  -10.5160    6.2109 C   0  0  0  0  0  0  0  0  0  0  0  0
   -5.8251   -6.8293    9.1680 N   0  0  0  0  0  0  0  0  0  0  0  0
   -6.7585   -6.9491    8.1336 C   0  0  0  0  0  0  0  0  0  0  0  0
   -6.6671   -6.0842    7.1905 O   0  0  0  0  0  0  0  0  0  0  0  0
   -5.7851   -7.4567    9.9741 H   0  0  0  0  0  0  0  0  0  0  0  0
   -7.8322   -7.9580    8.0072 C   0  0  0  0  0  0  0  0  0  0  0  0
   -9.1371   -7.3264    8.1456 N   0  0  0  0  0  0  0  0  0  0  0  0
  -10.3765   -7.9626    8.0317 C   0  0  0  0  0  0  0  0  0  0  0  0
  -10.4450   -9.1853    7.7722 O   0  0  0  0  0  0  0  0  0  0  0  0
   -9.0857   -6.2913    8.3301 H   0  0  0  0  0  0  0  0  0  0  0  0
  -11.6733   -7.1821    8.2137 C   0  0  0  0  0  0  0  0  0  0  0  0
  -12.6896   -7.7366    7.4222 N   0  0  0  0  0  0  0  0  0  0  0  0
  -13.5910   -7.4022    6.4319 C   0  0  0  0  0  0  0  0  0  0  0  0
  -13.7193   -6.2483    5.9738 O   0  0  0  0  0  0  0  0  0  0  0  0
  -12.7803   -8.8429    7.6599 H   0  0  0  0  0  0  0  0  0  0  0  0
  -14.4798   -8.4102    5.8231 C   0  0  0  0  0  0  0  0  0  0  0  0
  -13.9764   -9.7821    5.9907 N   0  0  0  0  0  0  0  0  0  0  0  0
  -13.2467  -10.0174    5.2747 H   0  0  0  0  0  0  0  0  0  0  0  0
  -14.7780  -10.4668    5.9115 H   0  0  0  0  0  0  0  0  0  0  0  0
  -15.9120   -8.3865    6.1801 C   0  0  0  0  0  0  0  0  0  0  0  0
  -16.7731   -7.5194    5.3016 C   0  0  0  0  0  0  0  0  0  0  0  0
  -17.4020   -7.9733    4.1929 C   0  0  0  0  0  0  0  0  0  0  0  0
  -18.2040   -7.1351    3.4384 C   0  0  0  0  0  0  0  0  0  0  0  0
  -18.4029   -5.7974    3.7739 C   0  0  0  0  0  0  0  0  0  0  0  0
  -17.7350   -5.3829    4.9191 C   0  0  0  0  0  0  0  0  0  0  0  0
  -16.9365   -6.1828    5.6906 C   0  0  0  0  0  0  0  0  0  0  0  0
  -11.8291   -7.0991    9.7018 C   0  0  0  0  0  0  0  0  0  0  0  0
  -11.3867   -5.8044   10.3427 C   0  0  0  0  0  0  0  0  0  0  0  0
  -13.2434   -7.4340   10.1596 C   0  0  0  0  0  0  0  0  0  0  0  0
   -4.5354   -5.3408   10.5451 C   0  0  0  0  0  0  0  0  0  0  0  0
   -3.8877   -4.0913   10.9039 C   0  0  0  0  0  0  0  0  0  0  0  0
   -3.8002   -2.9530   10.0897 C   0  0  0  0  0  0  0  0  0  0  0  0
   -3.0885   -1.9973   10.7064 N   0  0  0  0  0  0  0  0  0  0  0  0
   -2.6901   -2.4418   11.9108 C   0  0  0  0  0  0  0  0  0  0  0  0
   -1.9605   -1.8695   12.9357 C   0  0  0  0  0  0  0  0  0  0  0  0
   -1.6922   -2.5247   14.0968 C   0  0  0  0  0  0  0  0  0  0  0  0
   -2.1834   -3.8075   14.2143 C   0  0  0  0  0  0  0  0  0  0  0  0
   -2.8996   -4.3874   13.2202 C   0  0  0  0  0  0  0  0  0  0  0  0
   -3.1876   -3.7417   12.0300 C   0  0  0  0  0  0  0  0  0  0  0  0
   -2.8582   -1.0554   10.3348 H   0  0  0  0  0  0  0  0  0  0  0  0
 29 30  1  0  0  0
 30 31  1  0  0  0
 30 28  1  0  0  0
 28  6  1  0  0  0
  6  2  1  0  0  0
  2  3  1  0  0  0
  3  4  2  0  0  0
  3  1  1  0  0  0
  1 60  1  0  0  0
 60 61  1  0  0  0
 61 62  2  0  0  0
 62 63  1  0  0  0
 63 64  1  0  0  0
 64 65  2  0  0  0
 65 66  1  0  0  0
 66 67  2  0  0  0
 67 68  1  0  0  0
 68 69  2  0  0  0
  1 32  1  0  0  0
 32 33  1  0  0  0
 33 34  2  0  0  0
 33 36  1  0  0  0
 36 37  1  0  0  0
 37 38  1  0  0  0
 38 39  2  0  0  0
 38 41  1  0  0  0
 41 42  1  0  0  0
 42 43  1  0  0  0
 43 44  2  0  0  0
 43 46  1  0  0  0
 46 47  1  0  0  0
 46 50  1  0  0  0
 50 51  1  0  0  0
 51 52  2  0  0  0
 52 53  1  0  0  0
 53 54  2  0  0  0
 54 55  1  0  0  0
 55 56  2  0  0  0
 41 57  1  0  0  0
 57 58  1  0  0  0
 57 59  1  0  0  0
  6  7  1  0  0  0
  7  8  2  0  0  0
  7  9  1  0  0  0
  9 11  1  0  0  0
 11 17  1  0  0  0
 17 18  1  0  0  0
 18 19  2  0  0  0
 19 20  1  0  0  0
 20 21  1  0  0  0
 21 22  2  0  0  0
 22 23  1  0  0  0
 23 24  2  0  0  0
 24 25  1  0  0  0
 25 26  2  0  0  0
 11 12  1  0  0  0
 12 13  1  0  0  0
 12 14  2  0  0  0
 69 61  1  0  0  0
 56 51  1  0  0  0
 26 18  1  0  0  0
 69 64  1  0  0  0
 26 21  1  0  0  0
  2  5  1  0  0  0
 63 70  1  0  0  0
 32 35  1  0  0  0
 37 40  1  0  0  0
 42 45  1  0  0  0
 47 48  1  0  0  0
 47 49  1  0  0  0
  9 10  1  0  0  0
 20 27  1  0  0  0
 13 15  1  0  0  0
 13 16  1  0  0  0
M  END
> <minimizedAffinity>
-7.11786

> <CNNscore>
0.1161143035

> <CNNaffinity>
7.3053770065

> <CNN_VS>
0.8482587337

> <CNNaffinity_variance>
0.4020341039

$$$$
[H]c1c([H])c([H])c(C([H])([H])[C@@]([H])(C(=O)N([H])[C@]([H])(C(=O)N([H])C([H])([H])C(=O)N([H])[C@]([H])(C(=O)N([H])[C@]([H])(C(=O)N([H])[C@]([H])(C(=O)N([H])[H])C([H])([H])c2c([H])n([H])c3c([H])c([H])c([H])c([H])c23)C([H])([H])C([H])(C([H])([H])[H])C([H])([H])[H])C([H])([H])c2c([H])n([H])c3c([H])c([H])c([H])c([H])c23)C([H])(C([H])([H])[H])C([H])([H])[H])N([H])[H])c([H])c1[H]


 70 74  0  0  0  0  0  0  0  0999 V2000
   -3.4700   -3.8983   10.5703 C   0  0  0  0  0  0  0  0  0  0  0  0
   -4.8110   -5.5165    9.0605 N   0  0  0  0  0  0  0  0  0  0  0  0
   -3.9081   -4.4710    9.3252 C   0  0  0  0  0  0  0  0  0  0  0  0
   -3.4055   -3.9841    8.2019 O   0  0  0  0  0  0  0  0  0  0  0  0
   -5.2897   -5.9870    9.8396 H   0  0  0  0  0  0  0  0  0  0  0  0
   -5.0576   -5.9459    7.7134 C   0  0  0  0  0  0  0  0  0  0  0  0
   -6.3147   -6.7154    7.5324 C   0  0  0  0  0  0  0  0  0  0  0  0
   -6.8749   -6.8090    6.4112 O   0  0  0  0  0  0  0  0  0  0  0  0
   -6.9051   -7.3617    8.6416 N   0  0  0  0  0  0  0  0  0  0  0  0
   -6.5515   -7.3597    9.6174 H   0  0  0  0  0  0  0  0  0  0  0  0
   -8.1636   -8.1252    8.4375 C   0  0  0  0  0  0  0  0  0  0  0  0
   -7.8544   -9.3700    7.6979 C   0  0  0  0  0  0  0  0  0  0  0  0
   -7.2804  -10.4901    8.3676 N   0  0  0  0  0  0  0  0  0  0  0  0
   -8.0877   -9.4462    6.4828 O   0  0  0  0  0  0  0  0  0  0  0  0
   -6.9680  -11.3057    7.8114 H   0  0  0  0  0  0  0  0  0  0  0  0
   -7.1930  -10.4584    9.3843 H   0  0  0  0  0  0  0  0  0  0  0  0
   -9.1050   -7.1987    7.7664 C   0  0  0  0  0  0  0  0  0  0  0  0
  -10.5276   -7.3920    8.0121 C   0  0  0  0  0  0  0  0  0  0  0  0
  -11.3043   -8.3432    7.3068 C   0  0  0  0  0  0  0  0  0  0  0  0
  -12.5588   -8.2190    7.7417 N   0  0  0  0  0  0  0  0  0  0  0  0
  -12.6392   -7.2626    8.6745 C   0  0  0  0  0  0  0  0  0  0  0  0
  -13.7065   -6.8082    9.4055 C   0  0  0  0  0  0  0  0  0  0  0  0
  -13.5513   -5.8046   10.3481 C   0  0  0  0  0  0  0  0  0  0  0  0
  -12.2876   -5.2799   10.5295 C   0  0  0  0  0  0  0  0  0  0  0  0
  -11.2305   -5.7409    9.7965 C   0  0  0  0  0  0  0  0  0  0  0  0
  -11.3584   -6.7352    8.8522 C   0  0  0  0  0  0  0  0  0  0  0  0
  -13.3666   -8.7864    7.4156 H   0  0  0  0  0  0  0  0  0  0  0  0
   -3.8941   -6.4820    6.9664 C   0  0  0  0  0  0  0  0  0  0  0  0
   -2.9812   -8.7765    6.3807 C   0  0  0  0  0  0  0  0  0  0  0  0
   -3.3875   -7.8040    7.4665 C   0  0  0  0  0  0  0  0  0  0  0  0
   -2.0913   -7.4875    8.2224 C   0  0  0  0  0  0  0  0  0  0  0  0
   -3.9275   -2.4646   10.5984 N   0  0  0  0  0  0  0  0  0  0  0  0
   -3.0224   -1.4040   10.4920 C   0  0  0  0  0  0  0  0  0  0  0  0
   -1.7871   -1.7285   10.3708 O   0  0  0  0  0  0  0  0  0  0  0  0
   -4.9381   -2.3432   10.6932 H   0  0  0  0  0  0  0  0  0  0  0  0
   -3.3307    0.0423   10.5020 C   0  0  0  0  0  0  0  0  0  0  0  0
   -3.4601    0.5402    9.1396 N   0  0  0  0  0  0  0  0  0  0  0  0
   -2.4336    1.0781    8.3582 C   0  0  0  0  0  0  0  0  0  0  0  0
   -1.2732    1.1861    8.8150 O   0  0  0  0  0  0  0  0  0  0  0  0
   -4.4413    0.4832    8.7626 H   0  0  0  0  0  0  0  0  0  0  0  0
   -2.7037    1.5522    6.9346 C   0  0  0  0  0  0  0  0  0  0  0  0
   -2.7750    0.4561    6.0626 N   0  0  0  0  0  0  0  0  0  0  0  0
   -3.3907   -0.7706    5.9181 C   0  0  0  0  0  0  0  0  0  0  0  0
   -4.1601   -1.2633    6.7685 O   0  0  0  0  0  0  0  0  0  0  0  0
   -2.1256    0.6639    5.1550 H   0  0  0  0  0  0  0  0  0  0  0  0
   -3.1870   -1.6010    4.7158 C   0  0  0  0  0  0  0  0  0  0  0  0
   -3.8022   -1.0162    3.5145 N   0  0  0  0  0  0  0  0  0  0  0  0
   -4.8291   -1.2250    3.4642 H   0  0  0  0  0  0  0  0  0  0  0  0
   -3.3253   -1.3956    2.6506 H   0  0  0  0  0  0  0  0  0  0  0  0
   -1.8125   -2.0245    4.3832 C   0  0  0  0  0  0  0  0  0  0  0  0
   -1.6171   -3.5115    4.2571 C   0  0  0  0  0  0  0  0  0  0  0  0
   -1.8753   -4.2038    3.1236 C   0  0  0  0  0  0  0  0  0  0  0  0
   -1.6501   -5.5676    3.0580 C   0  0  0  0  0  0  0  0  0  0  0  0
   -1.1542   -6.2913    4.1406 C   0  0  0  0  0  0  0  0  0  0  0  0
   -0.9069   -5.5336    5.2782 C   0  0  0  0  0  0  0  0  0  0  0  0
   -1.1150   -4.1848    5.3791 C   0  0  0  0  0  0  0  0  0  0  0  0
   -3.8713    2.4790    7.0871 C   0  0  0  0  0  0  0  0  0  0  0  0
   -3.5573    3.8578    7.6189 C   0  0  0  0  0  0  0  0  0  0  0  0
   -4.6881    2.6034    5.8068 C   0  0  0  0  0  0  0  0  0  0  0  0
   -3.7499   -4.4949   11.8719 C   0  0  0  0  0  0  0  0  0  0  0  0
   -2.7101   -4.9299   12.7880 C   0  0  0  0  0  0  0  0  0  0  0  0
   -1.3845   -4.4726   12.7960 C   0  0  0  0  0  0  0  0  0  0  0  0
   -0.6777   -5.1211   13.7341 N   0  0  0  0  0  0  0  0  0  0  0  0
   -1.4731   -6.0011   14.3663 C   0  0  0  0  0  0  0  0  0  0  0  0
   -1.2616   -6.8931   15.4007 C   0  0  0  0  0  0  0  0  0  0  0  0
   -2.2490   -7.6867   15.8954 C   0  0  0  0  0  0  0  0  0  0  0  0
   -3.4929   -7.5668   15.3132 C   0  0  0  0  0  0  0  0  0  0  0  0
   -3.7206   -6.6994   14.2968 C   0  0  0  0  0  0  0  0  0  0  0  0
   -2.7336   -5.8799   13.7765 C   0  0  0  0  0  0  0  0  0  0  0  0
    0.3285   -4.9914   13.9556 H   0  0  0  0  0  0  0  0  0  0  0  0
 29 30  1  0  0  0
 30 31  1  0  0  0
 30 28  1  0  0  0
 28  6  1  0  0  0
  6  2  1  0  0  0
  2  3  1  0  0  0
  3  4  2  0  0  0
  3  1  1  0  0  0
  1 60  1  0  0  0
 60 61  1  0  0  0
 61 62  2  0  0  0
 62 63  1  0  0  0
 63 64  1  0  0  0
 64 65  2  0  0  0
 65 66  1  0  0  0
 66 67  2  0  0  0
 67 68  1  0  0  0
 68 69  2  0  0  0
  1 32  1  0  0  0
 32 33  1  0  0  0
 33 34  2  0  0  0
 33 36  1  0  0  0
 36 37  1  0  0  0
 37 38  1  0  0  0
 38 39  2  0  0  0
 38 41  1  0  0  0
 41 42  1  0  0  0
 42 43  1  0  0  0
 43 44  2  0  0  0
 43 46  1  0  0  0
 46 47  1  0  0  0
 46 50  1  0  0  0
 50 51  1  0  0  0
 51 52  2  0  0  0
 52 53  1  0  0  0
 53 54  2  0  0  0
 54 55  1  0  0  0
 55 56  2  0  0  0
 41 57  1  0  0  0
 57 58  1  0  0  0
 57 59  1  0  0  0
  6  7  1  0  0  0
  7  8  2  0  0  0
  7  9  1  0  0  0
  9 11  1  0  0  0
 11 17  1  0  0  0
 17 18  1  0  0  0
 18 19  2  0  0  0
 19 20  1  0  0  0
 20 21  1  0  0  0
 21 22  2  0  0  0
 22 23  1  0  0  0
 23 24  2  0  0  0
 24 25  1  0  0  0
 25 26  2  0  0  0
 11 12  1  0  0  0
 12 13  1  0  0  0
 12 14  2  0  0  0
 69 61  1  0  0  0
 56 51  1  0  0  0
 26 18  1  0  0  0
 69 64  1  0  0  0
 26 21  1  0  0  0
  2  5  1  0  0  0
 63 70  1  0  0  0
 32 35  1  0  0  0
 37 40  1  0  0  0
 42 45  1  0  0  0
 47 48  1  0  0  0
 47 49  1  0  0  0
  9 10  1  0  0  0
 20 27  1  0  0  0
 13 15  1  0  0  0
 13 16  1  0  0  0
M  END
> <minimizedAffinity>
-7.49310

> <CNNscore>
0.1150275394

> <CNNaffinity>
6.9945588112

> <CNN_VS>
0.8045668602

> <CNNaffinity_variance>
0.5443323851

$$$$
[H]c1c([H])c([H])c(C([H])([H])[C@@]([H])(C(=O)N([H])[C@]([H])(C(=O)N([H])C([H])([H])C(=O)N([H])[C@]([H])(C(=O)N([H])[C@]([H])(C(=O)N([H])[C@]([H])(C(=O)N([H])[H])C([H])([H])c2c([H])n([H])c3c([H])c([H])c([H])c([H])c23)C([H])([H])C([H])(C([H])([H])[H])C([H])([H])[H])C([H])([H])c2c([H])n([H])c3c([H])c([H])c([H])c([H])c23)C([H])(C([H])([H])[H])C([H])([H])[H])N([H])[H])c([H])c1[H]


 70 74  0  0  0  0  0  0  0  0999 V2000
   -5.0575   -5.4782    7.8894 C   0  0  0  0  0  0  0  0  0  0  0  0
   -2.6792   -5.6453    6.8830 N   0  0  0  0  0  0  0  0  0  0  0  0
   -4.0847   -5.6101    6.8375 C   0  0  0  0  0  0  0  0  0  0  0  0
   -4.5203   -5.7080    5.5917 O   0  0  0  0  0  0  0  0  0  0  0  0
   -2.1963   -5.5887    7.7892 H   0  0  0  0  0  0  0  0  0  0  0  0
   -1.9109   -5.7413    5.6746 C   0  0  0  0  0  0  0  0  0  0  0  0
   -1.9521   -4.5273    4.8204 C   0  0  0  0  0  0  0  0  0  0  0  0
   -1.3780   -4.4875    3.7030 O   0  0  0  0  0  0  0  0  0  0  0  0
   -2.6504   -3.3822    5.2653 N   0  0  0  0  0  0  0  0  0  0  0  0
   -3.1594   -3.2800    6.1639 H   0  0  0  0  0  0  0  0  0  0  0  0
   -2.6774   -2.1782    4.3946 C   0  0  0  0  0  0  0  0  0  0  0  0
   -1.6093   -1.2491    4.8283 C   0  0  0  0  0  0  0  0  0  0  0  0
   -1.0669   -0.2911    3.9223 N   0  0  0  0  0  0  0  0  0  0  0  0
   -1.1717   -1.3012    5.9869 O   0  0  0  0  0  0  0  0  0  0  0  0
   -0.2455    0.2691    4.2113 H   0  0  0  0  0  0  0  0  0  0  0  0
   -1.5063   -0.1817    3.0073 H   0  0  0  0  0  0  0  0  0  0  0  0
   -4.0580   -1.6458    4.4680 C   0  0  0  0  0  0  0  0  0  0  0  0
   -4.2670   -0.4241    5.2332 C   0  0  0  0  0  0  0  0  0  0  0  0
   -4.4174   -0.4188    6.6414 C   0  0  0  0  0  0  0  0  0  0  0  0
   -4.6399    0.8453    7.0031 N   0  0  0  0  0  0  0  0  0  0  0  0
   -4.6385    1.6469    5.9313 C   0  0  0  0  0  0  0  0  0  0  0  0
   -4.8026    3.0039    5.8241 C   0  0  0  0  0  0  0  0  0  0  0  0
   -4.7416    3.6359    4.5926 C   0  0  0  0  0  0  0  0  0  0  0  0
   -4.5070    2.8559    3.4783 C   0  0  0  0  0  0  0  0  0  0  0  0
   -4.3436    1.5043    3.5964 C   0  0  0  0  0  0  0  0  0  0  0  0
   -4.4021    0.8518    4.8078 C   0  0  0  0  0  0  0  0  0  0  0  0
   -4.7861    1.1743    7.9784 H   0  0  0  0  0  0  0  0  0  0  0  0
   -2.0041   -7.0211    4.9312 C   0  0  0  0  0  0  0  0  0  0  0  0
    0.3787   -7.2705    5.7688 C   0  0  0  0  0  0  0  0  0  0  0  0
   -0.7305   -7.8156    4.8957 C   0  0  0  0  0  0  0  0  0  0  0  0
   -1.0806   -9.1796    5.5027 C   0  0  0  0  0  0  0  0  0  0  0  0
   -6.3272   -6.1369    7.4211 N   0  0  0  0  0  0  0  0  0  0  0  0
   -6.4767   -7.5273    7.4258 C   0  0  0  0  0  0  0  0  0  0  0  0
   -5.4701   -8.1999    7.8504 O   0  0  0  0  0  0  0  0  0  0  0  0
   -7.0542   -5.4873    7.1138 H   0  0  0  0  0  0  0  0  0  0  0  0
   -7.6611   -8.3032    6.9991 C   0  0  0  0  0  0  0  0  0  0  0  0
   -8.8811   -7.5647    7.2938 N   0  0  0  0  0  0  0  0  0  0  0  0
  -10.1341   -8.1199    7.5685 C   0  0  0  0  0  0  0  0  0  0  0  0
  -10.2977   -9.3609    7.5620 O   0  0  0  0  0  0  0  0  0  0  0  0
   -8.7569   -6.5197    7.2670 H   0  0  0  0  0  0  0  0  0  0  0  0
  -11.3318   -7.2282    7.8757 C   0  0  0  0  0  0  0  0  0  0  0  0
  -12.5009   -7.7799    7.3317 N   0  0  0  0  0  0  0  0  0  0  0  0
  -13.5602   -7.4650    6.5049 C   0  0  0  0  0  0  0  0  0  0  0  0
  -13.7281   -6.3389    5.9935 O   0  0  0  0  0  0  0  0  0  0  0  0
  -12.5878   -8.8617    7.6645 H   0  0  0  0  0  0  0  0  0  0  0  0
  -14.5871   -8.4632    6.1502 C   0  0  0  0  0  0  0  0  0  0  0  0
  -14.1899   -9.8337    6.5072 N   0  0  0  0  0  0  0  0  0  0  0  0
  -13.5557  -10.2541    5.7849 H   0  0  0  0  0  0  0  0  0  0  0  0
  -15.0513  -10.4378    6.6106 H   0  0  0  0  0  0  0  0  0  0  0  0
  -15.9708   -8.2376    6.6125 C   0  0  0  0  0  0  0  0  0  0  0  0
  -16.8477   -7.4798    5.6523 C   0  0  0  0  0  0  0  0  0  0  0  0
  -17.0029   -6.1361    5.6861 C   0  0  0  0  0  0  0  0  0  0  0  0
  -17.8020   -5.4904    4.7590 C   0  0  0  0  0  0  0  0  0  0  0  0
  -18.4813   -6.1793    3.7563 C   0  0  0  0  0  0  0  0  0  0  0  0
  -18.2882   -7.5548    3.7668 C   0  0  0  0  0  0  0  0  0  0  0  0
  -17.5048   -8.2270    4.6653 C   0  0  0  0  0  0  0  0  0  0  0  0
  -11.2213   -6.9846    9.3501 C   0  0  0  0  0  0  0  0  0  0  0  0
  -10.8220   -5.5871    9.7623 C   0  0  0  0  0  0  0  0  0  0  0  0
  -12.4796   -7.3956   10.1049 C   0  0  0  0  0  0  0  0  0  0  0  0
   -4.8105   -5.8858    9.2682 C   0  0  0  0  0  0  0  0  0  0  0  0
   -4.2195   -5.0086   10.2636 C   0  0  0  0  0  0  0  0  0  0  0  0
   -3.1808   -4.0950   10.0341 C   0  0  0  0  0  0  0  0  0  0  0  0
   -2.8389   -3.4866   11.1800 N   0  0  0  0  0  0  0  0  0  0  0  0
   -3.6074   -3.9504   12.1805 C   0  0  0  0  0  0  0  0  0  0  0  0
   -3.6812   -3.6581   13.5293 C   0  0  0  0  0  0  0  0  0  0  0  0
   -4.5744   -4.2594   14.3602 C   0  0  0  0  0  0  0  0  0  0  0  0
   -5.4186   -5.1914   13.7952 C   0  0  0  0  0  0  0  0  0  0  0  0
   -5.3612   -5.4936   12.4751 C   0  0  0  0  0  0  0  0  0  0  0  0
   -4.4629   -4.8950   11.6083 C   0  0  0  0  0  0  0  0  0  0  0  0
   -2.0967   -2.7716   11.3075 H   0  0  0  0  0  0  0  0  0  0  0  0
 29 30  1  0  0  0
 30 31  1  0  0  0
 30 28  1  0  0  0
 28  6  1  0  0  0
  6  2  1  0  0  0
  2  3  1  0  0  0
  3  4  2  0  0  0
  3  1  1  0  0  0
  1 60  1  0  0  0
 60 61  1  0  0  0
 61 62  2  0  0  0
 62 63  1  0  0  0
 63 64  1  0  0  0
 64 65  2  0  0  0
 65 66  1  0  0  0
 66 67  2  0  0  0
 67 68  1  0  0  0
 68 69  2  0  0  0
  1 32  1  0  0  0
 32 33  1  0  0  0
 33 34  2  0  0  0
 33 36  1  0  0  0
 36 37  1  0  0  0
 37 38  1  0  0  0
 38 39  2  0  0  0
 38 41  1  0  0  0
 41 42  1  0  0  0
 42 43  1  0  0  0
 43 44  2  0  0  0
 43 46  1  0  0  0
 46 47  1  0  0  0
 46 50  1  0  0  0
 50 51  1  0  0  0
 51 52  2  0  0  0
 52 53  1  0  0  0
 53 54  2  0  0  0
 54 55  1  0  0  0
 55 56  2  0  0  0
 41 57  1  0  0  0
 57 58  1  0  0  0
 57 59  1  0  0  0
  6  7  1  0  0  0
  7  8  2  0  0  0
  7  9  1  0  0  0
  9 11  1  0  0  0
 11 17  1  0  0  0
 17 18  1  0  0  0
 18 19  2  0  0  0
 19 20  1  0  0  0
 20 21  1  0  0  0
 21 22  2  0  0  0
 22 23  1  0  0  0
 23 24  2  0  0  0
 24 25  1  0  0  0
 25 26  2  0  0  0
 11 12  1  0  0  0
 12 13  1  0  0  0
 12 14  2  0  0  0
 69 61  1  0  0  0
 56 51  1  0  0  0
 26 18  1  0  0  0
 69 64  1  0  0  0
 26 21  1  0  0  0
  2  5  1  0  0  0
 63 70  1  0  0  0
 32 35  1  0  0  0
 37 40  1  0  0  0
 42 45  1  0  0  0
 47 48  1  0  0  0
 47 49  1  0  0  0
  9 10  1  0  0  0
 20 27  1  0  0  0
 13 15  1  0  0  0
 13 16  1  0  0  0
M  END
> <minimizedAffinity>
-7.69296

> <CNNscore>
0.1122918651

> <CNNaffinity>
7.3364806175

> <CNN_VS>
0.8238270879

> <CNNaffinity_variance>
0.0957567692

$$$$
[H]c1nc(N2C([H])([H])C([H])([H])OC([H])([H])C2([H])[H])nc([H])c1-c1c([H])nc(N([H])C(=O)N([H])C([H])([H])C([H])([H])[H])c([H])c1-c1nc(C(F)(F)F)c([H])s1


 35 38  0  0  0  0  0  0  0  0999 V2000
   -9.5800  -11.0436    5.2132 C   0  0  0  0  0  0  0  0  0  0  0  0
   -8.6464  -10.2828    5.8536 C   0  0  0  0  0  0  0  0  0  0  0  0
   -8.9932   -9.3800    6.8640 C   0  0  0  0  0  0  0  0  0  0  0  0
  -10.2760   -9.2396    7.2323 C   0  0  0  0  0  0  0  0  0  0  0  0
  -11.2339  -10.0304    6.5670 C   0  0  0  0  0  0  0  0  0  0  0  0
  -10.8654  -10.8737    5.6152 N   0  0  0  0  0  0  0  0  0  0  0  0
   -7.8619  -12.1836    2.0609 N   0  0  0  0  0  0  0  0  0  0  0  0
   -8.3611  -11.4142    3.1555 C   0  0  0  0  0  0  0  0  0  0  0  0
   -7.9619  -10.1939    3.1912 O   0  0  0  0  0  0  0  0  0  0  0  0
   -9.2302  -11.9115    4.1591 N   0  0  0  0  0  0  0  0  0  0  0  0
   -8.1945  -13.1882    2.0144 H   0  0  0  0  0  0  0  0  0  0  0  0
   -9.6010  -12.8666    4.1264 H   0  0  0  0  0  0  0  0  0  0  0  0
   -6.9000  -10.1844    1.0550 C   0  0  0  0  0  0  0  0  0  0  0  0
   -6.9677  -11.7023    1.0585 C   0  0  0  0  0  0  0  0  0  0  0  0
  -10.7700   -8.3215    8.2414 C   0  0  0  0  0  0  0  0  0  0  0  0
  -10.0416   -7.1655    8.4943 C   0  0  0  0  0  0  0  0  0  0  0  0
  -10.3855   -6.2958    9.4653 N   0  0  0  0  0  0  0  0  0  0  0  0
  -11.4816   -6.5424   10.2320 C   0  0  0  0  0  0  0  0  0  0  0  0
  -12.1960   -7.6373   10.0099 N   0  0  0  0  0  0  0  0  0  0  0  0
  -11.8697   -8.5316    9.0352 C   0  0  0  0  0  0  0  0  0  0  0  0
  -11.7536   -5.6310   11.2758 N   0  0  0  0  0  0  0  0  0  0  0  0
  -12.8725   -4.6903   11.0436 C   0  0  0  0  0  0  0  0  0  0  0  0
  -12.2513   -3.3246   11.2519 C   0  0  0  0  0  0  0  0  0  0  0  0
  -11.7536   -3.1692   12.5292 O   0  0  0  0  0  0  0  0  0  0  0  0
  -11.7415   -4.3447   13.2810 C   0  0  0  0  0  0  0  0  0  0  0  0
  -11.0689   -5.5014   12.5281 C   0  0  0  0  0  0  0  0  0  0  0  0
   -7.9029   -8.6085    7.4890 C   0  0  0  0  0  0  0  0  0  0  0  0
   -7.0043   -7.7945    6.9705 N   0  0  0  0  0  0  0  0  0  0  0  0
   -6.1247   -7.2195    7.7187 C   0  0  0  0  0  0  0  0  0  0  0  0
   -6.1713   -7.4954    9.0753 C   0  0  0  0  0  0  0  0  0  0  0  0
   -7.4851   -8.5657    9.1562 S   0  0  0  0  0  0  0  0  0  0  0  0
   -5.0443   -6.2996    7.1586 C   0  0  0  0  0  0  0  0  0  0  0  0
   -5.5254   -5.7660    5.9709 F   0  0  0  0  0  0  0  0  0  0  0  0
   -3.9054   -7.0100    6.9674 F   0  0  0  0  0  0  0  0  0  0  0  0
   -4.8317   -5.2944    8.0669 F   0  0  0  0  0  0  0  0  0  0  0  0
 13 14  1  0  0  0
 14  7  1  0  0  0
  7  8  1  0  0  0
  8  9  2  0  0  0
  8 10  1  0  0  0
 10  1  1  0  0  0
  1  2  2  0  0  0
  2  3  1  0  0  0
  3 27  1  0  0  0
 27 28  2  0  0  0
 28 29  1  0  0  0
 29 30  2  0  0  0
 30 31  1  0  0  0
 29 32  1  0  0  0
 32 33  1  0  0  0
 32 34  1  0  0  0
 32 35  1  0  0  0
  3  4  2  0  0  0
  4  5  1  0  0  0
  5  6  2  0  0  0
  4 15  1  0  0  0
 15 16  2  0  0  0
 16 17  1  0  0  0
 17 18  2  0  0  0
 18 19  1  0  0  0
 19 20  2  0  0  0
 18 21  1  0  0  0
 21 22  1  0  0  0
 22 23  1  0  0  0
 23 24  1  0  0  0
 24 25  1  0  0  0
 25 26  1  0  0  0
  6  1  1  0  0  0
 20 15  1  0  0  0
 26 21  1  0  0  0
 31 27  1  0  0  0
  7 11  1  0  0  0
 10 12  1  0  0  0
M  END
> <minimizedAffinity>
16.53161

> <CNNscore>
0.5115044713

> <CNNaffinity>
7.0336065292

> <CNN_VS>
3.5977210999

> <CNNaffinity_variance>
0.8218146563

$$$$
[H]c1nc(N2C([H])([H])C([H])([H])OC([H])([H])C2([H])[H])nc([H])c1-c1c([H])nc(N([H])C(=O)N([H])C([H])([H])C([H])([H])[H])c([H])c1-c1nc(C(F)(F)F)c([H])s1


 35 38  0  0  0  0  0  0  0  0999 V2000
  -12.3355   -9.2948    7.7450 C   0  0  0  0  0  0  0  0  0  0  0  0
  -11.6505  -10.0999    6.8829 C   0  0  0  0  0  0  0  0  0  0  0  0
  -10.2695   -9.9801    6.6966 C   0  0  0  0  0  0  0  0  0  0  0  0
   -9.5752   -9.0529    7.3743 C   0  0  0  0  0  0  0  0  0  0  0  0
  -10.2900   -8.2266    8.2640 C   0  0  0  0  0  0  0  0  0  0  0  0
  -11.5977   -8.3713    8.4123 N   0  0  0  0  0  0  0  0  0  0  0  0
  -15.9620   -8.4917    7.1191 N   0  0  0  0  0  0  0  0  0  0  0  0
  -14.5342   -8.4867    7.1366 C   0  0  0  0  0  0  0  0  0  0  0  0
  -13.9830   -7.5899    6.4005 O   0  0  0  0  0  0  0  0  0  0  0  0
  -13.7349   -9.3851    7.8876 N   0  0  0  0  0  0  0  0  0  0  0  0
  -16.4276   -9.2192    7.7323 H   0  0  0  0  0  0  0  0  0  0  0  0
  -14.1503  -10.0775    8.5191 H   0  0  0  0  0  0  0  0  0  0  0  0
  -17.5212   -8.3535    5.2526 C   0  0  0  0  0  0  0  0  0  0  0  0
  -16.7775   -7.6095    6.3491 C   0  0  0  0  0  0  0  0  0  0  0  0
   -8.1505   -8.8069    7.2515 C   0  0  0  0  0  0  0  0  0  0  0  0
   -7.4280   -8.5258    8.4046 C   0  0  0  0  0  0  0  0  0  0  0  0
   -6.1176   -8.2111    8.3744 N   0  0  0  0  0  0  0  0  0  0  0  0
   -5.4642   -8.1644    7.1823 C   0  0  0  0  0  0  0  0  0  0  0  0
   -6.1296   -8.4309    6.0667 N   0  0  0  0  0  0  0  0  0  0  0  0
   -7.4538   -8.7515    6.0703 C   0  0  0  0  0  0  0  0  0  0  0  0
   -4.1101   -7.7644    7.2073 N   0  0  0  0  0  0  0  0  0  0  0  0
   -3.1814   -8.5576    6.3712 C   0  0  0  0  0  0  0  0  0  0  0  0
   -2.1106   -9.0101    7.3423 C   0  0  0  0  0  0  0  0  0  0  0  0
   -1.4464   -7.9460    7.9165 O   0  0  0  0  0  0  0  0  0  0  0  0
   -2.0223   -6.7041    7.6461 C   0  0  0  0  0  0  0  0  0  0  0  0
   -3.5265   -6.6891    7.9536 C   0  0  0  0  0  0  0  0  0  0  0  0
   -9.6308  -10.9028    5.7399 C   0  0  0  0  0  0  0  0  0  0  0  0
   -9.5184  -12.2166    5.7403 N   0  0  0  0  0  0  0  0  0  0  0  0
   -8.9025  -12.8268    4.7850 C   0  0  0  0  0  0  0  0  0  0  0  0
   -8.3735  -12.0436    3.7724 C   0  0  0  0  0  0  0  0  0  0  0  0
   -8.8107  -10.4873    4.2871 S   0  0  0  0  0  0  0  0  0  0  0  0
   -8.7163  -14.3407    4.7621 C   0  0  0  0  0  0  0  0  0  0  0  0
   -9.8546  -14.9093    5.3171 F   0  0  0  0  0  0  0  0  0  0  0  0
   -7.5994  -14.6658    5.4586 F   0  0  0  0  0  0  0  0  0  0  0  0
   -8.5923  -14.7322    3.4537 F   0  0  0  0  0  0  0  0  0  0  0  0
 13 14  1  0  0  0
 14  7  1  0  0  0
  7  8  1  0  0  0
  8  9  2  0  0  0
  8 10  1  0  0  0
 10  1  1  0  0  0
  1  2  2  0  0  0
  2  3  1  0  0  0
  3 27  1  0  0  0
 27 28  2  0  0  0
 28 29  1  0  0  0
 29 30  2  0  0  0
 30 31  1  0  0  0
 29 32  1  0  0  0
 32 33  1  0  0  0
 32 34  1  0  0  0
 32 35  1  0  0  0
  3  4  2  0  0  0
  4  5  1  0  0  0
  5  6  2  0  0  0
  4 15  1  0  0  0
 15 16  2  0  0  0
 16 17  1  0  0  0
 17 18  2  0  0  0
 18 19  1  0  0  0
 19 20  2  0  0  0
 18 21  1  0  0  0
 21 22  1  0  0  0
 22 23  1  0  0  0
 23 24  1  0  0  0
 24 25  1  0  0  0
 25 26  1  0  0  0
  6  1  1  0  0  0
 20 15  1  0  0  0
 26 21  1  0  0  0
 31 27  1  0  0  0
  7 11  1  0  0  0
 10 12  1  0  0  0
M  END
> <minimizedAffinity>
6.27930

> <CNNscore>
0.4308939278

> <CNNaffinity>
6.9867606163

> <CNN_VS>
3.0105526447

> <CNNaffinity_variance>
0.5505473018

$$$$
[H]c1nc(N2C([H])([H])C([H])([H])OC([H])([H])C2([H])[H])nc([H])c1-c1c([H])nc(N([H])C(=O)N([H])C([H])([H])C([H])([H])[H])c([H])c1-c1nc(C(F)(F)F)c([H])s1


 35 38  0  0  0  0  0  0  0  0999 V2000
  -12.9062   -8.8312    7.6480 C   0  0  0  0  0  0  0  0  0  0  0  0
  -12.1360   -9.6901    6.9202 C   0  0  0  0  0  0  0  0  0  0  0  0
  -10.7457   -9.5566    6.8460 C   0  0  0  0  0  0  0  0  0  0  0  0
  -10.1275   -8.5618    7.5010 C   0  0  0  0  0  0  0  0  0  0  0  0
  -10.9301   -7.6801    8.2519 C   0  0  0  0  0  0  0  0  0  0  0  0
  -12.2436   -7.8399    8.2969 N   0  0  0  0  0  0  0  0  0  0  0  0
  -16.4597   -8.3799    6.4830 N   0  0  0  0  0  0  0  0  0  0  0  0
  -15.0416   -8.3097    6.6354 C   0  0  0  0  0  0  0  0  0  0  0  0
  -14.4304   -7.6204    5.7403 O   0  0  0  0  0  0  0  0  0  0  0  0
  -14.3113   -8.9393    7.6747 N   0  0  0  0  0  0  0  0  0  0  0  0
  -16.9755   -8.9356    7.2227 H   0  0  0  0  0  0  0  0  0  0  0  0
  -14.7796   -9.4542    8.4273 H   0  0  0  0  0  0  0  0  0  0  0  0
  -18.3090   -8.6864    4.9273 C   0  0  0  0  0  0  0  0  0  0  0  0
  -17.2039   -7.7718    5.4282 C   0  0  0  0  0  0  0  0  0  0  0  0
   -8.7012   -8.2963    7.4830 C   0  0  0  0  0  0  0  0  0  0  0  0
   -8.2676   -7.0517    7.0427 C   0  0  0  0  0  0  0  0  0  0  0  0
   -6.9602   -6.7461    6.9218 N   0  0  0  0  0  0  0  0  0  0  0  0
   -6.0198   -7.6761    7.2394 C   0  0  0  0  0  0  0  0  0  0  0  0
   -6.4064   -8.8711    7.6646 N   0  0  0  0  0  0  0  0  0  0  0  0
   -7.7209   -9.2047    7.7954 C   0  0  0  0  0  0  0  0  0  0  0  0
   -4.6691   -7.3214    7.0295 N   0  0  0  0  0  0  0  0  0  0  0  0
   -4.3636   -5.8736    7.0613 C   0  0  0  0  0  0  0  0  0  0  0  0
   -3.6804   -5.6146    5.7345 C   0  0  0  0  0  0  0  0  0  0  0  0
   -2.5183   -6.3452    5.5969 O   0  0  0  0  0  0  0  0  0  0  0  0
   -2.3267   -7.3011    6.5952 C   0  0  0  0  0  0  0  0  0  0  0  0
   -3.5612   -8.1954    6.7789 C   0  0  0  0  0  0  0  0  0  0  0  0
  -10.0116  -10.5415    6.0301 C   0  0  0  0  0  0  0  0  0  0  0  0
   -9.5190  -10.4664    4.8092 N   0  0  0  0  0  0  0  0  0  0  0  0
   -8.9052  -11.4711    4.2820 C   0  0  0  0  0  0  0  0  0  0  0  0
   -8.7902  -12.6165    5.0523 C   0  0  0  0  0  0  0  0  0  0  0  0
   -9.5812  -12.1449    6.4771 S   0  0  0  0  0  0  0  0  0  0  0  0
   -8.3516  -11.4424    2.8608 C   0  0  0  0  0  0  0  0  0  0  0  0
   -7.2668  -10.5763    2.8531 F   0  0  0  0  0  0  0  0  0  0  0  0
   -9.3254  -11.0385    2.0082 F   0  0  0  0  0  0  0  0  0  0  0  0
   -7.9360  -12.7100    2.5428 F   0  0  0  0  0  0  0  0  0  0  0  0
 13 14  1  0  0  0
 14  7  1  0  0  0
  7  8  1  0  0  0
  8  9  2  0  0  0
  8 10  1  0  0  0
 10  1  1  0  0  0
  1  2  2  0  0  0
  2  3  1  0  0  0
  3 27  1  0  0  0
 27 28  2  0  0  0
 28 29  1  0  0  0
 29 30  2  0  0  0
 30 31  1  0  0  0
 29 32  1  0  0  0
 32 33  1  0  0  0
 32 34  1  0  0  0
 32 35  1  0  0  0
  3  4  2  0  0  0
  4  5  1  0  0  0
  5  6  2  0  0  0
  4 15  1  0  0  0
 15 16  2  0  0  0
 16 17  1  0  0  0
 17 18  2  0  0  0
 18 19  1  0  0  0
 19 20  2  0  0  0
 18 21  1  0  0  0
 21 22  1  0  0  0
 22 23  1  0  0  0
 23 24  1  0  0  0
 24 25  1  0  0  0
 25 26  1  0  0  0
  6  1  1  0  0  0
 20 15  1  0  0  0
 26 21  1  0  0  0
 31 27  1  0  0  0
  7 11  1  0  0  0
 10 12  1  0  0  0
M  END
> <minimizedAffinity>
4.97835

> <CNNscore>
0.4173302054

> <CNNaffinity>
7.2338895798

> <CNN_VS>
3.0189206600

> <CNNaffinity_variance>
0.5532499552

$$$$
[H]c1nc(N2C([H])([H])C([H])([H])OC([H])([H])C2([H])[H])nc([H])c1-c1c([H])nc(N([H])C(=O)N([H])C([H])([H])C([H])([H])[H])c([H])c1-c1nc(C(F)(F)F)c([H])s1


 35 38  0  0  0  0  0  0  0  0999 V2000
  -10.7924   -7.8330    6.0666 C   0  0  0  0  0  0  0  0  0  0  0  0
  -11.6637   -6.8041    5.8595 C   0  0  0  0  0  0  0  0  0  0  0  0
  -13.0487   -6.9773    5.9486 C   0  0  0  0  0  0  0  0  0  0  0  0
  -13.5605   -8.1819    6.2449 C   0  0  0  0  0  0  0  0  0  0  0  0
  -12.6537   -9.2389    6.4592 C   0  0  0  0  0  0  0  0  0  0  0  0
  -11.3489   -9.0346    6.3655 N   0  0  0  0  0  0  0  0  0  0  0  0
   -7.1387   -8.1058    6.9406 N   0  0  0  0  0  0  0  0  0  0  0  0
   -8.5660   -8.1418    6.9639 C   0  0  0  0  0  0  0  0  0  0  0  0
   -9.0814   -8.6567    8.0217 O   0  0  0  0  0  0  0  0  0  0  0  0
   -9.4006   -7.6640    5.9222 N   0  0  0  0  0  0  0  0  0  0  0  0
   -6.7028   -7.6719    6.0783 H   0  0  0  0  0  0  0  0  0  0  0  0
   -9.0154   -7.2055    5.0901 H   0  0  0  0  0  0  0  0  0  0  0  0
   -4.9333   -7.9160    7.9577 C   0  0  0  0  0  0  0  0  0  0  0  0
   -6.2873   -8.6055    7.9710 C   0  0  0  0  0  0  0  0  0  0  0  0
  -14.9729   -8.5003    6.3385 C   0  0  0  0  0  0  0  0  0  0  0  0
  -15.6495   -8.8463    5.1752 C   0  0  0  0  0  0  0  0  0  0  0  0
  -16.9764   -9.0834    5.1574 N   0  0  0  0  0  0  0  0  0  0  0  0
  -17.6925   -8.9869    6.3097 C   0  0  0  0  0  0  0  0  0  0  0  0
  -17.0710   -8.6609    7.4348 N   0  0  0  0  0  0  0  0  0  0  0  0
  -15.7314   -8.4164    7.4793 C   0  0  0  0  0  0  0  0  0  0  0  0
  -19.0882   -9.1812    6.2168 N   0  0  0  0  0  0  0  0  0  0  0  0
  -19.7807   -9.5409    7.4744 C   0  0  0  0  0  0  0  0  0  0  0  0
  -20.5058  -10.8275    7.1376 C   0  0  0  0  0  0  0  0  0  0  0  0
  -21.4214  -10.6570    6.1199 O   0  0  0  0  0  0  0  0  0  0  0  0
  -21.3445   -9.4149    5.4888 C   0  0  0  0  0  0  0  0  0  0  0  0
  -19.9119   -9.0819    5.0482 C   0  0  0  0  0  0  0  0  0  0  0  0
  -13.8977   -5.7962    5.7056 C   0  0  0  0  0  0  0  0  0  0  0  0
  -13.7022   -4.7204    4.9686 N   0  0  0  0  0  0  0  0  0  0  0  0
  -14.5966   -3.7929    4.9041 C   0  0  0  0  0  0  0  0  0  0  0  0
  -15.7567   -3.9816    5.6369 C   0  0  0  0  0  0  0  0  0  0  0  0
  -15.4571   -5.4867    6.3601 S   0  0  0  0  0  0  0  0  0  0  0  0
  -14.3987   -2.5152    4.0944 C   0  0  0  0  0  0  0  0  0  0  0  0
  -15.2657   -2.5692    3.0117 F   0  0  0  0  0  0  0  0  0  0  0  0
  -13.1043   -2.4301    3.7002 F   0  0  0  0  0  0  0  0  0  0  0  0
  -14.7231   -1.4513    4.8966 F   0  0  0  0  0  0  0  0  0  0  0  0
 13 14  1  0  0  0
 14  7  1  0  0  0
  7  8  1  0  0  0
  8  9  2  0  0  0
  8 10  1  0  0  0
 10  1  1  0  0  0
  1  2  2  0  0  0
  2  3  1  0  0  0
  3 27  1  0  0  0
 27 28  2  0  0  0
 28 29  1  0  0  0
 29 30  2  0  0  0
 30 31  1  0  0  0
 29 32  1  0  0  0
 32 33  1  0  0  0
 32 34  1  0  0  0
 32 35  1  0  0  0
  3  4  2  0  0  0
  4  5  1  0  0  0
  5  6  2  0  0  0
  4 15  1  0  0  0
 15 16  2  0  0  0
 16 17  1  0  0  0
 17 18  2  0  0  0
 18 19  1  0  0  0
 19 20  2  0  0  0
 18 21  1  0  0  0
 21 22  1  0  0  0
 22 23  1  0  0  0
 23 24  1  0  0  0
 24 25  1  0  0  0
 25 26  1  0  0  0
  6  1  1  0  0  0
 20 15  1  0  0  0
 26 21  1  0  0  0
 31 27  1  0  0  0
  7 11  1  0  0  0
 10 12  1  0  0  0
M  END
> <minimizedAffinity>
24.39395

> <CNNscore>
0.4024298787

> <CNNaffinity>
7.0267715454

> <CNN_VS>
2.8277828693

> <CNNaffinity_variance>
2.6532356739

$$$$
[H]c1nc(N2C([H])([H])C([H])([H])OC([H])([H])C2([H])[H])nc([H])c1-c1c([H])nc(N([H])C(=O)N([H])C([H])([H])C([H])([H])[H])c([H])c1-c1nc(C(F)(F)F)c([H])s1


 35 38  0  0  0  0  0  0  0  0999 V2000
   -8.3929   -8.5133    8.1984 C   0  0  0  0  0  0  0  0  0  0  0  0
   -7.2849   -8.0871    7.5266 C   0  0  0  0  0  0  0  0  0  0  0  0
   -6.3205   -7.2733    8.1297 C   0  0  0  0  0  0  0  0  0  0  0  0
   -6.4669   -6.8863    9.4064 C   0  0  0  0  0  0  0  0  0  0  0  0
   -7.6132   -7.3324   10.0937 C   0  0  0  0  0  0  0  0  0  0  0  0
   -8.5037   -8.1019    9.4873 N   0  0  0  0  0  0  0  0  0  0  0  0
  -10.0367  -10.5271    5.4725 N   0  0  0  0  0  0  0  0  0  0  0  0
   -9.1611   -9.6889    6.2273 C   0  0  0  0  0  0  0  0  0  0  0  0
   -8.1065   -9.3012    5.6050 O   0  0  0  0  0  0  0  0  0  0  0  0
   -9.3873   -9.2884    7.5683 N   0  0  0  0  0  0  0  0  0  0  0  0
  -10.9159  -10.8428    5.9717 H   0  0  0  0  0  0  0  0  0  0  0  0
  -10.2436   -9.5445    8.0703 H   0  0  0  0  0  0  0  0  0  0  0  0
   -8.4600  -11.6427    3.9880 C   0  0  0  0  0  0  0  0  0  0  0  0
   -9.8086  -10.9574    4.1312 C   0  0  0  0  0  0  0  0  0  0  0  0
   -5.5582   -6.0230   10.1372 C   0  0  0  0  0  0  0  0  0  0  0  0
   -5.8455   -5.7376   11.4664 C   0  0  0  0  0  0  0  0  0  0  0  0
   -5.0987   -4.8863   12.1977 N   0  0  0  0  0  0  0  0  0  0  0  0
   -4.0219   -4.2786   11.6307 C   0  0  0  0  0  0  0  0  0  0  0  0
   -3.7239   -4.5354   10.3644 N   0  0  0  0  0  0  0  0  0  0  0  0
   -4.4624   -5.3915    9.6041 C   0  0  0  0  0  0  0  0  0  0  0  0
   -3.3177   -3.3473   12.4252 N   0  0  0  0  0  0  0  0  0  0  0  0
   -2.6253   -2.2614   11.6959 C   0  0  0  0  0  0  0  0  0  0  0  0
   -1.1895   -2.3613   12.1682 C   0  0  0  0  0  0  0  0  0  0  0  0
   -1.0758   -2.1707   13.5298 O   0  0  0  0  0  0  0  0  0  0  0  0
   -2.2979   -2.1313   14.2019 C   0  0  0  0  0  0  0  0  0  0  0  0
   -3.1851   -3.3346   13.8521 C   0  0  0  0  0  0  0  0  0  0  0  0
   -5.1621   -6.8716    7.3102 C   0  0  0  0  0  0  0  0  0  0  0  0
   -4.1126   -7.5525    6.8936 N   0  0  0  0  0  0  0  0  0  0  0  0
   -3.2014   -6.9875    6.1761 C   0  0  0  0  0  0  0  0  0  0  0  0
   -3.3788   -5.6486    5.8689 C   0  0  0  0  0  0  0  0  0  0  0  0
   -4.8506   -5.3172    6.6449 S   0  0  0  0  0  0  0  0  0  0  0  0
   -1.9530   -7.7254    5.7027 C   0  0  0  0  0  0  0  0  0  0  0  0
   -1.3939   -6.9810    4.6730 F   0  0  0  0  0  0  0  0  0  0  0  0
   -2.2964   -8.9720    5.2949 F   0  0  0  0  0  0  0  0  0  0  0  0
   -1.0768   -7.7933    6.7555 F   0  0  0  0  0  0  0  0  0  0  0  0
 13 14  1  0  0  0
 14  7  1  0  0  0
  7  8  1  0  0  0
  8  9  2  0  0  0
  8 10  1  0  0  0
 10  1  1  0  0  0
  1  2  2  0  0  0
  2  3  1  0  0  0
  3 27  1  0  0  0
 27 28  2  0  0  0
 28 29  1  0  0  0
 29 30  2  0  0  0
 30 31  1  0  0  0
 29 32  1  0  0  0
 32 33  1  0  0  0
 32 34  1  0  0  0
 32 35  1  0  0  0
  3  4  2  0  0  0
  4  5  1  0  0  0
  5  6  2  0  0  0
  4 15  1  0  0  0
 15 16  2  0  0  0
 16 17  1  0  0  0
 17 18  2  0  0  0
 18 19  1  0  0  0
 19 20  2  0  0  0
 18 21  1  0  0  0
 21 22  1  0  0  0
 22 23  1  0  0  0
 23 24  1  0  0  0
 24 25  1  0  0  0
 25 26  1  0  0  0
  6  1  1  0  0  0
 20 15  1  0  0  0
 26 21  1  0  0  0
 31 27  1  0  0  0
  7 11  1  0  0  0
 10 12  1  0  0  0
M  END
> <minimizedAffinity>
8.53865

> <CNNscore>
0.3898156285

> <CNNaffinity>
6.3295950890

> <CNN_VS>
2.4673750401

> <CNNaffinity_variance>
1.3792717457

$$$$
[H]c1nc(N2C([H])([H])C([H])([H])OC([H])([H])C2([H])[H])nc([H])c1-c1c([H])nc(N([H])C(=O)N([H])C([H])([H])C([H])([H])[H])c([H])c1-c1nc(C(F)(F)F)c([H])s1


 35 38  0  0  0  0  0  0  0  0999 V2000
  -13.8299   -7.3446    8.2283 C   0  0  0  0  0  0  0  0  0  0  0  0
  -12.9580   -8.3268    7.8602 C   0  0  0  0  0  0  0  0  0  0  0  0
  -11.5725   -8.1379    7.8938 C   0  0  0  0  0  0  0  0  0  0  0  0
  -11.0611   -6.9642    8.2960 C   0  0  0  0  0  0  0  0  0  0  0  0
  -11.9685   -5.9555    8.6761 C   0  0  0  0  0  0  0  0  0  0  0  0
  -13.2737   -6.1733    8.6302 N   0  0  0  0  0  0  0  0  0  0  0  0
  -17.1843   -7.8411    6.5883 N   0  0  0  0  0  0  0  0  0  0  0  0
  -15.8012   -7.5980    6.8474 C   0  0  0  0  0  0  0  0  0  0  0  0
  -15.0689   -7.4483    5.8029 O   0  0  0  0  0  0  0  0  0  0  0  0
  -15.2253   -7.5234    8.1407 N   0  0  0  0  0  0  0  0  0  0  0  0
  -17.8001   -7.9538    7.4427 H   0  0  0  0  0  0  0  0  0  0  0  0
  -15.7957   -7.5913    8.9897 H   0  0  0  0  0  0  0  0  0  0  0  0
  -18.8763   -8.9862    5.2617 C   0  0  0  0  0  0  0  0  0  0  0  0
  -17.7719   -7.9430    5.2920 C   0  0  0  0  0  0  0  0  0  0  0  0
   -9.6499   -6.6310    8.3488 C   0  0  0  0  0  0  0  0  0  0  0  0
   -9.0305   -6.1976    7.1829 C   0  0  0  0  0  0  0  0  0  0  0  0
   -7.7088   -5.9393    7.1230 N   0  0  0  0  0  0  0  0  0  0  0  0
   -6.9406   -6.1015    8.2338 C   0  0  0  0  0  0  0  0  0  0  0  0
   -7.5071   -6.5116    9.3605 N   0  0  0  0  0  0  0  0  0  0  0  0
   -8.8402   -6.7793    9.4470 C   0  0  0  0  0  0  0  0  0  0  0  0
   -5.5531   -5.8799    8.0931 N   0  0  0  0  0  0  0  0  0  0  0  0
   -5.0083   -6.0113    6.7233 C   0  0  0  0  0  0  0  0  0  0  0  0
   -3.8987   -7.0322    6.8672 C   0  0  0  0  0  0  0  0  0  0  0  0
   -2.9129   -6.6096    7.7350 O   0  0  0  0  0  0  0  0  0  0  0  0
   -3.2357   -5.4494    8.4397 C   0  0  0  0  0  0  0  0  0  0  0  0
   -4.6082   -5.5535    9.1201 C   0  0  0  0  0  0  0  0  0  0  0  0
  -10.7228   -9.2678    7.4743 C   0  0  0  0  0  0  0  0  0  0  0  0
   -9.4749   -9.5750    7.7695 N   0  0  0  0  0  0  0  0  0  0  0  0
   -8.9204  -10.6303    7.2763 C   0  0  0  0  0  0  0  0  0  0  0  0
   -9.6912  -11.4141    6.4336 C   0  0  0  0  0  0  0  0  0  0  0  0
  -11.1560  -10.5582    6.4239 S   0  0  0  0  0  0  0  0  0  0  0  0
   -7.4693  -11.0054    7.5604 C   0  0  0  0  0  0  0  0  0  0  0  0
   -6.6653  -10.1661    6.8015 F   0  0  0  0  0  0  0  0  0  0  0  0
   -7.2737  -12.3100    7.2471 F   0  0  0  0  0  0  0  0  0  0  0  0
   -7.2313  -10.7952    8.8945 F   0  0  0  0  0  0  0  0  0  0  0  0
 13 14  1  0  0  0
 14  7  1  0  0  0
  7  8  1  0  0  0
  8  9  2  0  0  0
  8 10  1  0  0  0
 10  1  1  0  0  0
  1  2  2  0  0  0
  2  3  1  0  0  0
  3 27  1  0  0  0
 27 28  2  0  0  0
 28 29  1  0  0  0
 29 30  2  0  0  0
 30 31  1  0  0  0
 29 32  1  0  0  0
 32 33  1  0  0  0
 32 34  1  0  0  0
 32 35  1  0  0  0
  3  4  2  0  0  0
  4  5  1  0  0  0
  5  6  2  0  0  0
  4 15  1  0  0  0
 15 16  2  0  0  0
 16 17  1  0  0  0
 17 18  2  0  0  0
 18 19  1  0  0  0
 19 20  2  0  0  0
 18 21  1  0  0  0
 21 22  1  0  0  0
 22 23  1  0  0  0
 23 24  1  0  0  0
 24 25  1  0  0  0
 25 26  1  0  0  0
  6  1  1  0  0  0
 20 15  1  0  0  0
 26 21  1  0  0  0
 31 27  1  0  0  0
  7 11  1  0  0  0
 10 12  1  0  0  0
M  END
> <minimizedAffinity>
3.88722

> <CNNscore>
0.3887538612

> <CNNaffinity>
7.2452821732

> <CNN_VS>
2.8166313171

> <CNNaffinity_variance>
0.8143717647

$$$$
[H]c1nc(N2C([H])([H])C([H])([H])OC([H])([H])C2([H])[H])nc([H])c1-c1c([H])nc(N([H])C(=O)N([H])C([H])([H])C([H])([H])[H])c([H])c1-c1nc(C(F)(F)F)c([H])s1


 35 38  0  0  0  0  0  0  0  0999 V2000
  -15.4672   -5.4089    4.2440 C   0  0  0  0  0  0  0  0  0  0  0  0
  -15.0321   -6.0964    5.3388 C   0  0  0  0  0  0  0  0  0  0  0  0
  -15.7586   -7.1614    5.8814 C   0  0  0  0  0  0  0  0  0  0  0  0
  -16.9214   -7.5370    5.3268 C   0  0  0  0  0  0  0  0  0  0  0  0
  -17.3629   -6.8227    4.1952 C   0  0  0  0  0  0  0  0  0  0  0  0
  -16.6463   -5.8200    3.7115 N   0  0  0  0  0  0  0  0  0  0  0  0
  -13.8724   -1.9965    4.2325 N   0  0  0  0  0  0  0  0  0  0  0  0
  -14.6150   -3.1677    4.5729 C   0  0  0  0  0  0  0  0  0  0  0  0
  -15.1697   -3.1443    5.7312 O   0  0  0  0  0  0  0  0  0  0  0  0
  -14.7574   -4.3026    3.7352 N   0  0  0  0  0  0  0  0  0  0  0  0
  -13.4209   -1.9996    3.2744 H   0  0  0  0  0  0  0  0  0  0  0  0
  -14.3653   -4.3264    2.7884 H   0  0  0  0  0  0  0  0  0  0  0  0
  -14.2603   -1.1065    6.4667 C   0  0  0  0  0  0  0  0  0  0  0  0
  -13.7009   -0.8583    5.0759 C   0  0  0  0  0  0  0  0  0  0  0  0
  -17.7822   -8.6015    5.8075 C   0  0  0  0  0  0  0  0  0  0  0  0
  -18.0441   -9.6712    4.9602 C   0  0  0  0  0  0  0  0  0  0  0  0
  -18.8912  -10.6647    5.2957 N   0  0  0  0  0  0  0  0  0  0  0  0
  -19.5181  -10.6355    6.5024 C   0  0  0  0  0  0  0  0  0  0  0  0
  -19.2839   -9.6273    7.3313 N   0  0  0  0  0  0  0  0  0  0  0  0
  -18.4326   -8.6113    7.0161 C   0  0  0  0  0  0  0  0  0  0  0  0
  -20.4438  -11.6678    6.7705 N   0  0  0  0  0  0  0  0  0  0  0  0
  -21.4545  -11.3814    7.8130 C   0  0  0  0  0  0  0  0  0  0  0  0
  -21.2959  -12.5204    8.7989 C   0  0  0  0  0  0  0  0  0  0  0  0
  -21.5420  -13.7478    8.2191 O   0  0  0  0  0  0  0  0  0  0  0  0
  -21.6807  -13.7030    6.8314 C   0  0  0  0  0  0  0  0  0  0  0  0
  -20.5144  -12.9630    6.1610 C   0  0  0  0  0  0  0  0  0  0  0  0
  -15.1946   -7.8342    7.0663 C   0  0  0  0  0  0  0  0  0  0  0  0
  -14.8288   -7.3640    8.2426 N   0  0  0  0  0  0  0  0  0  0  0  0
  -14.3478   -8.1485    9.1467 C   0  0  0  0  0  0  0  0  0  0  0  0
  -14.2373   -9.4911    8.8247 C   0  0  0  0  0  0  0  0  0  0  0  0
  -14.8385   -9.5074    7.2383 S   0  0  0  0  0  0  0  0  0  0  0  0
  -13.8778   -7.6438   10.5075 C   0  0  0  0  0  0  0  0  0  0  0  0
  -14.8478   -6.7746   10.9876 F   0  0  0  0  0  0  0  0  0  0  0  0
  -12.6763   -7.0313   10.3681 F   0  0  0  0  0  0  0  0  0  0  0  0
  -13.7672   -8.7244   11.3445 F   0  0  0  0  0  0  0  0  0  0  0  0
 13 14  1  0  0  0
 14  7  1  0  0  0
  7  8  1  0  0  0
  8  9  2  0  0  0
  8 10  1  0  0  0
 10  1  1  0  0  0
  1  2  2  0  0  0
  2  3  1  0  0  0
  3 27  1  0  0  0
 27 28  2  0  0  0
 28 29  1  0  0  0
 29 30  2  0  0  0
 30 31  1  0  0  0
 29 32  1  0  0  0
 32 33  1  0  0  0
 32 34  1  0  0  0
 32 35  1  0  0  0
  3  4  2  0  0  0
  4  5  1  0  0  0
  5  6  2  0  0  0
  4 15  1  0  0  0
 15 16  2  0  0  0
 16 17  1  0  0  0
 17 18  2  0  0  0
 18 19  1  0  0  0
 19 20  2  0  0  0
 18 21  1  0  0  0
 21 22  1  0  0  0
 22 23  1  0  0  0
 23 24  1  0  0  0
 24 25  1  0  0  0
 25 26  1  0  0  0
  6  1  1  0  0  0
 20 15  1  0  0  0
 26 21  1  0  0  0
 31 27  1  0  0  0
  7 11  1  0  0  0
 10 12  1  0  0  0
M  END
> <minimizedAffinity>
17.62803

> <CNNscore>
0.3698391914

> <CNNaffinity>
6.8087797165

> <CNN_VS>
2.5181536674

> <CNNaffinity_variance>
0.4549570978

$$$$
[H]c1nc(N2C([H])([H])C([H])([H])OC([H])([H])C2([H])[H])nc([H])c1-c1c([H])nc(N([H])C(=O)N([H])C([H])([H])C([H])([H])[H])c([H])c1-c1nc(C(F)(F)F)c([H])s1


 35 38  0  0  0  0  0  0  0  0999 V2000
  -11.5145   -5.1114    4.3165 C   0  0  0  0  0  0  0  0  0  0  0  0
  -11.4011   -5.6072    5.5821 C   0  0  0  0  0  0  0  0  0  0  0  0
  -10.1609   -5.9292    6.1430 C   0  0  0  0  0  0  0  0  0  0  0  0
   -9.0344   -5.7545    5.4350 C   0  0  0  0  0  0  0  0  0  0  0  0
   -9.1602   -5.2403    4.1291 C   0  0  0  0  0  0  0  0  0  0  0  0
  -10.3527   -4.9478    3.6338 N   0  0  0  0  0  0  0  0  0  0  0  0
  -15.2320   -5.3796    3.7717 N   0  0  0  0  0  0  0  0  0  0  0  0
  -13.8865   -5.5793    4.2063 C   0  0  0  0  0  0  0  0  0  0  0  0
  -13.7290   -6.5012    5.0868 O   0  0  0  0  0  0  0  0  0  0  0  0
  -12.7710   -4.8399    3.7383 N   0  0  0  0  0  0  0  0  0  0  0  0
  -15.3721   -4.6302    3.0364 H   0  0  0  0  0  0  0  0  0  0  0  0
  -12.8634   -4.1330    3.0018 H   0  0  0  0  0  0  0  0  0  0  0  0
  -16.4929   -5.9950    5.7631 C   0  0  0  0  0  0  0  0  0  0  0  0
  -16.3662   -6.0997    4.2525 C   0  0  0  0  0  0  0  0  0  0  0  0
   -7.6936   -6.0750    5.8874 C   0  0  0  0  0  0  0  0  0  0  0  0
   -7.0061   -7.0956    5.2420 C   0  0  0  0  0  0  0  0  0  0  0  0
   -5.7880   -7.5098    5.6444 N   0  0  0  0  0  0  0  0  0  0  0  0
   -5.1962   -6.9175    6.7164 C   0  0  0  0  0  0  0  0  0  0  0  0
   -5.8295   -5.9390    7.3489 N   0  0  0  0  0  0  0  0  0  0  0  0
   -7.0607   -5.5023    6.9622 C   0  0  0  0  0  0  0  0  0  0  0  0
   -3.9508   -7.4379    7.1314 N   0  0  0  0  0  0  0  0  0  0  0  0
   -2.9494   -7.6591    6.0643 C   0  0  0  0  0  0  0  0  0  0  0  0
   -2.5708   -9.1180    6.2146 C   0  0  0  0  0  0  0  0  0  0  0  0
   -2.0197   -9.3874    7.4504 O   0  0  0  0  0  0  0  0  0  0  0  0
   -2.1126   -8.3302    8.3564 C   0  0  0  0  0  0  0  0  0  0  0  0
   -3.5449   -7.7872    8.4608 C   0  0  0  0  0  0  0  0  0  0  0  0
  -10.1550   -6.4582    7.5195 C   0  0  0  0  0  0  0  0  0  0  0  0
  -10.9511   -6.2260    8.5447 N   0  0  0  0  0  0  0  0  0  0  0  0
  -10.7532   -6.8075    9.6792 C   0  0  0  0  0  0  0  0  0  0  0  0
   -9.6781   -7.6766    9.7649 C   0  0  0  0  0  0  0  0  0  0  0  0
   -9.0411   -7.5800    8.1954 S   0  0  0  0  0  0  0  0  0  0  0  0
  -11.6256   -6.5419   10.9021 C   0  0  0  0  0  0  0  0  0  0  0  0
  -12.2758   -7.7275   11.2161 F   0  0  0  0  0  0  0  0  0  0  0  0
  -12.5013   -5.5458   10.6206 F   0  0  0  0  0  0  0  0  0  0  0  0
  -10.8036   -6.1749   11.9367 F   0  0  0  0  0  0  0  0  0  0  0  0
 13 14  1  0  0  0
 14  7  1  0  0  0
  7  8  1  0  0  0
  8  9  2  0  0  0
  8 10  1  0  0  0
 10  1  1  0  0  0
  1  2  2  0  0  0
  2  3  1  0  0  0
  3 27  1  0  0  0
 27 28  2  0  0  0
 28 29  1  0  0  0
 29 30  2  0  0  0
 30 31  1  0  0  0
 29 32  1  0  0  0
 32 33  1  0  0  0
 32 34  1  0  0  0
 32 35  1  0  0  0
  3  4  2  0  0  0
  4  5  1  0  0  0
  5  6  2  0  0  0
  4 15  1  0  0  0
 15 16  2  0  0  0
 16 17  1  0  0  0
 17 18  2  0  0  0
 18 19  1  0  0  0
 19 20  2  0  0  0
 18 21  1  0  0  0
 21 22  1  0  0  0
 22 23  1  0  0  0
 23 24  1  0  0  0
 24 25  1  0  0  0
 25 26  1  0  0  0
  6  1  1  0  0  0
 20 15  1  0  0  0
 26 21  1  0  0  0
 31 27  1  0  0  0
  7 11  1  0  0  0
 10 12  1  0  0  0
M  END
> <minimizedAffinity>
26.35559

> <CNNscore>
0.3357144296

> <CNNaffinity>
6.3924627304

> <CNN_VS>
2.1460418701

> <CNNaffinity_variance>
0.6513727903

$$$$
[H]c1nc(N2C([H])([H])C([H])([H])OC([H])([H])C2([H])[H])nc([H])c1-c1c([H])nc(N([H])C(=O)N([H])C([H])([H])C([H])([H])[H])c([H])c1-c1nc(C(F)(F)F)c([H])s1


 35 38  0  0  0  0  0  0  0  0999 V2000
  -12.2273   -6.9473    8.9555 C   0  0  0  0  0  0  0  0  0  0  0  0
  -11.5460   -7.9861    8.3921 C   0  0  0  0  0  0  0  0  0  0  0  0
  -10.1622   -7.9432    8.1933 C   0  0  0  0  0  0  0  0  0  0  0  0
   -9.4613   -6.8587    8.5588 C   0  0  0  0  0  0  0  0  0  0  0  0
  -10.1723   -5.7909    9.1415 C   0  0  0  0  0  0  0  0  0  0  0  0
  -11.4828   -5.8698    9.3128 N   0  0  0  0  0  0  0  0  0  0  0  0
  -15.8263   -7.4673    7.9732 N   0  0  0  0  0  0  0  0  0  0  0  0
  -14.4049   -7.3297    7.9712 C   0  0  0  0  0  0  0  0  0  0  0  0
  -13.8365   -7.5582    6.8422 O   0  0  0  0  0  0  0  0  0  0  0  0
  -13.6287   -6.9755    9.1034 N   0  0  0  0  0  0  0  0  0  0  0  0
  -16.3069   -7.2691    8.8960 H   0  0  0  0  0  0  0  0  0  0  0  0
  -14.0621   -6.7414   10.0024 H   0  0  0  0  0  0  0  0  0  0  0  0
  -16.9347   -6.6537    5.9624 C   0  0  0  0  0  0  0  0  0  0  0  0
  -16.6166   -7.8471    6.8474 C   0  0  0  0  0  0  0  0  0  0  0  0
   -8.0328   -6.6765    8.3817 C   0  0  0  0  0  0  0  0  0  0  0  0
   -7.2007   -6.8874    9.4744 C   0  0  0  0  0  0  0  0  0  0  0  0
   -5.8716   -6.6683    9.4201 N   0  0  0  0  0  0  0  0  0  0  0  0
   -5.3092   -6.2274    8.2628 C   0  0  0  0  0  0  0  0  0  0  0  0
   -6.0803   -6.0206    7.2040 N   0  0  0  0  0  0  0  0  0  0  0  0
   -7.4256   -6.2344    7.2330 C   0  0  0  0  0  0  0  0  0  0  0  0
   -3.9242   -5.9525    8.2857 N   0  0  0  0  0  0  0  0  0  0  0  0
   -3.4509   -5.0842    9.3869 C   0  0  0  0  0  0  0  0  0  0  0  0
   -2.7294   -3.9561    8.6789 C   0  0  0  0  0  0  0  0  0  0  0  0
   -1.6600   -4.4094    7.9344 O   0  0  0  0  0  0  0  0  0  0  0  0
   -1.5917   -5.7989    7.8258 C   0  0  0  0  0  0  0  0  0  0  0  0
   -2.9245   -6.4053    7.3640 C   0  0  0  0  0  0  0  0  0  0  0  0
   -9.5280   -9.1227    7.5758 C   0  0  0  0  0  0  0  0  0  0  0  0
   -9.7204   -9.7027    6.4073 N   0  0  0  0  0  0  0  0  0  0  0  0
   -9.0428  -10.7472    6.0693 C   0  0  0  0  0  0  0  0  0  0  0  0
   -8.1154  -11.2216    6.9821 C   0  0  0  0  0  0  0  0  0  0  0  0
   -8.3009  -10.1165    8.2558 S   0  0  0  0  0  0  0  0  0  0  0  0
   -9.2571  -11.4725    4.7444 C   0  0  0  0  0  0  0  0  0  0  0  0
  -10.4809  -11.0594    4.2359 F   0  0  0  0  0  0  0  0  0  0  0  0
   -9.2249  -12.8114    4.9558 F   0  0  0  0  0  0  0  0  0  0  0  0
   -8.2501  -11.1009    3.8908 F   0  0  0  0  0  0  0  0  0  0  0  0
 13 14  1  0  0  0
 14  7  1  0  0  0
  7  8  1  0  0  0
  8  9  2  0  0  0
  8 10  1  0  0  0
 10  1  1  0  0  0
  1  2  2  0  0  0
  2  3  1  0  0  0
  3 27  1  0  0  0
 27 28  2  0  0  0
 28 29  1  0  0  0
 29 30  2  0  0  0
 30 31  1  0  0  0
 29 32  1  0  0  0
 32 33  1  0  0  0
 32 34  1  0  0  0
 32 35  1  0  0  0
  3  4  2  0  0  0
  4  5  1  0  0  0
  5  6  2  0  0  0
  4 15  1  0  0  0
 15 16  2  0  0  0
 16 17  1  0  0  0
 17 18  2  0  0  0
 18 19  1  0  0  0
 19 20  2  0  0  0
 18 21  1  0  0  0
 21 22  1  0  0  0
 22 23  1  0  0  0
 23 24  1  0  0  0
 24 25  1  0  0  0
 25 26  1  0  0  0
  6  1  1  0  0  0
 20 15  1  0  0  0
 26 21  1  0  0  0
 31 27  1  0  0  0
  7 11  1  0  0  0
 10 12  1  0  0  0
M  END
> <minimizedAffinity>
5.00646

> <CNNscore>
0.3313456774

> <CNNaffinity>
7.0424385071

> <CNN_VS>
2.3334815502

> <CNNaffinity_variance>
0.9826322794

$$$$
[H]OC(=O)C([H])(Oc1c([H])c([H])c(-c2c([H])c([H])c(-c3c(C([H])([H])c4c([H])c([H])c([H])c([H])c4[H])oc4c([H])c([H])c([H])c([H])c34)c([H])c2[H])c([H])c1Br)C([H])([H])c1c([H])c([H])c([H])c([H])c1[H]


 42 47  0  0  0  0  0  0  0  0999 V2000
  -12.3654   -8.2531    7.0444 C   0  0  0  0  0  0  0  0  0  0  0  0
  -12.0313   -9.2857    6.2165 C   0  0  0  0  0  0  0  0  0  0  0  0
  -12.9192   -9.6153    5.2127 C   0  0  0  0  0  0  0  0  0  0  0  0
  -14.1136   -8.9968    4.9707 C   0  0  0  0  0  0  0  0  0  0  0  0
  -14.4436   -7.9360    5.8333 C   0  0  0  0  0  0  0  0  0  0  0  0
  -13.5751   -7.5976    6.8312 C   0  0  0  0  0  0  0  0  0  0  0  0
  -15.0382   -9.3109    3.8897 C   0  0  0  0  0  0  0  0  0  0  0  0
  -15.5897   -8.5465    2.9311 C   0  0  0  0  0  0  0  0  0  0  0  0
  -16.3295   -9.3307    2.1266 O   0  0  0  0  0  0  0  0  0  0  0  0
  -16.2854  -10.5728    2.5198 C   0  0  0  0  0  0  0  0  0  0  0  0
  -16.8843  -11.7358    2.0100 C   0  0  0  0  0  0  0  0  0  0  0  0
  -16.6226  -12.9028    2.6813 C   0  0  0  0  0  0  0  0  0  0  0  0
  -15.8214  -12.9731    3.7992 C   0  0  0  0  0  0  0  0  0  0  0  0
  -15.2451  -11.8115    4.2796 C   0  0  0  0  0  0  0  0  0  0  0  0
  -15.4817  -10.6236    3.6363 C   0  0  0  0  0  0  0  0  0  0  0  0
  -15.4921   -7.0975    2.6880 C   0  0  0  0  0  0  0  0  0  0  0  0
  -16.4570   -6.3388    3.4985 C   0  0  0  0  0  0  0  0  0  0  0  0
  -16.1012   -5.3358    4.3381 C   0  0  0  0  0  0  0  0  0  0  0  0
  -17.0643   -4.6331    5.0867 C   0  0  0  0  0  0  0  0  0  0  0  0
  -18.3998   -4.9582    4.9779 C   0  0  0  0  0  0  0  0  0  0  0  0
  -18.7643   -5.9734    4.1294 C   0  0  0  0  0  0  0  0  0  0  0  0
  -17.8118   -6.6740    3.3828 C   0  0  0  0  0  0  0  0  0  0  0  0
   -9.7933   -6.8547   10.1887 C   0  0  0  0  0  0  0  0  0  0  0  0
  -11.1803   -7.0402   10.3973 C   0  0  0  0  0  0  0  0  0  0  0  0
  -12.0251   -7.4729    9.4040 C   0  0  0  0  0  0  0  0  0  0  0  0
  -11.5371   -7.7473    8.1432 C   0  0  0  0  0  0  0  0  0  0  0  0
  -10.1787   -7.5611    7.9439 C   0  0  0  0  0  0  0  0  0  0  0  0
   -9.3123   -7.1231    8.9410 C   0  0  0  0  0  0  0  0  0  0  0  0
   -7.4731   -6.9189    8.4628 Br  0  0  0  0  0  0  0  0  0  0  0  0
   -9.0998   -6.4335   11.2432 O   0  0  0  0  0  0  0  0  0  0  0  0
   -9.1003   -5.4584   12.1900 C   0  0  0  0  0  0  0  0  0  0  0  0
   -6.7725   -6.2082   12.8948 O   0  0  0  0  0  0  0  0  0  0  0  0
   -8.0186   -5.7348   13.2131 C   0  0  0  0  0  0  0  0  0  0  0  0
   -8.2683   -5.5247   14.4298 O   0  0  0  0  0  0  0  0  0  0  0  0
   -6.3067   -6.9797   13.3705 H   0  0  0  0  0  0  0  0  0  0  0  0
  -10.4571   -5.4224   12.8904 C   0  0  0  0  0  0  0  0  0  0  0  0
  -11.5813   -5.1424   11.9728 C   0  0  0  0  0  0  0  0  0  0  0  0
  -12.7304   -5.9143   12.0706 C   0  0  0  0  0  0  0  0  0  0  0  0
  -13.7895   -5.6359   11.2390 C   0  0  0  0  0  0  0  0  0  0  0  0
  -13.7187   -4.6137   10.3235 C   0  0  0  0  0  0  0  0  0  0  0  0
  -12.5818   -3.8510   10.2269 C   0  0  0  0  0  0  0  0  0  0  0  0
  -11.5189   -4.1201   11.0533 C   0  0  0  0  0  0  0  0  0  0  0  0
 32 33  1  0  0  0
 33 34  2  0  0  0
 33 31  1  0  0  0
 31 36  1  0  0  0
 36 37  1  0  0  0
 37 38  2  0  0  0
 38 39  1  0  0  0
 39 40  2  0  0  0
 40 41  1  0  0  0
 41 42  2  0  0  0
 31 30  1  0  0  0
 30 23  1  0  0  0
 23 24  2  0  0  0
 24 25  1  0  0  0
 25 26  2  0  0  0
 26 27  1  0  0  0
 27 28  2  0  0  0
 28 29  1  0  0  0
 26  1  1  0  0  0
  1  2  2  0  0  0
  2  3  1  0  0  0
  3  4  2  0  0  0
  4  5  1  0  0  0
  5  6  2  0  0  0
  4  7  1  0  0  0
  7  8  2  0  0  0
  8 16  1  0  0  0
 16 17  1  0  0  0
 17 18  2  0  0  0
 18 19  1  0  0  0
 19 20  2  0  0  0
 20 21  1  0  0  0
 21 22  2  0  0  0
  8  9  1  0  0  0
  9 10  1  0  0  0
 10 11  2  0  0  0
 11 12  1  0  0  0
 12 13  2  0  0  0
 13 14  1  0  0  0
 14 15  2  0  0  0
 42 37  1  0  0  0
 28 23  1  0  0  0
  6  1  1  0  0  0
 15  7  1  0  0  0
 22 17  1  0  0  0
 15 10  1  0  0  0
 32 35  1  0  0  0
M  END
> <minimizedAffinity>
27.84781

> <CNNscore>
0.4254233241

> <CNNaffinity>
6.9582314491

> <CNN_VS>
2.9601938725

> <CNNaffinity_variance>
0.7773908973

$$$$
[H]OC(=O)C([H])(Oc1c([H])c([H])c(-c2c([H])c([H])c(-c3c(C([H])([H])c4c([H])c([H])c([H])c([H])c4[H])oc4c([H])c([H])c([H])c([H])c34)c([H])c2[H])c([H])c1Br)C([H])([H])c1c([H])c([H])c([H])c([H])c1[H]


 42 47  0  0  0  0  0  0  0  0999 V2000
  -10.9525  -10.4745    6.5332 C   0  0  0  0  0  0  0  0  0  0  0  0
  -12.2832  -10.6570    6.7767 C   0  0  0  0  0  0  0  0  0  0  0  0
  -12.9412   -9.6844    7.5020 C   0  0  0  0  0  0  0  0  0  0  0  0
  -12.3761   -8.5457    8.0036 C   0  0  0  0  0  0  0  0  0  0  0  0
  -11.0043   -8.3735    7.7452 C   0  0  0  0  0  0  0  0  0  0  0  0
  -10.3395   -9.3269    7.0286 C   0  0  0  0  0  0  0  0  0  0  0  0
  -13.0705   -7.4945    8.7352 C   0  0  0  0  0  0  0  0  0  0  0  0
  -14.3637   -7.1289    8.7678 C   0  0  0  0  0  0  0  0  0  0  0  0
  -14.5081   -6.1334    9.6608 O   0  0  0  0  0  0  0  0  0  0  0  0
  -13.3650   -5.8330   10.2107 C   0  0  0  0  0  0  0  0  0  0  0  0
  -13.0168   -4.8796   11.1807 C   0  0  0  0  0  0  0  0  0  0  0  0
  -11.6945   -4.8287   11.5410 C   0  0  0  0  0  0  0  0  0  0  0  0
  -10.7285   -5.6503   11.0039 C   0  0  0  0  0  0  0  0  0  0  0  0
  -11.1000   -6.5798   10.0498 C   0  0  0  0  0  0  0  0  0  0  0  0
  -12.4130   -6.6628    9.6625 C   0  0  0  0  0  0  0  0  0  0  0  0
  -15.5213   -7.6366    8.0124 C   0  0  0  0  0  0  0  0  0  0  0  0
  -15.6639   -6.9666    6.7108 C   0  0  0  0  0  0  0  0  0  0  0  0
  -14.6711   -6.2526    6.1258 C   0  0  0  0  0  0  0  0  0  0  0  0
  -14.8543   -5.6366    4.8733 C   0  0  0  0  0  0  0  0  0  0  0  0
  -16.0603   -5.7496    4.2146 C   0  0  0  0  0  0  0  0  0  0  0  0
  -17.0682   -6.4711    4.8036 C   0  0  0  0  0  0  0  0  0  0  0  0
  -16.8913   -7.0857    6.0471 C   0  0  0  0  0  0  0  0  0  0  0  0
   -8.4616  -13.2584    4.4110 C   0  0  0  0  0  0  0  0  0  0  0  0
   -8.4104  -11.8699    4.1441 C   0  0  0  0  0  0  0  0  0  0  0  0
   -9.2065  -10.9620    4.7994 C   0  0  0  0  0  0  0  0  0  0  0  0
  -10.1010  -11.3844    5.7610 C   0  0  0  0  0  0  0  0  0  0  0  0
  -10.1489  -12.7453    6.0162 C   0  0  0  0  0  0  0  0  0  0  0  0
   -9.3486  -13.6754    5.3595 C   0  0  0  0  0  0  0  0  0  0  0  0
   -9.5727  -15.5097    5.8475 Br  0  0  0  0  0  0  0  0  0  0  0  0
   -7.6304  -14.0163    3.7004 O   0  0  0  0  0  0  0  0  0  0  0  0
   -7.5894  -15.1921    3.0200 C   0  0  0  0  0  0  0  0  0  0  0  0
   -5.7820  -16.9823    2.9405 O   0  0  0  0  0  0  0  0  0  0  0  0
   -6.5705  -16.1168    3.6527 C   0  0  0  0  0  0  0  0  0  0  0  0
   -6.4340  -16.1008    4.9048 O   0  0  0  0  0  0  0  0  0  0  0  0
   -5.6374  -17.9629    3.1771 H   0  0  0  0  0  0  0  0  0  0  0  0
   -7.1980  -14.9321    1.5668 C   0  0  0  0  0  0  0  0  0  0  0  0
   -7.7144  -13.6502    1.0428 C   0  0  0  0  0  0  0  0  0  0  0  0
   -9.0477  -13.5722    0.6662 C   0  0  0  0  0  0  0  0  0  0  0  0
   -9.5384  -12.3724    0.2075 C   0  0  0  0  0  0  0  0  0  0  0  0
   -8.7288  -11.2657    0.1192 C   0  0  0  0  0  0  0  0  0  0  0  0
   -7.4100  -11.3437    0.4913 C   0  0  0  0  0  0  0  0  0  0  0  0
   -6.9104  -12.5368    0.9517 C   0  0  0  0  0  0  0  0  0  0  0  0
 32 33  1  0  0  0
 33 34  2  0  0  0
 33 31  1  0  0  0
 31 36  1  0  0  0
 36 37  1  0  0  0
 37 38  2  0  0  0
 38 39  1  0  0  0
 39 40  2  0  0  0
 40 41  1  0  0  0
 41 42  2  0  0  0
 31 30  1  0  0  0
 30 23  1  0  0  0
 23 24  2  0  0  0
 24 25  1  0  0  0
 25 26  2  0  0  0
 26 27  1  0  0  0
 27 28  2  0  0  0
 28 29  1  0  0  0
 26  1  1  0  0  0
  1  2  2  0  0  0
  2  3  1  0  0  0
  3  4  2  0  0  0
  4  5  1  0  0  0
  5  6  2  0  0  0
  4  7  1  0  0  0
  7  8  2  0  0  0
  8 16  1  0  0  0
 16 17  1  0  0  0
 17 18  2  0  0  0
 18 19  1  0  0  0
 19 20  2  0  0  0
 20 21  1  0  0  0
 21 22  2  0  0  0
  8  9  1  0  0  0
  9 10  1  0  0  0
 10 11  2  0  0  0
 11 12  1  0  0  0
 12 13  2  0  0  0
 13 14  1  0  0  0
 14 15  2  0  0  0
 42 37  1  0  0  0
 28 23  1  0  0  0
  6  1  1  0  0  0
 15  7  1  0  0  0
 22 17  1  0  0  0
 15 10  1  0  0  0
 32 35  1  0  0  0
M  END
> <minimizedAffinity>
17.58712

> <CNNscore>
0.4037908018

> <CNNaffinity>
6.7624921799

> <CNN_VS>
2.7306320667

> <CNNaffinity_variance>
0.8693501353

$$$$
[H]OC(=O)C([H])(Oc1c([H])c([H])c(-c2c([H])c([H])c(-c3c(C([H])([H])c4c([H])c([H])c([H])c([H])c4[H])oc4c([H])c([H])c([H])c([H])c34)c([H])c2[H])c([H])c1Br)C([H])([H])c1c([H])c([H])c([H])c([H])c1[H]


 42 47  0  0  0  0  0  0  0  0999 V2000
  -10.8049  -10.0214    6.3440 C   0  0  0  0  0  0  0  0  0  0  0  0
  -12.1113  -10.2913    6.6336 C   0  0  0  0  0  0  0  0  0  0  0  0
  -12.7544   -9.4597    7.5278 C   0  0  0  0  0  0  0  0  0  0  0  0
  -12.1968   -8.3816    8.1559 C   0  0  0  0  0  0  0  0  0  0  0  0
  -10.8500   -8.1180    7.8476 C   0  0  0  0  0  0  0  0  0  0  0  0
  -10.2001   -8.9316    6.9643 C   0  0  0  0  0  0  0  0  0  0  0  0
  -12.8784   -7.4746    9.0697 C   0  0  0  0  0  0  0  0  0  0  0  0
  -14.1831   -7.2410    9.2941 C   0  0  0  0  0  0  0  0  0  0  0  0
  -14.2958   -6.3506   10.2960 O   0  0  0  0  0  0  0  0  0  0  0  0
  -13.1213   -5.9925   10.7336 C   0  0  0  0  0  0  0  0  0  0  0  0
  -12.7339   -5.1030   11.7485 C   0  0  0  0  0  0  0  0  0  0  0  0
  -11.3854   -4.9572   11.9517 C   0  0  0  0  0  0  0  0  0  0  0  0
  -10.4300   -5.6282   11.2212 C   0  0  0  0  0  0  0  0  0  0  0  0
  -10.8405   -6.4976   10.2273 C   0  0  0  0  0  0  0  0  0  0  0  0
  -12.1805   -6.6718    9.9930 C   0  0  0  0  0  0  0  0  0  0  0  0
  -15.3807   -7.7872    8.6338 C   0  0  0  0  0  0  0  0  0  0  0  0
  -15.6257   -7.1528    7.3295 C   0  0  0  0  0  0  0  0  0  0  0  0
  -14.6508   -6.5762    6.5847 C   0  0  0  0  0  0  0  0  0  0  0  0
  -14.9350   -5.9891    5.3373 C   0  0  0  0  0  0  0  0  0  0  0  0
  -16.2240   -5.9897    4.8479 C   0  0  0  0  0  0  0  0  0  0  0  0
  -17.2141   -6.5720    5.5990 C   0  0  0  0  0  0  0  0  0  0  0  0
  -16.9372   -7.1573    6.8384 C   0  0  0  0  0  0  0  0  0  0  0  0
   -8.3465  -12.3623    3.7106 C   0  0  0  0  0  0  0  0  0  0  0  0
   -8.4495  -10.9582    3.5706 C   0  0  0  0  0  0  0  0  0  0  0  0
   -9.2395  -10.1901    4.3911 C   0  0  0  0  0  0  0  0  0  0  0  0
   -9.9737  -10.7763    5.4013 C   0  0  0  0  0  0  0  0  0  0  0  0
   -9.8712  -12.1518    5.5320 C   0  0  0  0  0  0  0  0  0  0  0  0
   -9.0752  -12.9413    4.7076 C   0  0  0  0  0  0  0  0  0  0  0  0
   -9.0780  -14.8228    5.0437 Br  0  0  0  0  0  0  0  0  0  0  0  0
   -7.5415  -12.9736    2.8454 O   0  0  0  0  0  0  0  0  0  0  0  0
   -7.3562  -13.1437    1.5098 C   0  0  0  0  0  0  0  0  0  0  0  0
   -9.2514  -11.6087    0.7821 O   0  0  0  0  0  0  0  0  0  0  0  0
   -8.6408  -12.8355    0.7693 C   0  0  0  0  0  0  0  0  0  0  0  0
   -9.1902  -13.7525    0.1030 O   0  0  0  0  0  0  0  0  0  0  0  0
  -10.2462  -11.4583    0.9445 H   0  0  0  0  0  0  0  0  0  0  0  0
   -6.9473  -14.5879    1.2272 C   0  0  0  0  0  0  0  0  0  0  0  0
   -6.9154  -15.4341    2.4385 C   0  0  0  0  0  0  0  0  0  0  0  0
   -5.7868  -16.2027    2.6857 C   0  0  0  0  0  0  0  0  0  0  0  0
   -5.7418  -16.9671    3.8278 C   0  0  0  0  0  0  0  0  0  0  0  0
   -6.7925  -16.9763    4.7133 C   0  0  0  0  0  0  0  0  0  0  0  0
   -7.9087  -16.2163    4.4679 C   0  0  0  0  0  0  0  0  0  0  0  0
   -7.9633  -15.4487    3.3308 C   0  0  0  0  0  0  0  0  0  0  0  0
 32 33  1  0  0  0
 33 34  2  0  0  0
 33 31  1  0  0  0
 31 36  1  0  0  0
 36 37  1  0  0  0
 37 38  2  0  0  0
 38 39  1  0  0  0
 39 40  2  0  0  0
 40 41  1  0  0  0
 41 42  2  0  0  0
 31 30  1  0  0  0
 30 23  1  0  0  0
 23 24  2  0  0  0
 24 25  1  0  0  0
 25 26  2  0  0  0
 26 27  1  0  0  0
 27 28  2  0  0  0
 28 29  1  0  0  0
 26  1  1  0  0  0
  1  2  2  0  0  0
  2  3  1  0  0  0
  3  4  2  0  0  0
  4  5  1  0  0  0
  5  6  2  0  0  0
  4  7  1  0  0  0
  7  8  2  0  0  0
  8 16  1  0  0  0
 16 17  1  0  0  0
 17 18  2  0  0  0
 18 19  1  0  0  0
 19 20  2  0  0  0
 20 21  1  0  0  0
 21 22  2  0  0  0
  8  9  1  0  0  0
  9 10  1  0  0  0
 10 11  2  0  0  0
 11 12  1  0  0  0
 12 13  2  0  0  0
 13 14  1  0  0  0
 14 15  2  0  0  0
 42 37  1  0  0  0
 28 23  1  0  0  0
  6  1  1  0  0  0
 15  7  1  0  0  0
 22 17  1  0  0  0
 15 10  1  0  0  0
 32 35  1  0  0  0
M  END
> <minimizedAffinity>
17.91508

> <CNNscore>
0.3916977644

> <CNNaffinity>
6.5465841293

> <CNN_VS>
2.5642824173

> <CNNaffinity_variance>
0.8077639341

$$$$
[H]OC(=O)C([H])(Oc1c([H])c([H])c(-c2c([H])c([H])c(-c3c(C([H])([H])c4c([H])c([H])c([H])c([H])c4[H])oc4c([H])c([H])c([H])c([H])c34)c([H])c2[H])c([H])c1Br)C([H])([H])c1c([H])c([H])c([H])c([H])c1[H]


 42 47  0  0  0  0  0  0  0  0999 V2000
   -8.6986   -7.6618    7.5482 C   0  0  0  0  0  0  0  0  0  0  0  0
   -9.8061   -7.8642    6.7764 C   0  0  0  0  0  0  0  0  0  0  0  0
  -11.0394   -7.7768    7.3897 C   0  0  0  0  0  0  0  0  0  0  0  0
  -11.2542   -7.5044    8.7116 C   0  0  0  0  0  0  0  0  0  0  0  0
  -10.1029   -7.2998    9.4932 C   0  0  0  0  0  0  0  0  0  0  0  0
   -8.8755   -7.3827    8.9007 C   0  0  0  0  0  0  0  0  0  0  0  0
  -12.5521   -7.3703    9.3594 C   0  0  0  0  0  0  0  0  0  0  0  0
  -13.6656   -8.1213    9.3001 C   0  0  0  0  0  0  0  0  0  0  0  0
  -14.5780   -7.6071   10.1442 O   0  0  0  0  0  0  0  0  0  0  0  0
  -14.1083   -6.5528   10.7502 C   0  0  0  0  0  0  0  0  0  0  0  0
  -14.6767   -5.6917   11.7024 C   0  0  0  0  0  0  0  0  0  0  0  0
  -13.8886   -4.6579   12.1394 C   0  0  0  0  0  0  0  0  0  0  0  0
  -12.6041   -4.4406   11.6932 C   0  0  0  0  0  0  0  0  0  0  0  0
  -12.0700   -5.3042   10.7545 C   0  0  0  0  0  0  0  0  0  0  0  0
  -12.8258   -6.3512   10.2923 C   0  0  0  0  0  0  0  0  0  0  0  0
  -13.9726   -9.3162    8.4963 C   0  0  0  0  0  0  0  0  0  0  0  0
  -14.3352   -8.9693    7.1137 C   0  0  0  0  0  0  0  0  0  0  0  0
  -15.3234   -8.0968    6.7974 C   0  0  0  0  0  0  0  0  0  0  0  0
  -15.6269   -7.7909    5.4573 C   0  0  0  0  0  0  0  0  0  0  0  0
  -14.9171   -8.3812    4.4332 C   0  0  0  0  0  0  0  0  0  0  0  0
  -13.9162   -9.2656    4.7490 C   0  0  0  0  0  0  0  0  0  0  0  0
  -13.6101   -9.5724    6.0784 C   0  0  0  0  0  0  0  0  0  0  0  0
   -4.6837   -7.8889    6.0359 C   0  0  0  0  0  0  0  0  0  0  0  0
   -4.9696   -7.2857    7.2834 C   0  0  0  0  0  0  0  0  0  0  0  0
   -6.2462   -7.1887    7.7816 C   0  0  0  0  0  0  0  0  0  0  0  0
   -7.3145   -7.6884    7.0657 C   0  0  0  0  0  0  0  0  0  0  0  0
   -7.0290   -8.2753    5.8437 C   0  0  0  0  0  0  0  0  0  0  0  0
   -5.7408   -8.3797    5.3275 C   0  0  0  0  0  0  0  0  0  0  0  0
   -5.5570   -9.2150    3.6182 Br  0  0  0  0  0  0  0  0  0  0  0  0
   -3.4008   -7.9127    5.6840 O   0  0  0  0  0  0  0  0  0  0  0  0
   -2.2676   -7.1662    5.7615 C   0  0  0  0  0  0  0  0  0  0  0  0
   -2.5257   -5.6372    3.7432 O   0  0  0  0  0  0  0  0  0  0  0  0
   -2.4914   -5.8220    5.1007 C   0  0  0  0  0  0  0  0  0  0  0  0
   -2.6528   -4.8082    5.8307 O   0  0  0  0  0  0  0  0  0  0  0  0
   -2.0243   -4.9027    3.2456 H   0  0  0  0  0  0  0  0  0  0  0  0
   -1.1251   -7.8907    5.0526 C   0  0  0  0  0  0  0  0  0  0  0  0
   -1.0902   -9.3415    5.3323 C   0  0  0  0  0  0  0  0  0  0  0  0
   -1.1076   -9.7669    6.6530 C   0  0  0  0  0  0  0  0  0  0  0  0
   -1.1065  -11.1167    6.9153 C   0  0  0  0  0  0  0  0  0  0  0  0
   -1.0871  -12.0347    5.8932 C   0  0  0  0  0  0  0  0  0  0  0  0
   -1.0694  -11.6134    4.5871 C   0  0  0  0  0  0  0  0  0  0  0  0
   -1.0714  -10.2677    4.3143 C   0  0  0  0  0  0  0  0  0  0  0  0
 32 33  1  0  0  0
 33 34  2  0  0  0
 33 31  1  0  0  0
 31 36  1  0  0  0
 36 37  1  0  0  0
 37 38  2  0  0  0
 38 39  1  0  0  0
 39 40  2  0  0  0
 40 41  1  0  0  0
 41 42  2  0  0  0
 31 30  1  0  0  0
 30 23  1  0  0  0
 23 24  2  0  0  0
 24 25  1  0  0  0
 25 26  2  0  0  0
 26 27  1  0  0  0
 27 28  2  0  0  0
 28 29  1  0  0  0
 26  1  1  0  0  0
  1  2  2  0  0  0
  2  3  1  0  0  0
  3  4  2  0  0  0
  4  5  1  0  0  0
  5  6  2  0  0  0
  4  7  1  0  0  0
  7  8  2  0  0  0
  8 16  1  0  0  0
 16 17  1  0  0  0
 17 18  2  0  0  0
 18 19  1  0  0  0
 19 20  2  0  0  0
 20 21  1  0  0  0
 21 22  2  0  0  0
  8  9  1  0  0  0
  9 10  1  0  0  0
 10 11  2  0  0  0
 11 12  1  0  0  0
 12 13  2  0  0  0
 13 14  1  0  0  0
 14 15  2  0  0  0
 42 37  1  0  0  0
 28 23  1  0  0  0
  6  1  1  0  0  0
 15  7  1  0  0  0
 22 17  1  0  0  0
 15 10  1  0  0  0
 32 35  1  0  0  0
M  END
> <minimizedAffinity>
3.30944

> <CNNscore>
0.3374688923

> <CNNaffinity>
6.8593816757

> <CNN_VS>
2.3148279190

> <CNNaffinity_variance>
0.5366613269

$$$$
[H]OC(=O)C([H])(Oc1c([H])c([H])c(-c2c([H])c([H])c(-c3c(C([H])([H])c4c([H])c([H])c([H])c([H])c4[H])oc4c([H])c([H])c([H])c([H])c34)c([H])c2[H])c([H])c1Br)C([H])([H])c1c([H])c([H])c([H])c([H])c1[H]


 42 47  0  0  0  0  0  0  0  0999 V2000
  -14.3417   -9.6822    1.7760 C   0  0  0  0  0  0  0  0  0  0  0  0
  -15.0316  -10.8459    1.5941 C   0  0  0  0  0  0  0  0  0  0  0  0
  -14.3673  -11.8982    0.9974 C   0  0  0  0  0  0  0  0  0  0  0  0
  -13.0701  -11.8805    0.5676 C   0  0  0  0  0  0  0  0  0  0  0  0
  -12.3737  -10.6738    0.7611 C   0  0  0  0  0  0  0  0  0  0  0  0
  -13.0173   -9.6236    1.3505 C   0  0  0  0  0  0  0  0  0  0  0  0
  -12.3483  -12.9978   -0.0262 C   0  0  0  0  0  0  0  0  0  0  0  0
  -11.0355  -13.2193   -0.2132 C   0  0  0  0  0  0  0  0  0  0  0  0
  -10.8766  -14.4431   -0.7484 O   0  0  0  0  0  0  0  0  0  0  0  0
  -12.0286  -15.0286   -0.9197 C   0  0  0  0  0  0  0  0  0  0  0  0
  -12.3682  -16.2891   -1.4364 C   0  0  0  0  0  0  0  0  0  0  0  0
  -13.7048  -16.5942   -1.4748 C   0  0  0  0  0  0  0  0  0  0  0  0
  -14.6923  -15.7383   -1.0403 C   0  0  0  0  0  0  0  0  0  0  0  0
  -14.3287  -14.5028   -0.5367 C   0  0  0  0  0  0  0  0  0  0  0  0
  -13.0021  -14.1597   -0.4808 C   0  0  0  0  0  0  0  0  0  0  0  0
   -9.8709  -12.3627    0.0665 C   0  0  0  0  0  0  0  0  0  0  0  0
   -8.7855  -13.1087    0.7215 C   0  0  0  0  0  0  0  0  0  0  0  0
   -7.4748  -12.9383    0.4204 C   0  0  0  0  0  0  0  0  0  0  0  0
   -6.4717  -13.6710    1.0825 C   0  0  0  0  0  0  0  0  0  0  0  0
   -6.8097  -14.5851    2.0578 C   0  0  0  0  0  0  0  0  0  0  0  0
   -8.1356  -14.7611    2.3653 C   0  0  0  0  0  0  0  0  0  0  0  0
   -9.1360  -14.0353    1.7113 C   0  0  0  0  0  0  0  0  0  0  0  0
  -16.0694   -6.2016    3.6085 C   0  0  0  0  0  0  0  0  0  0  0  0
  -14.7720   -6.1719    3.0448 C   0  0  0  0  0  0  0  0  0  0  0  0
  -14.1929   -7.2751    2.4660 C   0  0  0  0  0  0  0  0  0  0  0  0
  -14.8734   -8.4740    2.4139 C   0  0  0  0  0  0  0  0  0  0  0  0
  -16.1421   -8.4980    2.9699 C   0  0  0  0  0  0  0  0  0  0  0  0
  -16.7401   -7.3882    3.5594 C   0  0  0  0  0  0  0  0  0  0  0  0
  -18.4940   -7.6288    4.2796 Br  0  0  0  0  0  0  0  0  0  0  0  0
  -16.5003   -5.0566    4.1317 O   0  0  0  0  0  0  0  0  0  0  0  0
  -16.9821   -4.5377    5.2918 C   0  0  0  0  0  0  0  0  0  0  0  0
  -18.4809   -6.0141    6.7241 O   0  0  0  0  0  0  0  0  0  0  0  0
  -18.3012   -5.1949    5.6402 C   0  0  0  0  0  0  0  0  0  0  0  0
  -19.2962   -4.9867    4.8963 O   0  0  0  0  0  0  0  0  0  0  0  0
  -18.9507   -6.9180    6.6957 H   0  0  0  0  0  0  0  0  0  0  0  0
  -17.1964   -3.0339    5.1326 C   0  0  0  0  0  0  0  0  0  0  0  0
  -15.9954   -2.2350    5.4548 C   0  0  0  0  0  0  0  0  0  0  0  0
  -16.1316   -1.1303    6.2836 C   0  0  0  0  0  0  0  0  0  0  0  0
  -15.0110   -0.4035    6.6099 C   0  0  0  0  0  0  0  0  0  0  0  0
  -13.7743   -0.7574    6.1268 C   0  0  0  0  0  0  0  0  0  0  0  0
  -13.6403   -1.8498    5.3067 C   0  0  0  0  0  0  0  0  0  0  0  0
  -14.7529   -2.5829    4.9756 C   0  0  0  0  0  0  0  0  0  0  0  0
 32 33  1  0  0  0
 33 34  2  0  0  0
 33 31  1  0  0  0
 31 36  1  0  0  0
 36 37  1  0  0  0
 37 38  2  0  0  0
 38 39  1  0  0  0
 39 40  2  0  0  0
 40 41  1  0  0  0
 41 42  2  0  0  0
 31 30  1  0  0  0
 30 23  1  0  0  0
 23 24  2  0  0  0
 24 25  1  0  0  0
 25 26  2  0  0  0
 26 27  1  0  0  0
 27 28  2  0  0  0
 28 29  1  0  0  0
 26  1  1  0  0  0
  1  2  2  0  0  0
  2  3  1  0  0  0
  3  4  2  0  0  0
  4  5  1  0  0  0
  5  6  2  0  0  0
  4  7  1  0  0  0
  7  8  2  0  0  0
  8 16  1  0  0  0
 16 17  1  0  0  0
 17 18  2  0  0  0
 18 19  1  0  0  0
 19 20  2  0  0  0
 20 21  1  0  0  0
 21 22  2  0  0  0
  8  9  1  0  0  0
  9 10  1  0  0  0
 10 11  2  0  0  0
 11 12  1  0  0  0
 12 13  2  0  0  0
 13 14  1  0  0  0
 14 15  2  0  0  0
 42 37  1  0  0  0
 28 23  1  0  0  0
  6  1  1  0  0  0
 15  7  1  0  0  0
 22 17  1  0  0  0
 15 10  1  0  0  0
 32 35  1  0  0  0
M  END
> <minimizedAffinity>
75.41106

> <CNNscore>
0.2709986269

> <CNNaffinity>
6.0139036179

> <CNN_VS>
1.6297596693

> <CNNaffinity_variance>
0.5264496803

$$$$
[H]OC(=O)C([H])(Oc1c([H])c([H])c(-c2c([H])c([H])c(-c3c(C([H])([H])c4c([H])c([H])c([H])c([H])c4[H])oc4c([H])c([H])c([H])c([H])c34)c([H])c2[H])c([H])c1Br)C([H])([H])c1c([H])c([H])c([H])c([H])c1[H]


 42 47  0  0  0  0  0  0  0  0999 V2000
   -7.5451   -7.4780    7.3101 C   0  0  0  0  0  0  0  0  0  0  0  0
   -6.5428   -7.8127    8.1741 C   0  0  0  0  0  0  0  0  0  0  0  0
   -5.2476   -7.5213    7.7968 C   0  0  0  0  0  0  0  0  0  0  0  0
   -4.8742   -6.9236    6.6260 C   0  0  0  0  0  0  0  0  0  0  0  0
   -5.9186   -6.5863    5.7463 C   0  0  0  0  0  0  0  0  0  0  0  0
   -7.2055   -6.8679    6.1056 C   0  0  0  0  0  0  0  0  0  0  0  0
   -3.5142   -6.5755    6.2366 C   0  0  0  0  0  0  0  0  0  0  0  0
   -2.4689   -7.3312    5.8578 C   0  0  0  0  0  0  0  0  0  0  0  0
   -1.4454   -6.5205    5.5343 O   0  0  0  0  0  0  0  0  0  0  0  0
   -1.7775   -5.2693    5.6871 C   0  0  0  0  0  0  0  0  0  0  0  0
   -1.0601   -4.0803    5.4800 C   0  0  0  0  0  0  0  0  0  0  0  0
   -1.7259   -2.9107    5.7438 C   0  0  0  0  0  0  0  0  0  0  0  0
   -3.0280   -2.8615    6.1896 C   0  0  0  0  0  0  0  0  0  0  0  0
   -3.7102   -4.0483    6.3854 C   0  0  0  0  0  0  0  0  0  0  0  0
   -3.0798   -5.2397    6.1325 C   0  0  0  0  0  0  0  0  0  0  0  0
   -2.3273   -8.7943    5.7702 C   0  0  0  0  0  0  0  0  0  0  0  0
   -1.8849   -9.3802    7.0448 C   0  0  0  0  0  0  0  0  0  0  0  0
   -1.6408   -8.6472    8.1587 C   0  0  0  0  0  0  0  0  0  0  0  0
   -1.2270   -9.2565    9.3583 C   0  0  0  0  0  0  0  0  0  0  0  0
   -1.0601  -10.6238    9.4201 C   0  0  0  0  0  0  0  0  0  0  0  0
   -1.3056  -11.3696    8.2945 C   0  0  0  0  0  0  0  0  0  0  0  0
   -1.7176  -10.7695    7.1006 C   0  0  0  0  0  0  0  0  0  0  0  0
  -11.7199   -7.9974    8.1815 C   0  0  0  0  0  0  0  0  0  0  0  0
  -11.0239   -8.8974    7.3406 C   0  0  0  0  0  0  0  0  0  0  0  0
   -9.6929   -8.7446    7.0361 C   0  0  0  0  0  0  0  0  0  0  0  0
   -8.9760   -7.6853    7.5529 C   0  0  0  0  0  0  0  0  0  0  0  0
   -9.6633   -6.8056    8.3734 C   0  0  0  0  0  0  0  0  0  0  0  0
  -11.0111   -6.9486    8.6893 C   0  0  0  0  0  0  0  0  0  0  0  0
  -11.7793   -5.6218    9.8307 Br  0  0  0  0  0  0  0  0  0  0  0  0
  -13.0049   -8.2735    8.3887 O   0  0  0  0  0  0  0  0  0  0  0  0
  -14.2483   -7.8140    8.0887 C   0  0  0  0  0  0  0  0  0  0  0  0
  -16.4763   -8.7284    8.9119 O   0  0  0  0  0  0  0  0  0  0  0  0
  -15.2249   -8.2318    9.1681 C   0  0  0  0  0  0  0  0  0  0  0  0
  -14.8795   -8.1174   10.3740 O   0  0  0  0  0  0  0  0  0  0  0  0
  -17.3290   -8.4181    9.3758 H   0  0  0  0  0  0  0  0  0  0  0  0
  -14.7013   -8.3926    6.7498 C   0  0  0  0  0  0  0  0  0  0  0  0
  -15.2522   -7.3754    5.8299 C   0  0  0  0  0  0  0  0  0  0  0  0
  -16.3006   -7.7308    4.9931 C   0  0  0  0  0  0  0  0  0  0  0  0
  -16.8355   -6.7780    4.1584 C   0  0  0  0  0  0  0  0  0  0  0  0
  -16.3452   -5.4944    4.1461 C   0  0  0  0  0  0  0  0  0  0  0  0
  -15.3079   -5.1437    4.9736 C   0  0  0  0  0  0  0  0  0  0  0  0
  -14.7673   -6.0874    5.8116 C   0  0  0  0  0  0  0  0  0  0  0  0
 32 33  1  0  0  0
 33 34  2  0  0  0
 33 31  1  0  0  0
 31 36  1  0  0  0
 36 37  1  0  0  0
 37 38  2  0  0  0
 38 39  1  0  0  0
 39 40  2  0  0  0
 40 41  1  0  0  0
 41 42  2  0  0  0
 31 30  1  0  0  0
 30 23  1  0  0  0
 23 24  2  0  0  0
 24 25  1  0  0  0
 25 26  2  0  0  0
 26 27  1  0  0  0
 27 28  2  0  0  0
 28 29  1  0  0  0
 26  1  1  0  0  0
  1  2  2  0  0  0
  2  3  1  0  0  0
  3  4  2  0  0  0
  4  5  1  0  0  0
  5  6  2  0  0  0
  4  7  1  0  0  0
  7  8  2  0  0  0
  8 16  1  0  0  0
 16 17  1  0  0  0
 17 18  2  0  0  0
 18 19  1  0  0  0
 19 20  2  0  0  0
 20 21  1  0  0  0
 21 22  2  0  0  0
  8  9  1  0  0  0
  9 10  1  0  0  0
 10 11  2  0  0  0
 11 12  1  0  0  0
 12 13  2  0  0  0
 13 14  1  0  0  0
 14 15  2  0  0  0
 42 37  1  0  0  0
 28 23  1  0  0  0
  6  1  1  0  0  0
 15  7  1  0  0  0
 22 17  1  0  0  0
 15 10  1  0  0  0
 32 35  1  0  0  0
M  END
> <minimizedAffinity>
-9.57820

> <CNNscore>
0.2698938847

> <CNNaffinity>
7.1051635742

> <CNN_VS>
1.9176402092

> <CNNaffinity_variance>
0.0777478963

$$$$
[H]OC(=O)C([H])(Oc1c([H])c([H])c(-c2c([H])c([H])c(-c3c(C([H])([H])c4c([H])c([H])c([H])c([H])c4[H])oc4c([H])c([H])c([H])c([H])c34)c([H])c2[H])c([H])c1Br)C([H])([H])c1c([H])c([H])c([H])c([H])c1[H]


 42 47  0  0  0  0  0  0  0  0999 V2000
   -7.5829   -7.4433    7.5284 C   0  0  0  0  0  0  0  0  0  0  0  0
   -6.7060   -7.2468    8.5559 C   0  0  0  0  0  0  0  0  0  0  0  0
   -5.3808   -7.0326    8.2354 C   0  0  0  0  0  0  0  0  0  0  0  0
   -4.8621   -6.9999    6.9715 C   0  0  0  0  0  0  0  0  0  0  0  0
   -5.7784   -7.2053    5.9243 C   0  0  0  0  0  0  0  0  0  0  0  0
   -7.0931   -7.4183    6.2254 C   0  0  0  0  0  0  0  0  0  0  0  0
   -3.4731   -6.7347    6.6214 C   0  0  0  0  0  0  0  0  0  0  0  0
   -2.3312   -7.3678    6.9415 C   0  0  0  0  0  0  0  0  0  0  0  0
   -1.3107   -6.7641    6.3062 O   0  0  0  0  0  0  0  0  0  0  0  0
   -1.7374   -5.7641    5.5871 C   0  0  0  0  0  0  0  0  0  0  0  0
   -1.0612   -4.8507    4.7626 C   0  0  0  0  0  0  0  0  0  0  0  0
   -1.8322   -3.9034    4.1388 C   0  0  0  0  0  0  0  0  0  0  0  0
   -3.1987   -3.8179    4.2868 C   0  0  0  0  0  0  0  0  0  0  0  0
   -3.8382   -4.7304    5.1057 C   0  0  0  0  0  0  0  0  0  0  0  0
   -3.1029   -5.6940    5.7473 C   0  0  0  0  0  0  0  0  0  0  0  0
   -2.0921   -8.5241    7.8213 C   0  0  0  0  0  0  0  0  0  0  0  0
   -1.7494   -9.7334    7.0573 C   0  0  0  0  0  0  0  0  0  0  0  0
   -1.7481   -9.7855    5.7027 C   0  0  0  0  0  0  0  0  0  0  0  0
   -1.4038  -10.9658    5.0171 C   0  0  0  0  0  0  0  0  0  0  0  0
   -1.0600  -12.1010    5.7200 C   0  0  0  0  0  0  0  0  0  0  0  0
   -1.0606  -12.0528    7.0915 C   0  0  0  0  0  0  0  0  0  0  0  0
   -1.4009  -10.8828    7.7776 C   0  0  0  0  0  0  0  0  0  0  0  0
  -11.8010   -7.9955    8.1287 C   0  0  0  0  0  0  0  0  0  0  0  0
  -11.0620   -8.8372    7.2643 C   0  0  0  0  0  0  0  0  0  0  0  0
   -9.7158   -8.6719    7.0454 C   0  0  0  0  0  0  0  0  0  0  0  0
   -9.0256   -7.6577    7.6763 C   0  0  0  0  0  0  0  0  0  0  0  0
   -9.7548   -6.8349    8.5194 C   0  0  0  0  0  0  0  0  0  0  0  0
  -11.1184   -6.9911    8.7495 C   0  0  0  0  0  0  0  0  0  0  0  0
  -11.9449   -5.7450    9.9400 Br  0  0  0  0  0  0  0  0  0  0  0  0
  -13.0963   -8.2771    8.2442 O   0  0  0  0  0  0  0  0  0  0  0  0
  -14.3219   -7.7269    8.0382 C   0  0  0  0  0  0  0  0  0  0  0  0
  -16.4670   -8.7995    8.8900 O   0  0  0  0  0  0  0  0  0  0  0  0
  -15.2739   -8.1692    9.1297 C   0  0  0  0  0  0  0  0  0  0  0  0
  -14.9635   -7.9472   10.3301 O   0  0  0  0  0  0  0  0  0  0  0  0
  -17.3540   -8.5449    9.3225 H   0  0  0  0  0  0  0  0  0  0  0  0
  -14.8663   -8.1763    6.6838 C   0  0  0  0  0  0  0  0  0  0  0  0
  -15.4116   -7.0656    5.8754 C   0  0  0  0  0  0  0  0  0  0  0  0
  -16.7832   -6.9959    5.6768 C   0  0  0  0  0  0  0  0  0  0  0  0
  -17.2960   -5.9466    4.9511 C   0  0  0  0  0  0  0  0  0  0  0  0
  -16.4713   -4.9805    4.4272 C   0  0  0  0  0  0  0  0  0  0  0  0
  -15.1147   -5.0503    4.6235 C   0  0  0  0  0  0  0  0  0  0  0  0
  -14.5926   -6.0935    5.3476 C   0  0  0  0  0  0  0  0  0  0  0  0
 32 33  1  0  0  0
 33 34  2  0  0  0
 33 31  1  0  0  0
 31 36  1  0  0  0
 36 37  1  0  0  0
 37 38  2  0  0  0
 38 39  1  0  0  0
 39 40  2  0  0  0
 40 41  1  0  0  0
 41 42  2  0  0  0
 31 30  1  0  0  0
 30 23  1  0  0  0
 23 24  2  0  0  0
 24 25  1  0  0  0
 25 26  2  0  0  0
 26 27  1  0  0  0
 27 28  2  0  0  0
 28 29  1  0  0  0
 26  1  1  0  0  0
  1  2  2  0  0  0
  2  3  1  0  0  0
  3  4  2  0  0  0
  4  5  1  0  0  0
  5  6  2  0  0  0
  4  7  1  0  0  0
  7  8  2  0  0  0
  8 16  1  0  0  0
 16 17  1  0  0  0
 17 18  2  0  0  0
 18 19  1  0  0  0
 19 20  2  0  0  0
 20 21  1  0  0  0
 21 22  2  0  0  0
  8  9  1  0  0  0
  9 10  1  0  0  0
 10 11  2  0  0  0
 11 12  1  0  0  0
 12 13  2  0  0  0
 13 14  1  0  0  0
 14 15  2  0  0  0
 42 37  1  0  0  0
 28 23  1  0  0  0
  6  1  1  0  0  0
 15  7  1  0  0  0
 22 17  1  0  0  0
 15 10  1  0  0  0
 32 35  1  0  0  0
M  END
> <minimizedAffinity>
-10.30289

> <CNNscore>
0.2479323000

> <CNNaffinity>
7.0973076820

> <CNN_VS>
1.7596517801

> <CNNaffinity_variance>
0.0687884688

$$$$
[H]OC(=O)C([H])(Oc1c([H])c([H])c(-c2c([H])c([H])c(-c3c(C([H])([H])c4c([H])c([H])c([H])c([H])c4[H])oc4c([H])c([H])c([H])c([H])c34)c([H])c2[H])c([H])c1Br)C([H])([H])c1c([H])c([H])c([H])c([H])c1[H]


 42 47  0  0  0  0  0  0  0  0999 V2000
   -7.4850   -7.1452    7.7089 C   0  0  0  0  0  0  0  0  0  0  0  0
   -6.5622   -7.3571    8.6921 C   0  0  0  0  0  0  0  0  0  0  0  0
   -5.2582   -6.9825    8.4386 C   0  0  0  0  0  0  0  0  0  0  0  0
   -4.8031   -6.4145    7.2820 C   0  0  0  0  0  0  0  0  0  0  0  0
   -5.7661   -6.2041    6.2786 C   0  0  0  0  0  0  0  0  0  0  0  0
   -7.0605   -6.5692    6.5146 C   0  0  0  0  0  0  0  0  0  0  0  0
   -3.4378   -5.9790    7.0201 C   0  0  0  0  0  0  0  0  0  0  0  0
   -2.2749   -6.2555    7.6353 C   0  0  0  0  0  0  0  0  0  0  0  0
   -1.2774   -5.6542    6.9625 O   0  0  0  0  0  0  0  0  0  0  0  0
   -1.7394   -4.9965    5.9362 C   0  0  0  0  0  0  0  0  0  0  0  0
   -1.0969   -4.2254    4.9545 C   0  0  0  0  0  0  0  0  0  0  0  0
   -1.9008   -3.6610    3.9974 C   0  0  0  0  0  0  0  0  0  0  0  0
   -3.2687   -3.8173    3.9654 C   0  0  0  0  0  0  0  0  0  0  0  0
   -3.8748   -4.5817    4.9455 C   0  0  0  0  0  0  0  0  0  0  0  0
   -3.1058   -5.1638    5.9205 C   0  0  0  0  0  0  0  0  0  0  0  0
   -1.9959   -7.0544    8.8404 C   0  0  0  0  0  0  0  0  0  0  0  0
   -1.9812   -6.2268   10.0563 C   0  0  0  0  0  0  0  0  0  0  0  0
   -2.7735   -5.1406   10.2298 C   0  0  0  0  0  0  0  0  0  0  0  0
   -2.7284   -4.3853   11.4168 C   0  0  0  0  0  0  0  0  0  0  0  0
   -1.8671   -4.7411   12.4331 C   0  0  0  0  0  0  0  0  0  0  0  0
   -1.0628   -5.8398   12.2613 C   0  0  0  0  0  0  0  0  0  0  0  0
   -1.1042   -6.5940   11.0845 C   0  0  0  0  0  0  0  0  0  0  0  0
  -11.6775   -7.9642    8.1676 C   0  0  0  0  0  0  0  0  0  0  0  0
  -10.8470   -8.7889    7.3727 C   0  0  0  0  0  0  0  0  0  0  0  0
   -9.5071   -8.5396    7.1997 C   0  0  0  0  0  0  0  0  0  0  0  0
   -8.9148   -7.4532    7.8098 C   0  0  0  0  0  0  0  0  0  0  0  0
   -9.7334   -6.6476    8.5846 C   0  0  0  0  0  0  0  0  0  0  0  0
  -11.0918   -6.8885    8.7678 C   0  0  0  0  0  0  0  0  0  0  0  0
  -12.0508   -5.6528    9.8661 Br  0  0  0  0  0  0  0  0  0  0  0  0
  -12.9544   -8.3302    8.2450 O   0  0  0  0  0  0  0  0  0  0  0  0
  -14.1958   -7.9287    7.8646 C   0  0  0  0  0  0  0  0  0  0  0  0
  -16.4898   -8.5737    8.7588 O   0  0  0  0  0  0  0  0  0  0  0  0
  -15.1879   -8.2041    8.9751 C   0  0  0  0  0  0  0  0  0  0  0  0
  -14.8069   -8.0864   10.1700 O   0  0  0  0  0  0  0  0  0  0  0  0
  -17.2950   -8.1594    9.2262 H   0  0  0  0  0  0  0  0  0  0  0  0
  -14.6209   -8.6900    6.6106 C   0  0  0  0  0  0  0  0  0  0  0  0
  -15.3218   -7.8436    5.6224 C   0  0  0  0  0  0  0  0  0  0  0  0
  -16.3255   -8.4113    4.8503 C   0  0  0  0  0  0  0  0  0  0  0  0
  -17.0002   -7.6185    3.9521 C   0  0  0  0  0  0  0  0  0  0  0  0
  -16.6912   -6.2867    3.8143 C   0  0  0  0  0  0  0  0  0  0  0  0
  -15.6981   -5.7260    4.5778 C   0  0  0  0  0  0  0  0  0  0  0  0
  -15.0189   -6.5086    5.4785 C   0  0  0  0  0  0  0  0  0  0  0  0
 32 33  1  0  0  0
 33 34  2  0  0  0
 33 31  1  0  0  0
 31 36  1  0  0  0
 36 37  1  0  0  0
 37 38  2  0  0  0
 38 39  1  0  0  0
 39 40  2  0  0  0
 40 41  1  0  0  0
 41 42  2  0  0  0
 31 30  1  0  0  0
 30 23  1  0  0  0
 23 24  2  0  0  0
 24 25  1  0  0  0
 25 26  2  0  0  0
 26 27  1  0  0  0
 27 28  2  0  0  0
 28 29  1  0  0  0
 26  1  1  0  0  0
  1  2  2  0  0  0
  2  3  1  0  0  0
  3  4  2  0  0  0
  4  5  1  0  0  0
  5  6  2  0  0  0
  4  7  1  0  0  0
  7  8  2  0  0  0
  8 16  1  0  0  0
 16 17  1  0  0  0
 17 18  2  0  0  0
 18 19  1  0  0  0
 19 20  2  0  0  0
 20 21  1  0  0  0
 21 22  2  0  0  0
  8  9  1  0  0  0
  9 10  1  0  0  0
 10 11  2  0  0  0
 11 12  1  0  0  0
 12 13  2  0  0  0
 13 14  1  0  0  0
 14 15  2  0  0  0
 42 37  1  0  0  0
 28 23  1  0  0  0
  6  1  1  0  0  0
 15  7  1  0  0  0
 22 17  1  0  0  0
 15 10  1  0  0  0
 32 35  1  0  0  0
M  END
> <minimizedAffinity>
-8.89897

> <CNNscore>
0.2316268235

> <CNNaffinity>
6.9886779785

> <CNN_VS>
1.6187652349

> <CNNaffinity_variance>
0.0783676952

$$$$
[H]OC(=O)C([H])(Oc1c([H])c([H])c(-c2c([H])c([H])c(-c3c(C([H])([H])c4c([H])c([H])c([H])c([H])c4[H])oc4c([H])c([H])c([H])c([H])c34)c([H])c2[H])c([H])c1Br)C([H])([H])c1c([H])c([H])c([H])c([H])c1[H]


 42 47  0  0  0  0  0  0  0  0999 V2000
   -9.0006   -7.7035    7.3061 C   0  0  0  0  0  0  0  0  0  0  0  0
   -9.7691   -6.6085    7.5774 C   0  0  0  0  0  0  0  0  0  0  0  0
  -11.1310   -6.7957    7.6997 C   0  0  0  0  0  0  0  0  0  0  0  0
  -11.7858   -7.9884    7.5719 C   0  0  0  0  0  0  0  0  0  0  0  0
  -10.9799   -9.1065    7.2912 C   0  0  0  0  0  0  0  0  0  0  0  0
   -9.6306   -8.9373    7.1676 C   0  0  0  0  0  0  0  0  0  0  0  0
  -13.2170   -8.2029    7.7390 C   0  0  0  0  0  0  0  0  0  0  0  0
  -14.2015   -8.4166    6.8489 C   0  0  0  0  0  0  0  0  0  0  0  0
  -15.3500   -8.6242    7.5176 O   0  0  0  0  0  0  0  0  0  0  0  0
  -15.1574   -8.5539    8.8049 C   0  0  0  0  0  0  0  0  0  0  0  0
  -16.0363   -8.6981    9.8903 C   0  0  0  0  0  0  0  0  0  0  0  0
  -15.4910   -8.5598   11.1411 C   0  0  0  0  0  0  0  0  0  0  0  0
  -14.1583   -8.2933   11.3638 C   0  0  0  0  0  0  0  0  0  0  0  0
  -13.3158   -8.1556   10.2759 C   0  0  0  0  0  0  0  0  0  0  0  0
  -13.8222   -8.2872    9.0081 C   0  0  0  0  0  0  0  0  0  0  0  0
  -14.1721   -8.4417    5.3768 C   0  0  0  0  0  0  0  0  0  0  0  0
  -15.0160   -7.3878    4.7930 C   0  0  0  0  0  0  0  0  0  0  0  0
  -14.7780   -6.0635    4.9585 C   0  0  0  0  0  0  0  0  0  0  0  0
  -15.6110   -5.0924    4.3714 C   0  0  0  0  0  0  0  0  0  0  0  0
  -16.6953   -5.4766    3.6112 C   0  0  0  0  0  0  0  0  0  0  0  0
  -16.9401   -6.8163    3.4417 C   0  0  0  0  0  0  0  0  0  0  0  0
  -16.1154   -7.7851    4.0219 C   0  0  0  0  0  0  0  0  0  0  0  0
   -4.7204   -7.5258    6.9796 C   0  0  0  0  0  0  0  0  0  0  0  0
   -5.4945   -8.3272    6.1077 C   0  0  0  0  0  0  0  0  0  0  0  0
   -6.8626   -8.4112    6.2013 C   0  0  0  0  0  0  0  0  0  0  0  0
   -7.5409   -7.7002    7.1696 C   0  0  0  0  0  0  0  0  0  0  0  0
   -6.7776   -6.9194    8.0223 C   0  0  0  0  0  0  0  0  0  0  0  0
   -5.3916   -6.8257    7.9387 C   0  0  0  0  0  0  0  0  0  0  0  0
   -4.5202   -5.7019    9.2157 Br  0  0  0  0  0  0  0  0  0  0  0  0
   -3.4069   -7.5414    6.7683 O   0  0  0  0  0  0  0  0  0  0  0  0
   -2.3491   -6.7019    6.6148 C   0  0  0  0  0  0  0  0  0  0  0  0
   -3.1910   -4.6784    5.3209 O   0  0  0  0  0  0  0  0  0  0  0  0
   -2.5263   -5.8763    5.3577 C   0  0  0  0  0  0  0  0  0  0  0  0
   -2.0423   -6.3071    4.2775 O   0  0  0  0  0  0  0  0  0  0  0  0
   -3.8942   -4.4270    4.6275 H   0  0  0  0  0  0  0  0  0  0  0  0
   -1.0599   -7.5136    6.5054 C   0  0  0  0  0  0  0  0  0  0  0  0
   -1.2872   -8.9740    6.5029 C   0  0  0  0  0  0  0  0  0  0  0  0
   -1.4198   -9.6264    5.2853 C   0  0  0  0  0  0  0  0  0  0  0  0
   -1.6004  -10.9895    5.2791 C   0  0  0  0  0  0  0  0  0  0  0  0
   -1.6512  -11.7004    6.4539 C   0  0  0  0  0  0  0  0  0  0  0  0
   -1.5206  -11.0545    7.6578 C   0  0  0  0  0  0  0  0  0  0  0  0
   -1.3389   -9.6937    7.6750 C   0  0  0  0  0  0  0  0  0  0  0  0
 32 33  1  0  0  0
 33 34  2  0  0  0
 33 31  1  0  0  0
 31 36  1  0  0  0
 36 37  1  0  0  0
 37 38  2  0  0  0
 38 39  1  0  0  0
 39 40  2  0  0  0
 40 41  1  0  0  0
 41 42  2  0  0  0
 31 30  1  0  0  0
 30 23  1  0  0  0
 23 24  2  0  0  0
 24 25  1  0  0  0
 25 26  2  0  0  0
 26 27  1  0  0  0
 27 28  2  0  0  0
 28 29  1  0  0  0
 26  1  1  0  0  0
  1  2  2  0  0  0
  2  3  1  0  0  0
  3  4  2  0  0  0
  4  5  1  0  0  0
  5  6  2  0  0  0
  4  7  1  0  0  0
  7  8  2  0  0  0
  8 16  1  0  0  0
 16 17  1  0  0  0
 17 18  2  0  0  0
 18 19  1  0  0  0
 19 20  2  0  0  0
 20 21  1  0  0  0
 21 22  2  0  0  0
  8  9  1  0  0  0
  9 10  1  0  0  0
 10 11  2  0  0  0
 11 12  1  0  0  0
 12 13  2  0  0  0
 13 14  1  0  0  0
 14 15  2  0  0  0
 42 37  1  0  0  0
 28 23  1  0  0  0
  6  1  1  0  0  0
 15  7  1  0  0  0
 22 17  1  0  0  0
 15 10  1  0  0  0
 32 35  1  0  0  0
M  END
> <minimizedAffinity>
-6.36421

> <CNNscore>
0.2312929481

> <CNNaffinity>
7.0400443077

> <CNN_VS>
1.6283125877

> <CNNaffinity_variance>
0.1198083386

$$$$
[H]c1nc(N([H])c2c([H])c([H])c(N3C([H])([H])C([H])([H])C([H])(N4C([H])([H])C([H])([H])N(C([H])([H])[H])C([H])([H])C4([H])[H])C([H])([H])C3([H])[H])c([H])c2OC([H])([H])[H])nc(N([H])c2c([H])c([H])c([H])c([H])c2S(=O)(=O)C([H])(C([H])([H])[H])C([H])([H])[H])c1Cl


 44 48  0  0  0  0  0  0  0  0999 V2000
   -4.7503    1.0562    4.6402 N   0  0  0  0  0  0  0  0  0  0  0  0
   -5.7398    0.6180    4.6414 H   0  0  0  0  0  0  0  0  0  0  0  0
   -4.2616    1.4939    3.3808 C   0  0  0  0  0  0  0  0  0  0  0  0
   -3.6095    2.6342    3.1404 N   0  0  0  0  0  0  0  0  0  0  0  0
   -3.1736    2.9857    1.9243 C   0  0  0  0  0  0  0  0  0  0  0  0
   -3.3924    2.1538    0.8513 C   0  0  0  0  0  0  0  0  0  0  0  0
   -2.8262    2.5994   -0.7554 Cl  0  0  0  0  0  0  0  0  0  0  0  0
   -4.0790    0.9431    1.0784 C   0  0  0  0  0  0  0  0  0  0  0  0
   -4.4733    0.6828    2.3265 N   0  0  0  0  0  0  0  0  0  0  0  0
   -4.2875    0.1116   -0.0327 N   0  0  0  0  0  0  0  0  0  0  0  0
   -4.7163   -0.8433    0.2026 H   0  0  0  0  0  0  0  0  0  0  0  0
   -4.0368    0.3030   -1.3998 C   0  0  0  0  0  0  0  0  0  0  0  0
   -4.9016    1.0611   -2.1604 C   0  0  0  0  0  0  0  0  0  0  0  0
   -4.6662    1.2601   -3.5269 C   0  0  0  0  0  0  0  0  0  0  0  0
   -3.5672    0.6928   -4.0987 C   0  0  0  0  0  0  0  0  0  0  0  0
   -2.7055   -0.0634   -3.3367 C   0  0  0  0  0  0  0  0  0  0  0  0
   -2.9114   -0.2741   -1.9984 C   0  0  0  0  0  0  0  0  0  0  0  0
   -1.8277   -1.2179   -1.0629 S   0  0  0  0  0  0  0  0  0  0  0  0
   -2.5634   -1.8509    0.0914 O   0  0  0  0  0  0  0  0  0  0  0  0
   -0.6577   -0.4591   -0.5020 O   0  0  0  0  0  0  0  0  0  0  0  0
   -1.1262   -2.5709   -1.9879 C   0  0  0  0  0  0  0  0  0  0  0  0
   -0.3101   -3.4546   -1.1015 C   0  0  0  0  0  0  0  0  0  0  0  0
   -2.1153   -3.2731   -2.8571 C   0  0  0  0  0  0  0  0  0  0  0  0
   -3.2164    0.0871    6.2150 C   0  0  0  0  0  0  0  0  0  0  0  0
   -2.5548    0.0691    7.4292 C   0  0  0  0  0  0  0  0  0  0  0  0
   -2.7486    1.0494    8.3768 C   0  0  0  0  0  0  0  0  0  0  0  0
   -3.6354    2.0458    8.0483 C   0  0  0  0  0  0  0  0  0  0  0  0
   -4.3209    2.0941    6.8304 C   0  0  0  0  0  0  0  0  0  0  0  0
   -4.1237    1.1143    5.8901 C   0  0  0  0  0  0  0  0  0  0  0  0
   -2.0514    1.0211    9.6252 N   0  0  0  0  0  0  0  0  0  0  0  0
   -0.8193    1.7252    9.7278 C   0  0  0  0  0  0  0  0  0  0  0  0
   -0.3102    1.9621   11.1219 C   0  0  0  0  0  0  0  0  0  0  0  0
   -0.4435    0.7899   12.0348 C   0  0  0  0  0  0  0  0  0  0  0  0
   -1.3946   -0.2659   11.5078 C   0  0  0  0  0  0  0  0  0  0  0  0
   -2.5588    0.2994   10.7674 C   0  0  0  0  0  0  0  0  0  0  0  0
   -0.7449    1.0480   13.3862 N   0  0  0  0  0  0  0  0  0  0  0  0
   -0.4649    2.3120   13.9276 C   0  0  0  0  0  0  0  0  0  0  0  0
   -0.5082    2.2366   15.4565 C   0  0  0  0  0  0  0  0  0  0  0  0
   -1.6843    1.4744   15.8283 N   0  0  0  0  0  0  0  0  0  0  0  0
   -2.9195    2.1548   15.6035 C   0  0  0  0  0  0  0  0  0  0  0  0
   -1.6385    0.1159   15.3927 C   0  0  0  0  0  0  0  0  0  0  0  0
   -0.5678   -0.0239   14.3126 C   0  0  0  0  0  0  0  0  0  0  0  0
   -3.9394   -1.9460    5.1467 C   0  0  0  0  0  0  0  0  0  0  0  0
   -2.9742   -0.9316    5.3065 O   0  0  0  0  0  0  0  0  0  0  0  0
 43 44  1  0  0  0
 44 24  1  0  0  0
 24 25  2  0  0  0
 25 26  1  0  0  0
 26 27  2  0  0  0
 27 28  1  0  0  0
 28 29  2  0  0  0
 29  1  1  0  0  0
  1  3  1  0  0  0
  3  4  2  0  0  0
  4  5  1  0  0  0
  5  6  2  0  0  0
  6  7  1  0  0  0
  6  8  1  0  0  0
  8 10  1  0  0  0
 10 12  1  0  0  0
 12 13  2  0  0  0
 13 14  1  0  0  0
 14 15  2  0  0  0
 15 16  1  0  0  0
 16 17  2  0  0  0
 17 18  1  0  0  0
 18 19  2  0  0  0
 18 20  2  0  0  0
 18 21  1  0  0  0
 21 22  1  0  0  0
 21 23  1  0  0  0
  8  9  2  0  0  0
 26 30  1  0  0  0
 30 31  1  0  0  0
 31 32  1  0  0  0
 32 33  1  0  0  0
 33 34  1  0  0  0
 34 35  1  0  0  0
 33 36  1  0  0  0
 36 37  1  0  0  0
 37 38  1  0  0  0
 38 39  1  0  0  0
 39 40  1  0  0  0
 39 41  1  0  0  0
 41 42  1  0  0  0
 29 24  1  0  0  0
  9  3  1  0  0  0
 35 30  1  0  0  0
 42 36  1  0  0  0
 17 12  1  0  0  0
  1  2  1  0  0  0
 10 11  1  0  0  0
M  END
> <minimizedAffinity>
-2.63576

> <CNNscore>
0.4953829944

> <CNNaffinity>
6.4014029503

> <CNN_VS>
3.1711461544

> <CNNaffinity_variance>
0.9520605206

$$$$
[H]c1nc(N([H])c2c([H])c([H])c(N3C([H])([H])C([H])([H])C([H])(N4C([H])([H])C([H])([H])N(C([H])([H])[H])C([H])([H])C4([H])[H])C([H])([H])C3([H])[H])c([H])c2OC([H])([H])[H])nc(N([H])c2c([H])c([H])c([H])c([H])c2S(=O)(=O)C([H])(C([H])([H])[H])C([H])([H])[H])c1Cl


 44 48  0  0  0  0  0  0  0  0999 V2000
   -4.7696    1.0468    4.5922 N   0  0  0  0  0  0  0  0  0  0  0  0
   -5.7957    0.7030    4.6015 H   0  0  0  0  0  0  0  0  0  0  0  0
   -4.2292    1.3684    3.3190 C   0  0  0  0  0  0  0  0  0  0  0  0
   -3.5695    2.4850    3.0010 N   0  0  0  0  0  0  0  0  0  0  0  0
   -3.0834    2.7245    1.7767 C   0  0  0  0  0  0  0  0  0  0  0  0
   -3.2557    1.7954    0.7775 C   0  0  0  0  0  0  0  0  0  0  0  0
   -2.6233    2.0930   -0.8387 Cl  0  0  0  0  0  0  0  0  0  0  0  0
   -3.9493    0.6072    1.0874 C   0  0  0  0  0  0  0  0  0  0  0  0
   -4.3952    0.4618    2.3368 N   0  0  0  0  0  0  0  0  0  0  0  0
   -4.1097   -0.3250    0.0507 N   0  0  0  0  0  0  0  0  0  0  0  0
   -4.7232   -1.1679    0.3037 H   0  0  0  0  0  0  0  0  0  0  0  0
   -3.6122   -0.3546   -1.2608 C   0  0  0  0  0  0  0  0  0  0  0  0
   -2.3301   -0.8007   -1.5025 C   0  0  0  0  0  0  0  0  0  0  0  0
   -1.8181   -0.8347   -2.8059 C   0  0  0  0  0  0  0  0  0  0  0  0
   -2.6057   -0.4197   -3.8375 C   0  0  0  0  0  0  0  0  0  0  0  0
   -3.8854    0.0249   -3.5931 C   0  0  0  0  0  0  0  0  0  0  0  0
   -4.4114    0.0687   -2.3285 C   0  0  0  0  0  0  0  0  0  0  0  0
   -6.0079    0.6242   -2.0410 S   0  0  0  0  0  0  0  0  0  0  0  0
   -6.1256    1.1391   -0.6284 O   0  0  0  0  0  0  0  0  0  0  0  0
   -7.0789   -0.4108   -2.2440 O   0  0  0  0  0  0  0  0  0  0  0  0
   -6.4549    1.9931   -3.0920 C   0  0  0  0  0  0  0  0  0  0  0  0
   -7.8074    2.5184   -2.7350 C   0  0  0  0  0  0  0  0  0  0  0  0
   -5.3810    3.0216   -3.2178 C   0  0  0  0  0  0  0  0  0  0  0  0
   -3.2914    0.0608    6.2092 C   0  0  0  0  0  0  0  0  0  0  0  0
   -2.6428    0.0497    7.4304 C   0  0  0  0  0  0  0  0  0  0  0  0
   -2.8059    1.0628    8.3489 C   0  0  0  0  0  0  0  0  0  0  0  0
   -3.6484    2.0846    7.9839 C   0  0  0  0  0  0  0  0  0  0  0  0
   -4.3196    2.1267    6.7579 C   0  0  0  0  0  0  0  0  0  0  0  0
   -4.1532    1.1142    5.8467 C   0  0  0  0  0  0  0  0  0  0  0  0
   -2.1224    1.0411    9.6050 N   0  0  0  0  0  0  0  0  0  0  0  0
   -0.8468    1.6652    9.6917 C   0  0  0  0  0  0  0  0  0  0  0  0
   -0.3344    1.9264   11.0803 C   0  0  0  0  0  0  0  0  0  0  0  0
   -0.5536    0.8055   12.0398 C   0  0  0  0  0  0  0  0  0  0  0  0
   -1.5690   -0.2059   11.5468 C   0  0  0  0  0  0  0  0  0  0  0  0
   -2.6865    0.4039   10.7707 C   0  0  0  0  0  0  0  0  0  0  0  0
   -0.8481    1.1402   13.3758 N   0  0  0  0  0  0  0  0  0  0  0  0
   -0.4562    2.3908   13.8776 C   0  0  0  0  0  0  0  0  0  0  0  0
   -0.5282    2.3756   15.4071 C   0  0  0  0  0  0  0  0  0  0  0  0
   -1.7770    1.7427   15.7846 N   0  0  0  0  0  0  0  0  0  0  0  0
   -2.9382    2.5288   15.5144 C   0  0  0  0  0  0  0  0  0  0  0  0
   -1.8551    0.3711   15.3976 C   0  0  0  0  0  0  0  0  0  0  0  0
   -0.7875    0.0908   14.3420 C   0  0  0  0  0  0  0  0  0  0  0  0
   -4.0915   -1.9629    5.1785 C   0  0  0  0  0  0  0  0  0  0  0  0
   -3.0819   -0.9916    5.3314 O   0  0  0  0  0  0  0  0  0  0  0  0
 43 44  1  0  0  0
 44 24  1  0  0  0
 24 25  2  0  0  0
 25 26  1  0  0  0
 26 27  2  0  0  0
 27 28  1  0  0  0
 28 29  2  0  0  0
 29  1  1  0  0  0
  1  3  1  0  0  0
  3  4  2  0  0  0
  4  5  1  0  0  0
  5  6  2  0  0  0
  6  7  1  0  0  0
  6  8  1  0  0  0
  8 10  1  0  0  0
 10 12  1  0  0  0
 12 13  2  0  0  0
 13 14  1  0  0  0
 14 15  2  0  0  0
 15 16  1  0  0  0
 16 17  2  0  0  0
 17 18  1  0  0  0
 18 19  2  0  0  0
 18 20  2  0  0  0
 18 21  1  0  0  0
 21 22  1  0  0  0
 21 23  1  0  0  0
  8  9  2  0  0  0
 26 30  1  0  0  0
 30 31  1  0  0  0
 31 32  1  0  0  0
 32 33  1  0  0  0
 33 34  1  0  0  0
 34 35  1  0  0  0
 33 36  1  0  0  0
 36 37  1  0  0  0
 37 38  1  0  0  0
 38 39  1  0  0  0
 39 40  1  0  0  0
 39 41  1  0  0  0
 41 42  1  0  0  0
 29 24  1  0  0  0
  9  3  1  0  0  0
 35 30  1  0  0  0
 42 36  1  0  0  0
 17 12  1  0  0  0
  1  2  1  0  0  0
 10 11  1  0  0  0
M  END
> <minimizedAffinity>
-2.80725

> <CNNscore>
0.4270205796

> <CNNaffinity>
6.2122659683

> <CNN_VS>
2.6527655125

> <CNNaffinity_variance>
0.6730067730

$$$$
[H]c1nc(N([H])c2c([H])c([H])c(N3C([H])([H])C([H])([H])C([H])(N4C([H])([H])C([H])([H])N(C([H])([H])[H])C([H])([H])C4([H])[H])C([H])([H])C3([H])[H])c([H])c2OC([H])([H])[H])nc(N([H])c2c([H])c([H])c([H])c([H])c2S(=O)(=O)C([H])(C([H])([H])[H])C([H])([H])[H])c1Cl


 44 48  0  0  0  0  0  0  0  0999 V2000
   -6.3746   -7.2112    8.4811 N   0  0  0  0  0  0  0  0  0  0  0  0
   -6.1701   -7.1918    9.5437 H   0  0  0  0  0  0  0  0  0  0  0  0
   -7.4539   -8.0358    8.0669 C   0  0  0  0  0  0  0  0  0  0  0  0
   -7.3660   -9.3039    7.6576 N   0  0  0  0  0  0  0  0  0  0  0  0
   -8.4282  -10.0266    7.2809 C   0  0  0  0  0  0  0  0  0  0  0  0
   -9.6830   -9.4644    7.3058 C   0  0  0  0  0  0  0  0  0  0  0  0
  -11.0916  -10.3997    6.8141 Cl  0  0  0  0  0  0  0  0  0  0  0  0
   -9.8031   -8.1262    7.7342 C   0  0  0  0  0  0  0  0  0  0  0  0
   -8.6850   -7.4900    8.0893 N   0  0  0  0  0  0  0  0  0  0  0  0
  -11.0944   -7.5770    7.7521 N   0  0  0  0  0  0  0  0  0  0  0  0
  -11.6615   -7.7489    6.8577 H   0  0  0  0  0  0  0  0  0  0  0  0
  -11.7808   -6.8421    8.7304 C   0  0  0  0  0  0  0  0  0  0  0  0
  -11.0956   -5.9571    9.5358 C   0  0  0  0  0  0  0  0  0  0  0  0
  -11.7662   -5.2173   10.5184 C   0  0  0  0  0  0  0  0  0  0  0  0
  -13.1101   -5.3833   10.6699 C   0  0  0  0  0  0  0  0  0  0  0  0
  -13.7914   -6.2674    9.8643 C   0  0  0  0  0  0  0  0  0  0  0  0
  -13.1609   -7.0036    8.8955 C   0  0  0  0  0  0  0  0  0  0  0  0
  -14.0243   -8.0999    7.8993 S   0  0  0  0  0  0  0  0  0  0  0  0
  -15.4967   -8.0328    8.2181 O   0  0  0  0  0  0  0  0  0  0  0  0
  -13.5920   -9.5343    8.0225 O   0  0  0  0  0  0  0  0  0  0  0  0
  -13.8874   -7.7023    6.1668 C   0  0  0  0  0  0  0  0  0  0  0  0
  -14.2144   -8.8899    5.3209 C   0  0  0  0  0  0  0  0  0  0  0  0
  -14.5828   -6.4368    5.7903 C   0  0  0  0  0  0  0  0  0  0  0  0
   -4.6336   -5.5595    8.3669 C   0  0  0  0  0  0  0  0  0  0  0  0
   -3.7673   -4.7383    7.6688 C   0  0  0  0  0  0  0  0  0  0  0  0
   -3.7396   -4.7143    6.2922 C   0  0  0  0  0  0  0  0  0  0  0  0
   -4.6204   -5.5516    5.6516 C   0  0  0  0  0  0  0  0  0  0  0  0
   -5.5094   -6.3940    6.3265 C   0  0  0  0  0  0  0  0  0  0  0  0
   -5.5324   -6.4135    7.6984 C   0  0  0  0  0  0  0  0  0  0  0  0
   -2.8326   -3.8649    5.5841 N   0  0  0  0  0  0  0  0  0  0  0  0
   -1.5228   -4.3502    5.3138 C   0  0  0  0  0  0  0  0  0  0  0  0
   -0.7380   -3.5886    4.2828 C   0  0  0  0  0  0  0  0  0  0  0  0
   -0.8493   -2.1053    4.3945 C   0  0  0  0  0  0  0  0  0  0  0  0
   -2.0093   -1.6624    5.2636 C   0  0  0  0  0  0  0  0  0  0  0  0
   -3.2081   -2.5414    5.1478 C   0  0  0  0  0  0  0  0  0  0  0  0
   -0.8594   -1.3612    3.1987 N   0  0  0  0  0  0  0  0  0  0  0  0
   -0.6527   -2.0164    1.9751 C   0  0  0  0  0  0  0  0  0  0  0  0
   -0.3230   -0.9867    0.8907 C   0  0  0  0  0  0  0  0  0  0  0  0
   -1.2504    0.1186    1.0341 N   0  0  0  0  0  0  0  0  0  0  0  0
   -2.5916   -0.1874    0.6508 C   0  0  0  0  0  0  0  0  0  0  0  0
   -1.1050    0.8219    2.2676 C   0  0  0  0  0  0  0  0  0  0  0  0
   -0.3103   -0.0439    3.2429 C   0  0  0  0  0  0  0  0  0  0  0  0
   -4.0429   -4.4189   10.4034 C   0  0  0  0  0  0  0  0  0  0  0  0
   -4.6087   -5.5335    9.7527 O   0  0  0  0  0  0  0  0  0  0  0  0
 43 44  1  0  0  0
 44 24  1  0  0  0
 24 25  2  0  0  0
 25 26  1  0  0  0
 26 27  2  0  0  0
 27 28  1  0  0  0
 28 29  2  0  0  0
 29  1  1  0  0  0
  1  3  1  0  0  0
  3  4  2  0  0  0
  4  5  1  0  0  0
  5  6  2  0  0  0
  6  7  1  0  0  0
  6  8  1  0  0  0
  8 10  1  0  0  0
 10 12  1  0  0  0
 12 13  2  0  0  0
 13 14  1  0  0  0
 14 15  2  0  0  0
 15 16  1  0  0  0
 16 17  2  0  0  0
 17 18  1  0  0  0
 18 19  2  0  0  0
 18 20  2  0  0  0
 18 21  1  0  0  0
 21 22  1  0  0  0
 21 23  1  0  0  0
  8  9  2  0  0  0
 26 30  1  0  0  0
 30 31  1  0  0  0
 31 32  1  0  0  0
 32 33  1  0  0  0
 33 34  1  0  0  0
 34 35  1  0  0  0
 33 36  1  0  0  0
 36 37  1  0  0  0
 37 38  1  0  0  0
 38 39  1  0  0  0
 39 40  1  0  0  0
 39 41  1  0  0  0
 41 42  1  0  0  0
 29 24  1  0  0  0
  9  3  1  0  0  0
 35 30  1  0  0  0
 42 36  1  0  0  0
 17 12  1  0  0  0
  1  2  1  0  0  0
 10 11  1  0  0  0
M  END
> <minimizedAffinity>
-8.43430

> <CNNscore>
0.3596991301

> <CNNaffinity>
7.2206244469

> <CNN_VS>
2.5972523689

> <CNNaffinity_variance>
0.0801813230

$$$$
[H]c1nc(N([H])c2c([H])c([H])c(N3C([H])([H])C([H])([H])C([H])(N4C([H])([H])C([H])([H])N(C([H])([H])[H])C([H])([H])C4([H])[H])C([H])([H])C3([H])[H])c([H])c2OC([H])([H])[H])nc(N([H])c2c([H])c([H])c([H])c([H])c2S(=O)(=O)C([H])(C([H])([H])[H])C([H])([H])[H])c1Cl


 44 48  0  0  0  0  0  0  0  0999 V2000
   -4.7550    1.3058    5.4290 N   0  0  0  0  0  0  0  0  0  0  0  0
   -5.7565    1.6288    5.6816 H   0  0  0  0  0  0  0  0  0  0  0  0
   -4.2433    1.7677    4.1875 C   0  0  0  0  0  0  0  0  0  0  0  0
   -3.2678    2.6643    4.0208 N   0  0  0  0  0  0  0  0  0  0  0  0
   -2.8312    3.0554    2.8171 C   0  0  0  0  0  0  0  0  0  0  0  0
   -3.3941    2.5268    1.6792 C   0  0  0  0  0  0  0  0  0  0  0  0
   -2.8327    3.0291    0.0876 Cl  0  0  0  0  0  0  0  0  0  0  0  0
   -4.4265    1.5777    1.8279 C   0  0  0  0  0  0  0  0  0  0  0  0
   -4.7912    1.2531    3.0699 N   0  0  0  0  0  0  0  0  0  0  0  0
   -4.9825    1.0524    0.6513 N   0  0  0  0  0  0  0  0  0  0  0  0
   -5.0365   -0.0188    0.6265 H   0  0  0  0  0  0  0  0  0  0  0  0
   -5.4826    1.6757   -0.5019 C   0  0  0  0  0  0  0  0  0  0  0  0
   -6.3027    2.7785   -0.3896 C   0  0  0  0  0  0  0  0  0  0  0  0
   -6.8116    3.4109   -1.5313 C   0  0  0  0  0  0  0  0  0  0  0  0
   -6.4853    2.9212   -2.7602 C   0  0  0  0  0  0  0  0  0  0  0  0
   -5.6662    1.8202   -2.8691 C   0  0  0  0  0  0  0  0  0  0  0  0
   -5.1545    1.1823   -1.7694 C   0  0  0  0  0  0  0  0  0  0  0  0
   -4.1345   -0.1875   -1.9221 S   0  0  0  0  0  0  0  0  0  0  0  0
   -4.6824   -1.3293   -1.1034 O   0  0  0  0  0  0  0  0  0  0  0  0
   -2.7102    0.0399   -1.4989 O   0  0  0  0  0  0  0  0  0  0  0  0
   -4.0490   -0.7926   -3.5969 C   0  0  0  0  0  0  0  0  0  0  0  0
   -2.8365   -1.6433   -3.7940 C   0  0  0  0  0  0  0  0  0  0  0  0
   -5.3310   -1.3823   -4.0823 C   0  0  0  0  0  0  0  0  0  0  0  0
   -3.7051    1.0819    7.5784 C   0  0  0  0  0  0  0  0  0  0  0  0
   -3.0857    0.3416    8.5686 C   0  0  0  0  0  0  0  0  0  0  0  0
   -2.8618   -1.0103    8.4325 C   0  0  0  0  0  0  0  0  0  0  0  0
   -3.2881   -1.5821    7.2584 C   0  0  0  0  0  0  0  0  0  0  0  0
   -3.9172   -0.8630    6.2372 C   0  0  0  0  0  0  0  0  0  0  0  0
   -4.1375    0.4840    6.3786 C   0  0  0  0  0  0  0  0  0  0  0  0
   -2.2266   -1.7641    9.4687 N   0  0  0  0  0  0  0  0  0  0  0  0
   -1.2310   -1.1235   10.2578 C   0  0  0  0  0  0  0  0  0  0  0  0
   -0.8527   -1.8208   11.5343 C   0  0  0  0  0  0  0  0  0  0  0  0
   -0.7010   -3.2994   11.4079 C   0  0  0  0  0  0  0  0  0  0  0  0
   -1.3174   -3.8514   10.1381 C   0  0  0  0  0  0  0  0  0  0  0  0
   -2.5633   -3.1437    9.7259 C   0  0  0  0  0  0  0  0  0  0  0  0
   -1.1077   -4.0913   12.4992 N   0  0  0  0  0  0  0  0  0  0  0  0
   -1.6238   -5.3755   12.2671 C   0  0  0  0  0  0  0  0  0  0  0  0
   -2.3412   -5.8753   13.5242 C   0  0  0  0  0  0  0  0  0  0  0  0
   -1.4992   -5.5700   14.6645 N   0  0  0  0  0  0  0  0  0  0  0  0
   -0.3170   -6.3664   14.7508 C   0  0  0  0  0  0  0  0  0  0  0  0
   -1.3183   -4.1699   14.8747 C   0  0  0  0  0  0  0  0  0  0  0  0
   -1.7149   -3.4211   13.6040 C   0  0  0  0  0  0  0  0  0  0  0  0
   -3.0999    3.1081    8.7298 C   0  0  0  0  0  0  0  0  0  0  0  0
   -3.8992    2.4395    7.7811 O   0  0  0  0  0  0  0  0  0  0  0  0
 43 44  1  0  0  0
 44 24  1  0  0  0
 24 25  2  0  0  0
 25 26  1  0  0  0
 26 27  2  0  0  0
 27 28  1  0  0  0
 28 29  2  0  0  0
 29  1  1  0  0  0
  1  3  1  0  0  0
  3  4  2  0  0  0
  4  5  1  0  0  0
  5  6  2  0  0  0
  6  7  1  0  0  0
  6  8  1  0  0  0
  8 10  1  0  0  0
 10 12  1  0  0  0
 12 13  2  0  0  0
 13 14  1  0  0  0
 14 15  2  0  0  0
 15 16  1  0  0  0
 16 17  2  0  0  0
 17 18  1  0  0  0
 18 19  2  0  0  0
 18 20  2  0  0  0
 18 21  1  0  0  0
 21 22  1  0  0  0
 21 23  1  0  0  0
  8  9  2  0  0  0
 26 30  1  0  0  0
 30 31  1  0  0  0
 31 32  1  0  0  0
 32 33  1  0  0  0
 33 34  1  0  0  0
 34 35  1  0  0  0
 33 36  1  0  0  0
 36 37  1  0  0  0
 37 38  1  0  0  0
 38 39  1  0  0  0
 39 40  1  0  0  0
 39 41  1  0  0  0
 41 42  1  0  0  0
 29 24  1  0  0  0
  9  3  1  0  0  0
 35 30  1  0  0  0
 42 36  1  0  0  0
 17 12  1  0  0  0
  1  2  1  0  0  0
 10 11  1  0  0  0
M  END
> <minimizedAffinity>
-3.15361

> <CNNscore>
0.3371627331

> <CNNaffinity>
6.1073937416

> <CNN_VS>
2.0591855049

> <CNNaffinity_variance>
0.5749549866

$$$$
[H]c1nc(N([H])c2c([H])c([H])c(N3C([H])([H])C([H])([H])C([H])(N4C([H])([H])C([H])([H])N(C([H])([H])[H])C([H])([H])C4([H])[H])C([H])([H])C3([H])[H])c([H])c2OC([H])([H])[H])nc(N([H])c2c([H])c([H])c([H])c([H])c2S(=O)(=O)C([H])(C([H])([H])[H])C([H])([H])[H])c1Cl


 44 48  0  0  0  0  0  0  0  0999 V2000
  -11.9595   -9.8758    7.8999 N   0  0  0  0  0  0  0  0  0  0  0  0
  -11.9657  -10.9326    8.1330 H   0  0  0  0  0  0  0  0  0  0  0  0
  -13.2255   -9.2331    7.8758 C   0  0  0  0  0  0  0  0  0  0  0  0
  -14.0388   -9.0529    8.9195 N   0  0  0  0  0  0  0  0  0  0  0  0
  -15.2227   -8.4347    8.8266 C   0  0  0  0  0  0  0  0  0  0  0  0
  -15.6495   -7.9511    7.6120 C   0  0  0  0  0  0  0  0  0  0  0  0
  -17.2035   -7.1352    7.4707 Cl  0  0  0  0  0  0  0  0  0  0  0  0
  -14.8090   -8.1287    6.4936 C   0  0  0  0  0  0  0  0  0  0  0  0
  -13.6482   -8.7577    6.6887 N   0  0  0  0  0  0  0  0  0  0  0  0
  -15.2670   -7.6244    5.2667 N   0  0  0  0  0  0  0  0  0  0  0  0
  -15.5907   -8.3752    4.5721 H   0  0  0  0  0  0  0  0  0  0  0  0
  -15.3791   -6.3125    4.7822 C   0  0  0  0  0  0  0  0  0  0  0  0
  -14.3756   -5.3988    5.0258 C   0  0  0  0  0  0  0  0  0  0  0  0
  -14.4734   -4.0848    4.5504 C   0  0  0  0  0  0  0  0  0  0  0  0
  -15.5774   -3.7180    3.8409 C   0  0  0  0  0  0  0  0  0  0  0  0
  -16.5775   -4.6325    3.5991 C   0  0  0  0  0  0  0  0  0  0  0  0
  -16.5078   -5.9239    4.0521 C   0  0  0  0  0  0  0  0  0  0  0  0
  -17.7618   -7.0513    3.7413 S   0  0  0  0  0  0  0  0  0  0  0  0
  -17.8294   -7.3497    2.2647 O   0  0  0  0  0  0  0  0  0  0  0  0
  -19.1282   -6.6083    4.1841 O   0  0  0  0  0  0  0  0  0  0  0  0
  -17.4822   -8.6214    4.5382 C   0  0  0  0  0  0  0  0  0  0  0  0
  -18.7508   -9.1570    5.1181 C   0  0  0  0  0  0  0  0  0  0  0  0
  -16.7040   -9.5822    3.7027 C   0  0  0  0  0  0  0  0  0  0  0  0
  -10.4404   -8.0323    8.1567 C   0  0  0  0  0  0  0  0  0  0  0  0
   -9.2171   -7.4165    7.9653 C   0  0  0  0  0  0  0  0  0  0  0  0
   -8.1913   -8.0341    7.2851 C   0  0  0  0  0  0  0  0  0  0  0  0
   -8.4510   -9.2958    6.8079 C   0  0  0  0  0  0  0  0  0  0  0  0
   -9.6760   -9.9470    6.9836 C   0  0  0  0  0  0  0  0  0  0  0  0
  -10.6946   -9.3264    7.6621 C   0  0  0  0  0  0  0  0  0  0  0  0
   -6.9290   -7.3872    7.1015 N   0  0  0  0  0  0  0  0  0  0  0  0
   -6.5492   -7.0069    5.7842 C   0  0  0  0  0  0  0  0  0  0  0  0
   -5.4074   -6.0349    5.6827 C   0  0  0  0  0  0  0  0  0  0  0  0
   -4.2724   -6.3176    6.6084 C   0  0  0  0  0  0  0  0  0  0  0  0
   -4.6401   -7.2809    7.7192 C   0  0  0  0  0  0  0  0  0  0  0  0
   -6.0400   -7.1195    8.2065 C   0  0  0  0  0  0  0  0  0  0  0  0
   -3.5930   -5.2148    7.1614 N   0  0  0  0  0  0  0  0  0  0  0  0
   -3.4926   -5.0930    8.5558 C   0  0  0  0  0  0  0  0  0  0  0  0
   -3.0727   -3.6655    8.9176 C   0  0  0  0  0  0  0  0  0  0  0  0
   -1.9975   -3.2812    8.0239 N   0  0  0  0  0  0  0  0  0  0  0  0
   -0.7598   -3.9480    8.2745 C   0  0  0  0  0  0  0  0  0  0  0  0
   -2.3971   -3.2129    6.6554 C   0  0  0  0  0  0  0  0  0  0  0  0
   -3.7162   -3.9636    6.4847 C   0  0  0  0  0  0  0  0  0  0  0  0
  -11.1049   -6.1367    9.4843 C   0  0  0  0  0  0  0  0  0  0  0  0
  -11.4295   -7.3530    8.8509 O   0  0  0  0  0  0  0  0  0  0  0  0
 43 44  1  0  0  0
 44 24  1  0  0  0
 24 25  2  0  0  0
 25 26  1  0  0  0
 26 27  2  0  0  0
 27 28  1  0  0  0
 28 29  2  0  0  0
 29  1  1  0  0  0
  1  3  1  0  0  0
  3  4  2  0  0  0
  4  5  1  0  0  0
  5  6  2  0  0  0
  6  7  1  0  0  0
  6  8  1  0  0  0
  8 10  1  0  0  0
 10 12  1  0  0  0
 12 13  2  0  0  0
 13 14  1  0  0  0
 14 15  2  0  0  0
 15 16  1  0  0  0
 16 17  2  0  0  0
 17 18  1  0  0  0
 18 19  2  0  0  0
 18 20  2  0  0  0
 18 21  1  0  0  0
 21 22  1  0  0  0
 21 23  1  0  0  0
  8  9  2  0  0  0
 26 30  1  0  0  0
 30 31  1  0  0  0
 31 32  1  0  0  0
 32 33  1  0  0  0
 33 34  1  0  0  0
 34 35  1  0  0  0
 33 36  1  0  0  0
 36 37  1  0  0  0
 37 38  1  0  0  0
 38 39  1  0  0  0
 39 40  1  0  0  0
 39 41  1  0  0  0
 41 42  1  0  0  0
 29 24  1  0  0  0
  9  3  1  0  0  0
 35 30  1  0  0  0
 42 36  1  0  0  0
 17 12  1  0  0  0
  1  2  1  0  0  0
 10 11  1  0  0  0
M  END
> <minimizedAffinity>
-8.35005

> <CNNscore>
0.2464750260

> <CNNaffinity>
7.7619657516

> <CNN_VS>
1.9131307602

> <CNNaffinity_variance>
0.1920362860

$$$$
[H]c1nc(N([H])c2c([H])c([H])c(N3C([H])([H])C([H])([H])C([H])(N4C([H])([H])C([H])([H])N(C([H])([H])[H])C([H])([H])C4([H])[H])C([H])([H])C3([H])[H])c([H])c2OC([H])([H])[H])nc(N([H])c2c([H])c([H])c([H])c([H])c2S(=O)(=O)C([H])(C([H])([H])[H])C([H])([H])[H])c1Cl


 44 48  0  0  0  0  0  0  0  0999 V2000
  -11.4619   -9.8862    8.0803 N   0  0  0  0  0  0  0  0  0  0  0  0
  -11.4040  -10.9228    8.3856 H   0  0  0  0  0  0  0  0  0  0  0  0
  -12.7641   -9.3228    8.0229 C   0  0  0  0  0  0  0  0  0  0  0  0
  -13.4492   -8.8131    9.0496 N   0  0  0  0  0  0  0  0  0  0  0  0
  -14.6772   -8.2945    8.9246 C   0  0  0  0  0  0  0  0  0  0  0  0
  -15.2888   -8.2710    7.6931 C   0  0  0  0  0  0  0  0  0  0  0  0
  -16.9034   -7.5927    7.5096 Cl  0  0  0  0  0  0  0  0  0  0  0  0
  -14.5864   -8.8032    6.5922 C   0  0  0  0  0  0  0  0  0  0  0  0
  -13.3676   -9.2973    6.8191 N   0  0  0  0  0  0  0  0  0  0  0  0
  -15.2319   -8.7653    5.3467 N   0  0  0  0  0  0  0  0  0  0  0  0
  -14.7237   -9.2998    4.5677 H   0  0  0  0  0  0  0  0  0  0  0  0
  -16.4253   -8.1537    4.9341 C   0  0  0  0  0  0  0  0  0  0  0  0
  -17.5808   -8.8983    4.8264 C   0  0  0  0  0  0  0  0  0  0  0  0
  -18.7799   -8.3029    4.4141 C   0  0  0  0  0  0  0  0  0  0  0  0
  -18.7912   -6.9726    4.1190 C   0  0  0  0  0  0  0  0  0  0  0  0
  -17.6360   -6.2319    4.2276 C   0  0  0  0  0  0  0  0  0  0  0  0
  -16.4497   -6.7884    4.6285 C   0  0  0  0  0  0  0  0  0  0  0  0
  -15.0196   -5.8515    4.7599 S   0  0  0  0  0  0  0  0  0  0  0  0
  -13.8775   -6.5596    4.0754 O   0  0  0  0  0  0  0  0  0  0  0  0
  -14.5945   -5.5489    6.1695 O   0  0  0  0  0  0  0  0  0  0  0  0
  -15.1618   -4.2702    3.9491 C   0  0  0  0  0  0  0  0  0  0  0  0
  -16.5379   -4.0753    3.4006 C   0  0  0  0  0  0  0  0  0  0  0  0
  -14.6288   -3.1362    4.7598 C   0  0  0  0  0  0  0  0  0  0  0  0
  -10.0742   -7.9260    8.1464 C   0  0  0  0  0  0  0  0  0  0  0  0
   -8.8922   -7.2524    7.8990 C   0  0  0  0  0  0  0  0  0  0  0  0
   -7.8165   -7.8686    7.2993 C   0  0  0  0  0  0  0  0  0  0  0  0
   -7.9834   -9.1895    6.9610 C   0  0  0  0  0  0  0  0  0  0  0  0
   -9.1645   -9.9001    7.1966 C   0  0  0  0  0  0  0  0  0  0  0  0
  -10.2331   -9.2806    7.7944 C   0  0  0  0  0  0  0  0  0  0  0  0
   -6.5978   -7.1606    7.0566 N   0  0  0  0  0  0  0  0  0  0  0  0
   -6.3328   -6.7031    5.7357 C   0  0  0  0  0  0  0  0  0  0  0  0
   -5.2407   -5.6797    5.5998 C   0  0  0  0  0  0  0  0  0  0  0  0
   -4.0293   -5.9569    6.4250 C   0  0  0  0  0  0  0  0  0  0  0  0
   -4.2749   -6.9860    7.5101 C   0  0  0  0  0  0  0  0  0  0  0  0
   -5.6395   -6.9074    8.1058 C   0  0  0  0  0  0  0  0  0  0  0  0
   -3.3539   -4.8533    6.9812 N   0  0  0  0  0  0  0  0  0  0  0  0
   -3.6452   -3.5603    6.5200 C   0  0  0  0  0  0  0  0  0  0  0  0
   -2.5461   -2.5944    6.9715 C   0  0  0  0  0  0  0  0  0  0  0  0
   -2.2547   -2.8762    8.3637 N   0  0  0  0  0  0  0  0  0  0  0  0
   -3.2850   -2.4814    9.2703 C   0  0  0  0  0  0  0  0  0  0  0  0
   -1.7110   -4.1789    8.5749 C   0  0  0  0  0  0  0  0  0  0  0  0
   -1.9848   -5.0377    7.3419 C   0  0  0  0  0  0  0  0  0  0  0  0
  -10.8454   -6.0298    9.4140 C   0  0  0  0  0  0  0  0  0  0  0  0
  -11.1176   -7.2446    8.7536 O   0  0  0  0  0  0  0  0  0  0  0  0
 43 44  1  0  0  0
 44 24  1  0  0  0
 24 25  2  0  0  0
 25 26  1  0  0  0
 26 27  2  0  0  0
 27 28  1  0  0  0
 28 29  2  0  0  0
 29  1  1  0  0  0
  1  3  1  0  0  0
  3  4  2  0  0  0
  4  5  1  0  0  0
  5  6  2  0  0  0
  6  7  1  0  0  0
  6  8  1  0  0  0
  8 10  1  0  0  0
 10 12  1  0  0  0
 12 13  2  0  0  0
 13 14  1  0  0  0
 14 15  2  0  0  0
 15 16  1  0  0  0
 16 17  2  0  0  0
 17 18  1  0  0  0
 18 19  2  0  0  0
 18 20  2  0  0  0
 18 21  1  0  0  0
 21 22  1  0  0  0
 21 23  1  0  0  0
  8  9  2  0  0  0
 26 30  1  0  0  0
 30 31  1  0  0  0
 31 32  1  0  0  0
 32 33  1  0  0  0
 33 34  1  0  0  0
 34 35  1  0  0  0
 33 36  1  0  0  0
 36 37  1  0  0  0
 37 38  1  0  0  0
 38 39  1  0  0  0
 39 40  1  0  0  0
 39 41  1  0  0  0
 41 42  1  0  0  0
 29 24  1  0  0  0
  9  3  1  0  0  0
 35 30  1  0  0  0
 42 36  1  0  0  0
 17 12  1  0  0  0
  1  2  1  0  0  0
 10 11  1  0  0  0
M  END
> <minimizedAffinity>
-7.96508

> <CNNscore>
0.2440696657

> <CNNaffinity>
7.5486421585

> <CNN_VS>
1.8423945904

> <CNNaffinity_variance>
0.3823916018

$$$$
[H]c1nc(N([H])c2c([H])c([H])c(N3C([H])([H])C([H])([H])C([H])(N4C([H])([H])C([H])([H])N(C([H])([H])[H])C([H])([H])C4([H])[H])C([H])([H])C3([H])[H])c([H])c2OC([H])([H])[H])nc(N([H])c2c([H])c([H])c([H])c([H])c2S(=O)(=O)C([H])(C([H])([H])[H])C([H])([H])[H])c1Cl


 44 48  0  0  0  0  0  0  0  0999 V2000
  -11.6454   -9.9350    7.9947 N   0  0  0  0  0  0  0  0  0  0  0  0
  -11.5993  -10.9900    8.2316 H   0  0  0  0  0  0  0  0  0  0  0  0
  -12.9403   -9.3523    7.9844 C   0  0  0  0  0  0  0  0  0  0  0  0
  -13.5672   -8.8043    9.0284 N   0  0  0  0  0  0  0  0  0  0  0  0
  -14.7919   -8.2693    8.9483 C   0  0  0  0  0  0  0  0  0  0  0  0
  -15.4620   -8.2689    7.7474 C   0  0  0  0  0  0  0  0  0  0  0  0
  -17.0733   -7.5697    7.6230 Cl  0  0  0  0  0  0  0  0  0  0  0  0
  -14.8218   -8.8417    6.6290 C   0  0  0  0  0  0  0  0  0  0  0  0
  -13.6010   -9.3493    6.8106 N   0  0  0  0  0  0  0  0  0  0  0  0
  -15.5263   -8.8267    5.4154 N   0  0  0  0  0  0  0  0  0  0  0  0
  -15.1903   -9.5512    4.6990 H   0  0  0  0  0  0  0  0  0  0  0  0
  -16.5938   -8.0341    4.9676 C   0  0  0  0  0  0  0  0  0  0  0  0
  -17.8417   -8.5933    4.7908 C   0  0  0  0  0  0  0  0  0  0  0  0
  -18.9173   -7.8158    4.3426 C   0  0  0  0  0  0  0  0  0  0  0  0
  -18.7150   -6.4938    4.0818 C   0  0  0  0  0  0  0  0  0  0  0  0
  -17.4681   -5.9383    4.2594 C   0  0  0  0  0  0  0  0  0  0  0  0
  -16.3987   -6.6752    4.6967 C   0  0  0  0  0  0  0  0  0  0  0  0
  -14.8519   -5.9678    4.9139 S   0  0  0  0  0  0  0  0  0  0  0  0
  -13.7862   -6.8883    4.3744 O   0  0  0  0  0  0  0  0  0  0  0  0
  -14.5032   -5.6465    6.3403 O   0  0  0  0  0  0  0  0  0  0  0  0
  -14.6677   -4.4385    4.0163 C   0  0  0  0  0  0  0  0  0  0  0  0
  -14.9400   -3.2660    4.9015 C   0  0  0  0  0  0  0  0  0  0  0  0
  -13.4060   -4.3628    3.2231 C   0  0  0  0  0  0  0  0  0  0  0  0
  -10.2523   -7.9817    8.1212 C   0  0  0  0  0  0  0  0  0  0  0  0
   -9.0646   -7.3073    7.9046 C   0  0  0  0  0  0  0  0  0  0  0  0
   -7.9826   -7.9149    7.3075 C   0  0  0  0  0  0  0  0  0  0  0  0
   -8.1491   -9.2279    6.9394 C   0  0  0  0  0  0  0  0  0  0  0  0
   -9.3358   -9.9389    7.1435 C   0  0  0  0  0  0  0  0  0  0  0  0
  -10.4107   -9.3281    7.7389 C   0  0  0  0  0  0  0  0  0  0  0  0
   -6.7582   -7.2064    7.0969 N   0  0  0  0  0  0  0  0  0  0  0  0
   -6.1585   -6.5477    8.2063 C   0  0  0  0  0  0  0  0  0  0  0  0
   -4.7267   -6.1272    8.0274 C   0  0  0  0  0  0  0  0  0  0  0  0
   -4.4225   -5.5242    6.6974 C   0  0  0  0  0  0  0  0  0  0  0  0
   -5.4981   -5.7950    5.6645 C   0  0  0  0  0  0  0  0  0  0  0  0
   -6.1274   -7.1398    5.8005 C   0  0  0  0  0  0  0  0  0  0  0  0
   -3.1618   -5.7969    6.1318 N   0  0  0  0  0  0  0  0  0  0  0  0
   -2.1168   -6.2435    6.9552 C   0  0  0  0  0  0  0  0  0  0  0  0
   -0.7834   -6.0990    6.2162 C   0  0  0  0  0  0  0  0  0  0  0  0
   -0.9719   -6.5885    4.8644 N   0  0  0  0  0  0  0  0  0  0  0  0
   -1.1272   -8.0049    4.7697 C   0  0  0  0  0  0  0  0  0  0  0  0
   -1.9000   -5.8127    4.1067 C   0  0  0  0  0  0  0  0  0  0  0  0
   -2.7287   -4.9564    5.0620 C   0  0  0  0  0  0  0  0  0  0  0  0
  -11.0271   -6.1403    9.4652 C   0  0  0  0  0  0  0  0  0  0  0  0
  -11.3019   -7.3093    8.7276 O   0  0  0  0  0  0  0  0  0  0  0  0
 43 44  1  0  0  0
 44 24  1  0  0  0
 24 25  2  0  0  0
 25 26  1  0  0  0
 26 27  2  0  0  0
 27 28  1  0  0  0
 28 29  2  0  0  0
 29  1  1  0  0  0
  1  3  1  0  0  0
  3  4  2  0  0  0
  4  5  1  0  0  0
  5  6  2  0  0  0
  6  7  1  0  0  0
  6  8  1  0  0  0
  8 10  1  0  0  0
 10 12  1  0  0  0
 12 13  2  0  0  0
 13 14  1  0  0  0
 14 15  2  0  0  0
 15 16  1  0  0  0
 16 17  2  0  0  0
 17 18  1  0  0  0
 18 19  2  0  0  0
 18 20  2  0  0  0
 18 21  1  0  0  0
 21 22  1  0  0  0
 21 23  1  0  0  0
  8  9  2  0  0  0
 26 30  1  0  0  0
 30 31  1  0  0  0
 31 32  1  0  0  0
 32 33  1  0  0  0
 33 34  1  0  0  0
 34 35  1  0  0  0
 33 36  1  0  0  0
 36 37  1  0  0  0
 37 38  1  0  0  0
 38 39  1  0  0  0
 39 40  1  0  0  0
 39 41  1  0  0  0
 41 42  1  0  0  0
 29 24  1  0  0  0
  9  3  1  0  0  0
 35 30  1  0  0  0
 42 36  1  0  0  0
 17 12  1  0  0  0
  1  2  1  0  0  0
 10 11  1  0  0  0
M  END
> <minimizedAffinity>
-7.27023

> <CNNscore>
0.2338366956

> <CNNaffinity>
7.5488724709

> <CNN_VS>
1.7652033567

> <CNNaffinity_variance>
0.3247708082

$$$$
[H]c1nc(N([H])c2c([H])c([H])c(N3C([H])([H])C([H])([H])C([H])(N4C([H])([H])C([H])([H])N(C([H])([H])[H])C([H])([H])C4([H])[H])C([H])([H])C3([H])[H])c([H])c2OC([H])([H])[H])nc(N([H])c2c([H])c([H])c([H])c([H])c2S(=O)(=O)C([H])(C([H])([H])[H])C([H])([H])[H])c1Cl


 44 48  0  0  0  0  0  0  0  0999 V2000
  -10.4815   -9.8413    7.2992 N   0  0  0  0  0  0  0  0  0  0  0  0
  -10.3875  -10.8933    7.0634 H   0  0  0  0  0  0  0  0  0  0  0  0
  -11.7904   -9.3836    7.6055 C   0  0  0  0  0  0  0  0  0  0  0  0
  -12.3253   -9.2814    8.8248 N   0  0  0  0  0  0  0  0  0  0  0  0
  -13.5699   -8.8389    9.0433 C   0  0  0  0  0  0  0  0  0  0  0  0
  -14.3599   -8.4642    7.9819 C   0  0  0  0  0  0  0  0  0  0  0  0
  -15.9991   -7.8797    8.2500 Cl  0  0  0  0  0  0  0  0  0  0  0  0
  -13.8185   -8.5626    6.6834 C   0  0  0  0  0  0  0  0  0  0  0  0
  -12.5683   -9.0153    6.5695 N   0  0  0  0  0  0  0  0  0  0  0  0
  -14.6445   -8.1721    5.6182 N   0  0  0  0  0  0  0  0  0  0  0  0
  -15.1082   -8.9863    5.0955 H   0  0  0  0  0  0  0  0  0  0  0  0
  -14.9754   -6.9064    5.1112 C   0  0  0  0  0  0  0  0  0  0  0  0
  -14.1403   -5.8328    5.3373 C   0  0  0  0  0  0  0  0  0  0  0  0
  -14.4574   -4.5624    4.8395 C   0  0  0  0  0  0  0  0  0  0  0  0
  -15.6066   -4.3990    4.1257 C   0  0  0  0  0  0  0  0  0  0  0  0
  -16.4382   -5.4729    3.9015 C   0  0  0  0  0  0  0  0  0  0  0  0
  -16.1525   -6.7261    4.3766 C   0  0  0  0  0  0  0  0  0  0  0  0
  -17.1984   -8.0538    4.0875 S   0  0  0  0  0  0  0  0  0  0  0  0
  -16.3979   -9.2485    3.6336 O   0  0  0  0  0  0  0  0  0  0  0  0
  -18.2670   -7.7994    3.0615 O   0  0  0  0  0  0  0  0  0  0  0  0
  -18.0577   -8.5797    5.5584 C   0  0  0  0  0  0  0  0  0  0  0  0
  -18.1100   -7.4781    6.5665 C   0  0  0  0  0  0  0  0  0  0  0  0
  -19.3593   -9.2535    5.2778 C   0  0  0  0  0  0  0  0  0  0  0  0
   -9.3432   -7.7460    7.5925 C   0  0  0  0  0  0  0  0  0  0  0  0
   -8.2090   -6.9551    7.5788 C   0  0  0  0  0  0  0  0  0  0  0  0
   -6.9737   -7.4620    7.2417 C   0  0  0  0  0  0  0  0  0  0  0  0
   -6.9314   -8.7968    6.9200 C   0  0  0  0  0  0  0  0  0  0  0  0
   -8.0586   -9.6245    6.9235 C   0  0  0  0  0  0  0  0  0  0  0  0
   -9.2869   -9.1136    7.2602 C   0  0  0  0  0  0  0  0  0  0  0  0
   -5.8083   -6.6330    7.2394 N   0  0  0  0  0  0  0  0  0  0  0  0
   -5.2791   -6.2136    5.9871 C   0  0  0  0  0  0  0  0  0  0  0  0
   -4.2927   -5.0807    6.0350 C   0  0  0  0  0  0  0  0  0  0  0  0
   -3.2947   -5.1780    7.1395 C   0  0  0  0  0  0  0  0  0  0  0  0
   -3.6921   -6.1741    8.2105 C   0  0  0  0  0  0  0  0  0  0  0  0
   -5.1610   -6.2217    8.4621 C   0  0  0  0  0  0  0  0  0  0  0  0
   -2.8854   -3.9790    7.7547 N   0  0  0  0  0  0  0  0  0  0  0  0
   -3.0594   -2.7612    7.0795 C   0  0  0  0  0  0  0  0  0  0  0  0
   -2.2104   -1.6770    7.7493 C   0  0  0  0  0  0  0  0  0  0  0  0
   -2.3840   -1.8029    9.1834 N   0  0  0  0  0  0  0  0  0  0  0  0
   -3.6707   -1.4024    9.6559 C   0  0  0  0  0  0  0  0  0  0  0  0
   -1.8891   -3.0352    9.7066 C   0  0  0  0  0  0  0  0  0  0  0  0
   -1.7060   -4.0250    8.5580 C   0  0  0  0  0  0  0  0  0  0  0  0
  -10.5977   -6.2799    9.0327 C   0  0  0  0  0  0  0  0  0  0  0  0
  -10.5552   -7.1708    7.9416 O   0  0  0  0  0  0  0  0  0  0  0  0
 43 44  1  0  0  0
 44 24  1  0  0  0
 24 25  2  0  0  0
 25 26  1  0  0  0
 26 27  2  0  0  0
 27 28  1  0  0  0
 28 29  2  0  0  0
 29  1  1  0  0  0
  1  3  1  0  0  0
  3  4  2  0  0  0
  4  5  1  0  0  0
  5  6  2  0  0  0
  6  7  1  0  0  0
  6  8  1  0  0  0
  8 10  1  0  0  0
 10 12  1  0  0  0
 12 13  2  0  0  0
 13 14  1  0  0  0
 14 15  2  0  0  0
 15 16  1  0  0  0
 16 17  2  0  0  0
 17 18  1  0  0  0
 18 19  2  0  0  0
 18 20  2  0  0  0
 18 21  1  0  0  0
 21 22  1  0  0  0
 21 23  1  0  0  0
  8  9  2  0  0  0
 26 30  1  0  0  0
 30 31  1  0  0  0
 31 32  1  0  0  0
 32 33  1  0  0  0
 33 34  1  0  0  0
 34 35  1  0  0  0
 33 36  1  0  0  0
 36 37  1  0  0  0
 37 38  1  0  0  0
 38 39  1  0  0  0
 39 40  1  0  0  0
 39 41  1  0  0  0
 41 42  1  0  0  0
 29 24  1  0  0  0
  9  3  1  0  0  0
 35 30  1  0  0  0
 42 36  1  0  0  0
 17 12  1  0  0  0
  1  2  1  0  0  0
 10 11  1  0  0  0
M  END
> <minimizedAffinity>
-8.41059

> <CNNscore>
0.2211203873

> <CNNaffinity>
7.5889215469

> <CNN_VS>
1.6780653000

> <CNNaffinity_variance>
0.1915950477

$$$$
[H]c1nc(N([H])c2c([H])c([H])c(N3C([H])([H])C([H])([H])C([H])(N4C([H])([H])C([H])([H])N(C([H])([H])[H])C([H])([H])C4([H])[H])C([H])([H])C3([H])[H])c([H])c2OC([H])([H])[H])nc(N([H])c2c([H])c([H])c([H])c([H])c2S(=O)(=O)C([H])(C([H])([H])[H])C([H])([H])[H])c1Cl


 44 48  0  0  0  0  0  0  0  0999 V2000
  -10.7600   -9.9492    7.6041 N   0  0  0  0  0  0  0  0  0  0  0  0
  -10.6857  -11.0288    7.6086 H   0  0  0  0  0  0  0  0  0  0  0  0
  -12.0653   -9.4114    7.7569 C   0  0  0  0  0  0  0  0  0  0  0  0
  -12.7221   -9.2493    8.9082 N   0  0  0  0  0  0  0  0  0  0  0  0
  -13.9551   -8.7325    8.9810 C   0  0  0  0  0  0  0  0  0  0  0  0
  -14.6023   -8.3404    7.8327 C   0  0  0  0  0  0  0  0  0  0  0  0
  -16.2239   -7.6584    7.9090 Cl  0  0  0  0  0  0  0  0  0  0  0  0
  -13.9303   -8.5009    6.6033 C   0  0  0  0  0  0  0  0  0  0  0  0
  -12.7037   -9.0257    6.6353 N   0  0  0  0  0  0  0  0  0  0  0  0
  -14.6119   -8.0911    5.4471 N   0  0  0  0  0  0  0  0  0  0  0  0
  -14.8864   -8.8914    4.7874 H   0  0  0  0  0  0  0  0  0  0  0  0
  -15.0011   -6.8209    4.9959 C   0  0  0  0  0  0  0  0  0  0  0  0
  -14.1910   -5.7290    5.2254 C   0  0  0  0  0  0  0  0  0  0  0  0
  -14.5663   -4.4540    4.7830 C   0  0  0  0  0  0  0  0  0  0  0  0
  -15.7473   -4.3045    4.1199 C   0  0  0  0  0  0  0  0  0  0  0  0
  -16.5539   -5.3965    3.8922 C   0  0  0  0  0  0  0  0  0  0  0  0
  -16.2114   -6.6547    4.3137 C   0  0  0  0  0  0  0  0  0  0  0  0
  -17.2269   -8.0049    4.0210 S   0  0  0  0  0  0  0  0  0  0  0  0
  -16.3979   -9.1839    3.5771 O   0  0  0  0  0  0  0  0  0  0  0  0
  -18.2927   -7.7764    2.9861 O   0  0  0  0  0  0  0  0  0  0  0  0
  -18.0862   -8.5443    5.4870 C   0  0  0  0  0  0  0  0  0  0  0  0
  -18.2063   -7.4289    6.4740 C   0  0  0  0  0  0  0  0  0  0  0  0
  -19.3504   -9.2824    5.1976 C   0  0  0  0  0  0  0  0  0  0  0  0
   -9.5240   -7.8940    7.7482 C   0  0  0  0  0  0  0  0  0  0  0  0
   -8.3663   -7.1486    7.6203 C   0  0  0  0  0  0  0  0  0  0  0  0
   -7.1833   -7.7109    7.1950 C   0  0  0  0  0  0  0  0  0  0  0  0
   -7.2178   -9.0533    6.9052 C   0  0  0  0  0  0  0  0  0  0  0  0
   -8.3707   -9.8359    7.0234 C   0  0  0  0  0  0  0  0  0  0  0  0
   -9.5465   -9.2699    7.4476 C   0  0  0  0  0  0  0  0  0  0  0  0
   -5.9922   -6.9285    7.0749 N   0  0  0  0  0  0  0  0  0  0  0  0
   -5.3245   -6.5260    8.2650 C   0  0  0  0  0  0  0  0  0  0  0  0
   -3.9186   -6.0232    8.0935 C   0  0  0  0  0  0  0  0  0  0  0  0
   -3.7262   -5.1152    6.9258 C   0  0  0  0  0  0  0  0  0  0  0  0
   -4.8703   -5.1762    5.9336 C   0  0  0  0  0  0  0  0  0  0  0  0
   -5.4612   -6.5377    5.7910 C   0  0  0  0  0  0  0  0  0  0  0  0
   -2.5061   -5.2018    6.2277 N   0  0  0  0  0  0  0  0  0  0  0  0
   -1.7272   -6.3638    6.3386 C   0  0  0  0  0  0  0  0  0  0  0  0
   -0.3106   -6.0828    5.8295 C   0  0  0  0  0  0  0  0  0  0  0  0
   -0.4258   -5.3391    4.5900 N   0  0  0  0  0  0  0  0  0  0  0  0
   -0.9107   -6.1071    3.4880 C   0  0  0  0  0  0  0  0  0  0  0  0
   -1.0205   -4.0523    4.7562 C   0  0  0  0  0  0  0  0  0  0  0  0
   -1.7361   -4.0057    6.1047 C   0  0  0  0  0  0  0  0  0  0  0  0
  -10.5788   -6.2422    9.1470 C   0  0  0  0  0  0  0  0  0  0  0  0
  -10.6802   -7.2641    8.1818 O   0  0  0  0  0  0  0  0  0  0  0  0
 43 44  1  0  0  0
 44 24  1  0  0  0
 24 25  2  0  0  0
 25 26  1  0  0  0
 26 27  2  0  0  0
 27 28  1  0  0  0
 28 29  2  0  0  0
 29  1  1  0  0  0
  1  3  1  0  0  0
  3  4  2  0  0  0
  4  5  1  0  0  0
  5  6  2  0  0  0
  6  7  1  0  0  0
  6  8  1  0  0  0
  8 10  1  0  0  0
 10 12  1  0  0  0
 12 13  2  0  0  0
 13 14  1  0  0  0
 14 15  2  0  0  0
 15 16  1  0  0  0
 16 17  2  0  0  0
 17 18  1  0  0  0
 18 19  2  0  0  0
 18 20  2  0  0  0
 18 21  1  0  0  0
 21 22  1  0  0  0
 21 23  1  0  0  0
  8  9  2  0  0  0
 26 30  1  0  0  0
 30 31  1  0  0  0
 31 32  1  0  0  0
 32 33  1  0  0  0
 33 34  1  0  0  0
 34 35  1  0  0  0
 33 36  1  0  0  0
 36 37  1  0  0  0
 37 38  1  0  0  0
 38 39  1  0  0  0
 39 40  1  0  0  0
 39 41  1  0  0  0
 41 42  1  0  0  0
 29 24  1  0  0  0
  9  3  1  0  0  0
 35 30  1  0  0  0
 42 36  1  0  0  0
 17 12  1  0  0  0
  1  2  1  0  0  0
 10 11  1  0  0  0
M  END
> <minimizedAffinity>
-8.00549

> <CNNscore>
0.1425688118

> <CNNaffinity>
7.4189872742

> <CNN_VS>
1.0577162504

> <CNNaffinity_variance>
0.2695407271

$$$$
[H]Oc1c([H])c([H])c(C([H])([H])[C@@]([H])(C(=O)N([H])[H])N([H])C(=O)[C@@]2([H])N(C(=O)[C@@]([H])(N([H])C(=O)[C@@]([H])(N([H])[H])C([H])([H])c3c([H])c([H])c([H])c([H])c3[H])C([H])([H])[H])C([H])([H])C([H])([H])C2([H])[H])c([H])c1[H]


 43 45  0  0  0  0  0  0  0  0999 V2000
   -5.3931   -6.3225   13.5745 C   0  0  0  0  0  0  0  0  0  0  0  0
   -5.9224   -7.4800   13.6632 O   0  0  0  0  0  0  0  0  0  0  0  0
   -4.0006   -6.2293   13.7734 N   0  0  0  0  0  0  0  0  0  0  0  0
   -3.1255   -7.3723   14.0772 C   0  0  0  0  0  0  0  0  0  0  0  0
   -2.0220   -6.8171   14.9238 C   0  0  0  0  0  0  0  0  0  0  0  0
   -2.0464   -5.3262   14.7018 C   0  0  0  0  0  0  0  0  0  0  0  0
   -3.1568   -5.0694   13.7200 C   0  0  0  0  0  0  0  0  0  0  0  0
   -2.5921   -4.8151   12.3907 C   0  0  0  0  0  0  0  0  0  0  0  0
   -1.5405   -5.3985   12.0449 O   0  0  0  0  0  0  0  0  0  0  0  0
   -3.2140   -3.9268   11.4993 N   0  0  0  0  0  0  0  0  0  0  0  0
   -4.0810   -3.4373   11.7703 H   0  0  0  0  0  0  0  0  0  0  0  0
   -2.6903   -3.6355   10.1493 C   0  0  0  0  0  0  0  0  0  0  0  0
   -2.6771   -2.1671   10.0418 C   0  0  0  0  0  0  0  0  0  0  0  0
   -1.5971   -1.3499   10.4563 N   0  0  0  0  0  0  0  0  0  0  0  0
   -3.6714   -1.5204    9.5560 O   0  0  0  0  0  0  0  0  0  0  0  0
   -1.1129   -1.4395   11.3634 H   0  0  0  0  0  0  0  0  0  0  0  0
   -1.2686   -0.6074    9.8008 H   0  0  0  0  0  0  0  0  0  0  0  0
   -3.6470   -4.3235    9.2183 C   0  0  0  0  0  0  0  0  0  0  0  0
   -3.0587   -4.7303    7.9489 C   0  0  0  0  0  0  0  0  0  0  0  0
   -2.1552   -5.7610    7.8316 C   0  0  0  0  0  0  0  0  0  0  0  0
   -1.6304   -6.1064    6.6092 C   0  0  0  0  0  0  0  0  0  0  0  0
   -1.9766   -5.4491    5.4592 C   0  0  0  0  0  0  0  0  0  0  0  0
   -1.4444   -5.8014    4.2273 O   0  0  0  0  0  0  0  0  0  0  0  0
   -2.8764   -4.4197    5.5626 C   0  0  0  0  0  0  0  0  0  0  0  0
   -3.4036   -4.0693    6.7750 C   0  0  0  0  0  0  0  0  0  0  0  0
   -1.9384   -6.4909    3.6959 H   0  0  0  0  0  0  0  0  0  0  0  0
   -6.6079   -4.3462   14.4980 C   0  0  0  0  0  0  0  0  0  0  0  0
   -6.2583   -5.1735   13.2726 C   0  0  0  0  0  0  0  0  0  0  0  0
   -7.5346   -5.6586   12.7545 N   0  0  0  0  0  0  0  0  0  0  0  0
   -8.7559   -5.4292   13.4442 C   0  0  0  0  0  0  0  0  0  0  0  0
   -8.7026   -4.7912   14.5230 O   0  0  0  0  0  0  0  0  0  0  0  0
   -7.5694   -6.1914   11.8522 H   0  0  0  0  0  0  0  0  0  0  0  0
  -10.0531   -5.9197   12.9198 C   0  0  0  0  0  0  0  0  0  0  0  0
  -11.1054   -5.8514   13.8896 N   0  0  0  0  0  0  0  0  0  0  0  0
  -11.1615   -4.8720   14.2492 H   0  0  0  0  0  0  0  0  0  0  0  0
  -10.8833   -6.4637   14.6988 H   0  0  0  0  0  0  0  0  0  0  0  0
  -10.3802   -5.1884   11.6419 C   0  0  0  0  0  0  0  0  0  0  0  0
  -11.2776   -5.9699   10.7615 C   0  0  0  0  0  0  0  0  0  0  0  0
  -12.6343   -5.9898   10.9884 C   0  0  0  0  0  0  0  0  0  0  0  0
  -13.5110   -6.7048   10.1905 C   0  0  0  0  0  0  0  0  0  0  0  0
  -13.0099   -7.4168    9.1394 C   0  0  0  0  0  0  0  0  0  0  0  0
  -11.6533   -7.4113    8.8933 C   0  0  0  0  0  0  0  0  0  0  0  0
  -10.7708   -6.6868    9.7027 C   0  0  0  0  0  0  0  0  0  0  0  0
 27 28  1  0  0  0
 28 29  1  0  0  0
 29 30  1  0  0  0
 30 31  2  0  0  0
 30 33  1  0  0  0
 33 34  1  0  0  0
 33 37  1  0  0  0
 37 38  1  0  0  0
 38 39  2  0  0  0
 39 40  1  0  0  0
 40 41  2  0  0  0
 41 42  1  0  0  0
 42 43  2  0  0  0
 28  1  1  0  0  0
  1  2  2  0  0  0
  1  3  1  0  0  0
  3  4  1  0  0  0
  4  5  1  0  0  0
  5  6  1  0  0  0
  6  7  1  0  0  0
  7  8  1  0  0  0
  8  9  2  0  0  0
  8 10  1  0  0  0
 10 12  1  0  0  0
 12 18  1  0  0  0
 18 19  1  0  0  0
 19 20  2  0  0  0
 20 21  1  0  0  0
 21 22  2  0  0  0
 22 23  1  0  0  0
 22 24  1  0  0  0
 24 25  2  0  0  0
 12 13  1  0  0  0
 13 14  1  0  0  0
 13 15  2  0  0  0
 43 38  1  0  0  0
  7  3  1  0  0  0
 25 19  1  0  0  0
 29 32  1  0  0  0
 34 35  1  0  0  0
 34 36  1  0  0  0
 10 11  1  0  0  0
 23 26  1  0  0  0
 14 16  1  0  0  0
 14 17  1  0  0  0
M  END
> <minimizedAffinity>
0.97230

> <CNNscore>
0.5564905405

> <CNNaffinity>
5.9165916443

> <CNN_VS>
3.2925271988

> <CNNaffinity_variance>
0.9421560168

$$$$
[H]Oc1c([H])c([H])c(C([H])([H])[C@@]([H])(C(=O)N([H])[H])N([H])C(=O)[C@@]2([H])N(C(=O)[C@@]([H])(N([H])C(=O)[C@@]([H])(N([H])[H])C([H])([H])c3c([H])c([H])c([H])c([H])c3[H])C([H])([H])[H])C([H])([H])C([H])([H])C2([H])[H])c([H])c1[H]


 43 45  0  0  0  0  0  0  0  0999 V2000
   -5.2010   -5.9190   13.4235 C   0  0  0  0  0  0  0  0  0  0  0  0
   -5.2829   -7.1367   13.7950 O   0  0  0  0  0  0  0  0  0  0  0  0
   -3.9999   -5.5071   12.8112 N   0  0  0  0  0  0  0  0  0  0  0  0
   -2.8422   -6.3844   12.5773 C   0  0  0  0  0  0  0  0  0  0  0  0
   -1.6415   -5.4933   12.6628 C   0  0  0  0  0  0  0  0  0  0  0  0
   -2.1610   -4.0889   12.4889 C   0  0  0  0  0  0  0  0  0  0  0  0
   -3.6471   -4.2157   12.2933 C   0  0  0  0  0  0  0  0  0  0  0  0
   -3.9755   -4.0426   10.8747 C   0  0  0  0  0  0  0  0  0  0  0  0
   -4.1718   -2.8924   10.4225 O   0  0  0  0  0  0  0  0  0  0  0  0
   -4.0728   -5.1482   10.0153 N   0  0  0  0  0  0  0  0  0  0  0  0
   -3.9150   -6.1030   10.3735 H   0  0  0  0  0  0  0  0  0  0  0  0
   -4.3983   -5.0313    8.5793 C   0  0  0  0  0  0  0  0  0  0  0  0
   -5.1444   -6.2558    8.2450 C   0  0  0  0  0  0  0  0  0  0  0  0
   -6.5422   -6.2982    8.0205 N   0  0  0  0  0  0  0  0  0  0  0  0
   -4.5585   -7.3907    8.1370 O   0  0  0  0  0  0  0  0  0  0  0  0
   -7.2448   -5.8557    8.6336 H   0  0  0  0  0  0  0  0  0  0  0  0
   -6.8850   -6.8110    7.1788 H   0  0  0  0  0  0  0  0  0  0  0  0
   -3.0647   -4.9050    7.9005 C   0  0  0  0  0  0  0  0  0  0  0  0
   -3.1322   -4.3879    6.5400 C   0  0  0  0  0  0  0  0  0  0  0  0
   -3.6888   -3.1708    6.2218 C   0  0  0  0  0  0  0  0  0  0  0  0
   -3.7262   -2.7281    4.9212 C   0  0  0  0  0  0  0  0  0  0  0  0
   -3.2168   -3.4680    3.8880 C   0  0  0  0  0  0  0  0  0  0  0  0
   -3.2567   -3.0169    2.5766 O   0  0  0  0  0  0  0  0  0  0  0  0
   -2.6592   -4.6832    4.1920 C   0  0  0  0  0  0  0  0  0  0  0  0
   -2.6178   -5.1316    5.4834 C   0  0  0  0  0  0  0  0  0  0  0  0
   -2.4779   -2.4765    2.2550 H   0  0  0  0  0  0  0  0  0  0  0  0
   -6.6684   -4.8301   15.1251 C   0  0  0  0  0  0  0  0  0  0  0  0
   -6.3512   -5.0334   13.6534 C   0  0  0  0  0  0  0  0  0  0  0  0
   -7.5472   -5.6437   13.0791 N   0  0  0  0  0  0  0  0  0  0  0  0
   -8.8523   -5.2606   13.4914 C   0  0  0  0  0  0  0  0  0  0  0  0
   -8.9455   -4.3732   14.3733 O   0  0  0  0  0  0  0  0  0  0  0  0
   -7.4595   -6.3851   12.3429 H   0  0  0  0  0  0  0  0  0  0  0  0
  -10.0681   -5.8779   12.9093 C   0  0  0  0  0  0  0  0  0  0  0  0
  -11.1521   -5.9564   13.8427 N   0  0  0  0  0  0  0  0  0  0  0  0
  -11.3301   -5.0003   14.2248 H   0  0  0  0  0  0  0  0  0  0  0  0
  -10.8884   -6.5633   14.6435 H   0  0  0  0  0  0  0  0  0  0  0  0
  -10.4344   -5.1509   11.6396 C   0  0  0  0  0  0  0  0  0  0  0  0
  -11.3150   -5.9573   10.7648 C   0  0  0  0  0  0  0  0  0  0  0  0
  -12.6776   -5.9572   10.9550 C   0  0  0  0  0  0  0  0  0  0  0  0
  -13.5391   -6.6941   10.1608 C   0  0  0  0  0  0  0  0  0  0  0  0
  -13.0167   -7.4493    9.1510 C   0  0  0  0  0  0  0  0  0  0  0  0
  -11.6539   -7.4645    8.9421 C   0  0  0  0  0  0  0  0  0  0  0  0
  -10.7867   -6.7177    9.7477 C   0  0  0  0  0  0  0  0  0  0  0  0
 27 28  1  0  0  0
 28 29  1  0  0  0
 29 30  1  0  0  0
 30 31  2  0  0  0
 30 33  1  0  0  0
 33 34  1  0  0  0
 33 37  1  0  0  0
 37 38  1  0  0  0
 38 39  2  0  0  0
 39 40  1  0  0  0
 40 41  2  0  0  0
 41 42  1  0  0  0
 42 43  2  0  0  0
 28  1  1  0  0  0
  1  2  2  0  0  0
  1  3  1  0  0  0
  3  4  1  0  0  0
  4  5  1  0  0  0
  5  6  1  0  0  0
  6  7  1  0  0  0
  7  8  1  0  0  0
  8  9  2  0  0  0
  8 10  1  0  0  0
 10 12  1  0  0  0
 12 18  1  0  0  0
 18 19  1  0  0  0
 19 20  2  0  0  0
 20 21  1  0  0  0
 21 22  2  0  0  0
 22 23  1  0  0  0
 22 24  1  0  0  0
 24 25  2  0  0  0
 12 13  1  0  0  0
 13 14  1  0  0  0
 13 15  2  0  0  0
 43 38  1  0  0  0
  7  3  1  0  0  0
 25 19  1  0  0  0
 29 32  1  0  0  0
 34 35  1  0  0  0
 34 36  1  0  0  0
 10 11  1  0  0  0
 23 26  1  0  0  0
 14 16  1  0  0  0
 14 17  1  0  0  0
M  END
> <minimizedAffinity>
0.27055

> <CNNscore>
0.5177621245

> <CNNaffinity>
6.0463356972

> <CNN_VS>
3.1305634975

> <CNNaffinity_variance>
0.5488798022

$$$$
[H]Oc1c([H])c([H])c(C([H])([H])[C@@]([H])(C(=O)N([H])[H])N([H])C(=O)[C@@]2([H])N(C(=O)[C@@]([H])(N([H])C(=O)[C@@]([H])(N([H])[H])C([H])([H])c3c([H])c([H])c([H])c([H])c3[H])C([H])([H])[H])C([H])([H])C([H])([H])C2([H])[H])c([H])c1[H]


 43 45  0  0  0  0  0  0  0  0999 V2000
  -12.6126   -8.1086   10.2368 C   0  0  0  0  0  0  0  0  0  0  0  0
  -12.8426   -8.8056   11.2803 O   0  0  0  0  0  0  0  0  0  0  0  0
  -12.6256   -8.7761    8.9952 N   0  0  0  0  0  0  0  0  0  0  0  0
  -12.8829  -10.2149    8.8272 C   0  0  0  0  0  0  0  0  0  0  0  0
  -12.0905  -10.6250    7.6243 C   0  0  0  0  0  0  0  0  0  0  0  0
  -11.7777   -9.3485    6.8858 C   0  0  0  0  0  0  0  0  0  0  0  0
  -12.4138   -8.2409    7.6803 C   0  0  0  0  0  0  0  0  0  0  0  0
  -13.6475   -7.8038    7.0189 C   0  0  0  0  0  0  0  0  0  0  0  0
  -13.7560   -6.6169    6.6374 O   0  0  0  0  0  0  0  0  0  0  0  0
  -14.7092   -8.6971    6.8066 N   0  0  0  0  0  0  0  0  0  0  0  0
  -14.6353   -9.6786    7.1166 H   0  0  0  0  0  0  0  0  0  0  0  0
  -15.9720   -8.3112    6.1447 C   0  0  0  0  0  0  0  0  0  0  0  0
  -15.7677   -8.5942    4.7142 C   0  0  0  0  0  0  0  0  0  0  0  0
  -16.7825   -9.0625    3.8441 N   0  0  0  0  0  0  0  0  0  0  0  0
  -14.6262   -8.4327    4.1541 O   0  0  0  0  0  0  0  0  0  0  0  0
  -17.4239   -9.8412    4.0622 H   0  0  0  0  0  0  0  0  0  0  0  0
  -16.8892   -8.5885    2.9206 H   0  0  0  0  0  0  0  0  0  0  0  0
  -16.1420   -6.8568    6.4777 C   0  0  0  0  0  0  0  0  0  0  0  0
  -16.5756   -6.0328    5.3570 C   0  0  0  0  0  0  0  0  0  0  0  0
  -17.8640   -6.0317    4.8750 C   0  0  0  0  0  0  0  0  0  0  0  0
  -18.2223   -5.2337    3.8149 C   0  0  0  0  0  0  0  0  0  0  0  0
  -17.3247   -4.4085    3.1921 C   0  0  0  0  0  0  0  0  0  0  0  0
  -17.6910   -3.6045    2.1224 O   0  0  0  0  0  0  0  0  0  0  0  0
  -16.0371   -4.4005    3.6632 C   0  0  0  0  0  0  0  0  0  0  0  0
  -15.6718   -5.1913    4.7175 C   0  0  0  0  0  0  0  0  0  0  0  0
  -18.0231   -2.6844    2.3345 H   0  0  0  0  0  0  0  0  0  0  0  0
  -11.5156   -6.0852    9.2689 C   0  0  0  0  0  0  0  0  0  0  0  0
  -12.3530   -6.6705   10.3933 C   0  0  0  0  0  0  0  0  0  0  0  0
  -11.5747   -6.4544   11.6100 N   0  0  0  0  0  0  0  0  0  0  0  0
  -11.4430   -5.1649   12.1929 C   0  0  0  0  0  0  0  0  0  0  0  0
  -12.0217   -4.2085   11.6235 O   0  0  0  0  0  0  0  0  0  0  0  0
  -11.0940   -7.2598   12.0787 H   0  0  0  0  0  0  0  0  0  0  0  0
  -10.6544   -4.9430   13.4286 C   0  0  0  0  0  0  0  0  0  0  0  0
  -11.4775   -4.7397   14.5834 N   0  0  0  0  0  0  0  0  0  0  0  0
  -12.1367   -5.5462   14.6665 H   0  0  0  0  0  0  0  0  0  0  0  0
  -12.0531   -3.8834   14.4635 H   0  0  0  0  0  0  0  0  0  0  0  0
   -9.6690   -6.0722   13.5979 C   0  0  0  0  0  0  0  0  0  0  0  0
   -8.2679   -5.5955   13.6250 C   0  0  0  0  0  0  0  0  0  0  0  0
   -7.8740   -4.6367   14.5296 C   0  0  0  0  0  0  0  0  0  0  0  0
   -6.5749   -4.1627   14.5921 C   0  0  0  0  0  0  0  0  0  0  0  0
   -5.6503   -4.6658   13.7233 C   0  0  0  0  0  0  0  0  0  0  0  0
   -6.0227   -5.6274   12.8081 C   0  0  0  0  0  0  0  0  0  0  0  0
   -7.3375   -6.1037   12.7487 C   0  0  0  0  0  0  0  0  0  0  0  0
 27 28  1  0  0  0
 28 29  1  0  0  0
 29 30  1  0  0  0
 30 31  2  0  0  0
 30 33  1  0  0  0
 33 34  1  0  0  0
 33 37  1  0  0  0
 37 38  1  0  0  0
 38 39  2  0  0  0
 39 40  1  0  0  0
 40 41  2  0  0  0
 41 42  1  0  0  0
 42 43  2  0  0  0
 28  1  1  0  0  0
  1  2  2  0  0  0
  1  3  1  0  0  0
  3  4  1  0  0  0
  4  5  1  0  0  0
  5  6  1  0  0  0
  6  7  1  0  0  0
  7  8  1  0  0  0
  8  9  2  0  0  0
  8 10  1  0  0  0
 10 12  1  0  0  0
 12 18  1  0  0  0
 18 19  1  0  0  0
 19 20  2  0  0  0
 20 21  1  0  0  0
 21 22  2  0  0  0
 22 23  1  0  0  0
 22 24  1  0  0  0
 24 25  2  0  0  0
 12 13  1  0  0  0
 13 14  1  0  0  0
 13 15  2  0  0  0
 43 38  1  0  0  0
  7  3  1  0  0  0
 25 19  1  0  0  0
 29 32  1  0  0  0
 34 35  1  0  0  0
 34 36  1  0  0  0
 10 11  1  0  0  0
 23 26  1  0  0  0
 14 16  1  0  0  0
 14 17  1  0  0  0
M  END
> <minimizedAffinity>
3.63205

> <CNNscore>
0.4565356374

> <CNNaffinity>
6.9900474548

> <CNN_VS>
3.1912057400

> <CNNaffinity_variance>
0.6383481622

$$$$
[H]Oc1c([H])c([H])c(C([H])([H])[C@@]([H])(C(=O)N([H])[H])N([H])C(=O)[C@@]2([H])N(C(=O)[C@@]([H])(N([H])C(=O)[C@@]([H])(N([H])[H])C([H])([H])c3c([H])c([H])c([H])c([H])c3[H])C([H])([H])[H])C([H])([H])C([H])([H])C2([H])[H])c([H])c1[H]


 43 45  0  0  0  0  0  0  0  0999 V2000
   -4.5467   -6.0078   13.6382 C   0  0  0  0  0  0  0  0  0  0  0  0
   -4.7740   -7.0671   14.3120 O   0  0  0  0  0  0  0  0  0  0  0  0
   -3.2362   -5.4892   13.6677 N   0  0  0  0  0  0  0  0  0  0  0  0
   -2.1226   -6.0853   14.4223 C   0  0  0  0  0  0  0  0  0  0  0  0
   -1.2454   -4.9367   14.8148 C   0  0  0  0  0  0  0  0  0  0  0  0
   -1.6287   -3.7989   13.9032 C   0  0  0  0  0  0  0  0  0  0  0  0
   -2.7076   -4.3331   13.0012 C   0  0  0  0  0  0  0  0  0  0  0  0
   -2.1465   -4.6238   11.6779 C   0  0  0  0  0  0  0  0  0  0  0  0
   -1.0878   -5.2848   11.5881 O   0  0  0  0  0  0  0  0  0  0  0  0
   -2.7796   -4.1718   10.5094 N   0  0  0  0  0  0  0  0  0  0  0  0
   -3.6525   -3.6246   10.5672 H   0  0  0  0  0  0  0  0  0  0  0  0
   -2.2599   -4.4374    9.1526 C   0  0  0  0  0  0  0  0  0  0  0  0
   -2.0892   -3.1133    8.5316 C   0  0  0  0  0  0  0  0  0  0  0  0
   -1.0680   -2.1968    8.8827 N   0  0  0  0  0  0  0  0  0  0  0  0
   -2.8784   -2.6961    7.6119 O   0  0  0  0  0  0  0  0  0  0  0  0
   -0.8212   -1.9421    9.8521 H   0  0  0  0  0  0  0  0  0  0  0  0
   -0.5286   -1.7489    8.1098 H   0  0  0  0  0  0  0  0  0  0  0  0
   -3.3080   -5.3002    8.5106 C   0  0  0  0  0  0  0  0  0  0  0  0
   -2.7765   -6.3335    7.6315 C   0  0  0  0  0  0  0  0  0  0  0  0
   -2.2421   -7.5146    8.0918 C   0  0  0  0  0  0  0  0  0  0  0  0
   -1.7548   -8.4583    7.2194 C   0  0  0  0  0  0  0  0  0  0  0  0
   -1.7766   -8.2725    5.8632 C   0  0  0  0  0  0  0  0  0  0  0  0
   -1.2837   -9.2281    4.9864 O   0  0  0  0  0  0  0  0  0  0  0  0
   -2.3067   -7.0992    5.3916 C   0  0  0  0  0  0  0  0  0  0  0  0
   -2.7938   -6.1546    6.2525 C   0  0  0  0  0  0  0  0  0  0  0  0
   -1.9257   -9.9227    4.6589 H   0  0  0  0  0  0  0  0  0  0  0  0
   -7.0069   -5.5924   13.5428 C   0  0  0  0  0  0  0  0  0  0  0  0
   -5.6522   -5.4032   12.8818 C   0  0  0  0  0  0  0  0  0  0  0  0
   -5.7590   -6.0612   11.5824 N   0  0  0  0  0  0  0  0  0  0  0  0
   -7.0016   -6.5444   11.0901 C   0  0  0  0  0  0  0  0  0  0  0  0
   -8.0138   -6.3870   11.8143 O   0  0  0  0  0  0  0  0  0  0  0  0
   -4.9074   -6.1888   10.9842 H   0  0  0  0  0  0  0  0  0  0  0  0
   -7.1129   -7.2117    9.7709 C   0  0  0  0  0  0  0  0  0  0  0  0
   -8.4031   -7.0438    9.1710 N   0  0  0  0  0  0  0  0  0  0  0  0
   -8.6160   -6.0219    9.1239 H   0  0  0  0  0  0  0  0  0  0  0  0
   -9.1320   -7.4827    9.7668 H   0  0  0  0  0  0  0  0  0  0  0  0
   -5.9849   -6.7482    8.8835 C   0  0  0  0  0  0  0  0  0  0  0  0
   -6.1187   -7.2492    7.4971 C   0  0  0  0  0  0  0  0  0  0  0  0
   -6.7018   -6.4684    6.5260 C   0  0  0  0  0  0  0  0  0  0  0  0
   -6.8465   -6.8948    5.2169 C   0  0  0  0  0  0  0  0  0  0  0  0
   -6.3934   -8.1367    4.8774 C   0  0  0  0  0  0  0  0  0  0  0  0
   -5.8057   -8.9364    5.8345 C   0  0  0  0  0  0  0  0  0  0  0  0
   -5.6616   -8.5010    7.1568 C   0  0  0  0  0  0  0  0  0  0  0  0
 27 28  1  0  0  0
 28 29  1  0  0  0
 29 30  1  0  0  0
 30 31  2  0  0  0
 30 33  1  0  0  0
 33 34  1  0  0  0
 33 37  1  0  0  0
 37 38  1  0  0  0
 38 39  2  0  0  0
 39 40  1  0  0  0
 40 41  2  0  0  0
 41 42  1  0  0  0
 42 43  2  0  0  0
 28  1  1  0  0  0
  1  2  2  0  0  0
  1  3  1  0  0  0
  3  4  1  0  0  0
  4  5  1  0  0  0
  5  6  1  0  0  0
  6  7  1  0  0  0
  7  8  1  0  0  0
  8  9  2  0  0  0
  8 10  1  0  0  0
 10 12  1  0  0  0
 12 18  1  0  0  0
 18 19  1  0  0  0
 19 20  2  0  0  0
 20 21  1  0  0  0
 21 22  2  0  0  0
 22 23  1  0  0  0
 22 24  1  0  0  0
 24 25  2  0  0  0
 12 13  1  0  0  0
 13 14  1  0  0  0
 13 15  2  0  0  0
 43 38  1  0  0  0
  7  3  1  0  0  0
 25 19  1  0  0  0
 29 32  1  0  0  0
 34 35  1  0  0  0
 34 36  1  0  0  0
 10 11  1  0  0  0
 23 26  1  0  0  0
 14 16  1  0  0  0
 14 17  1  0  0  0
M  END
> <minimizedAffinity>
0.63961

> <CNNscore>
0.4213774502

> <CNNaffinity>
5.5639505386

> <CNN_VS>
2.3445231915

> <CNNaffinity_variance>
0.4645029008

$$$$
[H]Oc1c([H])c([H])c(C([H])([H])[C@@]([H])(C(=O)N([H])[H])N([H])C(=O)[C@@]2([H])N(C(=O)[C@@]([H])(N([H])C(=O)[C@@]([H])(N([H])[H])C([H])([H])c3c([H])c([H])c([H])c([H])c3[H])C([H])([H])[H])C([H])([H])C([H])([H])C2([H])[H])c([H])c1[H]


 43 45  0  0  0  0  0  0  0  0999 V2000
  -10.4908   -7.6793    7.2956 C   0  0  0  0  0  0  0  0  0  0  0  0
  -11.0366   -7.4403    6.1674 O   0  0  0  0  0  0  0  0  0  0  0  0
   -9.5132   -8.6940    7.3410 N   0  0  0  0  0  0  0  0  0  0  0  0
   -9.0871   -9.4909    6.1799 C   0  0  0  0  0  0  0  0  0  0  0  0
   -8.7050  -10.8295    6.7323 C   0  0  0  0  0  0  0  0  0  0  0  0
   -8.4904  -10.6167    8.2092 C   0  0  0  0  0  0  0  0  0  0  0  0
   -8.7418   -9.1550    8.4602 C   0  0  0  0  0  0  0  0  0  0  0  0
   -7.4638   -8.4541    8.6208 C   0  0  0  0  0  0  0  0  0  0  0  0
   -6.9897   -8.2897    9.7671 O   0  0  0  0  0  0  0  0  0  0  0  0
   -6.7632   -7.9646    7.5072 N   0  0  0  0  0  0  0  0  0  0  0  0
   -7.1417   -8.0912    6.5556 H   0  0  0  0  0  0  0  0  0  0  0  0
   -5.4725   -7.2540    7.6110 C   0  0  0  0  0  0  0  0  0  0  0  0
   -5.8193   -5.8443    7.8569 C   0  0  0  0  0  0  0  0  0  0  0  0
   -6.9967   -5.2203    7.3768 N   0  0  0  0  0  0  0  0  0  0  0  0
   -5.0537   -5.0731    8.5366 O   0  0  0  0  0  0  0  0  0  0  0  0
   -7.3415   -5.2938    6.4067 H   0  0  0  0  0  0  0  0  0  0  0  0
   -7.5533   -4.6479    8.0488 H   0  0  0  0  0  0  0  0  0  0  0  0
   -4.7942   -7.5124    6.2963 C   0  0  0  0  0  0  0  0  0  0  0  0
   -3.8850   -6.4551    5.8739 C   0  0  0  0  0  0  0  0  0  0  0  0
   -4.2757   -5.3895    5.0966 C   0  0  0  0  0  0  0  0  0  0  0  0
   -3.3779   -4.4168    4.7264 C   0  0  0  0  0  0  0  0  0  0  0  0
   -2.0640   -4.4590    5.1085 C   0  0  0  0  0  0  0  0  0  0  0  0
   -1.1613   -3.4748    4.7324 O   0  0  0  0  0  0  0  0  0  0  0  0
   -1.6618   -5.5162    5.8835 C   0  0  0  0  0  0  0  0  0  0  0  0
   -2.5484   -6.4886    6.2565 C   0  0  0  0  0  0  0  0  0  0  0  0
   -1.0630   -2.6873    5.3424 H   0  0  0  0  0  0  0  0  0  0  0  0
   -9.8684   -6.8522    9.5677 C   0  0  0  0  0  0  0  0  0  0  0  0
  -10.9098   -6.8900    8.4623 C   0  0  0  0  0  0  0  0  0  0  0  0
  -12.0889   -7.5099    9.0608 N   0  0  0  0  0  0  0  0  0  0  0  0
  -13.2411   -7.8221    8.2894 C   0  0  0  0  0  0  0  0  0  0  0  0
  -13.2133   -7.5452    7.0662 O   0  0  0  0  0  0  0  0  0  0  0  0
  -12.1032   -7.7372   10.0843 H   0  0  0  0  0  0  0  0  0  0  0  0
  -14.4389   -8.4524    8.8944 C   0  0  0  0  0  0  0  0  0  0  0  0
  -15.3174   -7.5007    9.5069 N   0  0  0  0  0  0  0  0  0  0  0  0
  -15.5609   -6.7714    8.7994 H   0  0  0  0  0  0  0  0  0  0  0  0
  -14.8312   -7.0201   10.2890 H   0  0  0  0  0  0  0  0  0  0  0  0
  -15.1255   -9.3082    7.8596 C   0  0  0  0  0  0  0  0  0  0  0  0
  -15.6683   -8.5077    6.7391 C   0  0  0  0  0  0  0  0  0  0  0  0
  -16.5339   -7.4660    6.9804 C   0  0  0  0  0  0  0  0  0  0  0  0
  -17.0647   -6.6899    5.9644 C   0  0  0  0  0  0  0  0  0  0  0  0
  -16.7157   -6.9690    4.6748 C   0  0  0  0  0  0  0  0  0  0  0  0
  -15.8497   -8.0085    4.4095 C   0  0  0  0  0  0  0  0  0  0  0  0
  -15.3155   -8.7905    5.4401 C   0  0  0  0  0  0  0  0  0  0  0  0
 27 28  1  0  0  0
 28 29  1  0  0  0
 29 30  1  0  0  0
 30 31  2  0  0  0
 30 33  1  0  0  0
 33 34  1  0  0  0
 33 37  1  0  0  0
 37 38  1  0  0  0
 38 39  2  0  0  0
 39 40  1  0  0  0
 40 41  2  0  0  0
 41 42  1  0  0  0
 42 43  2  0  0  0
 28  1  1  0  0  0
  1  2  2  0  0  0
  1  3  1  0  0  0
  3  4  1  0  0  0
  4  5  1  0  0  0
  5  6  1  0  0  0
  6  7  1  0  0  0
  7  8  1  0  0  0
  8  9  2  0  0  0
  8 10  1  0  0  0
 10 12  1  0  0  0
 12 18  1  0  0  0
 18 19  1  0  0  0
 19 20  2  0  0  0
 20 21  1  0  0  0
 21 22  2  0  0  0
 22 23  1  0  0  0
 22 24  1  0  0  0
 24 25  2  0  0  0
 12 13  1  0  0  0
 13 14  1  0  0  0
 13 15  2  0  0  0
 43 38  1  0  0  0
  7  3  1  0  0  0
 25 19  1  0  0  0
 29 32  1  0  0  0
 34 35  1  0  0  0
 34 36  1  0  0  0
 10 11  1  0  0  0
 23 26  1  0  0  0
 14 16  1  0  0  0
 14 17  1  0  0  0
M  END
> <minimizedAffinity>
1.45372

> <CNNscore>
0.4062026143

> <CNNaffinity>
6.8114180565

> <CNN_VS>
2.7668159008

> <CNNaffinity_variance>
1.2143386602

$$$$
[H]Oc1c([H])c([H])c(C([H])([H])[C@@]([H])(C(=O)N([H])[H])N([H])C(=O)[C@@]2([H])N(C(=O)[C@@]([H])(N([H])C(=O)[C@@]([H])(N([H])[H])C([H])([H])c3c([H])c([H])c([H])c([H])c3[H])C([H])([H])[H])C([H])([H])C([H])([H])C2([H])[H])c([H])c1[H]


 43 45  0  0  0  0  0  0  0  0999 V2000
  -13.2082   -8.7835   10.2093 C   0  0  0  0  0  0  0  0  0  0  0  0
  -13.3705   -9.1967   11.4054 O   0  0  0  0  0  0  0  0  0  0  0  0
  -12.7018   -7.4792   10.0369 N   0  0  0  0  0  0  0  0  0  0  0  0
  -12.3537   -6.5697   11.1397 C   0  0  0  0  0  0  0  0  0  0  0  0
  -12.6147   -5.1903   10.6179 C   0  0  0  0  0  0  0  0  0  0  0  0
  -12.6638   -5.3231    9.1170 C   0  0  0  0  0  0  0  0  0  0  0  0
  -12.4141   -6.7762    8.8190 C   0  0  0  0  0  0  0  0  0  0  0  0
  -11.0363   -6.9549    8.3497 C   0  0  0  0  0  0  0  0  0  0  0  0
  -10.2261   -6.0053    8.4383 O   0  0  0  0  0  0  0  0  0  0  0  0
  -10.6119   -8.1759    7.8024 N   0  0  0  0  0  0  0  0  0  0  0  0
  -11.2685   -8.9677    7.7215 H   0  0  0  0  0  0  0  0  0  0  0  0
   -9.2370   -8.4110    7.3167 C   0  0  0  0  0  0  0  0  0  0  0  0
   -9.0673   -9.8736    7.3116 C   0  0  0  0  0  0  0  0  0  0  0  0
   -9.8972  -10.7673    6.5914 N   0  0  0  0  0  0  0  0  0  0  0  0
   -8.1340  -10.4437    7.9802 O   0  0  0  0  0  0  0  0  0  0  0  0
  -10.9289  -10.7348    6.5932 H   0  0  0  0  0  0  0  0  0  0  0  0
   -9.4349  -11.5083    6.0202 H   0  0  0  0  0  0  0  0  0  0  0  0
   -8.3623   -7.6820    8.2958 C   0  0  0  0  0  0  0  0  0  0  0  0
   -7.1106   -7.1938    7.7322 C   0  0  0  0  0  0  0  0  0  0  0  0
   -6.9467   -6.9019    6.3979 C   0  0  0  0  0  0  0  0  0  0  0  0
   -5.7442   -6.4421    5.9166 C   0  0  0  0  0  0  0  0  0  0  0  0
   -4.6608   -6.2535    6.7319 C   0  0  0  0  0  0  0  0  0  0  0  0
   -3.4489   -5.7891    6.2416 O   0  0  0  0  0  0  0  0  0  0  0  0
   -4.8112   -6.5410    8.0642 C   0  0  0  0  0  0  0  0  0  0  0  0
   -6.0041   -6.9989    8.5517 C   0  0  0  0  0  0  0  0  0  0  0  0
   -3.3095   -4.7979    6.2308 H   0  0  0  0  0  0  0  0  0  0  0  0
  -12.3401  -10.2965    8.4227 C   0  0  0  0  0  0  0  0  0  0  0  0
  -13.5539   -9.6834    9.1001 C   0  0  0  0  0  0  0  0  0  0  0  0
  -14.2351   -8.9192    8.0585 N   0  0  0  0  0  0  0  0  0  0  0  0
  -13.8993   -9.0649    6.6852 C   0  0  0  0  0  0  0  0  0  0  0  0
  -12.9900   -9.8783    6.3930 O   0  0  0  0  0  0  0  0  0  0  0  0
  -14.9936   -8.2413    8.3123 H   0  0  0  0  0  0  0  0  0  0  0  0
  -14.5900   -8.2911    5.6258 C   0  0  0  0  0  0  0  0  0  0  0  0
  -15.0130   -9.1084    4.5278 N   0  0  0  0  0  0  0  0  0  0  0  0
  -15.5983   -9.8889    4.9020 H   0  0  0  0  0  0  0  0  0  0  0  0
  -14.1877   -9.5375    4.0654 H   0  0  0  0  0  0  0  0  0  0  0  0
  -15.7176   -7.5022    6.2428 C   0  0  0  0  0  0  0  0  0  0  0  0
  -16.2222   -6.4434    5.3396 C   0  0  0  0  0  0  0  0  0  0  0  0
  -17.5385   -6.4360    4.9396 C   0  0  0  0  0  0  0  0  0  0  0  0
  -18.0541   -5.4655    4.0978 C   0  0  0  0  0  0  0  0  0  0  0  0
  -17.2250   -4.4790    3.6481 C   0  0  0  0  0  0  0  0  0  0  0  0
  -15.9020   -4.4668    4.0361 C   0  0  0  0  0  0  0  0  0  0  0  0
  -15.3852   -5.4502    4.8874 C   0  0  0  0  0  0  0  0  0  0  0  0
 27 28  1  0  0  0
 28 29  1  0  0  0
 29 30  1  0  0  0
 30 31  2  0  0  0
 30 33  1  0  0  0
 33 34  1  0  0  0
 33 37  1  0  0  0
 37 38  1  0  0  0
 38 39  2  0  0  0
 39 40  1  0  0  0
 40 41  2  0  0  0
 41 42  1  0  0  0
 42 43  2  0  0  0
 28  1  1  0  0  0
  1  2  2  0  0  0
  1  3  1  0  0  0
  3  4  1  0  0  0
  4  5  1  0  0  0
  5  6  1  0  0  0
  6  7  1  0  0  0
  7  8  1  0  0  0
  8  9  2  0  0  0
  8 10  1  0  0  0
 10 12  1  0  0  0
 12 18  1  0  0  0
 18 19  1  0  0  0
 19 20  2  0  0  0
 20 21  1  0  0  0
 21 22  2  0  0  0
 22 23  1  0  0  0
 22 24  1  0  0  0
 24 25  2  0  0  0
 12 13  1  0  0  0
 13 14  1  0  0  0
 13 15  2  0  0  0
 43 38  1  0  0  0
  7  3  1  0  0  0
 25 19  1  0  0  0
 29 32  1  0  0  0
 34 35  1  0  0  0
 34 36  1  0  0  0
 10 11  1  0  0  0
 23 26  1  0  0  0
 14 16  1  0  0  0
 14 17  1  0  0  0
M  END
> <minimizedAffinity>
-6.85877

> <CNNscore>
0.3276264071

> <CNNaffinity>
7.1394057274

> <CNN_VS>
2.3390579224

> <CNNaffinity_variance>
0.1026879102

$$$$
[H]Oc1c([H])c([H])c(C([H])([H])[C@@]([H])(C(=O)N([H])[H])N([H])C(=O)[C@@]2([H])N(C(=O)[C@@]([H])(N([H])C(=O)[C@@]([H])(N([H])[H])C([H])([H])c3c([H])c([H])c([H])c([H])c3[H])C([H])([H])[H])C([H])([H])C([H])([H])C2([H])[H])c([H])c1[H]


 43 45  0  0  0  0  0  0  0  0999 V2000
  -10.8378   -8.4242    7.4312 C   0  0  0  0  0  0  0  0  0  0  0  0
  -11.4704   -9.1406    6.5861 O   0  0  0  0  0  0  0  0  0  0  0  0
   -9.4894   -8.7523    7.6790 N   0  0  0  0  0  0  0  0  0  0  0  0
   -8.7710   -9.8614    7.0322 C   0  0  0  0  0  0  0  0  0  0  0  0
   -7.7672  -10.3295    8.0402 C   0  0  0  0  0  0  0  0  0  0  0  0
   -7.6312   -9.2049    9.0349 C   0  0  0  0  0  0  0  0  0  0  0  0
   -8.5523   -8.1148    8.5596 C   0  0  0  0  0  0  0  0  0  0  0  0
   -7.7713   -7.0532    7.9166 C   0  0  0  0  0  0  0  0  0  0  0  0
   -8.3610   -6.1566    7.2729 O   0  0  0  0  0  0  0  0  0  0  0  0
   -6.3711   -7.0271    8.0123 N   0  0  0  0  0  0  0  0  0  0  0  0
   -5.8703   -7.7600    8.5385 H   0  0  0  0  0  0  0  0  0  0  0  0
   -5.5361   -5.9816    7.3867 C   0  0  0  0  0  0  0  0  0  0  0  0
   -5.4951   -6.3173    5.9537 C   0  0  0  0  0  0  0  0  0  0  0  0
   -6.5862   -6.1483    5.0666 N   0  0  0  0  0  0  0  0  0  0  0  0
   -4.4410   -6.7997    5.4069 O   0  0  0  0  0  0  0  0  0  0  0  0
   -7.5521   -6.4529    5.2656 H   0  0  0  0  0  0  0  0  0  0  0  0
   -6.4015   -5.6845    4.1502 H   0  0  0  0  0  0  0  0  0  0  0  0
   -4.2144   -6.0836    8.0924 C   0  0  0  0  0  0  0  0  0  0  0  0
   -3.9269   -4.9713    8.9886 C   0  0  0  0  0  0  0  0  0  0  0  0
   -4.2808   -4.9622   10.3179 C   0  0  0  0  0  0  0  0  0  0  0  0
   -3.9845   -3.8874   11.1217 C   0  0  0  0  0  0  0  0  0  0  0  0
   -3.3295   -2.7838   10.6451 C   0  0  0  0  0  0  0  0  0  0  0  0
   -3.0324   -1.7012   11.4603 O   0  0  0  0  0  0  0  0  0  0  0  0
   -2.9713   -2.7805    9.3215 C   0  0  0  0  0  0  0  0  0  0  0  0
   -3.2621   -3.8456    8.5144 C   0  0  0  0  0  0  0  0  0  0  0  0
   -2.1540   -1.7173   11.9399 H   0  0  0  0  0  0  0  0  0  0  0  0
  -11.6790   -7.4880    9.5877 C   0  0  0  0  0  0  0  0  0  0  0  0
  -11.5462   -7.3144    8.0843 C   0  0  0  0  0  0  0  0  0  0  0  0
  -12.9148   -7.2563    7.5779 N   0  0  0  0  0  0  0  0  0  0  0  0
  -13.9144   -8.1636    8.0222 C   0  0  0  0  0  0  0  0  0  0  0  0
  -13.5808   -9.0249    8.8712 O   0  0  0  0  0  0  0  0  0  0  0  0
  -13.1843   -6.5333    6.8680 H   0  0  0  0  0  0  0  0  0  0  0  0
  -15.3047   -8.1061    7.5105 C   0  0  0  0  0  0  0  0  0  0  0  0
  -16.2812   -8.3678    8.5256 N   0  0  0  0  0  0  0  0  0  0  0  0
  -16.1176   -7.7093    9.3202 H   0  0  0  0  0  0  0  0  0  0  0  0
  -16.1606   -9.3312    8.8949 H   0  0  0  0  0  0  0  0  0  0  0  0
  -15.5213   -6.7884    6.8093 C   0  0  0  0  0  0  0  0  0  0  0  0
  -16.5121   -6.8911    5.7144 C   0  0  0  0  0  0  0  0  0  0  0  0
  -16.8712   -8.1199    5.2108 C   0  0  0  0  0  0  0  0  0  0  0  0
  -17.7940   -8.2637    4.1890 C   0  0  0  0  0  0  0  0  0  0  0  0
  -18.3690   -7.1438    3.6616 C   0  0  0  0  0  0  0  0  0  0  0  0
  -18.0240   -5.9018    4.1508 C   0  0  0  0  0  0  0  0  0  0  0  0
  -17.0904   -5.7614    5.1841 C   0  0  0  0  0  0  0  0  0  0  0  0
 27 28  1  0  0  0
 28 29  1  0  0  0
 29 30  1  0  0  0
 30 31  2  0  0  0
 30 33  1  0  0  0
 33 34  1  0  0  0
 33 37  1  0  0  0
 37 38  1  0  0  0
 38 39  2  0  0  0
 39 40  1  0  0  0
 40 41  2  0  0  0
 41 42  1  0  0  0
 42 43  2  0  0  0
 28  1  1  0  0  0
  1  2  2  0  0  0
  1  3  1  0  0  0
  3  4  1  0  0  0
  4  5  1  0  0  0
  5  6  1  0  0  0
  6  7  1  0  0  0
  7  8  1  0  0  0
  8  9  2  0  0  0
  8 10  1  0  0  0
 10 12  1  0  0  0
 12 18  1  0  0  0
 18 19  1  0  0  0
 19 20  2  0  0  0
 20 21  1  0  0  0
 21 22  2  0  0  0
 22 23  1  0  0  0
 22 24  1  0  0  0
 24 25  2  0  0  0
 12 13  1  0  0  0
 13 14  1  0  0  0
 13 15  2  0  0  0
 43 38  1  0  0  0
  7  3  1  0  0  0
 25 19  1  0  0  0
 29 32  1  0  0  0
 34 35  1  0  0  0
 34 36  1  0  0  0
 10 11  1  0  0  0
 23 26  1  0  0  0
 14 16  1  0  0  0
 14 17  1  0  0  0
M  END
> <minimizedAffinity>
-7.78781

> <CNNscore>
0.2635371089

> <CNNaffinity>
6.8421068192

> <CNN_VS>
1.8031491041

> <CNNaffinity_variance>
0.2317422181

$$$$
[H]Oc1c([H])c([H])c(C([H])([H])[C@@]([H])(C(=O)N([H])[H])N([H])C(=O)[C@@]2([H])N(C(=O)[C@@]([H])(N([H])C(=O)[C@@]([H])(N([H])[H])C([H])([H])c3c([H])c([H])c([H])c([H])c3[H])C([H])([H])[H])C([H])([H])C([H])([H])C2([H])[H])c([H])c1[H]


 43 45  0  0  0  0  0  0  0  0999 V2000
  -11.4742   -7.3056    9.0938 C   0  0  0  0  0  0  0  0  0  0  0  0
  -11.3788   -7.0426   10.3386 O   0  0  0  0  0  0  0  0  0  0  0  0
  -12.2104   -8.4506    8.7275 N   0  0  0  0  0  0  0  0  0  0  0  0
  -12.8686   -9.3566    9.6818 C   0  0  0  0  0  0  0  0  0  0  0  0
  -12.8320  -10.7091    9.0395 C   0  0  0  0  0  0  0  0  0  0  0  0
  -12.5737  -10.4599    7.5753 C   0  0  0  0  0  0  0  0  0  0  0  0
  -12.4840   -8.9667    7.4164 C   0  0  0  0  0  0  0  0  0  0  0  0
  -13.7286   -8.4562    6.8326 C   0  0  0  0  0  0  0  0  0  0  0  0
  -14.0429   -8.7832    5.6664 O   0  0  0  0  0  0  0  0  0  0  0  0
  -14.5737   -7.6058    7.5628 N   0  0  0  0  0  0  0  0  0  0  0  0
  -14.3275   -7.3261    8.5250 H   0  0  0  0  0  0  0  0  0  0  0  0
  -15.8384   -7.0646    7.0251 C   0  0  0  0  0  0  0  0  0  0  0  0
  -16.9042   -7.8736    7.6396 C   0  0  0  0  0  0  0  0  0  0  0  0
  -16.6973   -8.7816    8.7068 N   0  0  0  0  0  0  0  0  0  0  0  0
  -18.1178   -7.8061    7.2327 O   0  0  0  0  0  0  0  0  0  0  0  0
  -15.9391   -9.4814    8.7382 H   0  0  0  0  0  0  0  0  0  0  0  0
  -17.3552   -8.7406    9.5157 H   0  0  0  0  0  0  0  0  0  0  0  0
  -15.7120   -7.2210    5.5369 C   0  0  0  0  0  0  0  0  0  0  0  0
  -15.6936   -5.9629    4.8022 C   0  0  0  0  0  0  0  0  0  0  0  0
  -16.7791   -5.4764    4.1113 C   0  0  0  0  0  0  0  0  0  0  0  0
  -16.7100   -4.2819    3.4349 C   0  0  0  0  0  0  0  0  0  0  0  0
  -15.5697   -3.5245    3.4149 C   0  0  0  0  0  0  0  0  0  0  0  0
  -15.5047   -2.3192    2.7308 O   0  0  0  0  0  0  0  0  0  0  0  0
  -14.4806   -3.9985    4.0998 C   0  0  0  0  0  0  0  0  0  0  0  0
  -14.5404   -5.1860    4.7756 C   0  0  0  0  0  0  0  0  0  0  0  0
  -15.7565   -1.4925    3.2358 H   0  0  0  0  0  0  0  0  0  0  0  0
  -10.8921   -6.9068    6.6987 C   0  0  0  0  0  0  0  0  0  0  0  0
  -10.8194   -6.4079    8.1319 C   0  0  0  0  0  0  0  0  0  0  0  0
   -9.3949   -6.3294    8.4438 N   0  0  0  0  0  0  0  0  0  0  0  0
   -8.4539   -7.2249    7.8673 C   0  0  0  0  0  0  0  0  0  0  0  0
   -8.8898   -8.0940    7.0745 O   0  0  0  0  0  0  0  0  0  0  0  0
   -9.0398   -5.5999    9.1080 H   0  0  0  0  0  0  0  0  0  0  0  0
   -7.0070   -7.1466    8.1814 C   0  0  0  0  0  0  0  0  0  0  0  0
   -6.7299   -7.3417    9.5734 N   0  0  0  0  0  0  0  0  0  0  0  0
   -7.1579   -8.2467    9.8727 H   0  0  0  0  0  0  0  0  0  0  0  0
   -7.1771   -6.5900   10.1337 H   0  0  0  0  0  0  0  0  0  0  0  0
   -6.2533   -8.1017    7.2902 C   0  0  0  0  0  0  0  0  0  0  0  0
   -5.0200   -7.4987    6.7365 C   0  0  0  0  0  0  0  0  0  0  0  0
   -3.8094   -8.1385    6.8697 C   0  0  0  0  0  0  0  0  0  0  0  0
   -2.6316   -7.6131    6.3667 C   0  0  0  0  0  0  0  0  0  0  0  0
   -2.6735   -6.4151    5.7141 C   0  0  0  0  0  0  0  0  0  0  0  0
   -3.8758   -5.7561    5.5689 C   0  0  0  0  0  0  0  0  0  0  0  0
   -5.0642   -6.2913    6.0792 C   0  0  0  0  0  0  0  0  0  0  0  0
 27 28  1  0  0  0
 28 29  1  0  0  0
 29 30  1  0  0  0
 30 31  2  0  0  0
 30 33  1  0  0  0
 33 34  1  0  0  0
 33 37  1  0  0  0
 37 38  1  0  0  0
 38 39  2  0  0  0
 39 40  1  0  0  0
 40 41  2  0  0  0
 41 42  1  0  0  0
 42 43  2  0  0  0
 28  1  1  0  0  0
  1  2  2  0  0  0
  1  3  1  0  0  0
  3  4  1  0  0  0
  4  5  1  0  0  0
  5  6  1  0  0  0
  6  7  1  0  0  0
  7  8  1  0  0  0
  8  9  2  0  0  0
  8 10  1  0  0  0
 10 12  1  0  0  0
 12 18  1  0  0  0
 18 19  1  0  0  0
 19 20  2  0  0  0
 20 21  1  0  0  0
 21 22  2  0  0  0
 22 23  1  0  0  0
 22 24  1  0  0  0
 24 25  2  0  0  0
 12 13  1  0  0  0
 13 14  1  0  0  0
 13 15  2  0  0  0
 43 38  1  0  0  0
  7  3  1  0  0  0
 25 19  1  0  0  0
 29 32  1  0  0  0
 34 35  1  0  0  0
 34 36  1  0  0  0
 10 11  1  0  0  0
 23 26  1  0  0  0
 14 16  1  0  0  0
 14 17  1  0  0  0
M  END
> <minimizedAffinity>
-2.64367

> <CNNscore>
0.2573669553

> <CNNaffinity>
7.0156850815

> <CNN_VS>
1.8056055307

> <CNNaffinity_variance>
0.3645457625

$$$$
[H]Oc1c([H])c([H])c(C([H])([H])[C@@]([H])(C(=O)N([H])[H])N([H])C(=O)[C@@]2([H])N(C(=O)[C@@]([H])(N([H])C(=O)[C@@]([H])(N([H])[H])C([H])([H])c3c([H])c([H])c([H])c([H])c3[H])C([H])([H])[H])C([H])([H])C([H])([H])C2([H])[H])c([H])c1[H]


 43 45  0  0  0  0  0  0  0  0999 V2000
  -12.2923   -9.4345    8.9456 C   0  0  0  0  0  0  0  0  0  0  0  0
  -12.5615  -10.2166    9.9170 O   0  0  0  0  0  0  0  0  0  0  0  0
  -12.3509   -8.0480    9.1938 N   0  0  0  0  0  0  0  0  0  0  0  0
  -12.7026   -7.4495   10.4910 C   0  0  0  0  0  0  0  0  0  0  0  0
  -13.3753   -6.1522   10.1635 C   0  0  0  0  0  0  0  0  0  0  0  0
  -12.9866   -5.8372    8.7414 C   0  0  0  0  0  0  0  0  0  0  0  0
  -12.0875   -6.9585    8.2973 C   0  0  0  0  0  0  0  0  0  0  0  0
  -10.6918   -6.5090    8.3139 C   0  0  0  0  0  0  0  0  0  0  0  0
  -10.3178   -5.6888    9.1819 O   0  0  0  0  0  0  0  0  0  0  0  0
   -9.7679   -6.9854    7.3706 N   0  0  0  0  0  0  0  0  0  0  0  0
  -10.0613   -7.6610    6.6480 H   0  0  0  0  0  0  0  0  0  0  0  0
   -8.3513   -6.5683    7.3426 C   0  0  0  0  0  0  0  0  0  0  0  0
   -8.0771   -6.2035    5.9427 C   0  0  0  0  0  0  0  0  0  0  0  0
   -8.9234   -5.3858    5.1544 N   0  0  0  0  0  0  0  0  0  0  0  0
   -7.0282   -6.6181    5.3337 O   0  0  0  0  0  0  0  0  0  0  0  0
   -9.9462   -5.5039    5.0823 H   0  0  0  0  0  0  0  0  0  0  0  0
   -8.4835   -4.6118    4.6099 H   0  0  0  0  0  0  0  0  0  0  0  0
   -7.5960   -7.7684    7.8369 C   0  0  0  0  0  0  0  0  0  0  0  0
   -6.1467   -7.6300    7.7770 C   0  0  0  0  0  0  0  0  0  0  0  0
   -5.3389   -8.4626    7.0376 C   0  0  0  0  0  0  0  0  0  0  0  0
   -3.9759   -8.2881    7.0137 C   0  0  0  0  0  0  0  0  0  0  0  0
   -3.3601   -7.2877    7.7168 C   0  0  0  0  0  0  0  0  0  0  0  0
   -1.9837   -7.1153    7.6896 O   0  0  0  0  0  0  0  0  0  0  0  0
   -4.1543   -6.4509    8.4578 C   0  0  0  0  0  0  0  0  0  0  0  0
   -5.5115   -6.6173    8.4874 C   0  0  0  0  0  0  0  0  0  0  0  0
   -1.6119   -6.5161    6.9792 H   0  0  0  0  0  0  0  0  0  0  0  0
  -10.4630   -9.9054    7.3127 C   0  0  0  0  0  0  0  0  0  0  0  0
  -11.9409  -10.0217    7.6450 C   0  0  0  0  0  0  0  0  0  0  0  0
  -12.6352   -9.2922    6.5874 N   0  0  0  0  0  0  0  0  0  0  0  0
  -14.0530   -9.1995    6.5512 C   0  0  0  0  0  0  0  0  0  0  0  0
  -14.6957   -9.7702    7.4650 O   0  0  0  0  0  0  0  0  0  0  0  0
  -12.0897   -8.8188    5.8274 H   0  0  0  0  0  0  0  0  0  0  0  0
  -14.7602   -8.4586    5.4793 C   0  0  0  0  0  0  0  0  0  0  0  0
  -15.4165   -9.3249    4.5457 N   0  0  0  0  0  0  0  0  0  0  0  0
  -16.0489   -9.9654    5.0763 H   0  0  0  0  0  0  0  0  0  0  0  0
  -14.7166   -9.9180    4.0585 H   0  0  0  0  0  0  0  0  0  0  0  0
  -15.6919   -7.4506    6.1043 C   0  0  0  0  0  0  0  0  0  0  0  0
  -15.8445   -6.2357    5.2726 C   0  0  0  0  0  0  0  0  0  0  0  0
  -14.7804   -5.3862    5.0758 C   0  0  0  0  0  0  0  0  0  0  0  0
  -14.8766   -4.2403    4.3051 C   0  0  0  0  0  0  0  0  0  0  0  0
  -16.0726   -3.9424    3.7186 C   0  0  0  0  0  0  0  0  0  0  0  0
  -17.1526   -4.7795    3.9023 C   0  0  0  0  0  0  0  0  0  0  0  0
  -17.0505   -5.9371    4.6824 C   0  0  0  0  0  0  0  0  0  0  0  0
 27 28  1  0  0  0
 28 29  1  0  0  0
 29 30  1  0  0  0
 30 31  2  0  0  0
 30 33  1  0  0  0
 33 34  1  0  0  0
 33 37  1  0  0  0
 37 38  1  0  0  0
 38 39  2  0  0  0
 39 40  1  0  0  0
 40 41  2  0  0  0
 41 42  1  0  0  0
 42 43  2  0  0  0
 28  1  1  0  0  0
  1  2  2  0  0  0
  1  3  1  0  0  0
  3  4  1  0  0  0
  4  5  1  0  0  0
  5  6  1  0  0  0
  6  7  1  0  0  0
  7  8  1  0  0  0
  8  9  2  0  0  0
  8 10  1  0  0  0
 10 12  1  0  0  0
 12 18  1  0  0  0
 18 19  1  0  0  0
 19 20  2  0  0  0
 20 21  1  0  0  0
 21 22  2  0  0  0
 22 23  1  0  0  0
 22 24  1  0  0  0
 24 25  2  0  0  0
 12 13  1  0  0  0
 13 14  1  0  0  0
 13 15  2  0  0  0
 43 38  1  0  0  0
  7  3  1  0  0  0
 25 19  1  0  0  0
 29 32  1  0  0  0
 34 35  1  0  0  0
 34 36  1  0  0  0
 10 11  1  0  0  0
 23 26  1  0  0  0
 14 16  1  0  0  0
 14 17  1  0  0  0
M  END
> <minimizedAffinity>
-6.51530

> <CNNscore>
0.2482405752

> <CNNaffinity>
6.8688721657

> <CNN_VS>
1.7051327229

> <CNNaffinity_variance>
0.1561282575

$$$$
[H]c1nc(N([H])[H])c(C(=O)N([H])c2nc([H])c([H])c([H])c2N2C([H])([H])C([H])([H])C(N([H])[H])(C([H])([H])[H])C([H])([H])C2([H])[H])nc1-c1nc(C(=O)N([H])[H])c([H])c([H])c1C(F)(F)F


 44 47  0  0  0  0  0  0  0  0999 V2000
  -10.9046   -5.8393   11.3142 C   0  0  0  0  0  0  0  0  0  0  0  0
   -9.7897   -5.3847   11.8923 N   0  0  0  0  0  0  0  0  0  0  0  0
   -9.5837   -5.1155   13.1819 C   0  0  0  0  0  0  0  0  0  0  0  0
  -10.7164   -5.3609   14.0129 C   0  0  0  0  0  0  0  0  0  0  0  0
  -11.8354   -5.8119   13.4935 N   0  0  0  0  0  0  0  0  0  0  0  0
  -11.9991   -6.0664   12.1968 C   0  0  0  0  0  0  0  0  0  0  0  0
  -13.2204   -6.5899   11.7105 N   0  0  0  0  0  0  0  0  0  0  0  0
  -14.0339   -5.9568   11.6126 H   0  0  0  0  0  0  0  0  0  0  0  0
  -13.2785   -7.5866   11.4748 H   0  0  0  0  0  0  0  0  0  0  0  0
   -8.4427   -4.5968   13.8911 C   0  0  0  0  0  0  0  0  0  0  0  0
   -7.2618   -5.3045   13.8055 N   0  0  0  0  0  0  0  0  0  0  0  0
   -6.1369   -4.9883   14.4215 C   0  0  0  0  0  0  0  0  0  0  0  0
   -6.0555   -3.8787   15.2312 C   0  0  0  0  0  0  0  0  0  0  0  0
   -7.1938   -3.1328   15.3561 C   0  0  0  0  0  0  0  0  0  0  0  0
   -8.3627   -3.5070   14.6818 C   0  0  0  0  0  0  0  0  0  0  0  0
   -4.9589   -5.8177   14.2390 C   0  0  0  0  0  0  0  0  0  0  0  0
   -4.5605   -6.7112   15.2615 N   0  0  0  0  0  0  0  0  0  0  0  0
   -4.3045   -5.7236   13.1551 O   0  0  0  0  0  0  0  0  0  0  0  0
   -4.0092   -7.5494   15.0145 H   0  0  0  0  0  0  0  0  0  0  0  0
   -4.8106   -6.5400   16.2465 H   0  0  0  0  0  0  0  0  0  0  0  0
   -9.4974   -2.5758   14.8028 C   0  0  0  0  0  0  0  0  0  0  0  0
  -10.5721   -3.2615   15.3840 F   0  0  0  0  0  0  0  0  0  0  0  0
   -9.9866   -2.2768   13.5141 F   0  0  0  0  0  0  0  0  0  0  0  0
   -9.2486   -1.3917   15.3735 F   0  0  0  0  0  0  0  0  0  0  0  0
  -10.7931   -6.5659    8.7702 N   0  0  0  0  0  0  0  0  0  0  0  0
  -11.1475   -5.9666    9.9227 C   0  0  0  0  0  0  0  0  0  0  0  0
  -12.2063   -5.1076    9.5843 O   0  0  0  0  0  0  0  0  0  0  0  0
  -11.4161   -6.1932    7.9055 H   0  0  0  0  0  0  0  0  0  0  0  0
  -10.4802   -8.5875    7.4963 C   0  0  0  0  0  0  0  0  0  0  0  0
   -9.6218   -9.6019    7.0942 C   0  0  0  0  0  0  0  0  0  0  0  0
   -8.3040   -9.6513    7.4799 C   0  0  0  0  0  0  0  0  0  0  0  0
   -7.8294   -8.6520    8.2949 C   0  0  0  0  0  0  0  0  0  0  0  0
   -8.6597   -7.6894    8.6700 N   0  0  0  0  0  0  0  0  0  0  0  0
   -9.9507   -7.5743    8.3361 C   0  0  0  0  0  0  0  0  0  0  0  0
  -14.6915   -9.0711    4.7518 C   0  0  0  0  0  0  0  0  0  0  0  0
  -14.5927   -8.6372    6.2045 C   0  0  0  0  0  0  0  0  0  0  0  0
  -15.9635   -8.4735    6.7063 N   0  0  0  0  0  0  0  0  0  0  0  0
  -13.8099   -7.3723    6.2504 C   0  0  0  0  0  0  0  0  0  0  0  0
  -12.6158   -7.3942    7.1739 C   0  0  0  0  0  0  0  0  0  0  0  0
  -11.8356   -8.6010    7.1060 N   0  0  0  0  0  0  0  0  0  0  0  0
  -12.4750   -9.8092    6.6418 C   0  0  0  0  0  0  0  0  0  0  0  0
  -13.9516   -9.7072    7.0449 C   0  0  0  0  0  0  0  0  0  0  0  0
  -16.3049   -9.4733    6.8472 H   0  0  0  0  0  0  0  0  0  0  0  0
  -15.8867   -8.0909    7.6764 H   0  0  0  0  0  0  0  0  0  0  0  0
 35 36  1  0  0  0
 36 37  1  0  0  0
 36 38  1  0  0  0
 38 39  1  0  0  0
 39 40  1  0  0  0
 40 41  1  0  0  0
 41 42  1  0  0  0
 40 29  1  0  0  0
 29 30  2  0  0  0
 30 31  1  0  0  0
 31 32  2  0  0  0
 32 33  1  0  0  0
 33 34  2  0  0  0
 34 25  1  0  0  0
 25 26  1  0  0  0
 26 27  2  0  0  0
 26  1  1  0  0  0
  1  2  2  0  0  0
  2  3  1  0  0  0
  3  4  2  0  0  0
  4  5  1  0  0  0
  5  6  2  0  0  0
  6  7  1  0  0  0
  3 10  1  0  0  0
 10 11  2  0  0  0
 11 12  1  0  0  0
 12 13  2  0  0  0
 13 14  1  0  0  0
 14 15  2  0  0  0
 15 21  1  0  0  0
 21 22  1  0  0  0
 21 23  1  0  0  0
 21 24  1  0  0  0
 12 16  1  0  0  0
 16 17  1  0  0  0
 16 18  2  0  0  0
 42 36  1  0  0  0
 34 29  1  0  0  0
  6  1  1  0  0  0
 15 10  1  0  0  0
 37 43  1  0  0  0
 37 44  1  0  0  0
 25 28  1  0  0  0
  7  8  1  0  0  0
  7  9  1  0  0  0
 17 19  1  0  0  0
 17 20  1  0  0  0
M  END
> <minimizedAffinity>
7.36891

> <CNNscore>
0.5859247446

> <CNNaffinity>
7.4140229225

> <CNN_VS>
4.3440594673

> <CNNaffinity_variance>
0.4580851197

$$$$
[H]c1nc(N([H])[H])c(C(=O)N([H])c2nc([H])c([H])c([H])c2N2C([H])([H])C([H])([H])C(N([H])[H])(C([H])([H])[H])C([H])([H])C2([H])[H])nc1-c1nc(C(=O)N([H])[H])c([H])c([H])c1C(F)(F)F


 44 47  0  0  0  0  0  0  0  0999 V2000
  -13.5106   -8.5881    6.2336 C   0  0  0  0  0  0  0  0  0  0  0  0
  -14.7824   -8.1842    6.1764 N   0  0  0  0  0  0  0  0  0  0  0  0
  -15.6756   -8.4157    5.2138 C   0  0  0  0  0  0  0  0  0  0  0  0
  -15.1726   -9.1982    4.1329 C   0  0  0  0  0  0  0  0  0  0  0  0
  -13.9298   -9.6232    4.1432 N   0  0  0  0  0  0  0  0  0  0  0  0
  -13.0687   -9.3672    5.1261 C   0  0  0  0  0  0  0  0  0  0  0  0
  -11.7548   -9.8910    5.0921 N   0  0  0  0  0  0  0  0  0  0  0  0
  -11.0560   -9.4525    4.4663 H   0  0  0  0  0  0  0  0  0  0  0  0
  -11.5238  -10.7000    5.6793 H   0  0  0  0  0  0  0  0  0  0  0  0
  -17.0445   -8.0013    5.0450 C   0  0  0  0  0  0  0  0  0  0  0  0
  -18.0275   -8.8179    5.5642 N   0  0  0  0  0  0  0  0  0  0  0  0
  -19.3272   -8.6044    5.4652 C   0  0  0  0  0  0  0  0  0  0  0  0
  -19.8199   -7.5011    4.8068 C   0  0  0  0  0  0  0  0  0  0  0  0
  -18.8948   -6.6501    4.2705 C   0  0  0  0  0  0  0  0  0  0  0  0
  -17.5266   -6.9177    4.4027 C   0  0  0  0  0  0  0  0  0  0  0  0
  -20.2584   -9.5425    6.0664 C   0  0  0  0  0  0  0  0  0  0  0  0
  -20.0249  -10.0268    7.3755 N   0  0  0  0  0  0  0  0  0  0  0  0
  -21.2732   -9.9123    5.3991 O   0  0  0  0  0  0  0  0  0  0  0  0
  -20.8238  -10.3497    7.9456 H   0  0  0  0  0  0  0  0  0  0  0  0
  -19.0730  -10.0627    7.7688 H   0  0  0  0  0  0  0  0  0  0  0  0
  -16.6185   -5.8828    3.8796 C   0  0  0  0  0  0  0  0  0  0  0  0
  -15.9964   -5.2511    4.9644 F   0  0  0  0  0  0  0  0  0  0  0  0
  -17.3844   -4.8404    3.3171 F   0  0  0  0  0  0  0  0  0  0  0  0
  -15.7657   -6.2571    2.9193 F   0  0  0  0  0  0  0  0  0  0  0  0
  -12.1736   -8.1944    8.4852 N   0  0  0  0  0  0  0  0  0  0  0  0
  -12.5383   -8.1967    7.1890 C   0  0  0  0  0  0  0  0  0  0  0  0
  -11.5090   -7.5213    6.5124 O   0  0  0  0  0  0  0  0  0  0  0  0
  -11.1964   -7.6490    8.6354 H   0  0  0  0  0  0  0  0  0  0  0  0
  -12.8376   -7.8694   10.7788 C   0  0  0  0  0  0  0  0  0  0  0  0
  -13.2316   -8.4424   11.9805 C   0  0  0  0  0  0  0  0  0  0  0  0
  -13.3846   -9.7988   12.1375 C   0  0  0  0  0  0  0  0  0  0  0  0
  -13.1352  -10.6085   11.0558 C   0  0  0  0  0  0  0  0  0  0  0  0
  -12.7608  -10.0478    9.9147 N   0  0  0  0  0  0  0  0  0  0  0  0
  -12.5914   -8.7400    9.6863 C   0  0  0  0  0  0  0  0  0  0  0  0
  -11.7094   -3.0720   11.8808 C   0  0  0  0  0  0  0  0  0  0  0  0
  -12.2699   -3.6010   10.5714 C   0  0  0  0  0  0  0  0  0  0  0  0
  -12.3368   -2.4706    9.6358 N   0  0  0  0  0  0  0  0  0  0  0  0
  -13.6063   -4.1924   10.8533 C   0  0  0  0  0  0  0  0  0  0  0  0
  -13.7805   -5.6212   10.3976 C   0  0  0  0  0  0  0  0  0  0  0  0
  -12.6563   -6.4741   10.6773 N   0  0  0  0  0  0  0  0  0  0  0  0
  -11.3559   -5.8686   10.8397 C   0  0  0  0  0  0  0  0  0  0  0  0
  -11.3427   -4.6137    9.9575 C   0  0  0  0  0  0  0  0  0  0  0  0
  -11.3230   -2.3218    9.3424 H   0  0  0  0  0  0  0  0  0  0  0  0
  -12.8042   -2.8226    8.7692 H   0  0  0  0  0  0  0  0  0  0  0  0
 35 36  1  0  0  0
 36 37  1  0  0  0
 36 38  1  0  0  0
 38 39  1  0  0  0
 39 40  1  0  0  0
 40 41  1  0  0  0
 41 42  1  0  0  0
 40 29  1  0  0  0
 29 30  2  0  0  0
 30 31  1  0  0  0
 31 32  2  0  0  0
 32 33  1  0  0  0
 33 34  2  0  0  0
 34 25  1  0  0  0
 25 26  1  0  0  0
 26 27  2  0  0  0
 26  1  1  0  0  0
  1  2  2  0  0  0
  2  3  1  0  0  0
  3  4  2  0  0  0
  4  5  1  0  0  0
  5  6  2  0  0  0
  6  7  1  0  0  0
  3 10  1  0  0  0
 10 11  2  0  0  0
 11 12  1  0  0  0
 12 13  2  0  0  0
 13 14  1  0  0  0
 14 15  2  0  0  0
 15 21  1  0  0  0
 21 22  1  0  0  0
 21 23  1  0  0  0
 21 24  1  0  0  0
 12 16  1  0  0  0
 16 17  1  0  0  0
 16 18  2  0  0  0
 42 36  1  0  0  0
 34 29  1  0  0  0
  6  1  1  0  0  0
 15 10  1  0  0  0
 37 43  1  0  0  0
 37 44  1  0  0  0
 25 28  1  0  0  0
  7  8  1  0  0  0
  7  9  1  0  0  0
 17 19  1  0  0  0
 17 20  1  0  0  0
M  END
> <minimizedAffinity>
17.26250

> <CNNscore>
0.5290217996

> <CNNaffinity>
7.7878823280

> <CNN_VS>
4.1199593544

> <CNNaffinity_variance>
0.7789813280

$$$$
[H]c1nc(N([H])[H])c(C(=O)N([H])c2nc([H])c([H])c([H])c2N2C([H])([H])C([H])([H])C(N([H])[H])(C([H])([H])[H])C([H])([H])C2([H])[H])nc1-c1nc(C(=O)N([H])[H])c([H])c([H])c1C(F)(F)F


 44 47  0  0  0  0  0  0  0  0999 V2000
  -10.8974   -6.4877   10.2635 C   0  0  0  0  0  0  0  0  0  0  0  0
   -9.9123   -6.0206   11.0350 N   0  0  0  0  0  0  0  0  0  0  0  0
   -9.9359   -5.7899   12.3481 C   0  0  0  0  0  0  0  0  0  0  0  0
  -11.1831   -6.0970   12.9678 C   0  0  0  0  0  0  0  0  0  0  0  0
  -12.1823   -6.5627   12.2535 N   0  0  0  0  0  0  0  0  0  0  0  0
  -12.1163   -6.7772   10.9410 C   0  0  0  0  0  0  0  0  0  0  0  0
  -13.2193   -7.3195   10.2399 N   0  0  0  0  0  0  0  0  0  0  0  0
  -14.0263   -6.7077   10.0239 H   0  0  0  0  0  0  0  0  0  0  0  0
  -13.2021   -8.3088    9.9691 H   0  0  0  0  0  0  0  0  0  0  0  0
   -8.9495   -5.2624   13.2551 C   0  0  0  0  0  0  0  0  0  0  0  0
   -7.6483   -5.6950   13.1053 N   0  0  0  0  0  0  0  0  0  0  0  0
   -6.6334   -5.3398   13.8725 C   0  0  0  0  0  0  0  0  0  0  0  0
   -6.8065   -4.4720   14.9263 C   0  0  0  0  0  0  0  0  0  0  0  0
   -8.0751   -4.0050   15.1269 C   0  0  0  0  0  0  0  0  0  0  0  0
   -9.1192   -4.4089   14.2856 C   0  0  0  0  0  0  0  0  0  0  0  0
   -5.3071   -5.8644   13.5999 C   0  0  0  0  0  0  0  0  0  0  0  0
   -4.6245   -6.6064   14.5930 N   0  0  0  0  0  0  0  0  0  0  0  0
   -4.7820   -5.6448   12.4650 O   0  0  0  0  0  0  0  0  0  0  0  0
   -3.9069   -7.2930   14.3078 H   0  0  0  0  0  0  0  0  0  0  0  0
   -4.8309   -6.4736   15.5938 H   0  0  0  0  0  0  0  0  0  0  0  0
  -10.4213   -3.7642   14.5266 C   0  0  0  0  0  0  0  0  0  0  0  0
  -10.9694   -3.3986   13.2902 F   0  0  0  0  0  0  0  0  0  0  0  0
  -10.2086   -2.5159   15.1478 F   0  0  0  0  0  0  0  0  0  0  0  0
  -11.2799   -4.4154   15.3194 F   0  0  0  0  0  0  0  0  0  0  0  0
  -10.7270   -7.3630    7.7701 N   0  0  0  0  0  0  0  0  0  0  0  0
  -10.8979   -6.5743    8.8479 C   0  0  0  0  0  0  0  0  0  0  0  0
  -11.2057   -5.3038    8.3333 O   0  0  0  0  0  0  0  0  0  0  0  0
  -10.8550   -6.7808    6.8112 H   0  0  0  0  0  0  0  0  0  0  0  0
   -9.2001   -9.1781    7.3443 C   0  0  0  0  0  0  0  0  0  0  0  0
   -9.0278  -10.5189    7.0274 C   0  0  0  0  0  0  0  0  0  0  0  0
  -10.0852  -11.3766    6.8432 C   0  0  0  0  0  0  0  0  0  0  0  0
  -11.3573  -10.8760    6.9811 C   0  0  0  0  0  0  0  0  0  0  0  0
  -11.5069   -9.5946    7.2848 N   0  0  0  0  0  0  0  0  0  0  0  0
  -10.5293   -8.7014    7.4790 C   0  0  0  0  0  0  0  0  0  0  0  0
   -4.5130   -7.3132    7.1111 C   0  0  0  0  0  0  0  0  0  0  0  0
   -5.7268   -6.6565    7.7465 C   0  0  0  0  0  0  0  0  0  0  0  0
   -5.3139   -5.3227    8.2027 N   0  0  0  0  0  0  0  0  0  0  0  0
   -6.1852   -7.5282    8.8623 C   0  0  0  0  0  0  0  0  0  0  0  0
   -7.6365   -7.9388    8.7962 C   0  0  0  0  0  0  0  0  0  0  0  0
   -8.0838   -8.3274    7.4853 N   0  0  0  0  0  0  0  0  0  0  0  0
   -7.3716   -7.8207    6.3363 C   0  0  0  0  0  0  0  0  0  0  0  0
   -6.8186   -6.4461    6.7336 C   0  0  0  0  0  0  0  0  0  0  0  0
   -5.2585   -4.7515    7.3046 H   0  0  0  0  0  0  0  0  0  0  0  0
   -6.1278   -4.9132    8.7158 H   0  0  0  0  0  0  0  0  0  0  0  0
 35 36  1  0  0  0
 36 37  1  0  0  0
 36 38  1  0  0  0
 38 39  1  0  0  0
 39 40  1  0  0  0
 40 41  1  0  0  0
 41 42  1  0  0  0
 40 29  1  0  0  0
 29 30  2  0  0  0
 30 31  1  0  0  0
 31 32  2  0  0  0
 32 33  1  0  0  0
 33 34  2  0  0  0
 34 25  1  0  0  0
 25 26  1  0  0  0
 26 27  2  0  0  0
 26  1  1  0  0  0
  1  2  2  0  0  0
  2  3  1  0  0  0
  3  4  2  0  0  0
  4  5  1  0  0  0
  5  6  2  0  0  0
  6  7  1  0  0  0
  3 10  1  0  0  0
 10 11  2  0  0  0
 11 12  1  0  0  0
 12 13  2  0  0  0
 13 14  1  0  0  0
 14 15  2  0  0  0
 15 21  1  0  0  0
 21 22  1  0  0  0
 21 23  1  0  0  0
 21 24  1  0  0  0
 12 16  1  0  0  0
 16 17  1  0  0  0
 16 18  2  0  0  0
 42 36  1  0  0  0
 34 29  1  0  0  0
  6  1  1  0  0  0
 15 10  1  0  0  0
 37 43  1  0  0  0
 37 44  1  0  0  0
 25 28  1  0  0  0
  7  8  1  0  0  0
  7  9  1  0  0  0
 17 19  1  0  0  0
 17 20  1  0  0  0
M  END
> <minimizedAffinity>
12.30485

> <CNNscore>
0.4854261875

> <CNNaffinity>
7.1074438095

> <CNN_VS>
3.4501392841

> <CNNaffinity_variance>
0.7876515388

$$$$
[H]c1nc(N([H])[H])c(C(=O)N([H])c2nc([H])c([H])c([H])c2N2C([H])([H])C([H])([H])C(N([H])[H])(C([H])([H])[H])C([H])([H])C2([H])[H])nc1-c1nc(C(=O)N([H])[H])c([H])c([H])c1C(F)(F)F


 44 47  0  0  0  0  0  0  0  0999 V2000
   -9.3791   -9.4193    6.8380 C   0  0  0  0  0  0  0  0  0  0  0  0
   -8.2589   -8.6920    6.8409 N   0  0  0  0  0  0  0  0  0  0  0  0
   -7.0221   -9.0889    7.1427 C   0  0  0  0  0  0  0  0  0  0  0  0
   -6.9262  -10.4672    7.4959 C   0  0  0  0  0  0  0  0  0  0  0  0
   -7.9981  -11.2263    7.5046 N   0  0  0  0  0  0  0  0  0  0  0  0
   -9.2173  -10.7880    7.1973 C   0  0  0  0  0  0  0  0  0  0  0  0
  -10.3229  -11.6710    7.1880 N   0  0  0  0  0  0  0  0  0  0  0  0
  -10.7373  -11.9655    8.0900 H   0  0  0  0  0  0  0  0  0  0  0  0
  -10.6848  -12.0095    6.2896 H   0  0  0  0  0  0  0  0  0  0  0  0
   -5.7688   -8.3827    7.2072 C   0  0  0  0  0  0  0  0  0  0  0  0
   -4.6368   -9.0514    6.7898 N   0  0  0  0  0  0  0  0  0  0  0  0
   -3.4094   -8.5643    6.8178 C   0  0  0  0  0  0  0  0  0  0  0  0
   -3.1570   -7.2954    7.2867 C   0  0  0  0  0  0  0  0  0  0  0  0
   -4.2394   -6.5789    7.7141 C   0  0  0  0  0  0  0  0  0  0  0  0
   -5.5226   -7.1375    7.6634 C   0  0  0  0  0  0  0  0  0  0  0  0
   -2.3028   -9.3738    6.3394 C   0  0  0  0  0  0  0  0  0  0  0  0
   -2.0981   -9.5369    4.9486 N   0  0  0  0  0  0  0  0  0  0  0  0
   -1.5337   -9.9235    7.1869 O   0  0  0  0  0  0  0  0  0  0  0  0
   -1.1498   -9.7501    4.5983 H   0  0  0  0  0  0  0  0  0  0  0  0
   -2.8778   -9.4467    4.2809 H   0  0  0  0  0  0  0  0  0  0  0  0
   -6.6262   -6.2418    8.0493 C   0  0  0  0  0  0  0  0  0  0  0  0
   -7.3489   -5.9084    6.8962 F   0  0  0  0  0  0  0  0  0  0  0  0
   -6.0921   -4.9979    8.4456 F   0  0  0  0  0  0  0  0  0  0  0  0
   -7.3985   -6.6389    9.0669 F   0  0  0  0  0  0  0  0  0  0  0  0
  -11.7023   -8.1949    7.1780 N   0  0  0  0  0  0  0  0  0  0  0  0
  -10.7024   -8.9384    6.6678 C   0  0  0  0  0  0  0  0  0  0  0  0
  -11.1975   -9.4440    5.4542 O   0  0  0  0  0  0  0  0  0  0  0  0
  -12.6134   -8.2200    6.5117 H   0  0  0  0  0  0  0  0  0  0  0  0
  -13.2240   -6.7945    8.4153 C   0  0  0  0  0  0  0  0  0  0  0  0
  -13.4144   -5.9092    9.4677 C   0  0  0  0  0  0  0  0  0  0  0  0
  -12.3998   -5.5440   10.3191 C   0  0  0  0  0  0  0  0  0  0  0  0
  -11.1532   -6.0830   10.1105 C   0  0  0  0  0  0  0  0  0  0  0  0
  -10.9862   -6.9276    9.1028 N   0  0  0  0  0  0  0  0  0  0  0  0
  -11.9227   -7.3295    8.2352 C   0  0  0  0  0  0  0  0  0  0  0  0
  -17.3991   -6.4401    5.5967 C   0  0  0  0  0  0  0  0  0  0  0  0
  -16.5220   -7.6671    5.7796 C   0  0  0  0  0  0  0  0  0  0  0  0
  -17.0545   -8.7199    4.9046 N   0  0  0  0  0  0  0  0  0  0  0  0
  -16.5594   -8.0438    7.2190 C   0  0  0  0  0  0  0  0  0  0  0  0
  -15.2086   -8.1609    7.8830 C   0  0  0  0  0  0  0  0  0  0  0  0
  -14.2878   -7.1089    7.5438 N   0  0  0  0  0  0  0  0  0  0  0  0
  -14.4778   -6.4020    6.2995 C   0  0  0  0  0  0  0  0  0  0  0  0
  -15.1148   -7.3977    5.3218 C   0  0  0  0  0  0  0  0  0  0  0  0
  -16.7390   -8.4255    3.9300 H   0  0  0  0  0  0  0  0  0  0  0  0
  -16.5014   -9.5851    5.1014 H   0  0  0  0  0  0  0  0  0  0  0  0
 35 36  1  0  0  0
 36 37  1  0  0  0
 36 38  1  0  0  0
 38 39  1  0  0  0
 39 40  1  0  0  0
 40 41  1  0  0  0
 41 42  1  0  0  0
 40 29  1  0  0  0
 29 30  2  0  0  0
 30 31  1  0  0  0
 31 32  2  0  0  0
 32 33  1  0  0  0
 33 34  2  0  0  0
 34 25  1  0  0  0
 25 26  1  0  0  0
 26 27  2  0  0  0
 26  1  1  0  0  0
  1  2  2  0  0  0
  2  3  1  0  0  0
  3  4  2  0  0  0
  4  5  1  0  0  0
  5  6  2  0  0  0
  6  7  1  0  0  0
  3 10  1  0  0  0
 10 11  2  0  0  0
 11 12  1  0  0  0
 12 13  2  0  0  0
 13 14  1  0  0  0
 14 15  2  0  0  0
 15 21  1  0  0  0
 21 22  1  0  0  0
 21 23  1  0  0  0
 21 24  1  0  0  0
 12 16  1  0  0  0
 16 17  1  0  0  0
 16 18  2  0  0  0
 42 36  1  0  0  0
 34 29  1  0  0  0
  6  1  1  0  0  0
 15 10  1  0  0  0
 37 43  1  0  0  0
 37 44  1  0  0  0
 25 28  1  0  0  0
  7  8  1  0  0  0
  7  9  1  0  0  0
 17 19  1  0  0  0
 17 20  1  0  0  0
M  END
> <minimizedAffinity>
0.57516

> <CNNscore>
0.3834910095

> <CNNaffinity>
7.6564559937

> <CNN_VS>
2.9361820221

> <CNNaffinity_variance>
0.5836941004

$$$$
[H]c1nc(N([H])[H])c(C(=O)N([H])c2nc([H])c([H])c([H])c2N2C([H])([H])C([H])([H])C(N([H])[H])(C([H])([H])[H])C([H])([H])C2([H])[H])nc1-c1nc(C(=O)N([H])[H])c([H])c([H])c1C(F)(F)F


 44 47  0  0  0  0  0  0  0  0999 V2000
   -9.2820   -8.7529    7.4986 C   0  0  0  0  0  0  0  0  0  0  0  0
   -8.4098   -7.7701    7.7375 N   0  0  0  0  0  0  0  0  0  0  0  0
   -7.0938   -7.8679    7.9294 C   0  0  0  0  0  0  0  0  0  0  0  0
   -6.5958   -9.2023    7.8583 C   0  0  0  0  0  0  0  0  0  0  0  0
   -7.4122  -10.2038    7.6219 N   0  0  0  0  0  0  0  0  0  0  0  0
   -8.7232  -10.0616    7.4374 C   0  0  0  0  0  0  0  0  0  0  0  0
   -9.5388  -11.1806    7.1462 N   0  0  0  0  0  0  0  0  0  0  0  0
   -9.7925  -11.8292    7.9124 H   0  0  0  0  0  0  0  0  0  0  0  0
   -9.8534  -11.3324    6.1816 H   0  0  0  0  0  0  0  0  0  0  0  0
   -6.0838   -6.8843    8.2232 C   0  0  0  0  0  0  0  0  0  0  0  0
   -5.8640   -6.5709    9.5483 N   0  0  0  0  0  0  0  0  0  0  0  0
   -5.0045   -5.6686    9.9861 C   0  0  0  0  0  0  0  0  0  0  0  0
   -4.2288   -4.9408    9.1130 C   0  0  0  0  0  0  0  0  0  0  0  0
   -4.3984   -5.2065    7.7832 C   0  0  0  0  0  0  0  0  0  0  0  0
   -5.3213   -6.1740    7.3669 C   0  0  0  0  0  0  0  0  0  0  0  0
   -4.8646   -5.4408   11.4135 C   0  0  0  0  0  0  0  0  0  0  0  0
   -5.9558   -5.6947   12.2782 N   0  0  0  0  0  0  0  0  0  0  0  0
   -3.7554   -5.0150   11.8608 O   0  0  0  0  0  0  0  0  0  0  0  0
   -5.7736   -5.9202   13.2699 H   0  0  0  0  0  0  0  0  0  0  0  0
   -6.9271   -5.6584   11.9358 H   0  0  0  0  0  0  0  0  0  0  0  0
   -5.3472   -6.4536    5.9211 C   0  0  0  0  0  0  0  0  0  0  0  0
   -4.7182   -7.6854    5.6976 F   0  0  0  0  0  0  0  0  0  0  0  0
   -4.4894   -5.5484    5.2620 F   0  0  0  0  0  0  0  0  0  0  0  0
   -6.5289   -6.3382    5.3049 F   0  0  0  0  0  0  0  0  0  0  0  0
  -11.7956   -8.0845    7.9967 N   0  0  0  0  0  0  0  0  0  0  0  0
  -10.6953   -8.6412    7.4558 C   0  0  0  0  0  0  0  0  0  0  0  0
  -11.1652   -9.4504    6.4080 O   0  0  0  0  0  0  0  0  0  0  0  0
  -12.7329   -8.4416    7.4785 H   0  0  0  0  0  0  0  0  0  0  0  0
  -13.4252   -6.5699    8.9228 C   0  0  0  0  0  0  0  0  0  0  0  0
  -13.7213   -5.5967    9.8676 C   0  0  0  0  0  0  0  0  0  0  0  0
  -12.8074   -5.1701   10.8006 C   0  0  0  0  0  0  0  0  0  0  0  0
  -11.5556   -5.7365   10.7878 C   0  0  0  0  0  0  0  0  0  0  0  0
  -11.2872   -6.6651    9.8809 N   0  0  0  0  0  0  0  0  0  0  0  0
  -12.1223   -7.1305    8.9443 C   0  0  0  0  0  0  0  0  0  0  0  0
  -17.1703   -6.3991    5.5395 C   0  0  0  0  0  0  0  0  0  0  0  0
  -16.4017   -7.6298    5.9899 C   0  0  0  0  0  0  0  0  0  0  0  0
  -16.8804   -8.7627    5.1868 N   0  0  0  0  0  0  0  0  0  0  0  0
  -16.6483   -7.8139    7.4460 C   0  0  0  0  0  0  0  0  0  0  0  0
  -15.4047   -7.9039    8.2973 C   0  0  0  0  0  0  0  0  0  0  0  0
  -14.3846   -6.9472    7.9599 N   0  0  0  0  0  0  0  0  0  0  0  0
  -14.3679   -6.4006    6.6238 C   0  0  0  0  0  0  0  0  0  0  0  0
  -14.9332   -7.4856    5.6984 C   0  0  0  0  0  0  0  0  0  0  0  0
  -16.4238   -8.6122    4.2355 H   0  0  0  0  0  0  0  0  0  0  0  0
  -16.4119   -9.6189    5.5621 H   0  0  0  0  0  0  0  0  0  0  0  0
 35 36  1  0  0  0
 36 37  1  0  0  0
 36 38  1  0  0  0
 38 39  1  0  0  0
 39 40  1  0  0  0
 40 41  1  0  0  0
 41 42  1  0  0  0
 40 29  1  0  0  0
 29 30  2  0  0  0
 30 31  1  0  0  0
 31 32  2  0  0  0
 32 33  1  0  0  0
 33 34  2  0  0  0
 34 25  1  0  0  0
 25 26  1  0  0  0
 26 27  2  0  0  0
 26  1  1  0  0  0
  1  2  2  0  0  0
  2  3  1  0  0  0
  3  4  2  0  0  0
  4  5  1  0  0  0
  5  6  2  0  0  0
  6  7  1  0  0  0
  3 10  1  0  0  0
 10 11  2  0  0  0
 11 12  1  0  0  0
 12 13  2  0  0  0
 13 14  1  0  0  0
 14 15  2  0  0  0
 15 21  1  0  0  0
 21 22  1  0  0  0
 21 23  1  0  0  0
 21 24  1  0  0  0
 12 16  1  0  0  0
 16 17  1  0  0  0
 16 18  2  0  0  0
 42 36  1  0  0  0
 34 29  1  0  0  0
  6  1  1  0  0  0
 15 10  1  0  0  0
 37 43  1  0  0  0
 37 44  1  0  0  0
 25 28  1  0  0  0
  7  8  1  0  0  0
  7  9  1  0  0  0
 17 19  1  0  0  0
 17 20  1  0  0  0
M  END
> <minimizedAffinity>
-7.65494

> <CNNscore>
0.3778127432

> <CNNaffinity>
7.7777605057

> <CNN_VS>
2.9385371208

> <CNNaffinity_variance>
0.3083213270

$$$$
[H]c1nc(N([H])[H])c(C(=O)N([H])c2nc([H])c([H])c([H])c2N2C([H])([H])C([H])([H])C(N([H])[H])(C([H])([H])[H])C([H])([H])C2([H])[H])nc1-c1nc(C(=O)N([H])[H])c([H])c([H])c1C(F)(F)F


 44 47  0  0  0  0  0  0  0  0999 V2000
   -7.4128   -8.4373    8.3227 C   0  0  0  0  0  0  0  0  0  0  0  0
   -8.7403   -8.4489    8.1758 N   0  0  0  0  0  0  0  0  0  0  0  0
   -9.6280   -7.5779    8.6570 C   0  0  0  0  0  0  0  0  0  0  0  0
   -9.0472   -6.5163    9.4117 C   0  0  0  0  0  0  0  0  0  0  0  0
   -7.7462   -6.4575    9.5821 N   0  0  0  0  0  0  0  0  0  0  0  0
   -6.8939   -7.3513    9.0843 C   0  0  0  0  0  0  0  0  0  0  0  0
   -5.4992   -7.2046    9.2725 N   0  0  0  0  0  0  0  0  0  0  0  0
   -5.0901   -7.4387   10.1944 H   0  0  0  0  0  0  0  0  0  0  0  0
   -4.9236   -6.8599    8.4964 H   0  0  0  0  0  0  0  0  0  0  0  0
  -11.0650   -7.5215    8.5832 C   0  0  0  0  0  0  0  0  0  0  0  0
  -11.7113   -8.5467    7.9245 N   0  0  0  0  0  0  0  0  0  0  0  0
  -13.0160   -8.6289    7.7354 C   0  0  0  0  0  0  0  0  0  0  0  0
  -13.8665   -7.6533    8.2029 C   0  0  0  0  0  0  0  0  0  0  0  0
  -13.2868   -6.6093    8.8675 C   0  0  0  0  0  0  0  0  0  0  0  0
  -11.8984   -6.5667    9.0449 C   0  0  0  0  0  0  0  0  0  0  0  0
  -13.5704   -9.7703    7.0293 C   0  0  0  0  0  0  0  0  0  0  0  0
  -14.1541   -9.5938    5.7522 N   0  0  0  0  0  0  0  0  0  0  0  0
  -13.5192  -10.9144    7.5773 O   0  0  0  0  0  0  0  0  0  0  0  0
  -14.1835  -10.3903    5.0949 H   0  0  0  0  0  0  0  0  0  0  0  0
  -14.5496   -8.6857    5.4677 H   0  0  0  0  0  0  0  0  0  0  0  0
  -11.3917   -5.4531    9.8648 C   0  0  0  0  0  0  0  0  0  0  0  0
  -10.8490   -5.9826   11.0430 F   0  0  0  0  0  0  0  0  0  0  0  0
  -12.4841   -4.6998   10.3431 F   0  0  0  0  0  0  0  0  0  0  0  0
  -10.5896   -4.5718    9.2568 F   0  0  0  0  0  0  0  0  0  0  0  0
   -5.2655   -9.7573    7.5109 N   0  0  0  0  0  0  0  0  0  0  0  0
   -6.5076   -9.4584    7.9363 C   0  0  0  0  0  0  0  0  0  0  0  0
   -7.1743  -10.6913    8.0313 O   0  0  0  0  0  0  0  0  0  0  0  0
   -5.1456  -10.8672    7.3422 H   0  0  0  0  0  0  0  0  0  0  0  0
   -4.0408   -7.9115    6.5619 C   0  0  0  0  0  0  0  0  0  0  0  0
   -2.8108   -7.3054    6.3443 C   0  0  0  0  0  0  0  0  0  0  0  0
   -1.6329   -7.8340    6.8141 C   0  0  0  0  0  0  0  0  0  0  0  0
   -1.6878   -9.0082    7.5256 C   0  0  0  0  0  0  0  0  0  0  0  0
   -2.8688   -9.5752    7.7267 N   0  0  0  0  0  0  0  0  0  0  0  0
   -4.0543   -9.1214    7.3022 C   0  0  0  0  0  0  0  0  0  0  0  0
   -7.5428   -6.2725    3.3137 C   0  0  0  0  0  0  0  0  0  0  0  0
   -7.5974   -6.1979    4.8302 C   0  0  0  0  0  0  0  0  0  0  0  0
   -8.9086   -5.6449    5.1941 N   0  0  0  0  0  0  0  0  0  0  0  0
   -6.4675   -5.3428    5.2855 C   0  0  0  0  0  0  0  0  0  0  0  0
   -5.5558   -5.9806    6.3059 C   0  0  0  0  0  0  0  0  0  0  0  0
   -5.2191   -7.3510    6.0259 N   0  0  0  0  0  0  0  0  0  0  0  0
   -6.1148   -8.1252    5.1998 C   0  0  0  0  0  0  0  0  0  0  0  0
   -7.5245   -7.5704    5.4410 C   0  0  0  0  0  0  0  0  0  0  0  0
   -9.5808   -6.4569    5.0366 H   0  0  0  0  0  0  0  0  0  0  0  0
   -8.9045   -5.5145    6.2315 H   0  0  0  0  0  0  0  0  0  0  0  0
 35 36  1  0  0  0
 36 37  1  0  0  0
 36 38  1  0  0  0
 38 39  1  0  0  0
 39 40  1  0  0  0
 40 41  1  0  0  0
 41 42  1  0  0  0
 40 29  1  0  0  0
 29 30  2  0  0  0
 30 31  1  0  0  0
 31 32  2  0  0  0
 32 33  1  0  0  0
 33 34  2  0  0  0
 34 25  1  0  0  0
 25 26  1  0  0  0
 26 27  2  0  0  0
 26  1  1  0  0  0
  1  2  2  0  0  0
  2  3  1  0  0  0
  3  4  2  0  0  0
  4  5  1  0  0  0
  5  6  2  0  0  0
  6  7  1  0  0  0
  3 10  1  0  0  0
 10 11  2  0  0  0
 11 12  1  0  0  0
 12 13  2  0  0  0
 13 14  1  0  0  0
 14 15  2  0  0  0
 15 21  1  0  0  0
 21 22  1  0  0  0
 21 23  1  0  0  0
 21 24  1  0  0  0
 12 16  1  0  0  0
 16 17  1  0  0  0
 16 18  2  0  0  0
 42 36  1  0  0  0
 34 29  1  0  0  0
  6  1  1  0  0  0
 15 10  1  0  0  0
 37 43  1  0  0  0
 37 44  1  0  0  0
 25 28  1  0  0  0
  7  8  1  0  0  0
  7  9  1  0  0  0
 17 19  1  0  0  0
 17 20  1  0  0  0
M  END
> <minimizedAffinity>
5.28964

> <CNNscore>
0.3180002868

> <CNNaffinity>
7.0578751564

> <CNN_VS>
2.2444062233

> <CNNaffinity_variance>
0.3158938289

$$$$
[H]c1nc(N([H])[H])c(C(=O)N([H])c2nc([H])c([H])c([H])c2N2C([H])([H])C([H])([H])C(N([H])[H])(C([H])([H])[H])C([H])([H])C2([H])[H])nc1-c1nc(C(=O)N([H])[H])c([H])c([H])c1C(F)(F)F


 44 47  0  0  0  0  0  0  0  0999 V2000
  -12.8598   -6.6389    8.3336 C   0  0  0  0  0  0  0  0  0  0  0  0
  -11.8153   -7.2347    7.7524 N   0  0  0  0  0  0  0  0  0  0  0  0
  -10.5399   -7.2203    8.1413 C   0  0  0  0  0  0  0  0  0  0  0  0
  -10.3055   -6.4689    9.3306 C   0  0  0  0  0  0  0  0  0  0  0  0
  -11.2999   -5.8671    9.9422 N   0  0  0  0  0  0  0  0  0  0  0  0
  -12.5615   -5.9060    9.5179 C   0  0  0  0  0  0  0  0  0  0  0  0
  -13.5911   -5.2675   10.2488 N   0  0  0  0  0  0  0  0  0  0  0  0
  -13.6822   -4.2377   10.1919 H   0  0  0  0  0  0  0  0  0  0  0  0
  -14.2193   -5.8356   10.8278 H   0  0  0  0  0  0  0  0  0  0  0  0
   -9.3490   -7.7962    7.5722 C   0  0  0  0  0  0  0  0  0  0  0  0
   -8.2172   -7.0089    7.5280 N   0  0  0  0  0  0  0  0  0  0  0  0
   -7.0576   -7.3689    7.0081 C   0  0  0  0  0  0  0  0  0  0  0  0
   -6.8842   -8.6131    6.4462 C   0  0  0  0  0  0  0  0  0  0  0  0
   -7.9700   -9.4430    6.4605 C   0  0  0  0  0  0  0  0  0  0  0  0
   -9.1787   -9.0171    7.0249 C   0  0  0  0  0  0  0  0  0  0  0  0
   -5.9390   -6.4432    7.0335 C   0  0  0  0  0  0  0  0  0  0  0  0
   -5.4496   -5.9625    8.2713 N   0  0  0  0  0  0  0  0  0  0  0  0
   -5.4176   -6.0810    5.9341 O   0  0  0  0  0  0  0  0  0  0  0  0
   -4.4671   -5.6506    8.3402 H   0  0  0  0  0  0  0  0  0  0  0  0
   -6.0559   -5.9186    9.1035 H   0  0  0  0  0  0  0  0  0  0  0  0
  -10.2496  -10.0268    7.0812 C   0  0  0  0  0  0  0  0  0  0  0  0
   -9.6873  -11.2829    6.8187 F   0  0  0  0  0  0  0  0  0  0  0  0
  -11.1136   -9.8428    5.9816 F   0  0  0  0  0  0  0  0  0  0  0  0
  -11.0386  -10.0105    8.1615 F   0  0  0  0  0  0  0  0  0  0  0  0
  -14.9996   -5.9105    6.9540 N   0  0  0  0  0  0  0  0  0  0  0  0
  -14.1759   -6.5381    7.8146 C   0  0  0  0  0  0  0  0  0  0  0  0
  -14.9755   -7.4927    8.4649 O   0  0  0  0  0  0  0  0  0  0  0  0
  -16.0528   -6.3106    7.0284 H   0  0  0  0  0  0  0  0  0  0  0  0
  -15.2836   -5.3790    4.6207 C   0  0  0  0  0  0  0  0  0  0  0  0
  -15.1787   -4.4331    3.6098 C   0  0  0  0  0  0  0  0  0  0  0  0
  -14.7472   -3.1493    3.8408 C   0  0  0  0  0  0  0  0  0  0  0  0
  -14.4099   -2.8004    5.1263 C   0  0  0  0  0  0  0  0  0  0  0  0
  -14.5159   -3.7132    6.0814 N   0  0  0  0  0  0  0  0  0  0  0  0
  -14.9270   -4.9783    5.9339 C   0  0  0  0  0  0  0  0  0  0  0  0
  -17.8483   -9.7291    4.6133 C   0  0  0  0  0  0  0  0  0  0  0  0
  -16.6032   -9.4015    3.8066 C   0  0  0  0  0  0  0  0  0  0  0  0
  -16.3278  -10.5546    2.9394 N   0  0  0  0  0  0  0  0  0  0  0  0
  -15.4980   -9.1273    4.7649 C   0  0  0  0  0  0  0  0  0  0  0  0
  -14.8050   -7.7993    4.5764 C   0  0  0  0  0  0  0  0  0  0  0  0
  -15.6944   -6.6963    4.3277 N   0  0  0  0  0  0  0  0  0  0  0  0
  -16.9965   -6.9739    3.7694 C   0  0  0  0  0  0  0  0  0  0  0  0
  -16.8425   -8.2270    2.8980 C   0  0  0  0  0  0  0  0  0  0  0  0
  -17.0595  -10.4747    2.1685 H   0  0  0  0  0  0  0  0  0  0  0  0
  -15.4228  -10.3585    2.4538 H   0  0  0  0  0  0  0  0  0  0  0  0
 35 36  1  0  0  0
 36 37  1  0  0  0
 36 38  1  0  0  0
 38 39  1  0  0  0
 39 40  1  0  0  0
 40 41  1  0  0  0
 41 42  1  0  0  0
 40 29  1  0  0  0
 29 30  2  0  0  0
 30 31  1  0  0  0
 31 32  2  0  0  0
 32 33  1  0  0  0
 33 34  2  0  0  0
 34 25  1  0  0  0
 25 26  1  0  0  0
 26 27  2  0  0  0
 26  1  1  0  0  0
  1  2  2  0  0  0
  2  3  1  0  0  0
  3  4  2  0  0  0
  4  5  1  0  0  0
  5  6  2  0  0  0
  6  7  1  0  0  0
  3 10  1  0  0  0
 10 11  2  0  0  0
 11 12  1  0  0  0
 12 13  2  0  0  0
 13 14  1  0  0  0
 14 15  2  0  0  0
 15 21  1  0  0  0
 21 22  1  0  0  0
 21 23  1  0  0  0
 21 24  1  0  0  0
 12 16  1  0  0  0
 16 17  1  0  0  0
 16 18  2  0  0  0
 42 36  1  0  0  0
 34 29  1  0  0  0
  6  1  1  0  0  0
 15 10  1  0  0  0
 37 43  1  0  0  0
 37 44  1  0  0  0
 25 28  1  0  0  0
  7  8  1  0  0  0
  7  9  1  0  0  0
 17 19  1  0  0  0
 17 20  1  0  0  0
M  END
> <minimizedAffinity>
0.50976

> <CNNscore>
0.2830492854

> <CNNaffinity>
7.8421325684

> <CNN_VS>
2.2197101116

> <CNNaffinity_variance>
0.5511391163

$$$$
[H]c1nc(N([H])[H])c(C(=O)N([H])c2nc([H])c([H])c([H])c2N2C([H])([H])C([H])([H])C(N([H])[H])(C([H])([H])[H])C([H])([H])C2([H])[H])nc1-c1nc(C(=O)N([H])[H])c([H])c([H])c1C(F)(F)F


 44 47  0  0  0  0  0  0  0  0999 V2000
  -13.9984   -7.4703    4.4855 C   0  0  0  0  0  0  0  0  0  0  0  0
  -13.6391   -7.3459    5.7658 N   0  0  0  0  0  0  0  0  0  0  0  0
  -13.5753   -8.2976    6.6977 C   0  0  0  0  0  0  0  0  0  0  0  0
  -13.9390   -9.5939    6.2274 C   0  0  0  0  0  0  0  0  0  0  0  0
  -14.2963   -9.7698    4.9758 N   0  0  0  0  0  0  0  0  0  0  0  0
  -14.3480   -8.7891    4.0765 C   0  0  0  0  0  0  0  0  0  0  0  0
  -14.7031   -9.0567    2.7332 N   0  0  0  0  0  0  0  0  0  0  0  0
  -15.6986   -9.2213    2.5008 H   0  0  0  0  0  0  0  0  0  0  0  0
  -13.9672   -9.0925    2.0193 H   0  0  0  0  0  0  0  0  0  0  0  0
  -13.2359   -8.2598    8.0967 C   0  0  0  0  0  0  0  0  0  0  0  0
  -13.1923   -7.0250    8.7100 N   0  0  0  0  0  0  0  0  0  0  0  0
  -12.8640   -6.8112    9.9714 C   0  0  0  0  0  0  0  0  0  0  0  0
  -12.5259   -7.8519   10.8058 C   0  0  0  0  0  0  0  0  0  0  0  0
  -12.5518   -9.1035   10.2576 C   0  0  0  0  0  0  0  0  0  0  0  0
  -12.9081   -9.2807    8.9149 C   0  0  0  0  0  0  0  0  0  0  0  0
  -12.8656   -5.4571   10.4959 C   0  0  0  0  0  0  0  0  0  0  0  0
  -12.1803   -5.1664   11.6995 N   0  0  0  0  0  0  0  0  0  0  0  0
  -13.4874   -4.5529    9.8575 O   0  0  0  0  0  0  0  0  0  0  0  0
  -11.8407   -4.2054   11.8690 H   0  0  0  0  0  0  0  0  0  0  0  0
  -12.0148   -5.8959   12.4083 H   0  0  0  0  0  0  0  0  0  0  0  0
  -13.0051  -10.6773    8.4574 C   0  0  0  0  0  0  0  0  0  0  0  0
  -12.2268  -10.8189    7.3011 F   0  0  0  0  0  0  0  0  0  0  0  0
  -14.3103  -10.9148    7.9782 F   0  0  0  0  0  0  0  0  0  0  0  0
  -12.7819  -11.6288    9.3709 F   0  0  0  0  0  0  0  0  0  0  0  0
  -14.6038   -5.1442    3.3741 N   0  0  0  0  0  0  0  0  0  0  0  0
  -14.2100   -6.4187    3.5577 C   0  0  0  0  0  0  0  0  0  0  0  0
  -13.8689   -6.8900    2.2790 O   0  0  0  0  0  0  0  0  0  0  0  0
  -14.5649   -4.8560    2.2831 H   0  0  0  0  0  0  0  0  0  0  0  0
  -16.1241   -4.1210    4.9390 C   0  0  0  0  0  0  0  0  0  0  0  0
  -16.4737   -2.9955    5.6728 C   0  0  0  0  0  0  0  0  0  0  0  0
  -15.7397   -1.8345    5.6401 C   0  0  0  0  0  0  0  0  0  0  0  0
  -14.6184   -1.7988    4.8468 C   0  0  0  0  0  0  0  0  0  0  0  0
  -14.2961   -2.8809    4.1526 N   0  0  0  0  0  0  0  0  0  0  0  0
  -14.9589   -4.0435    4.1338 C   0  0  0  0  0  0  0  0  0  0  0  0
  -17.6681   -8.9208    4.6569 C   0  0  0  0  0  0  0  0  0  0  0  0
  -18.5152   -7.7076    5.0015 C   0  0  0  0  0  0  0  0  0  0  0  0
  -19.8600   -8.1940    5.3371 N   0  0  0  0  0  0  0  0  0  0  0  0
  -18.5113   -6.7990    3.8227 C   0  0  0  0  0  0  0  0  0  0  0  0
  -18.0767   -5.3822    4.1107 C   0  0  0  0  0  0  0  0  0  0  0  0
  -16.9313   -5.2773    4.9749 N   0  0  0  0  0  0  0  0  0  0  0  0
  -16.6432   -6.3709    5.8722 C   0  0  0  0  0  0  0  0  0  0  0  0
  -17.9900   -7.0134    6.2280 C   0  0  0  0  0  0  0  0  0  0  0  0
  -19.7456   -8.6078    6.3127 H   0  0  0  0  0  0  0  0  0  0  0  0
  -20.4584   -7.3496    5.4865 H   0  0  0  0  0  0  0  0  0  0  0  0
 35 36  1  0  0  0
 36 37  1  0  0  0
 36 38  1  0  0  0
 38 39  1  0  0  0
 39 40  1  0  0  0
 40 41  1  0  0  0
 41 42  1  0  0  0
 40 29  1  0  0  0
 29 30  2  0  0  0
 30 31  1  0  0  0
 31 32  2  0  0  0
 32 33  1  0  0  0
 33 34  2  0  0  0
 34 25  1  0  0  0
 25 26  1  0  0  0
 26 27  2  0  0  0
 26  1  1  0  0  0
  1  2  2  0  0  0
  2  3  1  0  0  0
  3  4  2  0  0  0
  4  5  1  0  0  0
  5  6  2  0  0  0
  6  7  1  0  0  0
  3 10  1  0  0  0
 10 11  2  0  0  0
 11 12  1  0  0  0
 12 13  2  0  0  0
 13 14  1  0  0  0
 14 15  2  0  0  0
 15 21  1  0  0  0
 21 22  1  0  0  0
 21 23  1  0  0  0
 21 24  1  0  0  0
 12 16  1  0  0  0
 16 17  1  0  0  0
 16 18  2  0  0  0
 42 36  1  0  0  0
 34 29  1  0  0  0
  6  1  1  0  0  0
 15 10  1  0  0  0
 37 43  1  0  0  0
 37 44  1  0  0  0
 25 28  1  0  0  0
  7  8  1  0  0  0
  7  9  1  0  0  0
 17 19  1  0  0  0
 17 20  1  0  0  0
M  END
> <minimizedAffinity>
14.48127

> <CNNscore>
0.2730702758

> <CNNaffinity>
7.2834501266

> <CNN_VS>
1.9888937473

> <CNNaffinity_variance>
0.2373174727

$$$$
[H]c1nc(N([H])[H])c(C(=O)N([H])c2nc([H])c([H])c([H])c2N2C([H])([H])C([H])([H])C(N([H])[H])(C([H])([H])[H])C([H])([H])C2([H])[H])nc1-c1nc(C(=O)N([H])[H])c([H])c([H])c1C(F)(F)F


 44 47  0  0  0  0  0  0  0  0999 V2000
   -8.6802   -7.4506    7.2143 C   0  0  0  0  0  0  0  0  0  0  0  0
   -9.9915   -7.2014    7.2610 N   0  0  0  0  0  0  0  0  0  0  0  0
  -10.9889   -8.0737    7.4104 C   0  0  0  0  0  0  0  0  0  0  0  0
  -10.5600   -9.4279    7.5370 C   0  0  0  0  0  0  0  0  0  0  0  0
   -9.2810   -9.7251    7.5014 N   0  0  0  0  0  0  0  0  0  0  0  0
   -8.3156   -8.8209    7.3485 C   0  0  0  0  0  0  0  0  0  0  0  0
   -6.9542   -9.2066    7.3596 N   0  0  0  0  0  0  0  0  0  0  0  0
   -6.5558   -9.6645    6.5207 H   0  0  0  0  0  0  0  0  0  0  0  0
   -6.3928   -9.0347    8.2009 H   0  0  0  0  0  0  0  0  0  0  0  0
  -12.4195   -7.9109    7.4397 C   0  0  0  0  0  0  0  0  0  0  0  0
  -13.1014   -8.0397    6.2477 N   0  0  0  0  0  0  0  0  0  0  0  0
  -14.4041   -7.8850    6.0938 C   0  0  0  0  0  0  0  0  0  0  0  0
  -15.2151   -7.5697    7.1599 C   0  0  0  0  0  0  0  0  0  0  0  0
  -14.5988   -7.4299    8.3717 C   0  0  0  0  0  0  0  0  0  0  0  0
  -13.2142   -7.6053    8.4858 C   0  0  0  0  0  0  0  0  0  0  0  0
  -14.9991   -8.0572    4.7803 C   0  0  0  0  0  0  0  0  0  0  0  0
  -15.3683   -9.3497    4.3375 N   0  0  0  0  0  0  0  0  0  0  0  0
  -15.1781   -7.0348    4.0493 O   0  0  0  0  0  0  0  0  0  0  0  0
  -16.1157   -9.4481    3.6309 H   0  0  0  0  0  0  0  0  0  0  0  0
  -14.9048  -10.1925    4.7073 H   0  0  0  0  0  0  0  0  0  0  0  0
  -12.6707   -7.5355    9.8530 C   0  0  0  0  0  0  0  0  0  0  0  0
  -12.7052   -8.8211   10.4088 F   0  0  0  0  0  0  0  0  0  0  0  0
  -13.5735   -6.8246   10.6711 F   0  0  0  0  0  0  0  0  0  0  0  0
  -11.4924   -6.9203   10.0036 F   0  0  0  0  0  0  0  0  0  0  0  0
   -6.3331   -6.3360    6.7030 N   0  0  0  0  0  0  0  0  0  0  0  0
   -7.6518   -6.5269    6.8967 C   0  0  0  0  0  0  0  0  0  0  0  0
   -8.2428   -5.2684    6.6957 O   0  0  0  0  0  0  0  0  0  0  0  0
   -6.1051   -5.2553    6.4687 H   0  0  0  0  0  0  0  0  0  0  0  0
   -3.9494   -6.4166    6.3585 C   0  0  0  0  0  0  0  0  0  0  0  0
   -2.8035   -7.1929    6.2492 C   0  0  0  0  0  0  0  0  0  0  0  0
   -2.8224   -8.5607    6.3777 C   0  0  0  0  0  0  0  0  0  0  0  0
   -4.0282   -9.1718    6.6240 C   0  0  0  0  0  0  0  0  0  0  0  0
   -5.1136   -8.4183    6.7269 N   0  0  0  0  0  0  0  0  0  0  0  0
   -5.1735   -7.0860    6.6145 C   0  0  0  0  0  0  0  0  0  0  0  0
   -2.3748   -1.8006    5.0487 C   0  0  0  0  0  0  0  0  0  0  0  0
   -3.6556   -2.1539    5.7857 C   0  0  0  0  0  0  0  0  0  0  0  0
   -4.4130   -0.9087    5.9681 N   0  0  0  0  0  0  0  0  0  0  0  0
   -3.2780   -2.7904    7.0770 C   0  0  0  0  0  0  0  0  0  0  0  0
   -3.8939   -4.1464    7.3240 C   0  0  0  0  0  0  0  0  0  0  0  0
   -3.8858   -5.0187    6.1801 N   0  0  0  0  0  0  0  0  0  0  0  0
   -3.8206   -4.4284    4.8642 C   0  0  0  0  0  0  0  0  0  0  0  0
   -4.5197   -3.0662    4.9591 C   0  0  0  0  0  0  0  0  0  0  0  0
   -4.8179   -0.7123    5.0020 H   0  0  0  0  0  0  0  0  0  0  0  0
   -5.2479   -1.1453    6.5515 H   0  0  0  0  0  0  0  0  0  0  0  0
 35 36  1  0  0  0
 36 37  1  0  0  0
 36 38  1  0  0  0
 38 39  1  0  0  0
 39 40  1  0  0  0
 40 41  1  0  0  0
 41 42  1  0  0  0
 40 29  1  0  0  0
 29 30  2  0  0  0
 30 31  1  0  0  0
 31 32  2  0  0  0
 32 33  1  0  0  0
 33 34  2  0  0  0
 34 25  1  0  0  0
 25 26  1  0  0  0
 26 27  2  0  0  0
 26  1  1  0  0  0
  1  2  2  0  0  0
  2  3  1  0  0  0
  3  4  2  0  0  0
  4  5  1  0  0  0
  5  6  2  0  0  0
  6  7  1  0  0  0
  3 10  1  0  0  0
 10 11  2  0  0  0
 11 12  1  0  0  0
 12 13  2  0  0  0
 13 14  1  0  0  0
 14 15  2  0  0  0
 15 21  1  0  0  0
 21 22  1  0  0  0
 21 23  1  0  0  0
 21 24  1  0  0  0
 12 16  1  0  0  0
 16 17  1  0  0  0
 16 18  2  0  0  0
 42 36  1  0  0  0
 34 29  1  0  0  0
  6  1  1  0  0  0
 15 10  1  0  0  0
 37 43  1  0  0  0
 37 44  1  0  0  0
 25 28  1  0  0  0
  7  8  1  0  0  0
  7  9  1  0  0  0
 17 19  1  0  0  0
 17 20  1  0  0  0
M  END
> <minimizedAffinity>
-7.06189

> <CNNscore>
0.2509073019

> <CNNaffinity>
6.9647140503

> <CNN_VS>
1.7474975586

> <CNNaffinity_variance>
0.2046821862

$$$$
[H]c1nc([H])c(Cl)c(N([H])C(=O)N([H])c2c([H])c(-c3c([H])c([H])c([H])c(-c4c([H])c([H])c([H])c(C(=O)N([H])C5([H])C([H])([H])C5([H])[H])c4[H])c3[H])nn(C([H])([H])C([H])([H])[H])c2=O)c1Cl


 42 46  0  0  0  0  0  0  0  0999 V2000
  -13.2050   -8.1787   11.2828 N   0  0  0  0  0  0  0  0  0  0  0  0
  -12.5169   -7.4577   12.1434 N   0  0  0  0  0  0  0  0  0  0  0  0
  -11.7849   -6.3891   11.7614 C   0  0  0  0  0  0  0  0  0  0  0  0
  -11.7314   -6.0078   10.4283 C   0  0  0  0  0  0  0  0  0  0  0  0
  -12.4354   -6.7324    9.4908 C   0  0  0  0  0  0  0  0  0  0  0  0
  -13.1598   -7.8217   10.0059 C   0  0  0  0  0  0  0  0  0  0  0  0
  -13.8206   -8.5160    9.1870 O   0  0  0  0  0  0  0  0  0  0  0  0
  -12.4906   -6.4851    8.1062 N   0  0  0  0  0  0  0  0  0  0  0  0
  -13.5970   -6.6131    7.2865 C   0  0  0  0  0  0  0  0  0  0  0  0
  -14.7182   -6.9778    7.7000 O   0  0  0  0  0  0  0  0  0  0  0  0
  -13.5480   -6.3338    5.8762 N   0  0  0  0  0  0  0  0  0  0  0  0
  -11.5926   -6.1631    7.6159 H   0  0  0  0  0  0  0  0  0  0  0  0
  -12.6510   -6.0282    5.4667 H   0  0  0  0  0  0  0  0  0  0  0  0
  -14.6839   -6.4689    5.0641 C   0  0  0  0  0  0  0  0  0  0  0  0
  -15.3582   -5.3109    4.6620 C   0  0  0  0  0  0  0  0  0  0  0  0
  -14.7542   -3.7736    5.1878 Cl  0  0  0  0  0  0  0  0  0  0  0  0
  -16.4828   -5.3568    3.8641 C   0  0  0  0  0  0  0  0  0  0  0  0
  -16.9222   -6.5461    3.4769 N   0  0  0  0  0  0  0  0  0  0  0  0
  -16.3057   -7.6963    3.8386 C   0  0  0  0  0  0  0  0  0  0  0  0
  -15.1688   -7.6738    4.6436 C   0  0  0  0  0  0  0  0  0  0  0  0
  -14.3758   -9.1519    5.1082 Cl  0  0  0  0  0  0  0  0  0  0  0  0
  -11.0360   -5.6199   12.7574 C   0  0  0  0  0  0  0  0  0  0  0  0
  -11.6078   -4.7749   13.6700 C   0  0  0  0  0  0  0  0  0  0  0  0
  -10.8603   -4.0612   14.5998 C   0  0  0  0  0  0  0  0  0  0  0  0
   -9.4925   -4.2138   14.5982 C   0  0  0  0  0  0  0  0  0  0  0  0
   -8.8706   -5.0490   13.7035 C   0  0  0  0  0  0  0  0  0  0  0  0
   -9.6405   -5.7423   12.7949 C   0  0  0  0  0  0  0  0  0  0  0  0
   -7.4289   -5.2445   13.6602 C   0  0  0  0  0  0  0  0  0  0  0  0
   -6.6949   -5.3852   14.8179 C   0  0  0  0  0  0  0  0  0  0  0  0
   -5.3259   -5.5718   14.7706 C   0  0  0  0  0  0  0  0  0  0  0  0
   -4.7026   -5.6153   13.5442 C   0  0  0  0  0  0  0  0  0  0  0  0
   -5.3937   -5.4789   12.3471 C   0  0  0  0  0  0  0  0  0  0  0  0
   -6.7580   -5.2946   12.4419 C   0  0  0  0  0  0  0  0  0  0  0  0
   -4.6948   -5.5320   11.0727 C   0  0  0  0  0  0  0  0  0  0  0  0
   -3.4802   -5.2134   11.0466 O   0  0  0  0  0  0  0  0  0  0  0  0
   -5.3134   -5.9248    9.8582 N   0  0  0  0  0  0  0  0  0  0  0  0
   -6.3113   -6.1874    9.8729 H   0  0  0  0  0  0  0  0  0  0  0  0
   -4.6090   -5.9733    8.6029 C   0  0  0  0  0  0  0  0  0  0  0  0
   -4.7601   -7.2664    7.8291 C   0  0  0  0  0  0  0  0  0  0  0  0
   -5.3473   -5.9776    7.3004 C   0  0  0  0  0  0  0  0  0  0  0  0
  -15.3445   -8.7985   12.1439 C   0  0  0  0  0  0  0  0  0  0  0  0
  -13.9933   -9.3386   11.7245 C   0  0  0  0  0  0  0  0  0  0  0  0
 41 42  1  0  0  0
 42  1  1  0  0  0
  1  2  1  0  0  0
  2  3  2  0  0  0
  3  4  1  0  0  0
  4  5  2  0  0  0
  5  8  1  0  0  0
  8  9  1  0  0  0
  9 10  2  0  0  0
  9 11  1  0  0  0
 11 14  1  0  0  0
 14 15  2  0  0  0
 15 16  1  0  0  0
 15 17  1  0  0  0
 17 18  2  0  0  0
 18 19  1  0  0  0
 19 20  2  0  0  0
 20 21  1  0  0  0
  5  6  1  0  0  0
  6  7  2  0  0  0
  3 22  1  0  0  0
 22 23  2  0  0  0
 23 24  1  0  0  0
 24 25  2  0  0  0
 25 26  1  0  0  0
 26 27  2  0  0  0
 26 28  1  0  0  0
 28 29  2  0  0  0
 29 30  1  0  0  0
 30 31  2  0  0  0
 31 32  1  0  0  0
 32 33  2  0  0  0
 32 34  1  0  0  0
 34 35  2  0  0  0
 34 36  1  0  0  0
 36 38  1  0  0  0
 38 39  1  0  0  0
 39 40  1  0  0  0
  6  1  1  0  0  0
 27 22  1  0  0  0
 33 28  1  0  0  0
 40 38  1  0  0  0
 20 14  1  0  0  0
  8 12  1  0  0  0
 11 13  1  0  0  0
 36 37  1  0  0  0
M  END
> <minimizedAffinity>
7.86289

> <CNNscore>
0.5767352581

> <CNNaffinity>
7.4979987144

> <CNN_VS>
4.3243603706

> <CNNaffinity_variance>
1.1152901649

$$$$
[H]c1nc([H])c(Cl)c(N([H])C(=O)N([H])c2c([H])c(-c3c([H])c([H])c([H])c(-c4c([H])c([H])c([H])c(C(=O)N([H])C5([H])C([H])([H])C5([H])[H])c4[H])c3[H])nn(C([H])([H])C([H])([H])[H])c2=O)c1Cl


 42 46  0  0  0  0  0  0  0  0999 V2000
   -9.3114   -8.4297    7.6813 N   0  0  0  0  0  0  0  0  0  0  0  0
  -10.5641   -8.0553    7.8383 N   0  0  0  0  0  0  0  0  0  0  0  0
  -11.5997   -8.8559    7.5067 C   0  0  0  0  0  0  0  0  0  0  0  0
  -11.3767  -10.1205    6.9807 C   0  0  0  0  0  0  0  0  0  0  0  0
  -10.0818  -10.5561    6.7981 C   0  0  0  0  0  0  0  0  0  0  0  0
   -9.0884   -9.6372    7.1790 C   0  0  0  0  0  0  0  0  0  0  0  0
   -7.8871   -9.9897    7.0311 O   0  0  0  0  0  0  0  0  0  0  0  0
   -9.6799  -11.8016    6.2797 N   0  0  0  0  0  0  0  0  0  0  0  0
   -9.1337  -12.0409    5.0319 C   0  0  0  0  0  0  0  0  0  0  0  0
   -8.9271  -11.1412    4.1899 O   0  0  0  0  0  0  0  0  0  0  0  0
   -8.7542  -13.3582    4.5964 N   0  0  0  0  0  0  0  0  0  0  0  0
   -9.8012  -12.6682    6.9000 H   0  0  0  0  0  0  0  0  0  0  0  0
   -8.8984  -14.1500    5.2428 H   0  0  0  0  0  0  0  0  0  0  0  0
   -8.1999  -13.5772    3.3263 C   0  0  0  0  0  0  0  0  0  0  0  0
   -7.5560  -14.7945    3.0802 C   0  0  0  0  0  0  0  0  0  0  0  0
   -7.4785  -15.9656    4.3558 Cl  0  0  0  0  0  0  0  0  0  0  0  0
   -6.9847  -15.0883    1.8592 C   0  0  0  0  0  0  0  0  0  0  0  0
   -7.0592  -14.1741    0.9020 N   0  0  0  0  0  0  0  0  0  0  0  0
   -7.6712  -12.9807    1.0895 C   0  0  0  0  0  0  0  0  0  0  0  0
   -8.2548  -12.6629    2.3140 C   0  0  0  0  0  0  0  0  0  0  0  0
   -9.0420  -11.1294    2.5553 Cl  0  0  0  0  0  0  0  0  0  0  0  0
  -12.9754   -8.3925    7.6996 C   0  0  0  0  0  0  0  0  0  0  0  0
  -13.7607   -8.7293    8.7691 C   0  0  0  0  0  0  0  0  0  0  0  0
  -15.0641   -8.2681    8.9150 C   0  0  0  0  0  0  0  0  0  0  0  0
  -15.5800   -7.4411    7.9433 C   0  0  0  0  0  0  0  0  0  0  0  0
  -14.8333   -7.0739    6.8513 C   0  0  0  0  0  0  0  0  0  0  0  0
  -13.5446   -7.5483    6.7367 C   0  0  0  0  0  0  0  0  0  0  0  0
  -15.3321   -6.2033    5.7969 C   0  0  0  0  0  0  0  0  0  0  0  0
  -14.4693   -5.5754    4.9250 C   0  0  0  0  0  0  0  0  0  0  0  0
  -14.9489   -4.7505    3.9247 C   0  0  0  0  0  0  0  0  0  0  0  0
  -16.3078   -4.5638    3.8110 C   0  0  0  0  0  0  0  0  0  0  0  0
  -17.2215   -5.1716    4.6625 C   0  0  0  0  0  0  0  0  0  0  0  0
  -16.6984   -5.9863    5.6458 C   0  0  0  0  0  0  0  0  0  0  0  0
  -18.6499   -4.9472    4.5058 C   0  0  0  0  0  0  0  0  0  0  0  0
  -19.3511   -5.8794    4.0402 O   0  0  0  0  0  0  0  0  0  0  0  0
  -19.2922   -3.7306    4.8513 N   0  0  0  0  0  0  0  0  0  0  0  0
  -18.7215   -2.9605    5.2340 H   0  0  0  0  0  0  0  0  0  0  0  0
  -20.7082   -3.5220    4.6912 C   0  0  0  0  0  0  0  0  0  0  0  0
  -21.2501   -2.2615    5.3326 C   0  0  0  0  0  0  0  0  0  0  0  0
  -21.2355   -2.4174    3.8290 C   0  0  0  0  0  0  0  0  0  0  0  0
   -8.2049   -6.4149    7.0338 C   0  0  0  0  0  0  0  0  0  0  0  0
   -8.2016   -7.5382    8.0493 C   0  0  0  0  0  0  0  0  0  0  0  0
 41 42  1  0  0  0
 42  1  1  0  0  0
  1  2  1  0  0  0
  2  3  2  0  0  0
  3  4  1  0  0  0
  4  5  2  0  0  0
  5  8  1  0  0  0
  8  9  1  0  0  0
  9 10  2  0  0  0
  9 11  1  0  0  0
 11 14  1  0  0  0
 14 15  2  0  0  0
 15 16  1  0  0  0
 15 17  1  0  0  0
 17 18  2  0  0  0
 18 19  1  0  0  0
 19 20  2  0  0  0
 20 21  1  0  0  0
  5  6  1  0  0  0
  6  7  2  0  0  0
  3 22  1  0  0  0
 22 23  2  0  0  0
 23 24  1  0  0  0
 24 25  2  0  0  0
 25 26  1  0  0  0
 26 27  2  0  0  0
 26 28  1  0  0  0
 28 29  2  0  0  0
 29 30  1  0  0  0
 30 31  2  0  0  0
 31 32  1  0  0  0
 32 33  2  0  0  0
 32 34  1  0  0  0
 34 35  2  0  0  0
 34 36  1  0  0  0
 36 38  1  0  0  0
 38 39  1  0  0  0
 39 40  1  0  0  0
  6  1  1  0  0  0
 27 22  1  0  0  0
 33 28  1  0  0  0
 40 38  1  0  0  0
 20 14  1  0  0  0
  8 12  1  0  0  0
 11 13  1  0  0  0
 36 37  1  0  0  0
M  END
> <minimizedAffinity>
6.12771

> <CNNscore>
0.5103829503

> <CNNaffinity>
7.3407440186

> <CNN_VS>
3.7465906143

> <CNNaffinity_variance>
0.3715825379

$$$$
[H]c1nc([H])c(Cl)c(N([H])C(=O)N([H])c2c([H])c(-c3c([H])c([H])c([H])c(-c4c([H])c([H])c([H])c(C(=O)N([H])C5([H])C([H])([H])C5([H])[H])c4[H])c3[H])nn(C([H])([H])C([H])([H])[H])c2=O)c1Cl


 42 46  0  0  0  0  0  0  0  0999 V2000
  -11.1308   -6.7677    9.5592 N   0  0  0  0  0  0  0  0  0  0  0  0
   -9.9305   -6.9251    9.0410 N   0  0  0  0  0  0  0  0  0  0  0  0
   -9.7157   -7.6833    7.9444 C   0  0  0  0  0  0  0  0  0  0  0  0
  -10.7683   -8.3329    7.3156 C   0  0  0  0  0  0  0  0  0  0  0  0
  -12.0431   -8.1979    7.8220 C   0  0  0  0  0  0  0  0  0  0  0  0
  -12.1436   -7.3852    8.9647 C   0  0  0  0  0  0  0  0  0  0  0  0
  -13.2901   -7.2305    9.4656 O   0  0  0  0  0  0  0  0  0  0  0  0
  -13.2164   -8.7842    7.3110 N   0  0  0  0  0  0  0  0  0  0  0  0
  -14.1463   -8.1857    6.4806 C   0  0  0  0  0  0  0  0  0  0  0  0
  -14.0452   -7.0086    6.0739 O   0  0  0  0  0  0  0  0  0  0  0  0
  -15.3180   -8.8758    6.0117 N   0  0  0  0  0  0  0  0  0  0  0  0
  -13.4308   -9.7998    7.5813 H   0  0  0  0  0  0  0  0  0  0  0  0
  -15.4652   -9.8530    6.3102 H   0  0  0  0  0  0  0  0  0  0  0  0
  -16.2473   -8.2490    5.1681 C   0  0  0  0  0  0  0  0  0  0  0  0
  -17.3744   -7.6524    5.7433 C   0  0  0  0  0  0  0  0  0  0  0  0
  -17.5613   -7.7190    7.4653 Cl  0  0  0  0  0  0  0  0  0  0  0  0
  -18.3353   -7.0164    4.9846 C   0  0  0  0  0  0  0  0  0  0  0  0
  -18.1663   -6.9806    3.6703 N   0  0  0  0  0  0  0  0  0  0  0  0
  -17.0934   -7.5427    3.0647 C   0  0  0  0  0  0  0  0  0  0  0  0
  -16.1109   -8.1899    3.8110 C   0  0  0  0  0  0  0  0  0  0  0  0
  -14.7314   -8.9120    3.0332 Cl  0  0  0  0  0  0  0  0  0  0  0  0
   -8.3610   -7.8277    7.4071 C   0  0  0  0  0  0  0  0  0  0  0  0
   -7.9906   -8.7753    6.4914 C   0  0  0  0  0  0  0  0  0  0  0  0
   -6.6919   -8.8797    6.0063 C   0  0  0  0  0  0  0  0  0  0  0  0
   -5.7459   -7.9933    6.4682 C   0  0  0  0  0  0  0  0  0  0  0  0
   -6.0665   -7.0245    7.3867 C   0  0  0  0  0  0  0  0  0  0  0  0
   -7.3630   -6.9479    7.8475 C   0  0  0  0  0  0  0  0  0  0  0  0
   -5.1038   -6.0647    7.9067 C   0  0  0  0  0  0  0  0  0  0  0  0
   -4.2928   -5.3406    7.0602 C   0  0  0  0  0  0  0  0  0  0  0  0
   -3.3809   -4.4295    7.5597 C   0  0  0  0  0  0  0  0  0  0  0  0
   -3.2938   -4.2546    8.9221 C   0  0  0  0  0  0  0  0  0  0  0  0
   -4.0865   -4.9579    9.8201 C   0  0  0  0  0  0  0  0  0  0  0  0
   -4.9823   -5.8564    9.2773 C   0  0  0  0  0  0  0  0  0  0  0  0
   -3.9619   -4.7410   11.2529 C   0  0  0  0  0  0  0  0  0  0  0  0
   -2.8093   -4.6360   11.7406 O   0  0  0  0  0  0  0  0  0  0  0  0
   -5.0740   -4.6420   12.1277 N   0  0  0  0  0  0  0  0  0  0  0  0
   -6.0238   -4.7279   11.7331 H   0  0  0  0  0  0  0  0  0  0  0  0
   -4.9362   -4.4266   13.5450 C   0  0  0  0  0  0  0  0  0  0  0  0
   -6.1723   -4.7302   14.3659 C   0  0  0  0  0  0  0  0  0  0  0  0
   -4.9266   -5.5752   14.5054 C   0  0  0  0  0  0  0  0  0  0  0  0
  -12.3334   -4.8667   10.3609 C   0  0  0  0  0  0  0  0  0  0  0  0
  -11.3378   -5.9376   10.7549 C   0  0  0  0  0  0  0  0  0  0  0  0
 41 42  1  0  0  0
 42  1  1  0  0  0
  1  2  1  0  0  0
  2  3  2  0  0  0
  3  4  1  0  0  0
  4  5  2  0  0  0
  5  8  1  0  0  0
  8  9  1  0  0  0
  9 10  2  0  0  0
  9 11  1  0  0  0
 11 14  1  0  0  0
 14 15  2  0  0  0
 15 16  1  0  0  0
 15 17  1  0  0  0
 17 18  2  0  0  0
 18 19  1  0  0  0
 19 20  2  0  0  0
 20 21  1  0  0  0
  5  6  1  0  0  0
  6  7  2  0  0  0
  3 22  1  0  0  0
 22 23  2  0  0  0
 23 24  1  0  0  0
 24 25  2  0  0  0
 25 26  1  0  0  0
 26 27  2  0  0  0
 26 28  1  0  0  0
 28 29  2  0  0  0
 29 30  1  0  0  0
 30 31  2  0  0  0
 31 32  1  0  0  0
 32 33  2  0  0  0
 32 34  1  0  0  0
 34 35  2  0  0  0
 34 36  1  0  0  0
 36 38  1  0  0  0
 38 39  1  0  0  0
 39 40  1  0  0  0
  6  1  1  0  0  0
 27 22  1  0  0  0
 33 28  1  0  0  0
 40 38  1  0  0  0
 20 14  1  0  0  0
  8 12  1  0  0  0
 11 13  1  0  0  0
 36 37  1  0  0  0
M  END
> <minimizedAffinity>
-9.29093

> <CNNscore>
0.5079658031

> <CNNaffinity>
7.8882613182

> <CNN_VS>
4.0069670677

> <CNNaffinity_variance>
0.0291394182

$$$$
[H]c1nc([H])c(Cl)c(N([H])C(=O)N([H])c2c([H])c(-c3c([H])c([H])c([H])c(-c4c([H])c([H])c([H])c(C(=O)N([H])C5([H])C([H])([H])C5([H])[H])c4[H])c3[H])nn(C([H])([H])C([H])([H])[H])c2=O)c1Cl


 42 46  0  0  0  0  0  0  0  0999 V2000
  -11.0703   -6.7911    9.5423 N   0  0  0  0  0  0  0  0  0  0  0  0
   -9.8607   -6.9341    9.0418 N   0  0  0  0  0  0  0  0  0  0  0  0
   -9.6219   -7.6834    7.9441 C   0  0  0  0  0  0  0  0  0  0  0  0
  -10.6586   -8.3389    7.2952 C   0  0  0  0  0  0  0  0  0  0  0  0
  -11.9423   -8.2188    7.7826 C   0  0  0  0  0  0  0  0  0  0  0  0
  -12.0679   -7.4142    8.9285 C   0  0  0  0  0  0  0  0  0  0  0  0
  -13.2234   -7.2733    9.4126 O   0  0  0  0  0  0  0  0  0  0  0  0
  -13.1019   -8.8129    7.2500 N   0  0  0  0  0  0  0  0  0  0  0  0
  -14.0898   -8.1846    6.5139 C   0  0  0  0  0  0  0  0  0  0  0  0
  -14.0626   -6.9688    6.2270 O   0  0  0  0  0  0  0  0  0  0  0  0
  -15.2412   -8.8859    6.0124 N   0  0  0  0  0  0  0  0  0  0  0  0
  -13.2553   -9.8606    7.4212 H   0  0  0  0  0  0  0  0  0  0  0  0
  -15.3284   -9.8946    6.2136 H   0  0  0  0  0  0  0  0  0  0  0  0
  -16.2303   -8.2281    5.2660 C   0  0  0  0  0  0  0  0  0  0  0  0
  -16.0889   -8.1704    3.8753 C   0  0  0  0  0  0  0  0  0  0  0  0
  -14.7014   -8.9145    3.1503 Cl  0  0  0  0  0  0  0  0  0  0  0  0
  -17.0161   -7.5426    3.0693 C   0  0  0  0  0  0  0  0  0  0  0  0
  -18.0673   -6.9823    3.6510 N   0  0  0  0  0  0  0  0  0  0  0  0
  -18.2505   -7.0104    4.9924 C   0  0  0  0  0  0  0  0  0  0  0  0
  -17.3273   -7.6387    5.8255 C   0  0  0  0  0  0  0  0  0  0  0  0
  -17.5626   -7.6756    7.5496 Cl  0  0  0  0  0  0  0  0  0  0  0  0
   -8.2579   -7.8120    7.4270 C   0  0  0  0  0  0  0  0  0  0  0  0
   -7.8609   -8.7605    6.5234 C   0  0  0  0  0  0  0  0  0  0  0  0
   -6.5541   -8.8494    6.0574 C   0  0  0  0  0  0  0  0  0  0  0  0
   -5.6276   -7.9462    6.5261 C   0  0  0  0  0  0  0  0  0  0  0  0
   -5.9751   -6.9757    7.4329 C   0  0  0  0  0  0  0  0  0  0  0  0
   -7.2790   -6.9147    7.8749 C   0  0  0  0  0  0  0  0  0  0  0  0
   -5.0338   -5.9983    7.9594 C   0  0  0  0  0  0  0  0  0  0  0  0
   -4.2429   -5.2470    7.1176 C   0  0  0  0  0  0  0  0  0  0  0  0
   -3.3513   -4.3194    7.6232 C   0  0  0  0  0  0  0  0  0  0  0  0
   -3.2640   -4.1557    8.9871 C   0  0  0  0  0  0  0  0  0  0  0  0
   -4.0369   -4.8863    9.8805 C   0  0  0  0  0  0  0  0  0  0  0  0
   -4.9128   -5.8005    9.3316 C   0  0  0  0  0  0  0  0  0  0  0  0
   -3.9129   -4.6804   11.3149 C   0  0  0  0  0  0  0  0  0  0  0  0
   -2.7644   -4.5132   11.7948 O   0  0  0  0  0  0  0  0  0  0  0  0
   -5.0213   -4.6585   12.1998 N   0  0  0  0  0  0  0  0  0  0  0  0
   -5.9677   -4.7957   11.8117 H   0  0  0  0  0  0  0  0  0  0  0  0
   -4.8841   -4.4532   13.6186 C   0  0  0  0  0  0  0  0  0  0  0  0
   -6.1280   -4.7388   14.4341 C   0  0  0  0  0  0  0  0  0  0  0  0
   -4.8981   -5.6068   14.5729 C   0  0  0  0  0  0  0  0  0  0  0  0
  -12.2858   -4.8927   10.3308 C   0  0  0  0  0  0  0  0  0  0  0  0
  -11.3034   -5.9702   10.7397 C   0  0  0  0  0  0  0  0  0  0  0  0
 41 42  1  0  0  0
 42  1  1  0  0  0
  1  2  1  0  0  0
  2  3  2  0  0  0
  3  4  1  0  0  0
  4  5  2  0  0  0
  5  8  1  0  0  0
  8  9  1  0  0  0
  9 10  2  0  0  0
  9 11  1  0  0  0
 11 14  1  0  0  0
 14 15  2  0  0  0
 15 16  1  0  0  0
 15 17  1  0  0  0
 17 18  2  0  0  0
 18 19  1  0  0  0
 19 20  2  0  0  0
 20 21  1  0  0  0
  5  6  1  0  0  0
  6  7  2  0  0  0
  3 22  1  0  0  0
 22 23  2  0  0  0
 23 24  1  0  0  0
 24 25  2  0  0  0
 25 26  1  0  0  0
 26 27  2  0  0  0
 26 28  1  0  0  0
 28 29  2  0  0  0
 29 30  1  0  0  0
 30 31  2  0  0  0
 31 32  1  0  0  0
 32 33  2  0  0  0
 32 34  1  0  0  0
 34 35  2  0  0  0
 34 36  1  0  0  0
 36 38  1  0  0  0
 38 39  1  0  0  0
 39 40  1  0  0  0
  6  1  1  0  0  0
 27 22  1  0  0  0
 33 28  1  0  0  0
 40 38  1  0  0  0
 20 14  1  0  0  0
  8 12  1  0  0  0
 11 13  1  0  0  0
 36 37  1  0  0  0
M  END
> <minimizedAffinity>
-9.28549

> <CNNscore>
0.4993150830

> <CNNaffinity>
7.8599762917

> <CNN_VS>
3.9246046543

> <CNNaffinity_variance>
0.0260390136

$$$$
[H]c1nc([H])c(Cl)c(N([H])C(=O)N([H])c2c([H])c(-c3c([H])c([H])c([H])c(-c4c([H])c([H])c([H])c(C(=O)N([H])C5([H])C([H])([H])C5([H])[H])c4[H])c3[H])nn(C([H])([H])C([H])([H])[H])c2=O)c1Cl


 42 46  0  0  0  0  0  0  0  0999 V2000
  -11.8827   -7.4683    8.9798 N   0  0  0  0  0  0  0  0  0  0  0  0
  -11.7734   -7.0073   10.2084 N   0  0  0  0  0  0  0  0  0  0  0  0
  -10.7226   -6.2561   10.6025 C   0  0  0  0  0  0  0  0  0  0  0  0
   -9.7059   -5.9390    9.7130 C   0  0  0  0  0  0  0  0  0  0  0  0
   -9.7768   -6.3994    8.4158 C   0  0  0  0  0  0  0  0  0  0  0  0
  -10.9153   -7.1702    8.1222 C   0  0  0  0  0  0  0  0  0  0  0  0
  -11.0259   -7.6145    6.9476 O   0  0  0  0  0  0  0  0  0  0  0  0
   -8.8384   -6.1724    7.3915 N   0  0  0  0  0  0  0  0  0  0  0  0
   -7.5562   -6.6850    7.3158 C   0  0  0  0  0  0  0  0  0  0  0  0
   -7.0667   -7.4384    8.1840 O   0  0  0  0  0  0  0  0  0  0  0  0
   -6.6718   -6.3907    6.2202 N   0  0  0  0  0  0  0  0  0  0  0  0
   -9.1269   -5.5390    6.5754 H   0  0  0  0  0  0  0  0  0  0  0  0
   -7.0120   -5.7727    5.4665 H   0  0  0  0  0  0  0  0  0  0  0  0
   -5.3754   -6.9236    6.1634 C   0  0  0  0  0  0  0  0  0  0  0  0
   -4.3157   -6.1547    6.6563 C   0  0  0  0  0  0  0  0  0  0  0  0
   -4.6614   -4.5871    7.3105 Cl  0  0  0  0  0  0  0  0  0  0  0  0
   -3.0117   -6.6050    6.6371 C   0  0  0  0  0  0  0  0  0  0  0  0
   -2.7768   -7.8076    6.1312 N   0  0  0  0  0  0  0  0  0  0  0  0
   -3.7671   -8.5909    5.6415 C   0  0  0  0  0  0  0  0  0  0  0  0
   -5.0908   -8.1565    5.6509 C   0  0  0  0  0  0  0  0  0  0  0  0
   -6.3640   -9.1631    5.0222 Cl  0  0  0  0  0  0  0  0  0  0  0  0
  -10.6467   -5.7680   11.9811 C   0  0  0  0  0  0  0  0  0  0  0  0
  -11.7110   -5.7128   12.8403 C   0  0  0  0  0  0  0  0  0  0  0  0
  -11.5971   -5.2412   14.1431 C   0  0  0  0  0  0  0  0  0  0  0  0
  -10.3641   -4.8144   14.5809 C   0  0  0  0  0  0  0  0  0  0  0  0
   -9.2655   -4.8493   13.7583 C   0  0  0  0  0  0  0  0  0  0  0  0
   -9.4122   -5.3226   12.4724 C   0  0  0  0  0  0  0  0  0  0  0  0
   -7.9413   -4.4092   14.1724 C   0  0  0  0  0  0  0  0  0  0  0  0
   -7.7792   -3.3075   14.9839 C   0  0  0  0  0  0  0  0  0  0  0  0
   -6.5191   -2.8948   15.3750 C   0  0  0  0  0  0  0  0  0  0  0  0
   -5.4224   -3.6036   14.9401 C   0  0  0  0  0  0  0  0  0  0  0  0
   -5.5286   -4.7206   14.1213 C   0  0  0  0  0  0  0  0  0  0  0  0
   -6.8051   -5.0964   13.7558 C   0  0  0  0  0  0  0  0  0  0  0  0
   -4.3425   -5.4409   13.6857 C   0  0  0  0  0  0  0  0  0  0  0  0
   -3.8193   -6.2611   14.4800 O   0  0  0  0  0  0  0  0  0  0  0  0
   -3.7461   -5.2653   12.4108 N   0  0  0  0  0  0  0  0  0  0  0  0
   -4.1709   -4.5925   11.7536 H   0  0  0  0  0  0  0  0  0  0  0  0
   -2.5714   -5.9858   11.9921 C   0  0  0  0  0  0  0  0  0  0  0  0
   -2.3061   -5.9743   10.5010 C   0  0  0  0  0  0  0  0  0  0  0  0
   -1.3722   -5.2670   11.4564 C   0  0  0  0  0  0  0  0  0  0  0  0
  -14.2465   -7.3775    8.6518 C   0  0  0  0  0  0  0  0  0  0  0  0
  -13.0367   -8.2852    8.5763 C   0  0  0  0  0  0  0  0  0  0  0  0
 41 42  1  0  0  0
 42  1  1  0  0  0
  1  2  1  0  0  0
  2  3  2  0  0  0
  3  4  1  0  0  0
  4  5  2  0  0  0
  5  8  1  0  0  0
  8  9  1  0  0  0
  9 10  2  0  0  0
  9 11  1  0  0  0
 11 14  1  0  0  0
 14 15  2  0  0  0
 15 16  1  0  0  0
 15 17  1  0  0  0
 17 18  2  0  0  0
 18 19  1  0  0  0
 19 20  2  0  0  0
 20 21  1  0  0  0
  5  6  1  0  0  0
  6  7  2  0  0  0
  3 22  1  0  0  0
 22 23  2  0  0  0
 23 24  1  0  0  0
 24 25  2  0  0  0
 25 26  1  0  0  0
 26 27  2  0  0  0
 26 28  1  0  0  0
 28 29  2  0  0  0
 29 30  1  0  0  0
 30 31  2  0  0  0
 31 32  1  0  0  0
 32 33  2  0  0  0
 32 34  1  0  0  0
 34 35  2  0  0  0
 34 36  1  0  0  0
 36 38  1  0  0  0
 38 39  1  0  0  0
 39 40  1  0  0  0
  6  1  1  0  0  0
 27 22  1  0  0  0
 33 28  1  0  0  0
 40 38  1  0  0  0
 20 14  1  0  0  0
  8 12  1  0  0  0
 11 13  1  0  0  0
 36 37  1  0  0  0
M  END
> <minimizedAffinity>
6.62388

> <CNNscore>
0.4900860786

> <CNNaffinity>
7.2902383804

> <CNN_VS>
3.5728442669

> <CNNaffinity_variance>
0.7548272610

$$$$
[H]c1nc([H])c(Cl)c(N([H])C(=O)N([H])c2c([H])c(-c3c([H])c([H])c([H])c(-c4c([H])c([H])c([H])c(C(=O)N([H])C5([H])C([H])([H])C5([H])[H])c4[H])c3[H])nn(C([H])([H])C([H])([H])[H])c2=O)c1Cl


 42 46  0  0  0  0  0  0  0  0999 V2000
   -8.2048   -6.0316    5.2594 N   0  0  0  0  0  0  0  0  0  0  0  0
   -6.8920   -5.9397    5.3049 N   0  0  0  0  0  0  0  0  0  0  0  0
   -6.1823   -6.3264    6.3868 C   0  0  0  0  0  0  0  0  0  0  0  0
   -6.8214   -6.8420    7.5054 C   0  0  0  0  0  0  0  0  0  0  0  0
   -8.1948   -6.9572    7.5041 C   0  0  0  0  0  0  0  0  0  0  0  0
   -8.8246   -6.5234    6.3244 C   0  0  0  0  0  0  0  0  0  0  0  0
  -10.0814   -6.6087    6.2745 O   0  0  0  0  0  0  0  0  0  0  0  0
   -8.9969   -7.4555    8.5480 N   0  0  0  0  0  0  0  0  0  0  0  0
  -10.3770   -7.4111    8.6243 C   0  0  0  0  0  0  0  0  0  0  0  0
  -11.0966   -6.9028    7.7385 O   0  0  0  0  0  0  0  0  0  0  0  0
  -11.1051   -7.9523    9.7406 N   0  0  0  0  0  0  0  0  0  0  0  0
   -8.5073   -7.9217    9.3808 H   0  0  0  0  0  0  0  0  0  0  0  0
  -10.5723   -8.3873   10.5104 H   0  0  0  0  0  0  0  0  0  0  0  0
  -12.5058   -7.8977    9.7958 C   0  0  0  0  0  0  0  0  0  0  0  0
  -13.1060   -6.8234   10.4612 C   0  0  0  0  0  0  0  0  0  0  0  0
  -12.0879   -5.6187   11.1801 Cl  0  0  0  0  0  0  0  0  0  0  0  0
  -14.4762   -6.6957   10.5611 C   0  0  0  0  0  0  0  0  0  0  0  0
  -15.2301   -7.6317   10.0017 N   0  0  0  0  0  0  0  0  0  0  0  0
  -14.6985   -8.6910    9.3466 C   0  0  0  0  0  0  0  0  0  0  0  0
  -13.3179   -8.8401    9.2335 C   0  0  0  0  0  0  0  0  0  0  0  0
  -12.6342  -10.2011    8.3910 Cl  0  0  0  0  0  0  0  0  0  0  0  0
   -4.7231   -6.2029    6.3885 C   0  0  0  0  0  0  0  0  0  0  0  0
   -3.9160   -6.5984    7.4209 C   0  0  0  0  0  0  0  0  0  0  0  0
   -2.5328   -6.4629    7.3836 C   0  0  0  0  0  0  0  0  0  0  0  0
   -1.9580   -5.9088    6.2626 C   0  0  0  0  0  0  0  0  0  0  0  0
   -2.7234   -5.4962    5.2002 C   0  0  0  0  0  0  0  0  0  0  0  0
   -4.0917   -5.6446    5.2688 C   0  0  0  0  0  0  0  0  0  0  0  0
   -2.1648   -4.9041    3.9935 C   0  0  0  0  0  0  0  0  0  0  0  0
   -1.5909   -5.6880    3.0163 C   0  0  0  0  0  0  0  0  0  0  0  0
   -1.0629   -5.1202    1.8718 C   0  0  0  0  0  0  0  0  0  0  0  0
   -1.1187   -3.7532    1.7210 C   0  0  0  0  0  0  0  0  0  0  0  0
   -1.6852   -2.9166    2.6741 C   0  0  0  0  0  0  0  0  0  0  0  0
   -2.1997   -3.5264    3.8001 C   0  0  0  0  0  0  0  0  0  0  0  0
   -1.7237   -1.4766    2.4735 C   0  0  0  0  0  0  0  0  0  0  0  0
   -1.1200   -0.7450    3.2967 O   0  0  0  0  0  0  0  0  0  0  0  0
   -2.4072   -0.8558    1.3969 N   0  0  0  0  0  0  0  0  0  0  0  0
   -2.9056   -1.4514    0.7172 H   0  0  0  0  0  0  0  0  0  0  0  0
   -2.4369    0.5720    1.2099 C   0  0  0  0  0  0  0  0  0  0  0  0
   -1.7346    1.0734   -0.0348 C   0  0  0  0  0  0  0  0  0  0  0  0
   -3.2352    1.1919    0.1054 C   0  0  0  0  0  0  0  0  0  0  0  0
   -9.7294   -4.3674    4.4788 C   0  0  0  0  0  0  0  0  0  0  0  0
   -8.9543   -5.6023    4.0695 C   0  0  0  0  0  0  0  0  0  0  0  0
 41 42  1  0  0  0
 42  1  1  0  0  0
  1  2  1  0  0  0
  2  3  2  0  0  0
  3  4  1  0  0  0
  4  5  2  0  0  0
  5  8  1  0  0  0
  8  9  1  0  0  0
  9 10  2  0  0  0
  9 11  1  0  0  0
 11 14  1  0  0  0
 14 15  2  0  0  0
 15 16  1  0  0  0
 15 17  1  0  0  0
 17 18  2  0  0  0
 18 19  1  0  0  0
 19 20  2  0  0  0
 20 21  1  0  0  0
  5  6  1  0  0  0
  6  7  2  0  0  0
  3 22  1  0  0  0
 22 23  2  0  0  0
 23 24  1  0  0  0
 24 25  2  0  0  0
 25 26  1  0  0  0
 26 27  2  0  0  0
 26 28  1  0  0  0
 28 29  2  0  0  0
 29 30  1  0  0  0
 30 31  2  0  0  0
 31 32  1  0  0  0
 32 33  2  0  0  0
 32 34  1  0  0  0
 34 35  2  0  0  0
 34 36  1  0  0  0
 36 38  1  0  0  0
 38 39  1  0  0  0
 39 40  1  0  0  0
  6  1  1  0  0  0
 27 22  1  0  0  0
 33 28  1  0  0  0
 40 38  1  0  0  0
 20 14  1  0  0  0
  8 12  1  0  0  0
 11 13  1  0  0  0
 36 37  1  0  0  0
M  END
> <minimizedAffinity>
5.64336

> <CNNscore>
0.4636804461

> <CNNaffinity>
6.6702742577

> <CNN_VS>
3.0928757191

> <CNNaffinity_variance>
0.6122140884

$$$$
[H]c1nc([H])c(Cl)c(N([H])C(=O)N([H])c2c([H])c(-c3c([H])c([H])c([H])c(-c4c([H])c([H])c([H])c(C(=O)N([H])C5([H])C([H])([H])C5([H])[H])c4[H])c3[H])nn(C([H])([H])C([H])([H])[H])c2=O)c1Cl


 42 46  0  0  0  0  0  0  0  0999 V2000
  -11.1083   -6.7535    9.5713 N   0  0  0  0  0  0  0  0  0  0  0  0
   -9.9063   -6.9321    9.0641 N   0  0  0  0  0  0  0  0  0  0  0  0
   -9.6931   -7.7053    7.9777 C   0  0  0  0  0  0  0  0  0  0  0  0
  -10.7494   -8.3484    7.3482 C   0  0  0  0  0  0  0  0  0  0  0  0
  -12.0261   -8.1913    7.8434 C   0  0  0  0  0  0  0  0  0  0  0  0
  -12.1245   -7.3645    8.9762 C   0  0  0  0  0  0  0  0  0  0  0  0
  -13.2726   -7.1895    9.4666 O   0  0  0  0  0  0  0  0  0  0  0  0
  -13.2029   -8.7682    7.3301 N   0  0  0  0  0  0  0  0  0  0  0  0
  -14.1267   -8.1621    6.4983 C   0  0  0  0  0  0  0  0  0  0  0  0
  -14.0157   -6.9858    6.0923 O   0  0  0  0  0  0  0  0  0  0  0  0
  -15.3030   -8.8429    6.0270 N   0  0  0  0  0  0  0  0  0  0  0  0
  -13.4258   -9.7822    7.5996 H   0  0  0  0  0  0  0  0  0  0  0  0
  -15.4583   -9.8190    6.3249 H   0  0  0  0  0  0  0  0  0  0  0  0
  -16.2258   -8.2085    5.1820 C   0  0  0  0  0  0  0  0  0  0  0  0
  -17.3539   -7.6113    5.7547 C   0  0  0  0  0  0  0  0  0  0  0  0
  -17.5500   -7.6866    7.4754 Cl  0  0  0  0  0  0  0  0  0  0  0  0
  -18.3089   -6.9681    4.9945 C   0  0  0  0  0  0  0  0  0  0  0  0
  -18.1330   -6.9258    3.6812 N   0  0  0  0  0  0  0  0  0  0  0  0
  -17.0587   -7.4882    3.0782 C   0  0  0  0  0  0  0  0  0  0  0  0
  -16.0822   -8.1426    3.8261 C   0  0  0  0  0  0  0  0  0  0  0  0
  -14.7011   -8.8650    3.0515 Cl  0  0  0  0  0  0  0  0  0  0  0  0
   -8.3365   -7.8731    7.4524 C   0  0  0  0  0  0  0  0  0  0  0  0
   -7.9551   -8.8797    6.6067 C   0  0  0  0  0  0  0  0  0  0  0  0
   -6.6549   -9.0044    6.1306 C   0  0  0  0  0  0  0  0  0  0  0  0
   -5.7188   -8.0772    6.5281 C   0  0  0  0  0  0  0  0  0  0  0  0
   -6.0507   -7.0488    7.3750 C   0  0  0  0  0  0  0  0  0  0  0  0
   -7.3484   -6.9534    7.8289 C   0  0  0  0  0  0  0  0  0  0  0  0
   -5.0988   -6.0440    7.8253 C   0  0  0  0  0  0  0  0  0  0  0  0
   -4.8553   -5.8453    9.1670 C   0  0  0  0  0  0  0  0  0  0  0  0
   -3.9493   -4.8902    9.5889 C   0  0  0  0  0  0  0  0  0  0  0  0
   -3.2900   -4.1361    8.6448 C   0  0  0  0  0  0  0  0  0  0  0  0
   -3.4975   -4.2947    7.2806 C   0  0  0  0  0  0  0  0  0  0  0  0
   -4.4102   -5.2592    6.9052 C   0  0  0  0  0  0  0  0  0  0  0  0
   -2.7782   -3.4763    6.3172 C   0  0  0  0  0  0  0  0  0  0  0  0
   -1.8071   -2.7924    6.7252 O   0  0  0  0  0  0  0  0  0  0  0  0
   -3.1163   -3.4105    4.9412 N   0  0  0  0  0  0  0  0  0  0  0  0
   -3.9136   -3.9699    4.5997 H   0  0  0  0  0  0  0  0  0  0  0  0
   -2.3949   -2.5959    3.9977 C   0  0  0  0  0  0  0  0  0  0  0  0
   -3.0070   -2.5169    2.6146 C   0  0  0  0  0  0  0  0  0  0  0  0
   -2.9566   -1.2977    3.5071 C   0  0  0  0  0  0  0  0  0  0  0  0
  -12.2711   -4.8123   10.3349 C   0  0  0  0  0  0  0  0  0  0  0  0
  -11.3134   -5.9073   10.7561 C   0  0  0  0  0  0  0  0  0  0  0  0
 41 42  1  0  0  0
 42  1  1  0  0  0
  1  2  1  0  0  0
  2  3  2  0  0  0
  3  4  1  0  0  0
  4  5  2  0  0  0
  5  8  1  0  0  0
  8  9  1  0  0  0
  9 10  2  0  0  0
  9 11  1  0  0  0
 11 14  1  0  0  0
 14 15  2  0  0  0
 15 16  1  0  0  0
 15 17  1  0  0  0
 17 18  2  0  0  0
 18 19  1  0  0  0
 19 20  2  0  0  0
 20 21  1  0  0  0
  5  6  1  0  0  0
  6  7  2  0  0  0
  3 22  1  0  0  0
 22 23  2  0  0  0
 23 24  1  0  0  0
 24 25  2  0  0  0
 25 26  1  0  0  0
 26 27  2  0  0  0
 26 28  1  0  0  0
 28 29  2  0  0  0
 29 30  1  0  0  0
 30 31  2  0  0  0
 31 32  1  0  0  0
 32 33  2  0  0  0
 32 34  1  0  0  0
 34 35  2  0  0  0
 34 36  1  0  0  0
 36 38  1  0  0  0
 38 39  1  0  0  0
 39 40  1  0  0  0
  6  1  1  0  0  0
 27 22  1  0  0  0
 33 28  1  0  0  0
 40 38  1  0  0  0
 20 14  1  0  0  0
  8 12  1  0  0  0
 11 13  1  0  0  0
 36 37  1  0  0  0
M  END
> <minimizedAffinity>
-8.70297

> <CNNscore>
0.4623900056

> <CNNaffinity>
7.6947984695

> <CNN_VS>
3.5579979420

> <CNNaffinity_variance>
0.0242553130

$$$$
[H]c1nc([H])c(Cl)c(N([H])C(=O)N([H])c2c([H])c(-c3c([H])c([H])c([H])c(-c4c([H])c([H])c([H])c(C(=O)N([H])C5([H])C([H])([H])C5([H])[H])c4[H])c3[H])nn(C([H])([H])C([H])([H])[H])c2=O)c1Cl


 42 46  0  0  0  0  0  0  0  0999 V2000
  -12.0737   -7.5417    8.8083 N   0  0  0  0  0  0  0  0  0  0  0  0
  -11.9242   -7.0820   10.0332 N   0  0  0  0  0  0  0  0  0  0  0  0
  -10.8199   -6.4059   10.4166 C   0  0  0  0  0  0  0  0  0  0  0  0
   -9.7883   -6.1683    9.5194 C   0  0  0  0  0  0  0  0  0  0  0  0
   -9.8998   -6.6305    8.2258 C   0  0  0  0  0  0  0  0  0  0  0  0
  -11.0924   -7.3193    7.9435 C   0  0  0  0  0  0  0  0  0  0  0  0
  -11.2416   -7.7619    6.7726 O   0  0  0  0  0  0  0  0  0  0  0  0
   -8.9535   -6.4781    7.1949 N   0  0  0  0  0  0  0  0  0  0  0  0
   -7.5949   -6.7229    7.2762 C   0  0  0  0  0  0  0  0  0  0  0  0
   -7.0315   -7.1235    8.3170 O   0  0  0  0  0  0  0  0  0  0  0  0
   -6.7095   -6.5351    6.1582 N   0  0  0  0  0  0  0  0  0  0  0  0
   -9.3007   -6.1375    6.2388 H   0  0  0  0  0  0  0  0  0  0  0  0
   -7.1086   -6.2042    5.2656 H   0  0  0  0  0  0  0  0  0  0  0  0
   -5.3343   -6.7916    6.2633 C   0  0  0  0  0  0  0  0  0  0  0  0
   -4.9205   -8.0855    6.5977 C   0  0  0  0  0  0  0  0  0  0  0  0
   -6.1279   -9.3007    6.8631 Cl  0  0  0  0  0  0  0  0  0  0  0  0
   -3.5878   -8.4204    6.7215 C   0  0  0  0  0  0  0  0  0  0  0  0
   -2.6864   -7.4710    6.5127 N   0  0  0  0  0  0  0  0  0  0  0  0
   -3.0349   -6.2036    6.1869 C   0  0  0  0  0  0  0  0  0  0  0  0
   -4.3744   -5.8432    6.0565 C   0  0  0  0  0  0  0  0  0  0  0  0
   -4.8227   -4.2145    5.6372 Cl  0  0  0  0  0  0  0  0  0  0  0  0
  -10.7010   -5.9159   11.7914 C   0  0  0  0  0  0  0  0  0  0  0  0
  -11.7546   -5.7708   12.6532 C   0  0  0  0  0  0  0  0  0  0  0  0
  -11.5994   -5.3007   13.9523 C   0  0  0  0  0  0  0  0  0  0  0  0
  -10.3351   -4.9697   14.3836 C   0  0  0  0  0  0  0  0  0  0  0  0
   -9.2454   -5.0971   13.5581 C   0  0  0  0  0  0  0  0  0  0  0  0
   -9.4334   -5.5661   12.2760 C   0  0  0  0  0  0  0  0  0  0  0  0
   -7.8892   -4.7603   13.9653 C   0  0  0  0  0  0  0  0  0  0  0  0
   -7.6281   -3.6226   14.6977 C   0  0  0  0  0  0  0  0  0  0  0  0
   -6.3380   -3.3083   15.0827 C   0  0  0  0  0  0  0  0  0  0  0  0
   -5.3123   -4.1523   14.7223 C   0  0  0  0  0  0  0  0  0  0  0  0
   -5.5192   -5.3111   13.9849 C   0  0  0  0  0  0  0  0  0  0  0  0
   -6.8222   -5.5853   13.6225 C   0  0  0  0  0  0  0  0  0  0  0  0
   -4.4056   -6.1753   13.6265 C   0  0  0  0  0  0  0  0  0  0  0  0
   -3.8731   -6.0227   12.4993 O   0  0  0  0  0  0  0  0  0  0  0  0
   -3.8900   -7.1812   14.4833 N   0  0  0  0  0  0  0  0  0  0  0  0
   -4.3235   -7.3119   15.4107 H   0  0  0  0  0  0  0  0  0  0  0  0
   -2.7861   -8.0300   14.1156 C   0  0  0  0  0  0  0  0  0  0  0  0
   -1.5440   -7.8771   14.9686 C   0  0  0  0  0  0  0  0  0  0  0  0
   -2.3481   -9.1569   14.9987 C   0  0  0  0  0  0  0  0  0  0  0  0
  -14.4016   -7.7539    9.2971 C   0  0  0  0  0  0  0  0  0  0  0  0
  -13.2857   -8.2760    8.4165 C   0  0  0  0  0  0  0  0  0  0  0  0
 41 42  1  0  0  0
 42  1  1  0  0  0
  1  2  1  0  0  0
  2  3  2  0  0  0
  3  4  1  0  0  0
  4  5  2  0  0  0
  5  8  1  0  0  0
  8  9  1  0  0  0
  9 10  2  0  0  0
  9 11  1  0  0  0
 11 14  1  0  0  0
 14 15  2  0  0  0
 15 16  1  0  0  0
 15 17  1  0  0  0
 17 18  2  0  0  0
 18 19  1  0  0  0
 19 20  2  0  0  0
 20 21  1  0  0  0
  5  6  1  0  0  0
  6  7  2  0  0  0
  3 22  1  0  0  0
 22 23  2  0  0  0
 23 24  1  0  0  0
 24 25  2  0  0  0
 25 26  1  0  0  0
 26 27  2  0  0  0
 26 28  1  0  0  0
 28 29  2  0  0  0
 29 30  1  0  0  0
 30 31  2  0  0  0
 31 32  1  0  0  0
 32 33  2  0  0  0
 32 34  1  0  0  0
 34 35  2  0  0  0
 34 36  1  0  0  0
 36 38  1  0  0  0
 38 39  1  0  0  0
 39 40  1  0  0  0
  6  1  1  0  0  0
 27 22  1  0  0  0
 33 28  1  0  0  0
 40 38  1  0  0  0
 20 14  1  0  0  0
  8 12  1  0  0  0
 11 13  1  0  0  0
 36 37  1  0  0  0
M  END
> <minimizedAffinity>
3.68386

> <CNNscore>
0.4424111247

> <CNNaffinity>
7.2028098106

> <CNN_VS>
3.1866033077

> <CNNaffinity_variance>
0.7572600245

$$$$
[H]c1nc([H])c(Cl)c(N([H])C(=O)N([H])c2c([H])c(-c3c([H])c([H])c([H])c(-c4c([H])c([H])c([H])c(C(=O)N([H])C5([H])C([H])([H])C5([H])[H])c4[H])c3[H])nn(C([H])([H])C([H])([H])[H])c2=O)c1Cl


 42 46  0  0  0  0  0  0  0  0999 V2000
   -8.4145   -8.4820    7.9003 N   0  0  0  0  0  0  0  0  0  0  0  0
   -9.5594   -7.8819    8.1514 N   0  0  0  0  0  0  0  0  0  0  0  0
  -10.7481   -8.4516    7.8581 C   0  0  0  0  0  0  0  0  0  0  0  0
  -10.8055   -9.7084    7.2730 C   0  0  0  0  0  0  0  0  0  0  0  0
   -9.6327  -10.3755    6.9913 C   0  0  0  0  0  0  0  0  0  0  0  0
   -8.4595   -9.6842    7.3408 C   0  0  0  0  0  0  0  0  0  0  0  0
   -7.3601  -10.2533    7.1029 O   0  0  0  0  0  0  0  0  0  0  0  0
   -9.5108  -11.6483    6.4028 N   0  0  0  0  0  0  0  0  0  0  0  0
   -8.9540  -11.9404    5.1711 C   0  0  0  0  0  0  0  0  0  0  0  0
   -8.4768  -11.0712    4.4110 O   0  0  0  0  0  0  0  0  0  0  0  0
   -8.8771  -13.2822    4.6586 N   0  0  0  0  0  0  0  0  0  0  0  0
   -9.8821  -12.4934    6.9492 H   0  0  0  0  0  0  0  0  0  0  0  0
   -9.2541  -14.0509    5.2353 H   0  0  0  0  0  0  0  0  0  0  0  0
   -8.3060  -13.5552    3.4066 C   0  0  0  0  0  0  0  0  0  0  0  0
   -7.6625  -14.7834    3.2203 C   0  0  0  0  0  0  0  0  0  0  0  0
   -7.6063  -15.9005    4.5445 Cl  0  0  0  0  0  0  0  0  0  0  0  0
   -7.0752  -15.1291    2.0207 C   0  0  0  0  0  0  0  0  0  0  0  0
   -7.1336  -14.2554    1.0254 N   0  0  0  0  0  0  0  0  0  0  0  0
   -7.7444  -13.0537    1.1546 C   0  0  0  0  0  0  0  0  0  0  0  0
   -8.3440  -12.6837    2.3565 C   0  0  0  0  0  0  0  0  0  0  0  0
   -9.1297  -11.1395    2.5228 Cl  0  0  0  0  0  0  0  0  0  0  0  0
  -11.9941   -7.7423    8.1563 C   0  0  0  0  0  0  0  0  0  0  0  0
  -12.3680   -7.3308    9.4072 C   0  0  0  0  0  0  0  0  0  0  0  0
  -13.5614   -6.6599    9.6486 C   0  0  0  0  0  0  0  0  0  0  0  0
  -14.3958   -6.4021    8.5849 C   0  0  0  0  0  0  0  0  0  0  0  0
  -14.0668   -6.7939    7.3109 C   0  0  0  0  0  0  0  0  0  0  0  0
  -12.8763   -7.4569    7.1055 C   0  0  0  0  0  0  0  0  0  0  0  0
  -14.9140   -6.5462    6.1535 C   0  0  0  0  0  0  0  0  0  0  0  0
  -14.5617   -5.6159    5.2000 C   0  0  0  0  0  0  0  0  0  0  0  0
  -15.3698   -5.3856    4.1022 C   0  0  0  0  0  0  0  0  0  0  0  0
  -16.5376   -6.1026    3.9740 C   0  0  0  0  0  0  0  0  0  0  0  0
  -16.9405   -7.0515    4.9050 C   0  0  0  0  0  0  0  0  0  0  0  0
  -16.1035   -7.2484    5.9843 C   0  0  0  0  0  0  0  0  0  0  0  0
  -18.1828   -7.7872    4.7296 C   0  0  0  0  0  0  0  0  0  0  0  0
  -18.8444   -7.5957    3.6794 O   0  0  0  0  0  0  0  0  0  0  0  0
  -18.6858   -8.7095    5.6826 N   0  0  0  0  0  0  0  0  0  0  0  0
  -18.1470   -8.8710    6.5479 H   0  0  0  0  0  0  0  0  0  0  0  0
  -19.9177   -9.4318    5.4959 C   0  0  0  0  0  0  0  0  0  0  0  0
  -20.0114  -10.7484    6.2387 C   0  0  0  0  0  0  0  0  0  0  0  0
  -20.9020   -9.5858    6.6135 C   0  0  0  0  0  0  0  0  0  0  0  0
   -7.0123   -6.6411    7.3103 C   0  0  0  0  0  0  0  0  0  0  0  0
   -7.1334   -7.8394    8.2283 C   0  0  0  0  0  0  0  0  0  0  0  0
 41 42  1  0  0  0
 42  1  1  0  0  0
  1  2  1  0  0  0
  2  3  2  0  0  0
  3  4  1  0  0  0
  4  5  2  0  0  0
  5  8  1  0  0  0
  8  9  1  0  0  0
  9 10  2  0  0  0
  9 11  1  0  0  0
 11 14  1  0  0  0
 14 15  2  0  0  0
 15 16  1  0  0  0
 15 17  1  0  0  0
 17 18  2  0  0  0
 18 19  1  0  0  0
 19 20  2  0  0  0
 20 21  1  0  0  0
  5  6  1  0  0  0
  6  7  2  0  0  0
  3 22  1  0  0  0
 22 23  2  0  0  0
 23 24  1  0  0  0
 24 25  2  0  0  0
 25 26  1  0  0  0
 26 27  2  0  0  0
 26 28  1  0  0  0
 28 29  2  0  0  0
 29 30  1  0  0  0
 30 31  2  0  0  0
 31 32  1  0  0  0
 32 33  2  0  0  0
 32 34  1  0  0  0
 34 35  2  0  0  0
 34 36  1  0  0  0
 36 38  1  0  0  0
 38 39  1  0  0  0
 39 40  1  0  0  0
  6  1  1  0  0  0
 27 22  1  0  0  0
 33 28  1  0  0  0
 40 38  1  0  0  0
 20 14  1  0  0  0
  8 12  1  0  0  0
 11 13  1  0  0  0
 36 37  1  0  0  0
M  END
> <minimizedAffinity>
3.56338

> <CNNscore>
0.4422775209

> <CNNaffinity>
7.6184396744

> <CNN_VS>
3.3694646358

> <CNNaffinity_variance>
0.1529359818

$$$$
[H]c1c([H])c(C([H])([H])N2C([H])([H])C([H])([H])N(C([H])([H])[H])C([H])([H])C2([H])[H])c(C(F)(F)F)c([H])c1C(=O)N([H])c1c([H])c([H])c(C([H])([H])[H])c(C(=O)N([H])[H])c1[H]


 34 36  0  0  0  0  0  0  0  0999 V2000
  -13.0952   -8.7701    7.7711 C   0  0  0  0  0  0  0  0  0  0  0  0
  -12.3819   -9.5692    6.9189 C   0  0  0  0  0  0  0  0  0  0  0  0
  -10.9899   -9.6084    6.8898 C   0  0  0  0  0  0  0  0  0  0  0  0
  -10.2635   -8.8115    7.7540 C   0  0  0  0  0  0  0  0  0  0  0  0
  -10.9710   -8.0158    8.6030 C   0  0  0  0  0  0  0  0  0  0  0  0
  -12.3585   -7.9633    8.6463 C   0  0  0  0  0  0  0  0  0  0  0  0
  -13.0441   -7.0797    9.5892 C   0  0  0  0  0  0  0  0  0  0  0  0
  -13.9938   -7.7065   10.3763 F   0  0  0  0  0  0  0  0  0  0  0  0
  -13.5545   -5.9403    8.9891 F   0  0  0  0  0  0  0  0  0  0  0  0
  -12.0939   -6.5999   10.5031 F   0  0  0  0  0  0  0  0  0  0  0  0
   -8.7816   -8.8458    7.7185 C   0  0  0  0  0  0  0  0  0  0  0  0
   -8.2348   -9.9211    7.9733 O   0  0  0  0  0  0  0  0  0  0  0  0
   -8.0425   -7.6874    7.4054 N   0  0  0  0  0  0  0  0  0  0  0  0
   -8.6148   -6.7897    7.2043 H   0  0  0  0  0  0  0  0  0  0  0  0
   -6.6591   -7.5218    7.3145 C   0  0  0  0  0  0  0  0  0  0  0  0
   -5.9368   -8.4304    6.5478 C   0  0  0  0  0  0  0  0  0  0  0  0
   -4.5749   -8.3126    6.4428 C   0  0  0  0  0  0  0  0  0  0  0  0
   -3.8490   -7.3018    7.0809 C   0  0  0  0  0  0  0  0  0  0  0  0
   -2.3831   -7.2543    6.9044 C   0  0  0  0  0  0  0  0  0  0  0  0
   -4.5825   -6.4170    7.8322 C   0  0  0  0  0  0  0  0  0  0  0  0
   -5.9883   -6.5309    7.9465 C   0  0  0  0  0  0  0  0  0  0  0  0
   -3.9209   -5.3350    8.5381 C   0  0  0  0  0  0  0  0  0  0  0  0
   -3.5536   -5.4055    9.8903 N   0  0  0  0  0  0  0  0  0  0  0  0
   -3.6670   -4.2643    7.8733 O   0  0  0  0  0  0  0  0  0  0  0  0
   -4.2235   -5.1058   10.6292 H   0  0  0  0  0  0  0  0  0  0  0  0
   -2.6169   -5.7400   10.1983 H   0  0  0  0  0  0  0  0  0  0  0  0
  -14.5494   -8.7879    7.7711 C   0  0  0  0  0  0  0  0  0  0  0  0
  -17.2019   -8.2664    3.7946 C   0  0  0  0  0  0  0  0  0  0  0  0
  -16.6093   -8.4450    5.1073 N   0  0  0  0  0  0  0  0  0  0  0  0
  -17.3049   -7.6030    6.0567 C   0  0  0  0  0  0  0  0  0  0  0  0
  -16.6655   -7.6421    7.4263 C   0  0  0  0  0  0  0  0  0  0  0  0
  -15.2451   -7.6190    7.3886 N   0  0  0  0  0  0  0  0  0  0  0  0
  -14.7994   -7.2115    6.0752 C   0  0  0  0  0  0  0  0  0  0  0  0
  -15.2118   -8.1666    4.9986 C   0  0  0  0  0  0  0  0  0  0  0  0
 28 29  1  0  0  0
 29 30  1  0  0  0
 30 31  1  0  0  0
 31 32  1  0  0  0
 32 27  1  0  0  0
 27  1  1  0  0  0
  1  2  2  0  0  0
  2  3  1  0  0  0
  3  4  2  0  0  0
  4  5  1  0  0  0
  5  6  2  0  0  0
  6  7  1  0  0  0
  7  8  1  0  0  0
  7  9  1  0  0  0
  7 10  1  0  0  0
  4 11  1  0  0  0
 11 12  2  0  0  0
 11 13  1  0  0  0
 13 15  1  0  0  0
 15 16  2  0  0  0
 16 17  1  0  0  0
 17 18  2  0  0  0
 18 19  1  0  0  0
 18 20  1  0  0  0
 20 21  2  0  0  0
 20 22  1  0  0  0
 22 23  1  0  0  0
 22 24  2  0  0  0
 32 33  1  0  0  0
 33 34  1  0  0  0
 34 29  1  0  0  0
  6  1  1  0  0  0
 21 15  1  0  0  0
 13 14  1  0  0  0
 23 25  1  0  0  0
 23 26  1  0  0  0
M  END
> <minimizedAffinity>
-9.47390

> <CNNscore>
0.5980285406

> <CNNaffinity>
6.9833345413

> <CNN_VS>
4.1762332916

> <CNNaffinity_variance>
0.1927340925

$$$$
[H]c1c([H])c(C([H])([H])N2C([H])([H])C([H])([H])N(C([H])([H])[H])C([H])([H])C2([H])[H])c(C(F)(F)F)c([H])c1C(=O)N([H])c1c([H])c([H])c(C([H])([H])[H])c(C(=O)N([H])[H])c1[H]


 34 36  0  0  0  0  0  0  0  0999 V2000
  -11.6458   -8.5825    8.3276 C   0  0  0  0  0  0  0  0  0  0  0  0
  -10.8731   -9.4882    7.6522 C   0  0  0  0  0  0  0  0  0  0  0  0
   -9.5344   -9.2685    7.3362 C   0  0  0  0  0  0  0  0  0  0  0  0
   -8.9269   -8.0853    7.7109 C   0  0  0  0  0  0  0  0  0  0  0  0
   -9.6937   -7.1828    8.3833 C   0  0  0  0  0  0  0  0  0  0  0  0
  -11.0295   -7.3843    8.7069 C   0  0  0  0  0  0  0  0  0  0  0  0
  -11.7852   -6.3629    9.4320 C   0  0  0  0  0  0  0  0  0  0  0  0
  -12.0849   -6.6926   10.7419 F   0  0  0  0  0  0  0  0  0  0  0  0
  -12.9102   -5.9345    8.7466 F   0  0  0  0  0  0  0  0  0  0  0  0
  -10.9797   -5.2190    9.5348 F   0  0  0  0  0  0  0  0  0  0  0  0
   -7.5042   -7.8464    7.3679 C   0  0  0  0  0  0  0  0  0  0  0  0
   -6.9140   -8.7369    6.7525 O   0  0  0  0  0  0  0  0  0  0  0  0
   -6.8669   -6.6453    7.7383 N   0  0  0  0  0  0  0  0  0  0  0  0
   -7.4686   -5.9281    8.2837 H   0  0  0  0  0  0  0  0  0  0  0  0
   -5.5530   -6.2354    7.5033 C   0  0  0  0  0  0  0  0  0  0  0  0
   -4.6275   -6.3709    8.5329 C   0  0  0  0  0  0  0  0  0  0  0  0
   -3.3299   -5.9683    8.3491 C   0  0  0  0  0  0  0  0  0  0  0  0
   -2.8699   -5.4130    7.1508 C   0  0  0  0  0  0  0  0  0  0  0  0
   -1.4517   -5.0129    7.0466 C   0  0  0  0  0  0  0  0  0  0  0  0
   -3.8007   -5.2886    6.1491 C   0  0  0  0  0  0  0  0  0  0  0  0
   -5.1421   -5.7012    6.3298 C   0  0  0  0  0  0  0  0  0  0  0  0
   -3.4233   -4.7189    4.8686 C   0  0  0  0  0  0  0  0  0  0  0  0
   -3.9195   -3.4968    4.3904 N   0  0  0  0  0  0  0  0  0  0  0  0
   -2.5905   -5.3832    4.1490 O   0  0  0  0  0  0  0  0  0  0  0  0
   -4.7958   -3.4737    3.8280 H   0  0  0  0  0  0  0  0  0  0  0  0
   -3.4367   -2.5909    4.5647 H   0  0  0  0  0  0  0  0  0  0  0  0
  -13.0334   -8.8766    8.6491 C   0  0  0  0  0  0  0  0  0  0  0  0
  -15.2543   -6.3501    5.2133 C   0  0  0  0  0  0  0  0  0  0  0  0
  -14.4309   -7.1736    6.0794 N   0  0  0  0  0  0  0  0  0  0  0  0
  -14.1498   -8.4259    5.4108 C   0  0  0  0  0  0  0  0  0  0  0  0
  -13.3965   -9.3886    6.3006 C   0  0  0  0  0  0  0  0  0  0  0  0
  -13.8685   -9.4081    7.6408 N   0  0  0  0  0  0  0  0  0  0  0  0
  -15.1621   -8.7666    7.7109 C   0  0  0  0  0  0  0  0  0  0  0  0
  -15.1161   -7.3208    7.3249 C   0  0  0  0  0  0  0  0  0  0  0  0
 28 29  1  0  0  0
 29 30  1  0  0  0
 30 31  1  0  0  0
 31 32  1  0  0  0
 32 27  1  0  0  0
 27  1  1  0  0  0
  1  2  2  0  0  0
  2  3  1  0  0  0
  3  4  2  0  0  0
  4  5  1  0  0  0
  5  6  2  0  0  0
  6  7  1  0  0  0
  7  8  1  0  0  0
  7  9  1  0  0  0
  7 10  1  0  0  0
  4 11  1  0  0  0
 11 12  2  0  0  0
 11 13  1  0  0  0
 13 15  1  0  0  0
 15 16  2  0  0  0
 16 17  1  0  0  0
 17 18  2  0  0  0
 18 19  1  0  0  0
 18 20  1  0  0  0
 20 21  2  0  0  0
 20 22  1  0  0  0
 22 23  1  0  0  0
 22 24  2  0  0  0
 32 33  1  0  0  0
 33 34  1  0  0  0
 34 29  1  0  0  0
  6  1  1  0  0  0
 21 15  1  0  0  0
 13 14  1  0  0  0
 23 25  1  0  0  0
 23 26  1  0  0  0
M  END
> <minimizedAffinity>
-9.03975

> <CNNscore>
0.5727156401

> <CNNaffinity>
6.8422060013

> <CNN_VS>
3.9186384678

> <CNNaffinity_variance>
0.0466921926

$$$$
[H]c1c([H])c(C([H])([H])N2C([H])([H])C([H])([H])N(C([H])([H])[H])C([H])([H])C2([H])[H])c(C(F)(F)F)c([H])c1C(=O)N([H])c1c([H])c([H])c(C([H])([H])[H])c(C(=O)N([H])[H])c1[H]


 34 36  0  0  0  0  0  0  0  0999 V2000
  -11.7168   -8.5720    8.3558 C   0  0  0  0  0  0  0  0  0  0  0  0
  -10.9705   -9.4891    7.6663 C   0  0  0  0  0  0  0  0  0  0  0  0
   -9.6350   -9.2891    7.3246 C   0  0  0  0  0  0  0  0  0  0  0  0
   -9.0033   -8.1147    7.6866 C   0  0  0  0  0  0  0  0  0  0  0  0
   -9.7439   -7.2008    8.3729 C   0  0  0  0  0  0  0  0  0  0  0  0
  -11.0760   -7.3827    8.7223 C   0  0  0  0  0  0  0  0  0  0  0  0
  -11.8028   -6.3502    9.4610 C   0  0  0  0  0  0  0  0  0  0  0  0
  -12.0874   -6.6774   10.7748 F   0  0  0  0  0  0  0  0  0  0  0  0
  -12.9309   -5.9013    8.7942 F   0  0  0  0  0  0  0  0  0  0  0  0
  -10.9763   -5.2203    9.5533 F   0  0  0  0  0  0  0  0  0  0  0  0
   -7.5842   -7.8967    7.3162 C   0  0  0  0  0  0  0  0  0  0  0  0
   -7.0035   -8.8170    6.7366 O   0  0  0  0  0  0  0  0  0  0  0  0
   -6.9394   -6.6814    7.6223 N   0  0  0  0  0  0  0  0  0  0  0  0
   -7.5328   -5.9375    8.1402 H   0  0  0  0  0  0  0  0  0  0  0  0
   -5.6274   -6.2872    7.3529 C   0  0  0  0  0  0  0  0  0  0  0  0
   -5.2717   -6.0451    6.0300 C   0  0  0  0  0  0  0  0  0  0  0  0
   -3.9902   -5.6692    5.7197 C   0  0  0  0  0  0  0  0  0  0  0  0
   -2.9909   -5.5106    6.6852 C   0  0  0  0  0  0  0  0  0  0  0  0
   -1.6395   -5.0981    6.2539 C   0  0  0  0  0  0  0  0  0  0  0  0
   -3.3646   -5.7551    7.9836 C   0  0  0  0  0  0  0  0  0  0  0  0
   -4.6848   -6.1436    8.3131 C   0  0  0  0  0  0  0  0  0  0  0  0
   -2.3983   -5.6230    9.0586 C   0  0  0  0  0  0  0  0  0  0  0  0
   -2.1892   -4.4303    9.7671 N   0  0  0  0  0  0  0  0  0  0  0  0
   -1.7072   -6.6636    9.3626 O   0  0  0  0  0  0  0  0  0  0  0  0
   -1.4895   -3.7376    9.4276 H   0  0  0  0  0  0  0  0  0  0  0  0
   -2.7035   -4.2034   10.6435 H   0  0  0  0  0  0  0  0  0  0  0  0
  -13.1021   -8.8458    8.7040 C   0  0  0  0  0  0  0  0  0  0  0  0
  -14.9405   -6.5974    4.8718 C   0  0  0  0  0  0  0  0  0  0  0  0
  -14.2330   -7.3725    5.8743 N   0  0  0  0  0  0  0  0  0  0  0  0
  -14.0502   -8.7218    5.3841 C   0  0  0  0  0  0  0  0  0  0  0  0
  -13.4268   -9.6248    6.4243 C   0  0  0  0  0  0  0  0  0  0  0  0
  -13.9473   -9.4259    7.7316 N   0  0  0  0  0  0  0  0  0  0  0  0
  -15.1743   -8.6653    7.6566 C   0  0  0  0  0  0  0  0  0  0  0  0
  -14.9744   -7.2926    7.0935 C   0  0  0  0  0  0  0  0  0  0  0  0
 28 29  1  0  0  0
 29 30  1  0  0  0
 30 31  1  0  0  0
 31 32  1  0  0  0
 32 27  1  0  0  0
 27  1  1  0  0  0
  1  2  2  0  0  0
  2  3  1  0  0  0
  3  4  2  0  0  0
  4  5  1  0  0  0
  5  6  2  0  0  0
  6  7  1  0  0  0
  7  8  1  0  0  0
  7  9  1  0  0  0
  7 10  1  0  0  0
  4 11  1  0  0  0
 11 12  2  0  0  0
 11 13  1  0  0  0
 13 15  1  0  0  0
 15 16  2  0  0  0
 16 17  1  0  0  0
 17 18  2  0  0  0
 18 19  1  0  0  0
 18 20  1  0  0  0
 20 21  2  0  0  0
 20 22  1  0  0  0
 22 23  1  0  0  0
 22 24  2  0  0  0
 32 33  1  0  0  0
 33 34  1  0  0  0
 34 29  1  0  0  0
  6  1  1  0  0  0
 21 15  1  0  0  0
 13 14  1  0  0  0
 23 25  1  0  0  0
 23 26  1  0  0  0
M  END
> <minimizedAffinity>
-9.15411

> <CNNscore>
0.5136717558

> <CNNaffinity>
6.6730713844

> <CNN_VS>
3.4277682304

> <CNNaffinity_variance>
0.0495388471

$$$$
[H]c1c([H])c(C([H])([H])N2C([H])([H])C([H])([H])N(C([H])([H])[H])C([H])([H])C2([H])[H])c(C(F)(F)F)c([H])c1C(=O)N([H])c1c([H])c([H])c(C([H])([H])[H])c(C(=O)N([H])[H])c1[H]


 34 36  0  0  0  0  0  0  0  0999 V2000
  -12.4582   -7.1828   10.4402 C   0  0  0  0  0  0  0  0  0  0  0  0
  -11.8425   -6.9151    9.2474 C   0  0  0  0  0  0  0  0  0  0  0  0
  -12.4733   -7.0475    8.0126 C   0  0  0  0  0  0  0  0  0  0  0  0
  -13.7883   -7.4684    7.9564 C   0  0  0  0  0  0  0  0  0  0  0  0
  -14.4030   -7.7350    9.1419 C   0  0  0  0  0  0  0  0  0  0  0  0
  -13.7903   -7.6088   10.3822 C   0  0  0  0  0  0  0  0  0  0  0  0
  -14.5211   -7.9160   11.6117 C   0  0  0  0  0  0  0  0  0  0  0  0
  -13.8259   -8.7055   12.5104 F   0  0  0  0  0  0  0  0  0  0  0  0
  -15.7915   -8.4149   11.3752 F   0  0  0  0  0  0  0  0  0  0  0  0
  -14.7386   -6.7124   12.2990 F   0  0  0  0  0  0  0  0  0  0  0  0
  -14.4586   -7.6179    6.6423 C   0  0  0  0  0  0  0  0  0  0  0  0
  -15.3105   -6.7782    6.3434 O   0  0  0  0  0  0  0  0  0  0  0  0
  -14.1249   -8.6829    5.7817 N   0  0  0  0  0  0  0  0  0  0  0  0
  -13.3695   -9.3729    6.1382 H   0  0  0  0  0  0  0  0  0  0  0  0
  -14.6319   -8.9863    4.5166 C   0  0  0  0  0  0  0  0  0  0  0  0
  -15.9269   -9.4869    4.4296 C   0  0  0  0  0  0  0  0  0  0  0  0
  -16.4589   -9.8107    3.2082 C   0  0  0  0  0  0  0  0  0  0  0  0
  -15.7537   -9.6623    2.0097 C   0  0  0  0  0  0  0  0  0  0  0  0
  -16.4134  -10.0346    0.7414 C   0  0  0  0  0  0  0  0  0  0  0  0
  -14.4777   -9.1671    2.1198 C   0  0  0  0  0  0  0  0  0  0  0  0
  -13.9204   -8.8303    3.3761 C   0  0  0  0  0  0  0  0  0  0  0  0
  -13.6619   -8.9812    0.9338 C   0  0  0  0  0  0  0  0  0  0  0  0
  -12.8416   -9.9840    0.3954 N   0  0  0  0  0  0  0  0  0  0  0  0
  -13.7059   -7.8310    0.3611 O   0  0  0  0  0  0  0  0  0  0  0  0
  -11.8563  -10.0814    0.7184 H   0  0  0  0  0  0  0  0  0  0  0  0
  -13.1743  -10.6445   -0.3376 H   0  0  0  0  0  0  0  0  0  0  0  0
  -11.7550   -7.0049   11.7008 C   0  0  0  0  0  0  0  0  0  0  0  0
   -8.2041   -5.0551   14.2911 C   0  0  0  0  0  0  0  0  0  0  0  0
   -9.2050   -5.4962   13.3372 N   0  0  0  0  0  0  0  0  0  0  0  0
   -9.8138   -4.3360   12.7228 C   0  0  0  0  0  0  0  0  0  0  0  0
  -10.9540   -4.7120   11.8038 C   0  0  0  0  0  0  0  0  0  0  0  0
  -11.7869   -5.7382   12.3261 N   0  0  0  0  0  0  0  0  0  0  0  0
  -11.5305   -5.9014   13.7393 C   0  0  0  0  0  0  0  0  0  0  0  0
  -10.1285   -6.3391   14.0295 C   0  0  0  0  0  0  0  0  0  0  0  0
 28 29  1  0  0  0
 29 30  1  0  0  0
 30 31  1  0  0  0
 31 32  1  0  0  0
 32 27  1  0  0  0
 27  1  1  0  0  0
  1  2  2  0  0  0
  2  3  1  0  0  0
  3  4  2  0  0  0
  4  5  1  0  0  0
  5  6  2  0  0  0
  6  7  1  0  0  0
  7  8  1  0  0  0
  7  9  1  0  0  0
  7 10  1  0  0  0
  4 11  1  0  0  0
 11 12  2  0  0  0
 11 13  1  0  0  0
 13 15  1  0  0  0
 15 16  2  0  0  0
 16 17  1  0  0  0
 17 18  2  0  0  0
 18 19  1  0  0  0
 18 20  1  0  0  0
 20 21  2  0  0  0
 20 22  1  0  0  0
 22 23  1  0  0  0
 22 24  2  0  0  0
 32 33  1  0  0  0
 33 34  1  0  0  0
 34 29  1  0  0  0
  6  1  1  0  0  0
 21 15  1  0  0  0
 13 14  1  0  0  0
 23 25  1  0  0  0
 23 26  1  0  0  0
M  END
> <minimizedAffinity>
32.32691

> <CNNscore>
0.5095686316

> <CNNaffinity>
6.1573185921

> <CNN_VS>
3.1375763416

> <CNNaffinity_variance>
1.4178237915

$$$$
[H]c1c([H])c(C([H])([H])N2C([H])([H])C([H])([H])N(C([H])([H])[H])C([H])([H])C2([H])[H])c(C(F)(F)F)c([H])c1C(=O)N([H])c1c([H])c([H])c(C([H])([H])[H])c(C(=O)N([H])[H])c1[H]


 34 36  0  0  0  0  0  0  0  0999 V2000
  -11.8866   -8.3031    8.4850 C   0  0  0  0  0  0  0  0  0  0  0  0
  -11.0591   -9.1025    7.7436 C   0  0  0  0  0  0  0  0  0  0  0  0
   -9.7590   -8.7448    7.3943 C   0  0  0  0  0  0  0  0  0  0  0  0
   -9.2499   -7.5269    7.8028 C   0  0  0  0  0  0  0  0  0  0  0  0
  -10.0714   -6.7300    8.5408 C   0  0  0  0  0  0  0  0  0  0  0  0
  -11.3700   -7.0697    8.8986 C   0  0  0  0  0  0  0  0  0  0  0  0
  -12.1895   -6.1557    9.6943 C   0  0  0  0  0  0  0  0  0  0  0  0
  -12.3978   -6.5613   11.0006 F   0  0  0  0  0  0  0  0  0  0  0  0
  -13.3800   -5.8165    9.0725 F   0  0  0  0  0  0  0  0  0  0  0  0
  -11.4960   -4.9418    9.8113 F   0  0  0  0  0  0  0  0  0  0  0  0
   -7.8691   -7.1410    7.4246 C   0  0  0  0  0  0  0  0  0  0  0  0
   -7.7087   -6.6324    6.3130 O   0  0  0  0  0  0  0  0  0  0  0  0
   -6.7943   -7.3546    8.3108 N   0  0  0  0  0  0  0  0  0  0  0  0
   -7.0367   -7.8150    9.2611 H   0  0  0  0  0  0  0  0  0  0  0  0
   -5.4407   -7.0562    8.1432 C   0  0  0  0  0  0  0  0  0  0  0  0
   -4.9802   -5.8195    8.5835 C   0  0  0  0  0  0  0  0  0  0  0  0
   -3.6612   -5.4805    8.4260 C   0  0  0  0  0  0  0  0  0  0  0  0
   -2.7245   -6.3316    7.8307 C   0  0  0  0  0  0  0  0  0  0  0  0
   -1.3235   -5.8791    7.7092 C   0  0  0  0  0  0  0  0  0  0  0  0
   -3.2015   -7.5462    7.4036 C   0  0  0  0  0  0  0  0  0  0  0  0
   -4.5612   -7.9046    7.5618 C   0  0  0  0  0  0  0  0  0  0  0  0
   -2.3092   -8.4983    6.7679 C   0  0  0  0  0  0  0  0  0  0  0  0
   -1.6665   -9.5358    7.4600 N   0  0  0  0  0  0  0  0  0  0  0  0
   -2.1093   -8.3679    5.5047 O   0  0  0  0  0  0  0  0  0  0  0  0
   -0.7336   -9.3740    7.8939 H   0  0  0  0  0  0  0  0  0  0  0  0
   -2.0814  -10.4862    7.5536 H   0  0  0  0  0  0  0  0  0  0  0  0
  -13.2282   -8.7397    8.8380 C   0  0  0  0  0  0  0  0  0  0  0  0
  -14.9093   -6.7134    4.8144 C   0  0  0  0  0  0  0  0  0  0  0  0
  -14.2406   -7.4264    5.8872 N   0  0  0  0  0  0  0  0  0  0  0  0
  -14.0148   -8.7949    5.4743 C   0  0  0  0  0  0  0  0  0  0  0  0
  -13.4301   -9.6352    6.5870 C   0  0  0  0  0  0  0  0  0  0  0  0
  -14.0166   -9.3810    7.8562 N   0  0  0  0  0  0  0  0  0  0  0  0
  -15.2492   -8.6456    7.6845 C   0  0  0  0  0  0  0  0  0  0  0  0
  -15.0417   -7.2991    7.0639 C   0  0  0  0  0  0  0  0  0  0  0  0
 28 29  1  0  0  0
 29 30  1  0  0  0
 30 31  1  0  0  0
 31 32  1  0  0  0
 32 27  1  0  0  0
 27  1  1  0  0  0
  1  2  2  0  0  0
  2  3  1  0  0  0
  3  4  2  0  0  0
  4  5  1  0  0  0
  5  6  2  0  0  0
  6  7  1  0  0  0
  7  8  1  0  0  0
  7  9  1  0  0  0
  7 10  1  0  0  0
  4 11  1  0  0  0
 11 12  2  0  0  0
 11 13  1  0  0  0
 13 15  1  0  0  0
 15 16  2  0  0  0
 16 17  1  0  0  0
 17 18  2  0  0  0
 18 19  1  0  0  0
 18 20  1  0  0  0
 20 21  2  0  0  0
 20 22  1  0  0  0
 22 23  1  0  0  0
 22 24  2  0  0  0
 32 33  1  0  0  0
 33 34  1  0  0  0
 34 29  1  0  0  0
  6  1  1  0  0  0
 21 15  1  0  0  0
 13 14  1  0  0  0
 23 25  1  0  0  0
 23 26  1  0  0  0
M  END
> <minimizedAffinity>
-9.08546

> <CNNscore>
0.4730316401

> <CNNaffinity>
6.7185544968

> <CNN_VS>
3.1780889034

> <CNNaffinity_variance>
0.0495426133

$$$$
[H]c1c([H])c(C([H])([H])N2C([H])([H])C([H])([H])N(C([H])([H])[H])C([H])([H])C2([H])[H])c(C(F)(F)F)c([H])c1C(=O)N([H])c1c([H])c([H])c(C([H])([H])[H])c(C(=O)N([H])[H])c1[H]


 34 36  0  0  0  0  0  0  0  0999 V2000
  -11.9988   -8.4041    8.1041 C   0  0  0  0  0  0  0  0  0  0  0  0
  -11.1659   -9.0976    7.2680 C   0  0  0  0  0  0  0  0  0  0  0  0
   -9.7873   -8.9031    7.2255 C   0  0  0  0  0  0  0  0  0  0  0  0
   -9.2007   -7.9695    8.0584 C   0  0  0  0  0  0  0  0  0  0  0  0
  -10.0274   -7.2786    8.8913 C   0  0  0  0  0  0  0  0  0  0  0  0
  -11.4037   -7.4588    8.9476 C   0  0  0  0  0  0  0  0  0  0  0  0
  -12.2230   -6.6746    9.8716 C   0  0  0  0  0  0  0  0  0  0  0  0
  -13.0821   -7.4248   10.6549 F   0  0  0  0  0  0  0  0  0  0  0  0
  -12.8854   -5.6278    9.2517 F   0  0  0  0  0  0  0  0  0  0  0  0
  -11.3650   -6.0524   10.7908 F   0  0  0  0  0  0  0  0  0  0  0  0
   -7.7343   -7.7554    8.0083 C   0  0  0  0  0  0  0  0  0  0  0  0
   -7.1026   -7.9227    9.0538 O   0  0  0  0  0  0  0  0  0  0  0  0
   -7.1035   -7.3753    6.8068 N   0  0  0  0  0  0  0  0  0  0  0  0
   -7.7463   -7.2458    5.9443 H   0  0  0  0  0  0  0  0  0  0  0  0
   -5.7505   -7.1364    6.5585 C   0  0  0  0  0  0  0  0  0  0  0  0
   -5.3872   -5.9048    6.0235 C   0  0  0  0  0  0  0  0  0  0  0  0
   -4.0711   -5.6338    5.7516 C   0  0  0  0  0  0  0  0  0  0  0  0
   -3.0426   -6.5515    5.9883 C   0  0  0  0  0  0  0  0  0  0  0  0
   -1.6532   -6.1664    5.6665 C   0  0  0  0  0  0  0  0  0  0  0  0
   -3.4245   -7.7602    6.5160 C   0  0  0  0  0  0  0  0  0  0  0  0
   -4.7805   -8.0486    6.7997 C   0  0  0  0  0  0  0  0  0  0  0  0
   -2.4318   -8.7822    6.7929 C   0  0  0  0  0  0  0  0  0  0  0  0
   -1.8117   -8.9388    8.0417 N   0  0  0  0  0  0  0  0  0  0  0  0
   -2.1169   -9.5755    5.8315 O   0  0  0  0  0  0  0  0  0  0  0  0
   -0.9337   -8.4217    8.2567 H   0  0  0  0  0  0  0  0  0  0  0  0
   -2.1893   -9.5710    8.7778 H   0  0  0  0  0  0  0  0  0  0  0  0
  -13.4293   -8.6660    8.1199 C   0  0  0  0  0  0  0  0  0  0  0  0
  -16.3744   -8.4992    4.3226 C   0  0  0  0  0  0  0  0  0  0  0  0
  -15.6803   -8.6043    5.5929 N   0  0  0  0  0  0  0  0  0  0  0  0
  -16.4357   -7.8943    6.6027 C   0  0  0  0  0  0  0  0  0  0  0  0
  -15.7132   -7.8553    7.9302 C   0  0  0  0  0  0  0  0  0  0  0  0
  -14.3183   -7.6127    7.8085 N   0  0  0  0  0  0  0  0  0  0  0  0
  -14.0235   -7.1213    6.4814 C   0  0  0  0  0  0  0  0  0  0  0  0
  -14.3514   -8.1120    5.4080 C   0  0  0  0  0  0  0  0  0  0  0  0
 28 29  1  0  0  0
 29 30  1  0  0  0
 30 31  1  0  0  0
 31 32  1  0  0  0
 32 27  1  0  0  0
 27  1  1  0  0  0
  1  2  2  0  0  0
  2  3  1  0  0  0
  3  4  2  0  0  0
  4  5  1  0  0  0
  5  6  2  0  0  0
  6  7  1  0  0  0
  7  8  1  0  0  0
  7  9  1  0  0  0
  7 10  1  0  0  0
  4 11  1  0  0  0
 11 12  2  0  0  0
 11 13  1  0  0  0
 13 15  1  0  0  0
 15 16  2  0  0  0
 16 17  1  0  0  0
 17 18  2  0  0  0
 18 19  1  0  0  0
 18 20  1  0  0  0
 20 21  2  0  0  0
 20 22  1  0  0  0
 22 23  1  0  0  0
 22 24  2  0  0  0
 32 33  1  0  0  0
 33 34  1  0  0  0
 34 29  1  0  0  0
  6  1  1  0  0  0
 21 15  1  0  0  0
 13 14  1  0  0  0
 23 25  1  0  0  0
 23 26  1  0  0  0
M  END
> <minimizedAffinity>
-9.02650

> <CNNscore>
0.4715248346

> <CNNaffinity>
6.8244080544

> <CNN_VS>
3.2178778648

> <CNNaffinity_variance>
0.2406117022

$$$$
[H]c1c([H])c(C([H])([H])N2C([H])([H])C([H])([H])N(C([H])([H])[H])C([H])([H])C2([H])[H])c(C(F)(F)F)c([H])c1C(=O)N([H])c1c([H])c([H])c(C([H])([H])[H])c(C(=O)N([H])[H])c1[H]


 34 36  0  0  0  0  0  0  0  0999 V2000
   -7.7147   -9.0312    6.2475 C   0  0  0  0  0  0  0  0  0  0  0  0
   -7.1354   -7.9813    6.9075 C   0  0  0  0  0  0  0  0  0  0  0  0
   -7.7552   -7.2949    7.9491 C   0  0  0  0  0  0  0  0  0  0  0  0
   -9.0200   -7.6699    8.3602 C   0  0  0  0  0  0  0  0  0  0  0  0
   -9.5983   -8.7144    7.7051 C   0  0  0  0  0  0  0  0  0  0  0  0
   -8.9959   -9.4106    6.6649 C   0  0  0  0  0  0  0  0  0  0  0  0
   -9.6857  -10.5229    6.0115 C   0  0  0  0  0  0  0  0  0  0  0  0
   -9.5235  -11.7459    6.6378 F   0  0  0  0  0  0  0  0  0  0  0  0
   -9.4128  -10.6070    4.6561 F   0  0  0  0  0  0  0  0  0  0  0  0
  -11.0652  -10.2764    6.0776 F   0  0  0  0  0  0  0  0  0  0  0  0
   -9.6847   -6.9348    9.4631 C   0  0  0  0  0  0  0  0  0  0  0  0
   -8.9628   -6.4686   10.3473 O   0  0  0  0  0  0  0  0  0  0  0  0
  -11.0858   -6.7847    9.4858 N   0  0  0  0  0  0  0  0  0  0  0  0
  -11.6328   -7.2374    8.6675 H   0  0  0  0  0  0  0  0  0  0  0  0
  -11.8872   -6.1285   10.4220 C   0  0  0  0  0  0  0  0  0  0  0  0
  -13.1934   -5.8118   10.0630 C   0  0  0  0  0  0  0  0  0  0  0  0
  -14.0102   -5.1555   10.9471 C   0  0  0  0  0  0  0  0  0  0  0  0
  -13.5934   -4.7749   12.2267 C   0  0  0  0  0  0  0  0  0  0  0  0
  -14.5478   -4.0746   13.1105 C   0  0  0  0  0  0  0  0  0  0  0  0
  -12.3007   -5.0974   12.5591 C   0  0  0  0  0  0  0  0  0  0  0  0
  -11.4505   -5.7745   11.6530 C   0  0  0  0  0  0  0  0  0  0  0  0
  -11.7715   -4.7409   13.8628 C   0  0  0  0  0  0  0  0  0  0  0  0
  -11.2759   -3.4655   14.1729 N   0  0  0  0  0  0  0  0  0  0  0  0
  -11.7642   -5.6545   14.7672 O   0  0  0  0  0  0  0  0  0  0  0  0
  -10.2711   -3.2431   14.0130 H   0  0  0  0  0  0  0  0  0  0  0  0
  -11.8756   -2.7156   14.5757 H   0  0  0  0  0  0  0  0  0  0  0  0
   -7.0095   -9.7244    5.1812 C   0  0  0  0  0  0  0  0  0  0  0  0
   -5.3903   -5.2262    5.6963 C   0  0  0  0  0  0  0  0  0  0  0  0
   -5.7421   -6.6339    5.7282 N   0  0  0  0  0  0  0  0  0  0  0  0
   -4.5356   -7.4177    5.8847 C   0  0  0  0  0  0  0  0  0  0  0  0
   -4.8081   -8.9027    5.8044 C   0  0  0  0  0  0  0  0  0  0  0  0
   -5.7367   -9.2535    4.7875 N   0  0  0  0  0  0  0  0  0  0  0  0
   -5.9037   -8.1436    3.8766 C   0  0  0  0  0  0  0  0  0  0  0  0
   -6.4766   -6.9290    4.5383 C   0  0  0  0  0  0  0  0  0  0  0  0
 28 29  1  0  0  0
 29 30  1  0  0  0
 30 31  1  0  0  0
 31 32  1  0  0  0
 32 27  1  0  0  0
 27  1  1  0  0  0
  1  2  2  0  0  0
  2  3  1  0  0  0
  3  4  2  0  0  0
  4  5  1  0  0  0
  5  6  2  0  0  0
  6  7  1  0  0  0
  7  8  1  0  0  0
  7  9  1  0  0  0
  7 10  1  0  0  0
  4 11  1  0  0  0
 11 12  2  0  0  0
 11 13  1  0  0  0
 13 15  1  0  0  0
 15 16  2  0  0  0
 16 17  1  0  0  0
 17 18  2  0  0  0
 18 19  1  0  0  0
 18 20  1  0  0  0
 20 21  2  0  0  0
 20 22  1  0  0  0
 22 23  1  0  0  0
 22 24  2  0  0  0
 32 33  1  0  0  0
 33 34  1  0  0  0
 34 29  1  0  0  0
  6  1  1  0  0  0
 21 15  1  0  0  0
 13 14  1  0  0  0
 23 25  1  0  0  0
 23 26  1  0  0  0
M  END
> <minimizedAffinity>
20.57283

> <CNNscore>
0.3844246864

> <CNNaffinity>
5.7556209564

> <CNN_VS>
2.2126028538

> <CNNaffinity_variance>
0.8142727613

$$$$
[H]c1c([H])c(C([H])([H])N2C([H])([H])C([H])([H])N(C([H])([H])[H])C([H])([H])C2([H])[H])c(C(F)(F)F)c([H])c1C(=O)N([H])c1c([H])c([H])c(C([H])([H])[H])c(C(=O)N([H])[H])c1[H]


 34 36  0  0  0  0  0  0  0  0999 V2000
  -13.1220   -8.6013    7.4862 C   0  0  0  0  0  0  0  0  0  0  0  0
  -12.2777   -9.4724    6.8523 C   0  0  0  0  0  0  0  0  0  0  0  0
  -10.8895   -9.3866    6.9285 C   0  0  0  0  0  0  0  0  0  0  0  0
  -10.3049   -8.3814    7.6751 C   0  0  0  0  0  0  0  0  0  0  0  0
  -11.1430   -7.5137    8.3069 C   0  0  0  0  0  0  0  0  0  0  0  0
  -12.5289   -7.5836    8.2425 C   0  0  0  0  0  0  0  0  0  0  0  0
  -13.3602   -6.6106    8.9512 C   0  0  0  0  0  0  0  0  0  0  0  0
  -14.1628   -7.1532    9.9390 F   0  0  0  0  0  0  0  0  0  0  0  0
  -14.0865   -5.7966    8.0976 F   0  0  0  0  0  0  0  0  0  0  0  0
  -12.5090   -5.7306    9.6363 F   0  0  0  0  0  0  0  0  0  0  0  0
   -8.8273   -8.2836    7.7503 C   0  0  0  0  0  0  0  0  0  0  0  0
   -8.1975   -9.3346    7.8875 O   0  0  0  0  0  0  0  0  0  0  0  0
   -8.1841   -7.0324    7.6678 N   0  0  0  0  0  0  0  0  0  0  0  0
   -8.8256   -6.1665    7.5557 H   0  0  0  0  0  0  0  0  0  0  0  0
   -6.8200   -6.7377    7.7099 C   0  0  0  0  0  0  0  0  0  0  0  0
   -6.1296   -6.9854    8.8920 C   0  0  0  0  0  0  0  0  0  0  0  0
   -4.7921   -6.6980    8.9809 C   0  0  0  0  0  0  0  0  0  0  0  0
   -4.0604   -6.1539    7.9204 C   0  0  0  0  0  0  0  0  0  0  0  0
   -2.6209   -5.8821    8.1105 C   0  0  0  0  0  0  0  0  0  0  0  0
   -4.7623   -5.9175    6.7642 C   0  0  0  0  0  0  0  0  0  0  0  0
   -6.1429   -6.2109    6.6634 C   0  0  0  0  0  0  0  0  0  0  0  0
   -4.0940   -5.3493    5.6078 C   0  0  0  0  0  0  0  0  0  0  0  0
   -4.3998   -4.0847    5.0828 N   0  0  0  0  0  0  0  0  0  0  0  0
   -3.1775   -6.0565    5.0487 O   0  0  0  0  0  0  0  0  0  0  0  0
   -5.1390   -3.9865    4.3557 H   0  0  0  0  0  0  0  0  0  0  0  0
   -3.9039   -3.2199    5.3834 H   0  0  0  0  0  0  0  0  0  0  0  0
  -14.5650   -8.7540    7.3880 C   0  0  0  0  0  0  0  0  0  0  0  0
  -16.0830   -5.0936    4.6644 C   0  0  0  0  0  0  0  0  0  0  0  0
  -15.4375   -6.2036    5.3408 N   0  0  0  0  0  0  0  0  0  0  0  0
  -14.9856   -7.1592    4.3523 C   0  0  0  0  0  0  0  0  0  0  0  0
  -14.4096   -8.4045    4.9873 C   0  0  0  0  0  0  0  0  0  0  0  0
  -15.1530   -8.8641    6.1078 N   0  0  0  0  0  0  0  0  0  0  0  0
  -16.4501   -8.2263    6.1264 C   0  0  0  0  0  0  0  0  0  0  0  0
  -16.3655   -6.7402    6.2860 C   0  0  0  0  0  0  0  0  0  0  0  0
 28 29  1  0  0  0
 29 30  1  0  0  0
 30 31  1  0  0  0
 31 32  1  0  0  0
 32 27  1  0  0  0
 27  1  1  0  0  0
  1  2  2  0  0  0
  2  3  1  0  0  0
  3  4  2  0  0  0
  4  5  1  0  0  0
  5  6  2  0  0  0
  6  7  1  0  0  0
  7  8  1  0  0  0
  7  9  1  0  0  0
  7 10  1  0  0  0
  4 11  1  0  0  0
 11 12  2  0  0  0
 11 13  1  0  0  0
 13 15  1  0  0  0
 15 16  2  0  0  0
 16 17  1  0  0  0
 17 18  2  0  0  0
 18 19  1  0  0  0
 18 20  1  0  0  0
 20 21  2  0  0  0
 20 22  1  0  0  0
 22 23  1  0  0  0
 22 24  2  0  0  0
 32 33  1  0  0  0
 33 34  1  0  0  0
 34 29  1  0  0  0
  6  1  1  0  0  0
 21 15  1  0  0  0
 13 14  1  0  0  0
 23 25  1  0  0  0
 23 26  1  0  0  0
M  END
> <minimizedAffinity>
-8.27141

> <CNNscore>
0.3719688356

> <CNNaffinity>
6.8998322487

> <CNN_VS>
2.5665225983

> <CNNaffinity_variance>
0.1414007246

$$$$
[H]c1c([H])c(C([H])([H])N2C([H])([H])C([H])([H])N(C([H])([H])[H])C([H])([H])C2([H])[H])c(C(F)(F)F)c([H])c1C(=O)N([H])c1c([H])c([H])c(C([H])([H])[H])c(C(=O)N([H])[H])c1[H]


 34 36  0  0  0  0  0  0  0  0999 V2000
  -14.8197   -8.5746    5.0797 C   0  0  0  0  0  0  0  0  0  0  0  0
  -13.7288   -9.0844    4.4290 C   0  0  0  0  0  0  0  0  0  0  0  0
  -12.5102   -9.3344    5.0558 C   0  0  0  0  0  0  0  0  0  0  0  0
  -12.3644   -9.0646    6.4032 C   0  0  0  0  0  0  0  0  0  0  0  0
  -13.4486   -8.5575    7.0527 C   0  0  0  0  0  0  0  0  0  0  0  0
  -14.6712   -8.3018    6.4446 C   0  0  0  0  0  0  0  0  0  0  0  0
  -15.7888   -7.7550    7.2139 C   0  0  0  0  0  0  0  0  0  0  0  0
  -15.6752   -7.9146    8.5835 F   0  0  0  0  0  0  0  0  0  0  0  0
  -17.0230   -8.1839    6.7538 F   0  0  0  0  0  0  0  0  0  0  0  0
  -15.8068   -6.3650    7.0242 F   0  0  0  0  0  0  0  0  0  0  0  0
  -11.0653   -9.3222    7.0700 C   0  0  0  0  0  0  0  0  0  0  0  0
  -11.0972   -9.6984    8.2437 O   0  0  0  0  0  0  0  0  0  0  0  0
   -9.8521   -9.1387    6.3767 N   0  0  0  0  0  0  0  0  0  0  0  0
   -9.9291   -8.7981    5.3511 H   0  0  0  0  0  0  0  0  0  0  0  0
   -8.5435   -9.3337    6.8228 C   0  0  0  0  0  0  0  0  0  0  0  0
   -8.3315  -10.2232    7.8711 C   0  0  0  0  0  0  0  0  0  0  0  0
   -7.0639  -10.4340    8.3491 C   0  0  0  0  0  0  0  0  0  0  0  0
   -5.9388   -9.7871    7.8279 C   0  0  0  0  0  0  0  0  0  0  0  0
   -4.6122  -10.0828    8.4067 C   0  0  0  0  0  0  0  0  0  0  0  0
   -6.1721   -8.9136    6.7944 C   0  0  0  0  0  0  0  0  0  0  0  0
   -7.4769   -8.6897    6.2948 C   0  0  0  0  0  0  0  0  0  0  0  0
   -5.0702   -8.1887    6.1885 C   0  0  0  0  0  0  0  0  0  0  0  0
   -4.5436   -8.4980    4.9254 N   0  0  0  0  0  0  0  0  0  0  0  0
   -4.5630   -7.2163    6.8594 O   0  0  0  0  0  0  0  0  0  0  0  0
   -3.7708   -9.1906    4.8376 H   0  0  0  0  0  0  0  0  0  0  0  0
   -4.8882   -8.0495    4.0512 H   0  0  0  0  0  0  0  0  0  0  0  0
  -16.0740   -8.3550    4.3770 C   0  0  0  0  0  0  0  0  0  0  0  0
  -20.0636   -6.1317    2.8734 C   0  0  0  0  0  0  0  0  0  0  0  0
  -18.8188   -6.6042    3.4509 N   0  0  0  0  0  0  0  0  0  0  0  0
  -17.8215   -5.5615    3.3383 C   0  0  0  0  0  0  0  0  0  0  0  0
  -16.4610   -6.0231    3.8093 C   0  0  0  0  0  0  0  0  0  0  0  0
  -16.1356   -7.3424    3.3933 N   0  0  0  0  0  0  0  0  0  0  0  0
  -17.0371   -7.7579    2.3424 C   0  0  0  0  0  0  0  0  0  0  0  0
  -18.4640   -7.8213    2.7912 C   0  0  0  0  0  0  0  0  0  0  0  0
 28 29  1  0  0  0
 29 30  1  0  0  0
 30 31  1  0  0  0
 31 32  1  0  0  0
 32 27  1  0  0  0
 27  1  1  0  0  0
  1  2  2  0  0  0
  2  3  1  0  0  0
  3  4  2  0  0  0
  4  5  1  0  0  0
  5  6  2  0  0  0
  6  7  1  0  0  0
  7  8  1  0  0  0
  7  9  1  0  0  0
  7 10  1  0  0  0
  4 11  1  0  0  0
 11 12  2  0  0  0
 11 13  1  0  0  0
 13 15  1  0  0  0
 15 16  2  0  0  0
 16 17  1  0  0  0
 17 18  2  0  0  0
 18 19  1  0  0  0
 18 20  1  0  0  0
 20 21  2  0  0  0
 20 22  1  0  0  0
 22 23  1  0  0  0
 22 24  2  0  0  0
 32 33  1  0  0  0
 33 34  1  0  0  0
 34 29  1  0  0  0
  6  1  1  0  0  0
 21 15  1  0  0  0
 13 14  1  0  0  0
 23 25  1  0  0  0
 23 26  1  0  0  0
M  END
> <minimizedAffinity>
15.42423

> <CNNscore>
0.3585591018

> <CNNaffinity>
6.1195383072

> <CNN_VS>
2.1942162514

> <CNNaffinity_variance>
1.2124381065

$$$$
[H]N=C(N([H])[H])N([H])C([H])([H])C([H])([H])C([H])([H])[C@]([H])(C(=O)N([H])[C@]([H])(C(=O)N([H])[C@]([H])(C(=O)O[H])C([H])([H])C([H])([H])C([H])([H])C([H])([H])N([H])[H])C([H])([H])c1c([H])c([H])c([H])c([H])c1[H])N([H])C(=O)[C@@]([H])(N([H])[H])C([H])([H])c1c(C([H])([H])[H])c([H])c(O[H])c([H])c1C([H])([H])[H]


 59 60  0  0  0  0  0  0  0  0999 V2000
  -10.7229   -7.0190    9.1096 C   0  0  0  0  0  0  0  0  0  0  0  0
   -9.3103   -6.6293    8.8058 C   0  0  0  0  0  0  0  0  0  0  0  0
   -8.9494   -6.1373    7.7271 O   0  0  0  0  0  0  0  0  0  0  0  0
   -8.3457   -6.8449    9.8140 N   0  0  0  0  0  0  0  0  0  0  0  0
   -8.6358   -7.2460   10.7224 H   0  0  0  0  0  0  0  0  0  0  0  0
   -6.9473   -6.5299    9.6394 C   0  0  0  0  0  0  0  0  0  0  0  0
   -6.3931   -7.5416    8.6736 C   0  0  0  0  0  0  0  0  0  0  0  0
   -6.6223   -8.7578    8.9207 O   0  0  0  0  0  0  0  0  0  0  0  0
   -5.6426   -7.1974    7.5253 N   0  0  0  0  0  0  0  0  0  0  0  0
   -5.4287   -6.2271    7.2800 H   0  0  0  0  0  0  0  0  0  0  0  0
   -5.1742   -8.3145    6.6809 C   0  0  0  0  0  0  0  0  0  0  0  0
   -3.7380   -8.1241    6.4708 C   0  0  0  0  0  0  0  0  0  0  0  0
   -3.1862   -7.0134    5.8890 O   0  0  0  0  0  0  0  0  0  0  0  0
   -2.9266   -9.0334    6.8389 O   0  0  0  0  0  0  0  0  0  0  0  0
   -2.2141   -6.8220    5.8958 H   0  0  0  0  0  0  0  0  0  0  0  0
   -5.9275   -8.2901    5.3793 C   0  0  0  0  0  0  0  0  0  0  0  0
   -7.3888   -8.3925    5.5892 C   0  0  0  0  0  0  0  0  0  0  0  0
   -7.7972   -9.7996    6.0442 C   0  0  0  0  0  0  0  0  0  0  0  0
   -8.9855   -9.6079    6.9715 C   0  0  0  0  0  0  0  0  0  0  0  0
   -9.8226  -10.7865    6.7874 N   0  0  0  0  0  0  0  0  0  0  0  0
  -10.6278  -10.6208    6.1595 H   0  0  0  0  0  0  0  0  0  0  0  0
   -9.2795  -11.6458    6.5892 H   0  0  0  0  0  0  0  0  0  0  0  0
   -6.1848   -6.6454   10.9051 C   0  0  0  0  0  0  0  0  0  0  0  0
   -5.1416   -5.6457   11.1109 C   0  0  0  0  0  0  0  0  0  0  0  0
   -4.8763   -5.2262   12.4123 C   0  0  0  0  0  0  0  0  0  0  0  0
   -3.9088   -4.2767   12.6883 C   0  0  0  0  0  0  0  0  0  0  0  0
   -3.1610   -3.7023   11.6775 C   0  0  0  0  0  0  0  0  0  0  0  0
   -3.4183   -4.1129   10.3856 C   0  0  0  0  0  0  0  0  0  0  0  0
   -4.3801   -5.0553   10.1228 C   0  0  0  0  0  0  0  0  0  0  0  0
  -12.2669   -8.5614    7.8694 C   0  0  0  0  0  0  0  0  0  0  0  0
  -12.4902   -9.2339    8.8992 O   0  0  0  0  0  0  0  0  0  0  0  0
  -11.4050   -7.4676    7.9119 N   0  0  0  0  0  0  0  0  0  0  0  0
  -11.2226   -6.9211    7.0377 H   0  0  0  0  0  0  0  0  0  0  0  0
  -12.9397   -8.9597    6.6090 C   0  0  0  0  0  0  0  0  0  0  0  0
  -13.6893  -10.1583    6.7365 N   0  0  0  0  0  0  0  0  0  0  0  0
  -13.7451  -10.6991    5.8420 H   0  0  0  0  0  0  0  0  0  0  0  0
  -13.1436  -10.8001    7.3878 H   0  0  0  0  0  0  0  0  0  0  0  0
  -13.7101   -7.7826    6.0333 C   0  0  0  0  0  0  0  0  0  0  0  0
  -14.5347   -8.6424    3.2525 C   0  0  0  0  0  0  0  0  0  0  0  0
  -15.4802   -8.3752    4.3961 C   0  0  0  0  0  0  0  0  0  0  0  0
  -16.8470   -8.5474    4.1180 C   0  0  0  0  0  0  0  0  0  0  0  0
  -17.8027   -8.3844    5.0732 C   0  0  0  0  0  0  0  0  0  0  0  0
  -19.1515   -8.5741    4.7169 O   0  0  0  0  0  0  0  0  0  0  0  0
  -17.4238   -8.0435    6.3398 C   0  0  0  0  0  0  0  0  0  0  0  0
  -16.0744   -7.8693    6.6273 C   0  0  0  0  0  0  0  0  0  0  0  0
  -15.6913   -7.5156    8.0065 C   0  0  0  0  0  0  0  0  0  0  0  0
  -15.0825   -8.0326    5.6542 C   0  0  0  0  0  0  0  0  0  0  0  0
  -19.6844   -7.7597    4.3771 H   0  0  0  0  0  0  0  0  0  0  0  0
  -11.4180   -5.8211    9.6557 C   0  0  0  0  0  0  0  0  0  0  0  0
  -12.3450   -6.1643   10.7815 C   0  0  0  0  0  0  0  0  0  0  0  0
  -11.9420   -5.2756   11.9615 C   0  0  0  0  0  0  0  0  0  0  0  0
  -11.0905   -6.0119   12.8348 N   0  0  0  0  0  0  0  0  0  0  0  0
  -10.9793   -7.0343   12.7188 H   0  0  0  0  0  0  0  0  0  0  0  0
  -10.3912   -5.3195   13.8764 C   0  0  0  0  0  0  0  0  0  0  0  0
  -11.0560   -4.3464   14.6659 N   0  0  0  0  0  0  0  0  0  0  0  0
   -9.1584   -5.5654   14.1112 N   0  0  0  0  0  0  0  0  0  0  0  0
  -12.0292   -4.4984   14.9455 H   0  0  0  0  0  0  0  0  0  0  0  0
  -10.5658   -3.4868   14.9602 H   0  0  0  0  0  0  0  0  0  0  0  0
   -8.5752   -6.2417   13.6104 H   0  0  0  0  0  0  0  0  0  0  0  0
 39 40  1  0  0  0
 40 41  2  0  0  0
 41 42  1  0  0  0
 42 43  1  0  0  0
 42 44  2  0  0  0
 44 45  1  0  0  0
 45 46  1  0  0  0
 45 47  2  0  0  0
 47 38  1  0  0  0
 38 34  1  0  0  0
 34 35  1  0  0  0
 34 30  1  0  0  0
 30 31  2  0  0  0
 30 32  1  0  0  0
 32  1  1  0  0  0
  1 49  1  0  0  0
 49 50  1  0  0  0
 50 51  1  0  0  0
 51 52  1  0  0  0
 52 54  1  0  0  0
 54 55  1  0  0  0
 54 56  2  0  0  0
  1  2  1  0  0  0
  2  3  2  0  0  0
  2  4  1  0  0  0
  4  6  1  0  0  0
  6 23  1  0  0  0
 23 24  1  0  0  0
 24 25  2  0  0  0
 25 26  1  0  0  0
 26 27  2  0  0  0
 27 28  1  0  0  0
 28 29  2  0  0  0
  6  7  1  0  0  0
  7  8  2  0  0  0
  7  9  1  0  0  0
  9 11  1  0  0  0
 11 16  1  0  0  0
 16 17  1  0  0  0
 17 18  1  0  0  0
 18 19  1  0  0  0
 19 20  1  0  0  0
 11 12  1  0  0  0
 12 13  1  0  0  0
 12 14  2  0  0  0
 47 40  1  0  0  0
 29 24  1  0  0  0
 43 48  1  0  0  0
 35 36  1  0  0  0
 35 37  1  0  0  0
 32 33  1  0  0  0
 52 53  1  0  0  0
 55 57  1  0  0  0
 55 58  1  0  0  0
 56 59  1  0  0  0
  4  5  1  0  0  0
  9 10  1  0  0  0
 20 21  1  0  0  0
 20 22  1  0  0  0
 13 15  1  0  0  0
M  END
> <minimizedAffinity>
-2.23414

> <CNNscore>
0.3833952248

> <CNNaffinity>
7.3779501915

> <CNN_VS>
2.8286709785

> <CNNaffinity_variance>
0.1325071603

$$$$
[H]N=C(N([H])[H])N([H])C([H])([H])C([H])([H])C([H])([H])[C@]([H])(C(=O)N([H])[C@]([H])(C(=O)N([H])[C@]([H])(C(=O)O[H])C([H])([H])C([H])([H])C([H])([H])C([H])([H])N([H])[H])C([H])([H])c1c([H])c([H])c([H])c([H])c1[H])N([H])C(=O)[C@@]([H])(N([H])[H])C([H])([H])c1c(C([H])([H])[H])c([H])c(O[H])c([H])c1C([H])([H])[H]


 59 60  0  0  0  0  0  0  0  0999 V2000
   -9.7921   -7.3369    8.8148 C   0  0  0  0  0  0  0  0  0  0  0  0
   -8.3490   -7.0638    8.5276 C   0  0  0  0  0  0  0  0  0  0  0  0
   -7.9468   -6.5023    7.4986 O   0  0  0  0  0  0  0  0  0  0  0  0
   -7.4048   -7.4795    9.4915 N   0  0  0  0  0  0  0  0  0  0  0  0
   -7.7284   -7.9406   10.3592 H   0  0  0  0  0  0  0  0  0  0  0  0
   -5.9826   -7.2922    9.3255 C   0  0  0  0  0  0  0  0  0  0  0  0
   -5.5851   -6.1648   10.2392 C   0  0  0  0  0  0  0  0  0  0  0  0
   -6.2261   -6.0477   11.3200 O   0  0  0  0  0  0  0  0  0  0  0  0
   -4.5470   -5.2500    9.9466 N   0  0  0  0  0  0  0  0  0  0  0  0
   -3.9974   -5.3008    9.0848 H   0  0  0  0  0  0  0  0  0  0  0  0
   -4.2841   -4.2025   10.9536 C   0  0  0  0  0  0  0  0  0  0  0  0
   -3.6967   -3.0626   10.2475 C   0  0  0  0  0  0  0  0  0  0  0  0
   -3.5795   -1.8056   10.7794 O   0  0  0  0  0  0  0  0  0  0  0  0
   -3.2619   -3.2188    9.0613 O   0  0  0  0  0  0  0  0  0  0  0  0
   -3.0413   -1.0862   10.3616 H   0  0  0  0  0  0  0  0  0  0  0  0
   -3.3428   -4.7499   11.9912 C   0  0  0  0  0  0  0  0  0  0  0  0
   -1.9790   -4.9399   11.4489 C   0  0  0  0  0  0  0  0  0  0  0  0
   -1.3323   -6.2245   11.9829 C   0  0  0  0  0  0  0  0  0  0  0  0
   -2.0158   -6.5138   13.3087 C   0  0  0  0  0  0  0  0  0  0  0  0
   -1.0603   -7.2972   14.0814 N   0  0  0  0  0  0  0  0  0  0  0  0
   -1.2575   -8.3126   14.0648 H   0  0  0  0  0  0  0  0  0  0  0  0
   -0.0750   -7.0371   13.8966 H   0  0  0  0  0  0  0  0  0  0  0  0
   -5.6269   -6.9013    7.9408 C   0  0  0  0  0  0  0  0  0  0  0  0
   -4.4012   -7.4897    7.4104 C   0  0  0  0  0  0  0  0  0  0  0  0
   -4.4525   -8.1126    6.1657 C   0  0  0  0  0  0  0  0  0  0  0  0
   -3.3357   -8.7006    5.5991 C   0  0  0  0  0  0  0  0  0  0  0  0
   -2.1158   -8.6936    6.2492 C   0  0  0  0  0  0  0  0  0  0  0  0
   -2.0573   -8.0784    7.4829 C   0  0  0  0  0  0  0  0  0  0  0  0
   -3.1709   -7.4982    8.0358 C   0  0  0  0  0  0  0  0  0  0  0  0
  -11.5988   -8.6521    7.6714 C   0  0  0  0  0  0  0  0  0  0  0  0
  -12.0908   -9.0063    8.7647 O   0  0  0  0  0  0  0  0  0  0  0  0
  -10.4687   -7.8380    7.6349 N   0  0  0  0  0  0  0  0  0  0  0  0
  -10.0648   -7.5584    6.7104 H   0  0  0  0  0  0  0  0  0  0  0  0
  -12.2469   -9.1217    6.4227 C   0  0  0  0  0  0  0  0  0  0  0  0
  -11.8010  -10.4067    6.0170 N   0  0  0  0  0  0  0  0  0  0  0  0
  -11.8353  -10.5393    4.9792 H   0  0  0  0  0  0  0  0  0  0  0  0
  -10.7626  -10.4638    6.2462 H   0  0  0  0  0  0  0  0  0  0  0  0
  -13.7558   -8.9733    6.5294 C   0  0  0  0  0  0  0  0  0  0  0  0
  -14.0779   -6.3092    7.9262 C   0  0  0  0  0  0  0  0  0  0  0  0
  -14.5333   -6.6153    6.5219 C   0  0  0  0  0  0  0  0  0  0  0  0
  -15.1535   -5.5595    5.8320 C   0  0  0  0  0  0  0  0  0  0  0  0
  -15.5692   -5.6875    4.5423 C   0  0  0  0  0  0  0  0  0  0  0  0
  -16.1828   -4.5842    3.9190 O   0  0  0  0  0  0  0  0  0  0  0  0
  -15.3788   -6.8762    3.8984 C   0  0  0  0  0  0  0  0  0  0  0  0
  -14.7672   -7.9288    4.5706 C   0  0  0  0  0  0  0  0  0  0  0  0
  -14.5605   -9.1969    3.8474 C   0  0  0  0  0  0  0  0  0  0  0  0
  -14.3366   -7.8106    5.8966 C   0  0  0  0  0  0  0  0  0  0  0  0
  -17.2066   -4.4902    3.9936 H   0  0  0  0  0  0  0  0  0  0  0  0
  -10.4216   -6.0565    9.2400 C   0  0  0  0  0  0  0  0  0  0  0  0
  -11.4992   -6.2629   10.2603 C   0  0  0  0  0  0  0  0  0  0  0  0
  -11.2826   -5.2000   11.3410 C   0  0  0  0  0  0  0  0  0  0  0  0
  -11.4763   -5.7883   12.6240 N   0  0  0  0  0  0  0  0  0  0  0  0
  -12.1806   -6.5349   12.7570 H   0  0  0  0  0  0  0  0  0  0  0  0
  -10.6847   -5.3326   13.7282 C   0  0  0  0  0  0  0  0  0  0  0  0
   -9.3359   -5.7491   13.8670 N   0  0  0  0  0  0  0  0  0  0  0  0
  -11.1796   -4.5454   14.6061 N   0  0  0  0  0  0  0  0  0  0  0  0
   -8.7460   -5.8442   13.0354 H   0  0  0  0  0  0  0  0  0  0  0  0
   -8.9452   -5.9568   14.7998 H   0  0  0  0  0  0  0  0  0  0  0  0
  -12.1357   -4.1793   14.6132 H   0  0  0  0  0  0  0  0  0  0  0  0
 39 40  1  0  0  0
 40 41  2  0  0  0
 41 42  1  0  0  0
 42 43  1  0  0  0
 42 44  2  0  0  0
 44 45  1  0  0  0
 45 46  1  0  0  0
 45 47  2  0  0  0
 47 38  1  0  0  0
 38 34  1  0  0  0
 34 35  1  0  0  0
 34 30  1  0  0  0
 30 31  2  0  0  0
 30 32  1  0  0  0
 32  1  1  0  0  0
  1 49  1  0  0  0
 49 50  1  0  0  0
 50 51  1  0  0  0
 51 52  1  0  0  0
 52 54  1  0  0  0
 54 55  1  0  0  0
 54 56  2  0  0  0
  1  2  1  0  0  0
  2  3  2  0  0  0
  2  4  1  0  0  0
  4  6  1  0  0  0
  6 23  1  0  0  0
 23 24  1  0  0  0
 24 25  2  0  0  0
 25 26  1  0  0  0
 26 27  2  0  0  0
 27 28  1  0  0  0
 28 29  2  0  0  0
  6  7  1  0  0  0
  7  8  2  0  0  0
  7  9  1  0  0  0
  9 11  1  0  0  0
 11 16  1  0  0  0
 16 17  1  0  0  0
 17 18  1  0  0  0
 18 19  1  0  0  0
 19 20  1  0  0  0
 11 12  1  0  0  0
 12 13  1  0  0  0
 12 14  2  0  0  0
 47 40  1  0  0  0
 29 24  1  0  0  0
 43 48  1  0  0  0
 35 36  1  0  0  0
 35 37  1  0  0  0
 32 33  1  0  0  0
 52 53  1  0  0  0
 55 57  1  0  0  0
 55 58  1  0  0  0
 56 59  1  0  0  0
  4  5  1  0  0  0
  9 10  1  0  0  0
 20 21  1  0  0  0
 20 22  1  0  0  0
 13 15  1  0  0  0
M  END
> <minimizedAffinity>
-2.96956

> <CNNscore>
0.3511818051

> <CNNaffinity>
7.2027182579

> <CNN_VS>
2.5294635296

> <CNNaffinity_variance>
0.8356038332

$$$$
[H]N=C(N([H])[H])N([H])C([H])([H])C([H])([H])C([H])([H])[C@]([H])(C(=O)N([H])[C@]([H])(C(=O)N([H])[C@]([H])(C(=O)O[H])C([H])([H])C([H])([H])C([H])([H])C([H])([H])N([H])[H])C([H])([H])c1c([H])c([H])c([H])c([H])c1[H])N([H])C(=O)[C@@]([H])(N([H])[H])C([H])([H])c1c(C([H])([H])[H])c([H])c(O[H])c([H])c1C([H])([H])[H]


 59 60  0  0  0  0  0  0  0  0999 V2000
  -10.0462   -7.6369    8.6444 C   0  0  0  0  0  0  0  0  0  0  0  0
   -8.6670   -7.7885    8.0835 C   0  0  0  0  0  0  0  0  0  0  0  0
   -8.3935   -8.5152    7.1177 O   0  0  0  0  0  0  0  0  0  0  0  0
   -7.6296   -7.0589    8.7039 N   0  0  0  0  0  0  0  0  0  0  0  0
   -7.8465   -6.4413    9.5050 H   0  0  0  0  0  0  0  0  0  0  0  0
   -6.2539   -7.1325    8.2710 C   0  0  0  0  0  0  0  0  0  0  0  0
   -5.4213   -6.5333    9.3716 C   0  0  0  0  0  0  0  0  0  0  0  0
   -4.2279   -6.2333    9.0912 O   0  0  0  0  0  0  0  0  0  0  0  0
   -5.9064   -6.2963   10.6787 N   0  0  0  0  0  0  0  0  0  0  0  0
   -6.8651   -6.5215   10.9576 H   0  0  0  0  0  0  0  0  0  0  0  0
   -4.9571   -5.6995   11.6394 C   0  0  0  0  0  0  0  0  0  0  0  0
   -5.5422   -5.8473   12.9731 C   0  0  0  0  0  0  0  0  0  0  0  0
   -6.6354   -5.1501   13.4152 O   0  0  0  0  0  0  0  0  0  0  0  0
   -5.0210   -6.6659   13.7970 O   0  0  0  0  0  0  0  0  0  0  0  0
   -7.1185   -5.3694   14.2520 H   0  0  0  0  0  0  0  0  0  0  0  0
   -4.7532   -4.2516   11.2867 C   0  0  0  0  0  0  0  0  0  0  0  0
   -3.3171   -3.9047   11.2016 C   0  0  0  0  0  0  0  0  0  0  0  0
   -3.0391   -2.9258   10.0536 C   0  0  0  0  0  0  0  0  0  0  0  0
   -3.1177   -1.5365   10.6639 C   0  0  0  0  0  0  0  0  0  0  0  0
   -4.0837   -0.8050    9.8543 N   0  0  0  0  0  0  0  0  0  0  0  0
   -3.6422   -0.1811    9.1572 H   0  0  0  0  0  0  0  0  0  0  0  0
   -4.8464   -1.4031    9.4892 H   0  0  0  0  0  0  0  0  0  0  0  0
   -6.0116   -6.3455    7.0386 C   0  0  0  0  0  0  0  0  0  0  0  0
   -4.6965   -6.5116    6.4280 C   0  0  0  0  0  0  0  0  0  0  0  0
   -4.0939   -7.7659    6.4885 C   0  0  0  0  0  0  0  0  0  0  0  0
   -2.8456   -8.0012    5.9406 C   0  0  0  0  0  0  0  0  0  0  0  0
   -2.1412   -6.9948    5.3066 C   0  0  0  0  0  0  0  0  0  0  0  0
   -2.7319   -5.7495    5.2428 C   0  0  0  0  0  0  0  0  0  0  0  0
   -3.9704   -5.5269    5.7895 C   0  0  0  0  0  0  0  0  0  0  0  0
  -12.2159   -8.2383    7.5346 C   0  0  0  0  0  0  0  0  0  0  0  0
  -12.4960   -9.0608    8.4334 O   0  0  0  0  0  0  0  0  0  0  0  0
  -11.0260   -7.5152    7.5832 N   0  0  0  0  0  0  0  0  0  0  0  0
  -10.8036   -6.8370    6.8173 H   0  0  0  0  0  0  0  0  0  0  0  0
  -13.1793   -8.0566    6.4216 C   0  0  0  0  0  0  0  0  0  0  0  0
  -13.8170   -9.2655    6.0386 N   0  0  0  0  0  0  0  0  0  0  0  0
  -14.0834   -9.2808    5.0264 H   0  0  0  0  0  0  0  0  0  0  0  0
  -13.0922  -10.0411    6.1224 H   0  0  0  0  0  0  0  0  0  0  0  0
  -14.1236   -6.9062    6.7303 C   0  0  0  0  0  0  0  0  0  0  0  0
  -16.5984   -8.2245    7.8660 C   0  0  0  0  0  0  0  0  0  0  0  0
  -16.5137   -7.5455    6.5225 C   0  0  0  0  0  0  0  0  0  0  0  0
  -17.6942   -7.5407    5.7598 C   0  0  0  0  0  0  0  0  0  0  0  0
  -17.7677   -6.9214    4.5500 C   0  0  0  0  0  0  0  0  0  0  0  0
  -18.9859   -6.9608    3.8452 O   0  0  0  0  0  0  0  0  0  0  0  0
  -16.6627   -6.2855    4.0616 C   0  0  0  0  0  0  0  0  0  0  0  0
  -15.4883   -6.2841    4.8065 C   0  0  0  0  0  0  0  0  0  0  0  0
  -14.3139   -5.5776    4.2627 C   0  0  0  0  0  0  0  0  0  0  0  0
  -15.3994   -6.9180    6.0506 C   0  0  0  0  0  0  0  0  0  0  0  0
  -19.1456   -7.7425    3.1924 H   0  0  0  0  0  0  0  0  0  0  0  0
  -10.0650   -6.4043    9.4791 C   0  0  0  0  0  0  0  0  0  0  0  0
  -11.3872   -6.1914   10.1509 C   0  0  0  0  0  0  0  0  0  0  0  0
  -11.1428   -5.1880   11.2813 C   0  0  0  0  0  0  0  0  0  0  0  0
  -11.4040   -5.8171   12.5326 N   0  0  0  0  0  0  0  0  0  0  0  0
  -12.0912   -6.5883   12.5977 H   0  0  0  0  0  0  0  0  0  0  0  0
  -10.7046   -5.3681   13.6999 C   0  0  0  0  0  0  0  0  0  0  0  0
   -9.3931   -5.8327   13.9762 N   0  0  0  0  0  0  0  0  0  0  0  0
  -11.2495   -4.5436   14.5114 N   0  0  0  0  0  0  0  0  0  0  0  0
   -8.7304   -5.9683   13.2075 H   0  0  0  0  0  0  0  0  0  0  0  0
   -9.1025   -6.0348   14.9459 H   0  0  0  0  0  0  0  0  0  0  0  0
  -12.1865   -4.1411   14.4193 H   0  0  0  0  0  0  0  0  0  0  0  0
 39 40  1  0  0  0
 40 41  2  0  0  0
 41 42  1  0  0  0
 42 43  1  0  0  0
 42 44  2  0  0  0
 44 45  1  0  0  0
 45 46  1  0  0  0
 45 47  2  0  0  0
 47 38  1  0  0  0
 38 34  1  0  0  0
 34 35  1  0  0  0
 34 30  1  0  0  0
 30 31  2  0  0  0
 30 32  1  0  0  0
 32  1  1  0  0  0
  1 49  1  0  0  0
 49 50  1  0  0  0
 50 51  1  0  0  0
 51 52  1  0  0  0
 52 54  1  0  0  0
 54 55  1  0  0  0
 54 56  2  0  0  0
  1  2  1  0  0  0
  2  3  2  0  0  0
  2  4  1  0  0  0
  4  6  1  0  0  0
  6 23  1  0  0  0
 23 24  1  0  0  0
 24 25  2  0  0  0
 25 26  1  0  0  0
 26 27  2  0  0  0
 27 28  1  0  0  0
 28 29  2  0  0  0
  6  7  1  0  0  0
  7  8  2  0  0  0
  7  9  1  0  0  0
  9 11  1  0  0  0
 11 16  1  0  0  0
 16 17  1  0  0  0
 17 18  1  0  0  0
 18 19  1  0  0  0
 19 20  1  0  0  0
 11 12  1  0  0  0
 12 13  1  0  0  0
 12 14  2  0  0  0
 47 40  1  0  0  0
 29 24  1  0  0  0
 43 48  1  0  0  0
 35 36  1  0  0  0
 35 37  1  0  0  0
 32 33  1  0  0  0
 52 53  1  0  0  0
 55 57  1  0  0  0
 55 58  1  0  0  0
 56 59  1  0  0  0
  4  5  1  0  0  0
  9 10  1  0  0  0
 20 21  1  0  0  0
 20 22  1  0  0  0
 13 15  1  0  0  0
M  END
> <minimizedAffinity>
-4.62023

> <CNNscore>
0.3466773629

> <CNNaffinity>
7.3359575272

> <CNN_VS>
2.5432105064

> <CNNaffinity_variance>
0.1241806298

$$$$
[H]N=C(N([H])[H])N([H])C([H])([H])C([H])([H])C([H])([H])[C@]([H])(C(=O)N([H])[C@]([H])(C(=O)N([H])[C@]([H])(C(=O)O[H])C([H])([H])C([H])([H])C([H])([H])C([H])([H])N([H])[H])C([H])([H])c1c([H])c([H])c([H])c([H])c1[H])N([H])C(=O)[C@@]([H])(N([H])[H])C([H])([H])c1c(C([H])([H])[H])c([H])c(O[H])c([H])c1C([H])([H])[H]


 59 60  0  0  0  0  0  0  0  0999 V2000
   -7.2327   -7.4464    6.2666 C   0  0  0  0  0  0  0  0  0  0  0  0
   -6.2517   -6.8135    7.2030 C   0  0  0  0  0  0  0  0  0  0  0  0
   -6.2864   -6.9545    8.4337 O   0  0  0  0  0  0  0  0  0  0  0  0
   -5.2385   -6.0098    6.6366 N   0  0  0  0  0  0  0  0  0  0  0  0
   -5.1928   -5.8920    5.6098 H   0  0  0  0  0  0  0  0  0  0  0  0
   -4.2436   -5.3290    7.4316 C   0  0  0  0  0  0  0  0  0  0  0  0
   -3.5503   -4.3562    6.5170 C   0  0  0  0  0  0  0  0  0  0  0  0
   -2.3353   -4.5776    6.2569 O   0  0  0  0  0  0  0  0  0  0  0  0
   -4.1863   -3.2286    5.9478 N   0  0  0  0  0  0  0  0  0  0  0  0
   -5.1687   -3.0040    6.1267 H   0  0  0  0  0  0  0  0  0  0  0  0
   -3.3608   -2.3758    5.0693 C   0  0  0  0  0  0  0  0  0  0  0  0
   -3.5721   -0.9898    5.4905 C   0  0  0  0  0  0  0  0  0  0  0  0
   -4.2233   -0.0479    4.7384 O   0  0  0  0  0  0  0  0  0  0  0  0
   -3.1305   -0.6060    6.6211 O   0  0  0  0  0  0  0  0  0  0  0  0
   -4.5010    0.8344    5.0933 H   0  0  0  0  0  0  0  0  0  0  0  0
   -3.7890   -2.5875    3.6430 C   0  0  0  0  0  0  0  0  0  0  0  0
   -2.7709   -3.3324    2.8695 C   0  0  0  0  0  0  0  0  0  0  0  0
   -2.8500   -3.0085    1.3720 C   0  0  0  0  0  0  0  0  0  0  0  0
   -2.2839   -1.6067    1.2196 C   0  0  0  0  0  0  0  0  0  0  0  0
   -3.3671   -0.7029    1.5853 N   0  0  0  0  0  0  0  0  0  0  0  0
   -3.8586   -0.3034    0.7674 H   0  0  0  0  0  0  0  0  0  0  0  0
   -3.9828   -1.0827    2.3265 H   0  0  0  0  0  0  0  0  0  0  0  0
   -3.2202   -6.2591    7.9649 C   0  0  0  0  0  0  0  0  0  0  0  0
   -2.6726   -5.9173    9.2738 C   0  0  0  0  0  0  0  0  0  0  0  0
   -1.6408   -6.7019    9.7834 C   0  0  0  0  0  0  0  0  0  0  0  0
   -1.0748   -6.4471   11.0198 C   0  0  0  0  0  0  0  0  0  0  0  0
   -1.5129   -5.3968   11.8046 C   0  0  0  0  0  0  0  0  0  0  0  0
   -2.5350   -4.6152   11.3063 C   0  0  0  0  0  0  0  0  0  0  0  0
   -3.0893   -4.8765   10.0787 C   0  0  0  0  0  0  0  0  0  0  0  0
   -9.4254   -6.9622    7.3885 C   0  0  0  0  0  0  0  0  0  0  0  0
   -9.3115   -5.7357    7.1751 O   0  0  0  0  0  0  0  0  0  0  0  0
   -8.4346   -7.8480    6.9701 N   0  0  0  0  0  0  0  0  0  0  0  0
   -8.5424   -8.8709    7.1651 H   0  0  0  0  0  0  0  0  0  0  0  0
  -10.6363   -7.4440    8.0965 C   0  0  0  0  0  0  0  0  0  0  0  0
  -11.3073   -6.4155    8.8084 N   0  0  0  0  0  0  0  0  0  0  0  0
  -11.8115   -6.7700    9.6545 H   0  0  0  0  0  0  0  0  0  0  0  0
  -10.5584   -5.7734    9.2092 H   0  0  0  0  0  0  0  0  0  0  0  0
  -11.5149   -8.2411    7.1462 C   0  0  0  0  0  0  0  0  0  0  0  0
  -13.4328   -6.3819    5.7260 C   0  0  0  0  0  0  0  0  0  0  0  0
  -13.8105   -7.3559    6.8131 C   0  0  0  0  0  0  0  0  0  0  0  0
  -15.1686   -7.3791    7.1741 C   0  0  0  0  0  0  0  0  0  0  0  0
  -15.6512   -8.2439    8.1077 C   0  0  0  0  0  0  0  0  0  0  0  0
  -17.0245   -8.2063    8.4158 O   0  0  0  0  0  0  0  0  0  0  0  0
  -14.7916   -9.1154    8.7123 C   0  0  0  0  0  0  0  0  0  0  0  0
  -13.4453   -9.1015    8.3645 C   0  0  0  0  0  0  0  0  0  0  0  0
  -12.5412  -10.0629    9.0220 C   0  0  0  0  0  0  0  0  0  0  0  0
  -12.9365   -8.2167    7.4074 C   0  0  0  0  0  0  0  0  0  0  0  0
  -17.3364   -7.5811    9.1737 H   0  0  0  0  0  0  0  0  0  0  0  0
   -6.5837   -8.6465    5.6707 C   0  0  0  0  0  0  0  0  0  0  0  0
   -6.6129   -8.6252    4.1729 C   0  0  0  0  0  0  0  0  0  0  0  0
   -7.2611   -9.9409    3.7330 C   0  0  0  0  0  0  0  0  0  0  0  0
   -6.8962  -10.2161    2.3836 N   0  0  0  0  0  0  0  0  0  0  0  0
   -6.1798   -9.6410    1.9070 H   0  0  0  0  0  0  0  0  0  0  0  0
   -7.5345  -11.2980    1.6941 C   0  0  0  0  0  0  0  0  0  0  0  0
   -7.5751  -11.3238    0.2764 N   0  0  0  0  0  0  0  0  0  0  0  0
   -8.0783  -12.2563    2.3432 N   0  0  0  0  0  0  0  0  0  0  0  0
   -6.7642  -11.0029   -0.2603 H   0  0  0  0  0  0  0  0  0  0  0  0
   -8.4156  -11.6634   -0.2174 H   0  0  0  0  0  0  0  0  0  0  0  0
   -8.1136  -12.3471    3.3624 H   0  0  0  0  0  0  0  0  0  0  0  0
 39 40  1  0  0  0
 40 41  2  0  0  0
 41 42  1  0  0  0
 42 43  1  0  0  0
 42 44  2  0  0  0
 44 45  1  0  0  0
 45 46  1  0  0  0
 45 47  2  0  0  0
 47 38  1  0  0  0
 38 34  1  0  0  0
 34 35  1  0  0  0
 34 30  1  0  0  0
 30 31  2  0  0  0
 30 32  1  0  0  0
 32  1  1  0  0  0
  1 49  1  0  0  0
 49 50  1  0  0  0
 50 51  1  0  0  0
 51 52  1  0  0  0
 52 54  1  0  0  0
 54 55  1  0  0  0
 54 56  2  0  0  0
  1  2  1  0  0  0
  2  3  2  0  0  0
  2  4  1  0  0  0
  4  6  1  0  0  0
  6 23  1  0  0  0
 23 24  1  0  0  0
 24 25  2  0  0  0
 25 26  1  0  0  0
 26 27  2  0  0  0
 27 28  1  0  0  0
 28 29  2  0  0  0
  6  7  1  0  0  0
  7  8  2  0  0  0
  7  9  1  0  0  0
  9 11  1  0  0  0
 11 16  1  0  0  0
 16 17  1  0  0  0
 17 18  1  0  0  0
 18 19  1  0  0  0
 19 20  1  0  0  0
 11 12  1  0  0  0
 12 13  1  0  0  0
 12 14  2  0  0  0
 47 40  1  0  0  0
 29 24  1  0  0  0
 43 48  1  0  0  0
 35 36  1  0  0  0
 35 37  1  0  0  0
 32 33  1  0  0  0
 52 53  1  0  0  0
 55 57  1  0  0  0
 55 58  1  0  0  0
 56 59  1  0  0  0
  4  5  1  0  0  0
  9 10  1  0  0  0
 20 21  1  0  0  0
 20 22  1  0  0  0
 13 15  1  0  0  0
M  END
> <minimizedAffinity>
-2.03399

> <CNNscore>
0.3418484628

> <CNNaffinity>
7.1682295799

> <CNN_VS>
2.4504482746

> <CNNaffinity_variance>
1.2438246012

$$$$
[H]N=C(N([H])[H])N([H])C([H])([H])C([H])([H])C([H])([H])[C@]([H])(C(=O)N([H])[C@]([H])(C(=O)N([H])[C@]([H])(C(=O)O[H])C([H])([H])C([H])([H])C([H])([H])C([H])([H])N([H])[H])C([H])([H])c1c([H])c([H])c([H])c([H])c1[H])N([H])C(=O)[C@@]([H])(N([H])[H])C([H])([H])c1c(C([H])([H])[H])c([H])c(O[H])c([H])c1C([H])([H])[H]


 59 60  0  0  0  0  0  0  0  0999 V2000
   -8.9076   -8.8107    7.2004 C   0  0  0  0  0  0  0  0  0  0  0  0
   -7.7311   -8.1177    7.8130 C   0  0  0  0  0  0  0  0  0  0  0  0
   -7.1643   -8.5064    8.8442 O   0  0  0  0  0  0  0  0  0  0  0  0
   -7.2552   -6.9543    7.1700 N   0  0  0  0  0  0  0  0  0  0  0  0
   -7.7137   -6.6249    6.3031 H   0  0  0  0  0  0  0  0  0  0  0  0
   -6.1407   -6.1841    7.6700 C   0  0  0  0  0  0  0  0  0  0  0  0
   -5.1229   -6.1273    6.5635 C   0  0  0  0  0  0  0  0  0  0  0  0
   -4.8381   -7.2139    5.9881 O   0  0  0  0  0  0  0  0  0  0  0  0
   -4.4847   -4.9355    6.1483 N   0  0  0  0  0  0  0  0  0  0  0  0
   -4.6795   -4.0289    6.5816 H   0  0  0  0  0  0  0  0  0  0  0  0
   -3.5109   -5.0555    5.0447 C   0  0  0  0  0  0  0  0  0  0  0  0
   -2.1931   -5.2520    5.6512 C   0  0  0  0  0  0  0  0  0  0  0  0
   -1.5983   -4.3607    6.5046 O   0  0  0  0  0  0  0  0  0  0  0  0
   -1.5334   -6.3075    5.3840 O   0  0  0  0  0  0  0  0  0  0  0  0
   -0.7864   -4.5715    7.0320 H   0  0  0  0  0  0  0  0  0  0  0  0
   -3.5534   -3.7989    4.2192 C   0  0  0  0  0  0  0  0  0  0  0  0
   -2.5525   -3.8244    3.1295 C   0  0  0  0  0  0  0  0  0  0  0  0
   -2.4858   -2.4810    2.3916 C   0  0  0  0  0  0  0  0  0  0  0  0
   -3.7469   -2.4078    1.5472 C   0  0  0  0  0  0  0  0  0  0  0  0
   -3.9286   -0.9964    1.2328 N   0  0  0  0  0  0  0  0  0  0  0  0
   -4.6281   -0.5310    1.8364 H   0  0  0  0  0  0  0  0  0  0  0  0
   -3.0351   -0.4851    1.1197 H   0  0  0  0  0  0  0  0  0  0  0  0
   -5.5000   -6.8230    8.8439 C   0  0  0  0  0  0  0  0  0  0  0  0
   -4.8591   -5.9148    9.7896 C   0  0  0  0  0  0  0  0  0  0  0  0
   -5.3686   -5.8417   11.0839 C   0  0  0  0  0  0  0  0  0  0  0  0
   -4.8215   -4.9994   12.0352 C   0  0  0  0  0  0  0  0  0  0  0  0
   -3.7401   -4.1911   11.7383 C   0  0  0  0  0  0  0  0  0  0  0  0
   -3.2301   -4.2580   10.4580 C   0  0  0  0  0  0  0  0  0  0  0  0
   -3.7801   -5.0969    9.5220 C   0  0  0  0  0  0  0  0  0  0  0  0
  -10.6132   -7.4733    8.4667 C   0  0  0  0  0  0  0  0  0  0  0  0
  -10.0812   -6.3944    8.1264 O   0  0  0  0  0  0  0  0  0  0  0  0
  -10.0781   -8.6892    8.0467 N   0  0  0  0  0  0  0  0  0  0  0  0
  -10.5314   -9.5833    8.3485 H   0  0  0  0  0  0  0  0  0  0  0  0
  -11.8210   -7.4224    9.3260 C   0  0  0  0  0  0  0  0  0  0  0  0
  -12.5372   -6.2031    9.2026 N   0  0  0  0  0  0  0  0  0  0  0  0
  -13.0453   -5.9404   10.0792 H   0  0  0  0  0  0  0  0  0  0  0  0
  -11.8164   -5.4282    9.0845 H   0  0  0  0  0  0  0  0  0  0  0  0
  -12.6563   -8.6768    9.1282 C   0  0  0  0  0  0  0  0  0  0  0  0
  -12.6146   -9.2526    6.1586 C   0  0  0  0  0  0  0  0  0  0  0  0
  -13.8114   -8.7600    6.9320 C   0  0  0  0  0  0  0  0  0  0  0  0
  -14.9867   -8.5618    6.1872 C   0  0  0  0  0  0  0  0  0  0  0  0
  -16.1506   -8.1646    6.7701 C   0  0  0  0  0  0  0  0  0  0  0  0
  -17.2860   -7.9869    5.9566 O   0  0  0  0  0  0  0  0  0  0  0  0
  -16.1790   -7.9521    8.1184 C   0  0  0  0  0  0  0  0  0  0  0  0
  -15.0223   -8.1439    8.8663 C   0  0  0  0  0  0  0  0  0  0  0  0
  -15.0840   -7.9216   10.3226 C   0  0  0  0  0  0  0  0  0  0  0  0
  -13.8193   -8.5507    8.2790 C   0  0  0  0  0  0  0  0  0  0  0  0
  -17.4480   -7.0565    5.5435 H   0  0  0  0  0  0  0  0  0  0  0  0
   -8.5574  -10.2492    7.0436 C   0  0  0  0  0  0  0  0  0  0  0  0
   -9.5667  -10.9952    6.2254 C   0  0  0  0  0  0  0  0  0  0  0  0
   -9.0613  -12.4369    6.1222 C   0  0  0  0  0  0  0  0  0  0  0  0
   -8.9875  -12.8116    4.7496 N   0  0  0  0  0  0  0  0  0  0  0  0
   -9.1181  -12.1040    4.0057 H   0  0  0  0  0  0  0  0  0  0  0  0
   -8.7315  -14.1805    4.4120 C   0  0  0  0  0  0  0  0  0  0  0  0
   -9.0610  -15.2194    5.3199 N   0  0  0  0  0  0  0  0  0  0  0  0
   -8.2019  -14.4887    3.2895 N   0  0  0  0  0  0  0  0  0  0  0  0
   -9.9195  -15.1554    5.8744 H   0  0  0  0  0  0  0  0  0  0  0  0
   -8.4419  -16.0387    5.4253 H   0  0  0  0  0  0  0  0  0  0  0  0
   -7.9212  -13.8304    2.5573 H   0  0  0  0  0  0  0  0  0  0  0  0
 39 40  1  0  0  0
 40 41  2  0  0  0
 41 42  1  0  0  0
 42 43  1  0  0  0
 42 44  2  0  0  0
 44 45  1  0  0  0
 45 46  1  0  0  0
 45 47  2  0  0  0
 47 38  1  0  0  0
 38 34  1  0  0  0
 34 35  1  0  0  0
 34 30  1  0  0  0
 30 31  2  0  0  0
 30 32  1  0  0  0
 32  1  1  0  0  0
  1 49  1  0  0  0
 49 50  1  0  0  0
 50 51  1  0  0  0
 51 52  1  0  0  0
 52 54  1  0  0  0
 54 55  1  0  0  0
 54 56  2  0  0  0
  1  2  1  0  0  0
  2  3  2  0  0  0
  2  4  1  0  0  0
  4  6  1  0  0  0
  6 23  1  0  0  0
 23 24  1  0  0  0
 24 25  2  0  0  0
 25 26  1  0  0  0
 26 27  2  0  0  0
 27 28  1  0  0  0
 28 29  2  0  0  0
  6  7  1  0  0  0
  7  8  2  0  0  0
  7  9  1  0  0  0
  9 11  1  0  0  0
 11 16  1  0  0  0
 16 17  1  0  0  0
 17 18  1  0  0  0
 18 19  1  0  0  0
 19 20  1  0  0  0
 11 12  1  0  0  0
 12 13  1  0  0  0
 12 14  2  0  0  0
 47 40  1  0  0  0
 29 24  1  0  0  0
 43 48  1  0  0  0
 35 36  1  0  0  0
 35 37  1  0  0  0
 32 33  1  0  0  0
 52 53  1  0  0  0
 55 57  1  0  0  0
 55 58  1  0  0  0
 56 59  1  0  0  0
  4  5  1  0  0  0
  9 10  1  0  0  0
 20 21  1  0  0  0
 20 22  1  0  0  0
 13 15  1  0  0  0
M  END
> <minimizedAffinity>
-2.11609

> <CNNscore>
0.3362403214

> <CNNaffinity>
7.2189431190

> <CNN_VS>
2.4272997379

> <CNNaffinity_variance>
0.4783798158

$$$$
[H]N=C(N([H])[H])N([H])C([H])([H])C([H])([H])C([H])([H])[C@]([H])(C(=O)N([H])[C@]([H])(C(=O)N([H])[C@]([H])(C(=O)O[H])C([H])([H])C([H])([H])C([H])([H])C([H])([H])N([H])[H])C([H])([H])c1c([H])c([H])c([H])c([H])c1[H])N([H])C(=O)[C@@]([H])(N([H])[H])C([H])([H])c1c(C([H])([H])[H])c([H])c(O[H])c([H])c1C([H])([H])[H]


 59 60  0  0  0  0  0  0  0  0999 V2000
   -4.7522   -6.8857    6.4996 C   0  0  0  0  0  0  0  0  0  0  0  0
   -4.3654   -5.5073    6.9356 C   0  0  0  0  0  0  0  0  0  0  0  0
   -4.5641   -5.0658    8.0764 O   0  0  0  0  0  0  0  0  0  0  0  0
   -3.7441   -4.6741    5.9801 N   0  0  0  0  0  0  0  0  0  0  0  0
   -3.5639   -5.0342    5.0271 H   0  0  0  0  0  0  0  0  0  0  0  0
   -3.3402   -3.3180    6.2688 C   0  0  0  0  0  0  0  0  0  0  0  0
   -2.5893   -2.8240    5.0623 C   0  0  0  0  0  0  0  0  0  0  0  0
   -1.3288   -2.8459    5.1211 O   0  0  0  0  0  0  0  0  0  0  0  0
   -3.2200   -2.3462    3.8901 N   0  0  0  0  0  0  0  0  0  0  0  0
   -4.2380   -2.3073    3.7915 H   0  0  0  0  0  0  0  0  0  0  0  0
   -2.3342   -1.9000    2.7963 C   0  0  0  0  0  0  0  0  0  0  0  0
   -2.6842   -0.5104    2.4968 C   0  0  0  0  0  0  0  0  0  0  0  0
   -3.7587    0.1457    3.0367 O   0  0  0  0  0  0  0  0  0  0  0  0
   -1.9643    0.1541    1.6839 O   0  0  0  0  0  0  0  0  0  0  0  0
   -3.8958    1.1236    2.9555 H   0  0  0  0  0  0  0  0  0  0  0  0
   -2.5485   -2.7896    1.6025 C   0  0  0  0  0  0  0  0  0  0  0  0
   -3.9730   -2.8400    1.2048 C   0  0  0  0  0  0  0  0  0  0  0  0
   -4.1308   -3.0354   -0.3087 C   0  0  0  0  0  0  0  0  0  0  0  0
   -5.0502   -1.9205   -0.7780 C   0  0  0  0  0  0  0  0  0  0  0  0
   -4.1894   -0.7643   -0.9920 N   0  0  0  0  0  0  0  0  0  0  0  0
   -4.2119   -0.0886   -0.2090 H   0  0  0  0  0  0  0  0  0  0  0  0
   -3.2429   -1.0168   -1.3284 H   0  0  0  0  0  0  0  0  0  0  0  0
   -2.4277   -3.2415    7.4343 C   0  0  0  0  0  0  0  0  0  0  0  0
   -2.4641   -1.9920    8.1876 C   0  0  0  0  0  0  0  0  0  0  0  0
   -1.5719   -1.8322    9.2451 C   0  0  0  0  0  0  0  0  0  0  0  0
   -1.5500   -0.6808   10.0117 C   0  0  0  0  0  0  0  0  0  0  0  0
   -2.4178    0.3647    9.7574 C   0  0  0  0  0  0  0  0  0  0  0  0
   -3.3047    0.2136    8.7112 C   0  0  0  0  0  0  0  0  0  0  0  0
   -3.3180   -0.9326    7.9572 C   0  0  0  0  0  0  0  0  0  0  0  0
   -7.1009   -7.5171    7.1208 C   0  0  0  0  0  0  0  0  0  0  0  0
   -7.5524   -7.0582    6.0492 O   0  0  0  0  0  0  0  0  0  0  0  0
   -5.7369   -7.4554    7.3978 N   0  0  0  0  0  0  0  0  0  0  0  0
   -5.3775   -7.8367    8.3041 H   0  0  0  0  0  0  0  0  0  0  0  0
   -8.0527   -8.1235    8.0832 C   0  0  0  0  0  0  0  0  0  0  0  0
   -7.4733   -8.3671    9.3559 N   0  0  0  0  0  0  0  0  0  0  0  0
   -7.9051   -9.1833    9.8489 H   0  0  0  0  0  0  0  0  0  0  0  0
   -6.4678   -8.6747    9.1875 H   0  0  0  0  0  0  0  0  0  0  0  0
   -9.3461   -7.3255    8.1123 C   0  0  0  0  0  0  0  0  0  0  0  0
   -9.5958  -10.0154    6.7505 C   0  0  0  0  0  0  0  0  0  0  0  0
  -10.7211   -9.2770    7.4299 C   0  0  0  0  0  0  0  0  0  0  0  0
  -11.9740   -9.9137    7.4128 C   0  0  0  0  0  0  0  0  0  0  0  0
  -13.0626   -9.3782    8.0296 C   0  0  0  0  0  0  0  0  0  0  0  0
  -14.2839  -10.0761    7.9677 O   0  0  0  0  0  0  0  0  0  0  0  0
  -12.9354   -8.1873    8.6850 C   0  0  0  0  0  0  0  0  0  0  0  0
  -11.7012   -7.5470    8.7082 C   0  0  0  0  0  0  0  0  0  0  0  0
  -11.5877   -6.2693    9.4352 C   0  0  0  0  0  0  0  0  0  0  0  0
  -10.5749   -8.0861    8.0770 C   0  0  0  0  0  0  0  0  0  0  0  0
  -14.9208   -9.8740    7.1828 H   0  0  0  0  0  0  0  0  0  0  0  0
   -3.5248   -7.7282    6.5122 C   0  0  0  0  0  0  0  0  0  0  0  0
   -2.5004   -7.2277    7.4842 C   0  0  0  0  0  0  0  0  0  0  0  0
   -1.7479   -8.4598    7.9942 C   0  0  0  0  0  0  0  0  0  0  0  0
   -1.5789   -9.3837    6.9229 N   0  0  0  0  0  0  0  0  0  0  0  0
   -1.6887   -9.0737    5.9416 H   0  0  0  0  0  0  0  0  0  0  0  0
   -1.2565  -10.7477    7.2211 C   0  0  0  0  0  0  0  0  0  0  0  0
   -1.0649  -11.6870    6.1756 N   0  0  0  0  0  0  0  0  0  0  0  0
   -1.1373  -11.1413    8.4320 N   0  0  0  0  0  0  0  0  0  0  0  0
   -0.5879  -11.3995    5.3162 H   0  0  0  0  0  0  0  0  0  0  0  0
   -1.4026  -12.6575    6.2749 H   0  0  0  0  0  0  0  0  0  0  0  0
   -1.2526  -10.5595    9.2665 H   0  0  0  0  0  0  0  0  0  0  0  0
 39 40  1  0  0  0
 40 41  2  0  0  0
 41 42  1  0  0  0
 42 43  1  0  0  0
 42 44  2  0  0  0
 44 45  1  0  0  0
 45 46  1  0  0  0
 45 47  2  0  0  0
 47 38  1  0  0  0
 38 34  1  0  0  0
 34 35  1  0  0  0
 34 30  1  0  0  0
 30 31  2  0  0  0
 30 32  1  0  0  0
 32  1  1  0  0  0
  1 49  1  0  0  0
 49 50  1  0  0  0
 50 51  1  0  0  0
 51 52  1  0  0  0
 52 54  1  0  0  0
 54 55  1  0  0  0
 54 56  2  0  0  0
  1  2  1  0  0  0
  2  3  2  0  0  0
  2  4  1  0  0  0
  4  6  1  0  0  0
  6 23  1  0  0  0
 23 24  1  0  0  0
 24 25  2  0  0  0
 25 26  1  0  0  0
 26 27  2  0  0  0
 27 28  1  0  0  0
 28 29  2  0  0  0
  6  7  1  0  0  0
  7  8  2  0  0  0
  7  9  1  0  0  0
  9 11  1  0  0  0
 11 16  1  0  0  0
 16 17  1  0  0  0
 17 18  1  0  0  0
 18 19  1  0  0  0
 19 20  1  0  0  0
 11 12  1  0  0  0
 12 13  1  0  0  0
 12 14  2  0  0  0
 47 40  1  0  0  0
 29 24  1  0  0  0
 43 48  1  0  0  0
 35 36  1  0  0  0
 35 37  1  0  0  0
 32 33  1  0  0  0
 52 53  1  0  0  0
 55 57  1  0  0  0
 55 58  1  0  0  0
 56 59  1  0  0  0
  4  5  1  0  0  0
  9 10  1  0  0  0
 20 21  1  0  0  0
 20 22  1  0  0  0
 13 15  1  0  0  0
M  END
> <minimizedAffinity>
-5.68437

> <CNNscore>
0.3176131546

> <CNNaffinity>
6.5078535080

> <CNN_VS>
2.0669798851

> <CNNaffinity_variance>
0.2127924412

$$$$
[H]N=C(N([H])[H])N([H])C([H])([H])C([H])([H])C([H])([H])[C@]([H])(C(=O)N([H])[C@]([H])(C(=O)N([H])[C@]([H])(C(=O)O[H])C([H])([H])C([H])([H])C([H])([H])C([H])([H])N([H])[H])C([H])([H])c1c([H])c([H])c([H])c([H])c1[H])N([H])C(=O)[C@@]([H])(N([H])[H])C([H])([H])c1c(C([H])([H])[H])c([H])c(O[H])c([H])c1C([H])([H])[H]


 59 60  0  0  0  0  0  0  0  0999 V2000
   -9.5879   -7.1200    8.5707 C   0  0  0  0  0  0  0  0  0  0  0  0
   -8.3282   -6.4934    8.0608 C   0  0  0  0  0  0  0  0  0  0  0  0
   -8.2880   -5.7175    7.0953 O   0  0  0  0  0  0  0  0  0  0  0  0
   -7.1257   -6.8184    8.7255 N   0  0  0  0  0  0  0  0  0  0  0  0
   -7.1471   -7.4573    9.5388 H   0  0  0  0  0  0  0  0  0  0  0  0
   -5.8417   -6.2962    8.3203 C   0  0  0  0  0  0  0  0  0  0  0  0
   -5.1423   -7.3990    7.5732 C   0  0  0  0  0  0  0  0  0  0  0  0
   -5.8583   -8.1520    6.8568 O   0  0  0  0  0  0  0  0  0  0  0  0
   -3.7476   -7.6246    7.6369 N   0  0  0  0  0  0  0  0  0  0  0  0
   -3.1229   -7.0437    8.2025 H   0  0  0  0  0  0  0  0  0  0  0  0
   -3.2217   -8.7504    6.8392 C   0  0  0  0  0  0  0  0  0  0  0  0
   -2.2135   -9.4258    7.6580 C   0  0  0  0  0  0  0  0  0  0  0  0
   -1.7045  -10.6675    7.3826 O   0  0  0  0  0  0  0  0  0  0  0  0
   -1.7654   -8.8481    8.7001 O   0  0  0  0  0  0  0  0  0  0  0  0
   -0.9144  -11.0463    7.8451 H   0  0  0  0  0  0  0  0  0  0  0  0
   -2.6250   -8.2101    5.5687 C   0  0  0  0  0  0  0  0  0  0  0  0
   -1.4047   -7.4149    5.8306 C   0  0  0  0  0  0  0  0  0  0  0  0
   -1.5990   -5.9405    5.4538 C   0  0  0  0  0  0  0  0  0  0  0  0
   -2.9880   -5.8468    4.8450 C   0  0  0  0  0  0  0  0  0  0  0  0
   -3.2324   -4.4249    4.6392 N   0  0  0  0  0  0  0  0  0  0  0  0
   -3.8202   -4.0012    5.3776 H   0  0  0  0  0  0  0  0  0  0  0  0
   -2.3760   -3.8941    4.3996 H   0  0  0  0  0  0  0  0  0  0  0  0
   -4.9962   -5.9262    9.4800 C   0  0  0  0  0  0  0  0  0  0  0  0
   -4.1993   -4.7136    9.3231 C   0  0  0  0  0  0  0  0  0  0  0  0
   -3.9268   -3.9511   10.4563 C   0  0  0  0  0  0  0  0  0  0  0  0
   -3.1856   -2.7850   10.3884 C   0  0  0  0  0  0  0  0  0  0  0  0
   -2.6818   -2.3264    9.1856 C   0  0  0  0  0  0  0  0  0  0  0  0
   -2.9478   -3.0766    8.0585 C   0  0  0  0  0  0  0  0  0  0  0  0
   -3.6840   -4.2317    8.1370 C   0  0  0  0  0  0  0  0  0  0  0  0
  -11.3750   -8.6393    7.6769 C   0  0  0  0  0  0  0  0  0  0  0  0
  -11.7096   -8.9923    8.8285 O   0  0  0  0  0  0  0  0  0  0  0  0
  -10.3380   -7.7279    7.4896 N   0  0  0  0  0  0  0  0  0  0  0  0
  -10.0653   -7.4503    6.5177 H   0  0  0  0  0  0  0  0  0  0  0  0
  -12.1074   -9.2160    6.5232 C   0  0  0  0  0  0  0  0  0  0  0  0
  -11.6965  -10.5385    6.2118 N   0  0  0  0  0  0  0  0  0  0  0  0
  -11.8007  -10.7671    5.1956 H   0  0  0  0  0  0  0  0  0  0  0  0
  -10.6456  -10.5860    6.3766 H   0  0  0  0  0  0  0  0  0  0  0  0
  -13.6051   -9.0407    6.7145 C   0  0  0  0  0  0  0  0  0  0  0  0
  -13.8293   -6.3299    8.0387 C   0  0  0  0  0  0  0  0  0  0  0  0
  -14.3604   -6.6759    6.6708 C   0  0  0  0  0  0  0  0  0  0  0  0
  -15.0062   -5.6361    5.9801 C   0  0  0  0  0  0  0  0  0  0  0  0
  -15.4900   -5.8008    4.7186 C   0  0  0  0  0  0  0  0  0  0  0  0
  -16.1253   -4.7114    4.0925 O   0  0  0  0  0  0  0  0  0  0  0  0
  -15.3444   -7.0115    4.1047 C   0  0  0  0  0  0  0  0  0  0  0  0
  -14.7081   -8.0486    4.7781 C   0  0  0  0  0  0  0  0  0  0  0  0
  -14.5511   -9.3414    4.0868 C   0  0  0  0  0  0  0  0  0  0  0  0
  -14.2075   -7.8926    6.0753 C   0  0  0  0  0  0  0  0  0  0  0  0
  -17.1429   -4.6041    4.2172 H   0  0  0  0  0  0  0  0  0  0  0  0
  -10.4071   -6.0478    9.1998 C   0  0  0  0  0  0  0  0  0  0  0  0
  -11.2377   -6.5588   10.3372 C   0  0  0  0  0  0  0  0  0  0  0  0
  -11.3358   -5.4152   11.3507 C   0  0  0  0  0  0  0  0  0  0  0  0
  -11.4356   -5.9587   12.6639 N   0  0  0  0  0  0  0  0  0  0  0  0
  -12.0505   -6.7702   12.8495 H   0  0  0  0  0  0  0  0  0  0  0  0
  -10.6753   -5.3668   13.7246 C   0  0  0  0  0  0  0  0  0  0  0  0
   -9.3197   -5.7315   13.9285 N   0  0  0  0  0  0  0  0  0  0  0  0
  -11.2046   -4.5026   14.5045 N   0  0  0  0  0  0  0  0  0  0  0  0
   -8.7127   -5.9003   13.1213 H   0  0  0  0  0  0  0  0  0  0  0  0
   -8.9413   -5.8276   14.8842 H   0  0  0  0  0  0  0  0  0  0  0  0
  -12.1691   -4.1623   14.4573 H   0  0  0  0  0  0  0  0  0  0  0  0
 39 40  1  0  0  0
 40 41  2  0  0  0
 41 42  1  0  0  0
 42 43  1  0  0  0
 42 44  2  0  0  0
 44 45  1  0  0  0
 45 46  1  0  0  0
 45 47  2  0  0  0
 47 38  1  0  0  0
 38 34  1  0  0  0
 34 35  1  0  0  0
 34 30  1  0  0  0
 30 31  2  0  0  0
 30 32  1  0  0  0
 32  1  1  0  0  0
  1 49  1  0  0  0
 49 50  1  0  0  0
 50 51  1  0  0  0
 51 52  1  0  0  0
 52 54  1  0  0  0
 54 55  1  0  0  0
 54 56  2  0  0  0
  1  2  1  0  0  0
  2  3  2  0  0  0
  2  4  1  0  0  0
  4  6  1  0  0  0
  6 23  1  0  0  0
 23 24  1  0  0  0
 24 25  2  0  0  0
 25 26  1  0  0  0
 26 27  2  0  0  0
 27 28  1  0  0  0
 28 29  2  0  0  0
  6  7  1  0  0  0
  7  8  2  0  0  0
  7  9  1  0  0  0
  9 11  1  0  0  0
 11 16  1  0  0  0
 16 17  1  0  0  0
 17 18  1  0  0  0
 18 19  1  0  0  0
 19 20  1  0  0  0
 11 12  1  0  0  0
 12 13  1  0  0  0
 12 14  2  0  0  0
 47 40  1  0  0  0
 29 24  1  0  0  0
 43 48  1  0  0  0
 35 36  1  0  0  0
 35 37  1  0  0  0
 32 33  1  0  0  0
 52 53  1  0  0  0
 55 57  1  0  0  0
 55 58  1  0  0  0
 56 59  1  0  0  0
  4  5  1  0  0  0
  9 10  1  0  0  0
 20 21  1  0  0  0
 20 22  1  0  0  0
 13 15  1  0  0  0
M  END
> <minimizedAffinity>
-3.31330

> <CNNscore>
0.2873388231

> <CNNaffinity>
7.0989403725

> <CNN_VS>
2.0398011208

> <CNNaffinity_variance>
0.5103033781

$$$$
[H]N=C(N([H])[H])N([H])C([H])([H])C([H])([H])C([H])([H])[C@]([H])(C(=O)N([H])[C@]([H])(C(=O)N([H])[C@]([H])(C(=O)O[H])C([H])([H])C([H])([H])C([H])([H])C([H])([H])N([H])[H])C([H])([H])c1c([H])c([H])c([H])c([H])c1[H])N([H])C(=O)[C@@]([H])(N([H])[H])C([H])([H])c1c(C([H])([H])[H])c([H])c(O[H])c([H])c1C([H])([H])[H]


 59 60  0  0  0  0  0  0  0  0999 V2000
   -9.9598   -8.2752    8.3926 C   0  0  0  0  0  0  0  0  0  0  0  0
   -8.5513   -8.2139    7.8903 C   0  0  0  0  0  0  0  0  0  0  0  0
   -8.1342   -8.8771    6.9301 O   0  0  0  0  0  0  0  0  0  0  0  0
   -7.6590   -7.3503    8.5621 N   0  0  0  0  0  0  0  0  0  0  0  0
   -7.9973   -6.7841    9.3591 H   0  0  0  0  0  0  0  0  0  0  0  0
   -6.2707   -7.2145    8.1883 C   0  0  0  0  0  0  0  0  0  0  0  0
   -5.6051   -6.4188    9.2779 C   0  0  0  0  0  0  0  0  0  0  0  0
   -5.9985   -6.6214   10.4599 O   0  0  0  0  0  0  0  0  0  0  0  0
   -4.5798   -5.4738    9.0414 N   0  0  0  0  0  0  0  0  0  0  0  0
   -4.2251   -5.2721    8.1027 H   0  0  0  0  0  0  0  0  0  0  0  0
   -4.0325   -4.7802   10.2245 C   0  0  0  0  0  0  0  0  0  0  0  0
   -3.7150   -3.4114    9.8140 C   0  0  0  0  0  0  0  0  0  0  0  0
   -3.8795   -2.3108   10.6130 O   0  0  0  0  0  0  0  0  0  0  0  0
   -3.2587   -3.1996    8.6446 O   0  0  0  0  0  0  0  0  0  0  0  0
   -3.5157   -1.4169   10.3891 H   0  0  0  0  0  0  0  0  0  0  0  0
   -2.8046   -5.5117   10.6930 C   0  0  0  0  0  0  0  0  0  0  0  0
   -2.6202   -5.3926   12.1565 C   0  0  0  0  0  0  0  0  0  0  0  0
   -3.9638   -5.3846   12.8968 C   0  0  0  0  0  0  0  0  0  0  0  0
   -3.6657   -5.8730   14.3044 C   0  0  0  0  0  0  0  0  0  0  0  0
   -4.7527   -6.7824   14.6439 N   0  0  0  0  0  0  0  0  0  0  0  0
   -5.4787   -6.3462   15.2379 H   0  0  0  0  0  0  0  0  0  0  0  0
   -5.1104   -7.3129   13.8296 H   0  0  0  0  0  0  0  0  0  0  0  0
   -6.1031   -6.4719    6.9167 C   0  0  0  0  0  0  0  0  0  0  0  0
   -4.7573   -6.4763    6.3520 C   0  0  0  0  0  0  0  0  0  0  0  0
   -4.3375   -5.3572    5.6369 C   0  0  0  0  0  0  0  0  0  0  0  0
   -3.0799   -5.2884    5.0646 C   0  0  0  0  0  0  0  0  0  0  0  0
   -2.1830   -6.3341    5.1801 C   0  0  0  0  0  0  0  0  0  0  0  0
   -2.5920   -7.4461    5.8870 C   0  0  0  0  0  0  0  0  0  0  0  0
   -3.8415   -7.5040    6.4507 C   0  0  0  0  0  0  0  0  0  0  0  0
  -12.0230   -9.3352    7.4332 C   0  0  0  0  0  0  0  0  0  0  0  0
  -12.3013   -9.8793    8.5238 O   0  0  0  0  0  0  0  0  0  0  0  0
  -10.8845   -8.5417    7.3088 N   0  0  0  0  0  0  0  0  0  0  0  0
  -10.6622   -8.1009    6.3856 H   0  0  0  0  0  0  0  0  0  0  0  0
  -12.9323   -9.5584    6.2829 C   0  0  0  0  0  0  0  0  0  0  0  0
  -13.8812  -10.5873    6.5189 N   0  0  0  0  0  0  0  0  0  0  0  0
  -14.1694  -11.0823    5.6427 H   0  0  0  0  0  0  0  0  0  0  0  0
  -13.3890  -11.3417    7.0869 H   0  0  0  0  0  0  0  0  0  0  0  0
  -13.5245   -8.2369    5.8208 C   0  0  0  0  0  0  0  0  0  0  0  0
  -15.5727   -7.6669    7.9730 C   0  0  0  0  0  0  0  0  0  0  0  0
  -15.8902   -8.0099    6.5396 C   0  0  0  0  0  0  0  0  0  0  0  0
  -17.2546   -8.0617    6.2066 C   0  0  0  0  0  0  0  0  0  0  0  0
  -17.6775   -8.3140    4.9378 C   0  0  0  0  0  0  0  0  0  0  0  0
  -19.0617   -8.3501    4.6830 O   0  0  0  0  0  0  0  0  0  0  0  0
  -16.7498   -8.5230    3.9582 C   0  0  0  0  0  0  0  0  0  0  0  0
  -15.3966   -8.4754    4.2752 C   0  0  0  0  0  0  0  0  0  0  0  0
  -14.4155   -8.6903    3.1958 C   0  0  0  0  0  0  0  0  0  0  0  0
  -14.9490   -8.2184    5.5757 C   0  0  0  0  0  0  0  0  0  0  0  0
  -19.5503   -9.2531    4.7751 H   0  0  0  0  0  0  0  0  0  0  0  0
  -10.2820   -6.9572    9.0053 C   0  0  0  0  0  0  0  0  0  0  0  0
  -11.6626   -6.4900    8.6582 C   0  0  0  0  0  0  0  0  0  0  0  0
  -12.6052   -7.1199    9.6874 C   0  0  0  0  0  0  0  0  0  0  0  0
  -13.3749   -6.0946   10.3088 N   0  0  0  0  0  0  0  0  0  0  0  0
  -14.4089   -6.1226   10.2752 H   0  0  0  0  0  0  0  0  0  0  0  0
  -12.6995   -5.0236   10.9798 C   0  0  0  0  0  0  0  0  0  0  0  0
  -11.8578   -5.2874   12.0907 N   0  0  0  0  0  0  0  0  0  0  0  0
  -12.8443   -3.8141   10.5904 N   0  0  0  0  0  0  0  0  0  0  0  0
  -11.2660   -6.1231   12.0917 H   0  0  0  0  0  0  0  0  0  0  0  0
  -11.8378   -4.6434   12.8972 H   0  0  0  0  0  0  0  0  0  0  0  0
  -13.4230   -3.5012    9.8059 H   0  0  0  0  0  0  0  0  0  0  0  0
 39 40  1  0  0  0
 40 41  2  0  0  0
 41 42  1  0  0  0
 42 43  1  0  0  0
 42 44  2  0  0  0
 44 45  1  0  0  0
 45 46  1  0  0  0
 45 47  2  0  0  0
 47 38  1  0  0  0
 38 34  1  0  0  0
 34 35  1  0  0  0
 34 30  1  0  0  0
 30 31  2  0  0  0
 30 32  1  0  0  0
 32  1  1  0  0  0
  1 49  1  0  0  0
 49 50  1  0  0  0
 50 51  1  0  0  0
 51 52  1  0  0  0
 52 54  1  0  0  0
 54 55  1  0  0  0
 54 56  2  0  0  0
  1  2  1  0  0  0
  2  3  2  0  0  0
  2  4  1  0  0  0
  4  6  1  0  0  0
  6 23  1  0  0  0
 23 24  1  0  0  0
 24 25  2  0  0  0
 25 26  1  0  0  0
 26 27  2  0  0  0
 27 28  1  0  0  0
 28 29  2  0  0  0
  6  7  1  0  0  0
  7  8  2  0  0  0
  7  9  1  0  0  0
  9 11  1  0  0  0
 11 16  1  0  0  0
 16 17  1  0  0  0
 17 18  1  0  0  0
 18 19  1  0  0  0
 19 20  1  0  0  0
 11 12  1  0  0  0
 12 13  1  0  0  0
 12 14  2  0  0  0
 47 40  1  0  0  0
 29 24  1  0  0  0
 43 48  1  0  0  0
 35 36  1  0  0  0
 35 37  1  0  0  0
 32 33  1  0  0  0
 52 53  1  0  0  0
 55 57  1  0  0  0
 55 58  1  0  0  0
 56 59  1  0  0  0
  4  5  1  0  0  0
  9 10  1  0  0  0
 20 21  1  0  0  0
 20 22  1  0  0  0
 13 15  1  0  0  0
M  END
> <minimizedAffinity>
-5.62980

> <CNNscore>
0.2755742371

> <CNNaffinity>
7.3677606583

> <CNN_VS>
2.0303649902

> <CNNaffinity_variance>
0.1492459625

$$$$
[H]N=C(N([H])[H])N([H])C([H])([H])C([H])([H])C([H])([H])[C@]([H])(C(=O)N([H])[C@]([H])(C(=O)N([H])[C@]([H])(C(=O)O[H])C([H])([H])C([H])([H])C([H])([H])C([H])([H])N([H])[H])C([H])([H])c1c([H])c([H])c([H])c([H])c1[H])N([H])C(=O)[C@@]([H])(N([H])[H])C([H])([H])c1c(C([H])([H])[H])c([H])c(O[H])c([H])c1C([H])([H])[H]


 59 60  0  0  0  0  0  0  0  0999 V2000
   -4.7578   -6.7671    6.2440 C   0  0  0  0  0  0  0  0  0  0  0  0
   -4.3920   -5.3956    6.7181 C   0  0  0  0  0  0  0  0  0  0  0  0
   -4.5135   -5.0188    7.8925 O   0  0  0  0  0  0  0  0  0  0  0  0
   -3.8857   -4.4905    5.7600 N   0  0  0  0  0  0  0  0  0  0  0  0
   -3.7704   -4.7959    4.7783 H   0  0  0  0  0  0  0  0  0  0  0  0
   -3.5142   -3.1334    6.0850 C   0  0  0  0  0  0  0  0  0  0  0  0
   -3.1026   -2.4768    4.7955 C   0  0  0  0  0  0  0  0  0  0  0  0
   -1.8872   -2.5661    4.4672 O   0  0  0  0  0  0  0  0  0  0  0  0
   -3.9983   -1.7787    3.9526 N   0  0  0  0  0  0  0  0  0  0  0  0
   -4.9927   -1.6770    4.1726 H   0  0  0  0  0  0  0  0  0  0  0  0
   -3.4301   -1.1945    2.7213 C   0  0  0  0  0  0  0  0  0  0  0  0
   -3.9344    0.1761    2.6211 C   0  0  0  0  0  0  0  0  0  0  0  0
   -5.2246    0.4991    2.2931 O   0  0  0  0  0  0  0  0  0  0  0  0
   -3.1456    1.1501    2.8441 O   0  0  0  0  0  0  0  0  0  0  0  0
   -5.5963    1.4131    2.3835 H   0  0  0  0  0  0  0  0  0  0  0  0
   -3.8613   -2.0256    1.5441 C   0  0  0  0  0  0  0  0  0  0  0  0
   -2.7134   -2.4053    0.6908 C   0  0  0  0  0  0  0  0  0  0  0  0
   -2.4921   -3.9234    0.6838 C   0  0  0  0  0  0  0  0  0  0  0  0
   -1.2022   -4.1589    1.4515 C   0  0  0  0  0  0  0  0  0  0  0  0
   -1.3817   -5.4295    2.1422 N   0  0  0  0  0  0  0  0  0  0  0  0
   -1.6392   -5.3195    3.1381 H   0  0  0  0  0  0  0  0  0  0  0  0
   -1.9589   -6.1052    1.6103 H   0  0  0  0  0  0  0  0  0  0  0  0
   -2.3596   -3.0756    7.0126 C   0  0  0  0  0  0  0  0  0  0  0  0
   -2.3189   -1.9205    7.9037 C   0  0  0  0  0  0  0  0  0  0  0  0
   -3.3687   -1.7415    8.8014 C   0  0  0  0  0  0  0  0  0  0  0  0
   -3.4068   -0.6676    9.6726 C   0  0  0  0  0  0  0  0  0  0  0  0
   -2.3980    0.2774    9.6881 C   0  0  0  0  0  0  0  0  0  0  0  0
   -1.3546    0.1067    8.8015 C   0  0  0  0  0  0  0  0  0  0  0  0
   -1.3266   -0.9621    7.9416 C   0  0  0  0  0  0  0  0  0  0  0  0
   -7.0869   -7.3181    7.0009 C   0  0  0  0  0  0  0  0  0  0  0  0
   -7.5913   -6.6779    6.0530 O   0  0  0  0  0  0  0  0  0  0  0  0
   -5.7033   -7.3920    7.1476 N   0  0  0  0  0  0  0  0  0  0  0  0
   -5.2983   -7.9252    7.9524 H   0  0  0  0  0  0  0  0  0  0  0  0
   -7.9972   -7.9908    7.9594 C   0  0  0  0  0  0  0  0  0  0  0  0
   -7.3828   -8.2604    9.2102 N   0  0  0  0  0  0  0  0  0  0  0  0
   -7.7766   -9.1081    9.6815 H   0  0  0  0  0  0  0  0  0  0  0  0
   -6.3715   -8.5274    9.0103 H   0  0  0  0  0  0  0  0  0  0  0  0
   -9.3154   -7.2388    8.0439 C   0  0  0  0  0  0  0  0  0  0  0  0
   -9.4923   -9.9409    6.6949 C   0  0  0  0  0  0  0  0  0  0  0  0
  -10.6327   -9.2382    7.3867 C   0  0  0  0  0  0  0  0  0  0  0  0
  -11.8635   -9.9168    7.3886 C   0  0  0  0  0  0  0  0  0  0  0  0
  -12.9613   -9.4159    8.0181 C   0  0  0  0  0  0  0  0  0  0  0  0
  -14.1591  -10.1547    7.9751 O   0  0  0  0  0  0  0  0  0  0  0  0
  -12.8657   -8.2189    8.6676 C   0  0  0  0  0  0  0  0  0  0  0  0
  -11.6535   -7.5372    8.6721 C   0  0  0  0  0  0  0  0  0  0  0  0
  -11.5735   -6.2536    9.3931 C   0  0  0  0  0  0  0  0  0  0  0  0
  -10.5182   -8.0405    8.0277 C   0  0  0  0  0  0  0  0  0  0  0  0
  -14.8128   -9.9772    7.1980 H   0  0  0  0  0  0  0  0  0  0  0  0
   -3.5108   -7.5788    6.1937 C   0  0  0  0  0  0  0  0  0  0  0  0
   -2.3553   -6.8890    6.8525 C   0  0  0  0  0  0  0  0  0  0  0  0
   -2.0402   -7.6865    8.1211 C   0  0  0  0  0  0  0  0  0  0  0  0
   -1.0611   -6.9873    8.8843 N   0  0  0  0  0  0  0  0  0  0  0  0
   -0.0644   -7.0125    8.6066 H   0  0  0  0  0  0  0  0  0  0  0  0
   -1.4733   -6.2501   10.0418 C   0  0  0  0  0  0  0  0  0  0  0  0
   -1.0601   -6.6543   11.3372 N   0  0  0  0  0  0  0  0  0  0  0  0
   -2.2200   -5.2182    9.9277 N   0  0  0  0  0  0  0  0  0  0  0  0
   -0.1125   -7.0160   11.4778 H   0  0  0  0  0  0  0  0  0  0  0  0
   -1.7075   -6.5864   12.1385 H   0  0  0  0  0  0  0  0  0  0  0  0
   -2.5809   -4.8324    9.0507 H   0  0  0  0  0  0  0  0  0  0  0  0
 39 40  1  0  0  0
 40 41  2  0  0  0
 41 42  1  0  0  0
 42 43  1  0  0  0
 42 44  2  0  0  0
 44 45  1  0  0  0
 45 46  1  0  0  0
 45 47  2  0  0  0
 47 38  1  0  0  0
 38 34  1  0  0  0
 34 35  1  0  0  0
 34 30  1  0  0  0
 30 31  2  0  0  0
 30 32  1  0  0  0
 32  1  1  0  0  0
  1 49  1  0  0  0
 49 50  1  0  0  0
 50 51  1  0  0  0
 51 52  1  0  0  0
 52 54  1  0  0  0
 54 55  1  0  0  0
 54 56  2  0  0  0
  1  2  1  0  0  0
  2  3  2  0  0  0
  2  4  1  0  0  0
  4  6  1  0  0  0
  6 23  1  0  0  0
 23 24  1  0  0  0
 24 25  2  0  0  0
 25 26  1  0  0  0
 26 27  2  0  0  0
 27 28  1  0  0  0
 28 29  2  0  0  0
  6  7  1  0  0  0
  7  8  2  0  0  0
  7  9  1  0  0  0
  9 11  1  0  0  0
 11 16  1  0  0  0
 16 17  1  0  0  0
 17 18  1  0  0  0
 18 19  1  0  0  0
 19 20  1  0  0  0
 11 12  1  0  0  0
 12 13  1  0  0  0
 12 14  2  0  0  0
 47 40  1  0  0  0
 29 24  1  0  0  0
 43 48  1  0  0  0
 35 36  1  0  0  0
 35 37  1  0  0  0
 32 33  1  0  0  0
 52 53  1  0  0  0
 55 57  1  0  0  0
 55 58  1  0  0  0
 56 59  1  0  0  0
  4  5  1  0  0  0
  9 10  1  0  0  0
 20 21  1  0  0  0
 20 22  1  0  0  0
 13 15  1  0  0  0
M  END
> <minimizedAffinity>
-5.66192

> <CNNscore>
0.2506031394

> <CNNaffinity>
6.5094385147

> <CNN_VS>
1.6312857866

> <CNNaffinity_variance>
0.4155639112

$$$$
[H]c1nc(N([H])c2c([H])c([H])c(N3C([H])([H])C([H])([H])N(C(=O)C([H])([H])[H])C([H])([H])C3([H])[H])c([H])c2OC([H])([H])[H])nc(N([H])c2c([H])c([H])c([H])c([H])c2C(=O)C([H])([H])[H])c1Cl


 37 40  0  0  0  0  0  0  0  0999 V2000
   -9.8119   -8.0412    8.6370 N   0  0  0  0  0  0  0  0  0  0  0  0
   -9.8345   -7.7670    9.6865 H   0  0  0  0  0  0  0  0  0  0  0  0
   -8.5236   -8.1914    8.0784 C   0  0  0  0  0  0  0  0  0  0  0  0
   -7.9281   -9.3269    7.7279 N   0  0  0  0  0  0  0  0  0  0  0  0
   -6.7112   -9.4190    7.2053 C   0  0  0  0  0  0  0  0  0  0  0  0
   -5.9777   -8.2717    6.9947 C   0  0  0  0  0  0  0  0  0  0  0  0
   -4.3576   -8.3721    6.3007 Cl  0  0  0  0  0  0  0  0  0  0  0  0
   -6.5442   -7.0594    7.3397 C   0  0  0  0  0  0  0  0  0  0  0  0
   -7.7554   -7.0793    7.8501 N   0  0  0  0  0  0  0  0  0  0  0  0
   -5.8083   -5.8865    7.1688 N   0  0  0  0  0  0  0  0  0  0  0  0
   -6.2548   -5.1914    6.4811 H   0  0  0  0  0  0  0  0  0  0  0  0
   -4.6242   -5.4544    7.7986 C   0  0  0  0  0  0  0  0  0  0  0  0
   -4.5315   -5.5367    9.1843 C   0  0  0  0  0  0  0  0  0  0  0  0
   -3.4198   -5.0096    9.8480 C   0  0  0  0  0  0  0  0  0  0  0  0
   -2.4124   -4.4067    9.1404 C   0  0  0  0  0  0  0  0  0  0  0  0
   -2.4729   -4.3107    7.7833 C   0  0  0  0  0  0  0  0  0  0  0  0
   -3.5990   -4.8467    7.1065 C   0  0  0  0  0  0  0  0  0  0  0  0
   -3.5849   -4.8072    5.6638 C   0  0  0  0  0  0  0  0  0  0  0  0
   -2.4973   -5.5463    4.9350 C   0  0  0  0  0  0  0  0  0  0  0  0
   -4.3954   -4.2137    4.9715 O   0  0  0  0  0  0  0  0  0  0  0  0
  -12.0105   -7.2213    8.1386 C   0  0  0  0  0  0  0  0  0  0  0  0
  -13.2325   -7.2993    7.5180 C   0  0  0  0  0  0  0  0  0  0  0  0
  -13.5910   -8.3518    6.6723 C   0  0  0  0  0  0  0  0  0  0  0  0
  -12.6311   -9.3106    6.5019 C   0  0  0  0  0  0  0  0  0  0  0  0
  -11.3767   -9.2430    7.1310 C   0  0  0  0  0  0  0  0  0  0  0  0
  -11.0294   -8.2147    7.9561 C   0  0  0  0  0  0  0  0  0  0  0  0
  -14.8635   -8.3404    6.0796 N   0  0  0  0  0  0  0  0  0  0  0  0
  -16.0033   -7.7737    6.7995 C   0  0  0  0  0  0  0  0  0  0  0  0
  -17.1612   -7.5855    5.8395 C   0  0  0  0  0  0  0  0  0  0  0  0
  -16.6983   -7.1198    4.5220 N   0  0  0  0  0  0  0  0  0  0  0  0
  -15.5072   -7.6844    3.8992 C   0  0  0  0  0  0  0  0  0  0  0  0
  -15.0978   -8.8822    4.7630 C   0  0  0  0  0  0  0  0  0  0  0  0
  -17.3994   -6.1124    3.8279 C   0  0  0  0  0  0  0  0  0  0  0  0
  -18.6100   -5.5229    4.4351 C   0  0  0  0  0  0  0  0  0  0  0  0
  -17.0104   -5.7164    2.7135 O   0  0  0  0  0  0  0  0  0  0  0  0
  -12.2496   -6.1284   10.2718 C   0  0  0  0  0  0  0  0  0  0  0  0
  -11.6913   -6.1488    8.9788 O   0  0  0  0  0  0  0  0  0  0  0  0
 36 37  1  0  0  0
 37 21  1  0  0  0
 21 22  2  0  0  0
 22 23  1  0  0  0
 23 24  2  0  0  0
 24 25  1  0  0  0
 25 26  2  0  0  0
 26  1  1  0  0  0
  1  3  1  0  0  0
  3  4  2  0  0  0
  4  5  1  0  0  0
  5  6  2  0  0  0
  6  7  1  0  0  0
  6  8  1  0  0  0
  8 10  1  0  0  0
 10 12  1  0  0  0
 12 13  2  0  0  0
 13 14  1  0  0  0
 14 15  2  0  0  0
 15 16  1  0  0  0
 16 17  2  0  0  0
 17 18  1  0  0  0
 18 19  1  0  0  0
 18 20  2  0  0  0
  8  9  2  0  0  0
 23 27  1  0  0  0
 27 28  1  0  0  0
 28 29  1  0  0  0
 29 30  1  0  0  0
 30 31  1  0  0  0
 31 32  1  0  0  0
 30 33  1  0  0  0
 33 34  1  0  0  0
 33 35  2  0  0  0
 26 21  1  0  0  0
  9  3  1  0  0  0
 32 27  1  0  0  0
 17 12  1  0  0  0
  1  2  1  0  0  0
 10 11  1  0  0  0
M  END
> <minimizedAffinity>
-7.95546

> <CNNscore>
0.5913382769

> <CNNaffinity>
7.7139348984

> <CNN_VS>
4.5615448952

> <CNNaffinity_variance>
0.0470063314

$$$$
[H]c1nc(N([H])c2c([H])c([H])c(N3C([H])([H])C([H])([H])N(C(=O)C([H])([H])[H])C([H])([H])C3([H])[H])c([H])c2OC([H])([H])[H])nc(N([H])c2c([H])c([H])c([H])c([H])c2C(=O)C([H])([H])[H])c1Cl


 37 40  0  0  0  0  0  0  0  0999 V2000
   -9.7496  -12.6263    6.2909 N   0  0  0  0  0  0  0  0  0  0  0  0
  -10.8244  -12.7023    6.4173 H   0  0  0  0  0  0  0  0  0  0  0  0
   -9.1383  -13.7194    5.6382 C   0  0  0  0  0  0  0  0  0  0  0  0
   -8.9950  -14.9554    6.1057 N   0  0  0  0  0  0  0  0  0  0  0  0
   -8.4106  -15.9532    5.4536 C   0  0  0  0  0  0  0  0  0  0  0  0
   -7.9011  -15.7300    4.1929 C   0  0  0  0  0  0  0  0  0  0  0  0
   -7.1202  -17.0433    3.3087 Cl  0  0  0  0  0  0  0  0  0  0  0  0
   -8.0201  -14.4635    3.6530 C   0  0  0  0  0  0  0  0  0  0  0  0
   -8.6164  -13.5469    4.3825 N   0  0  0  0  0  0  0  0  0  0  0  0
   -7.4813  -14.2031    2.3927 N   0  0  0  0  0  0  0  0  0  0  0  0
   -6.9227  -15.0247    1.9824 H   0  0  0  0  0  0  0  0  0  0  0  0
   -7.6106  -13.0716    1.5631 C   0  0  0  0  0  0  0  0  0  0  0  0
   -6.9618  -11.8953    1.9250 C   0  0  0  0  0  0  0  0  0  0  0  0
   -7.1638  -10.7246    1.1882 C   0  0  0  0  0  0  0  0  0  0  0  0
   -8.0028  -10.7246    0.1042 C   0  0  0  0  0  0  0  0  0  0  0  0
   -8.6522  -11.8596   -0.2761 C   0  0  0  0  0  0  0  0  0  0  0  0
   -8.4476  -13.0501    0.4684 C   0  0  0  0  0  0  0  0  0  0  0  0
   -9.0809  -14.2523   -0.0182 C   0  0  0  0  0  0  0  0  0  0  0  0
  -10.5726  -14.3837    0.1156 C   0  0  0  0  0  0  0  0  0  0  0  0
   -8.4983  -15.1894   -0.5387 O   0  0  0  0  0  0  0  0  0  0  0  0
   -9.7834  -10.2604    6.6859 C   0  0  0  0  0  0  0  0  0  0  0  0
   -9.2256   -9.0872    7.1295 C   0  0  0  0  0  0  0  0  0  0  0  0
   -7.9492   -9.0164    7.6927 C   0  0  0  0  0  0  0  0  0  0  0  0
   -7.2848  -10.2087    7.7737 C   0  0  0  0  0  0  0  0  0  0  0  0
   -7.8440  -11.4164    7.3235 C   0  0  0  0  0  0  0  0  0  0  0  0
   -9.0900  -11.4828    6.7740 C   0  0  0  0  0  0  0  0  0  0  0  0
   -7.4669   -7.7697    8.1216 N   0  0  0  0  0  0  0  0  0  0  0  0
   -6.8349   -7.6393    9.4339 C   0  0  0  0  0  0  0  0  0  0  0  0
   -6.1226   -6.3040    9.5186 C   0  0  0  0  0  0  0  0  0  0  0  0
   -5.4679   -5.9611    8.2455 N   0  0  0  0  0  0  0  0  0  0  0  0
   -6.1356   -6.1887    6.9697 C   0  0  0  0  0  0  0  0  0  0  0  0
   -7.5774   -6.5856    7.3045 C   0  0  0  0  0  0  0  0  0  0  0  0
   -4.1738   -5.4015    8.2299 C   0  0  0  0  0  0  0  0  0  0  0  0
   -3.4738   -5.1596    9.5079 C   0  0  0  0  0  0  0  0  0  0  0  0
   -3.6174   -5.1105    7.1548 O   0  0  0  0  0  0  0  0  0  0  0  0
  -12.1432   -9.8342    6.9141 C   0  0  0  0  0  0  0  0  0  0  0  0
  -11.0662  -10.2875    6.1275 O   0  0  0  0  0  0  0  0  0  0  0  0
 36 37  1  0  0  0
 37 21  1  0  0  0
 21 22  2  0  0  0
 22 23  1  0  0  0
 23 24  2  0  0  0
 24 25  1  0  0  0
 25 26  2  0  0  0
 26  1  1  0  0  0
  1  3  1  0  0  0
  3  4  2  0  0  0
  4  5  1  0  0  0
  5  6  2  0  0  0
  6  7  1  0  0  0
  6  8  1  0  0  0
  8 10  1  0  0  0
 10 12  1  0  0  0
 12 13  2  0  0  0
 13 14  1  0  0  0
 14 15  2  0  0  0
 15 16  1  0  0  0
 16 17  2  0  0  0
 17 18  1  0  0  0
 18 19  1  0  0  0
 18 20  2  0  0  0
  8  9  2  0  0  0
 23 27  1  0  0  0
 27 28  1  0  0  0
 28 29  1  0  0  0
 29 30  1  0  0  0
 30 31  1  0  0  0
 31 32  1  0  0  0
 30 33  1  0  0  0
 33 34  1  0  0  0
 33 35  2  0  0  0
 26 21  1  0  0  0
  9  3  1  0  0  0
 32 27  1  0  0  0
 17 12  1  0  0  0
  1  2  1  0  0  0
 10 11  1  0  0  0
M  END
> <minimizedAffinity>
21.17299

> <CNNscore>
0.5394964218

> <CNNaffinity>
6.5237412453

> <CNN_VS>
3.5195350647

> <CNNaffinity_variance>
0.3068602085

$$$$
[H]c1nc(N([H])c2c([H])c([H])c(N3C([H])([H])C([H])([H])N(C(=O)C([H])([H])[H])C([H])([H])C3([H])[H])c([H])c2OC([H])([H])[H])nc(N([H])c2c([H])c([H])c([H])c([H])c2C(=O)C([H])([H])[H])c1Cl


 37 40  0  0  0  0  0  0  0  0999 V2000
  -11.3166  -10.1123    7.6385 N   0  0  0  0  0  0  0  0  0  0  0  0
  -11.2891  -11.1909    7.7516 H   0  0  0  0  0  0  0  0  0  0  0  0
  -12.6071   -9.5395    7.6092 C   0  0  0  0  0  0  0  0  0  0  0  0
  -13.4366   -9.3771    8.6350 N   0  0  0  0  0  0  0  0  0  0  0  0
  -14.6447   -8.8320    8.5586 C   0  0  0  0  0  0  0  0  0  0  0  0
  -15.1099   -8.3883    7.3398 C   0  0  0  0  0  0  0  0  0  0  0  0
  -16.7134   -7.6603    7.2164 Cl  0  0  0  0  0  0  0  0  0  0  0  0
  -14.2918   -8.5302    6.2351 C   0  0  0  0  0  0  0  0  0  0  0  0
  -13.1138   -9.0834    6.4200 N   0  0  0  0  0  0  0  0  0  0  0  0
  -14.7537   -8.1208    4.9839 N   0  0  0  0  0  0  0  0  0  0  0  0
  -14.0742   -8.3367    4.1795 H   0  0  0  0  0  0  0  0  0  0  0  0
  -15.9813   -7.5372    4.6127 C   0  0  0  0  0  0  0  0  0  0  0  0
  -17.0293   -8.3658    4.2246 C   0  0  0  0  0  0  0  0  0  0  0  0
  -18.2194   -7.8156    3.7397 C   0  0  0  0  0  0  0  0  0  0  0  0
  -18.3641   -6.4560    3.6414 C   0  0  0  0  0  0  0  0  0  0  0  0
  -17.3574   -5.6179    4.0136 C   0  0  0  0  0  0  0  0  0  0  0  0
  -16.1489   -6.1733    4.5082 C   0  0  0  0  0  0  0  0  0  0  0  0
  -15.1407   -5.2531    4.9771 C   0  0  0  0  0  0  0  0  0  0  0  0
  -14.8137   -4.0533    4.1322 C   0  0  0  0  0  0  0  0  0  0  0  0
  -14.5187   -5.3677    6.0203 O   0  0  0  0  0  0  0  0  0  0  0  0
  -10.0283   -8.1636    8.1841 C   0  0  0  0  0  0  0  0  0  0  0  0
   -8.8873   -7.4016    8.1422 C   0  0  0  0  0  0  0  0  0  0  0  0
   -7.7319   -7.7976    7.4643 C   0  0  0  0  0  0  0  0  0  0  0  0
   -7.8147   -9.0102    6.8379 C   0  0  0  0  0  0  0  0  0  0  0  0
   -8.9761   -9.8000    6.8728 C   0  0  0  0  0  0  0  0  0  0  0  0
  -10.1026   -9.4111    7.5351 C   0  0  0  0  0  0  0  0  0  0  0  0
   -6.6123   -6.9507    7.4829 N   0  0  0  0  0  0  0  0  0  0  0  0
   -5.9815   -6.5962    8.7536 C   0  0  0  0  0  0  0  0  0  0  0  0
   -4.6325   -5.9592    8.4849 C   0  0  0  0  0  0  0  0  0  0  0  0
   -3.9362   -6.6224    7.3703 N   0  0  0  0  0  0  0  0  0  0  0  0
   -4.6509   -7.0125    6.1610 C   0  0  0  0  0  0  0  0  0  0  0  0
   -6.0510   -6.3999    6.2732 C   0  0  0  0  0  0  0  0  0  0  0  0
   -2.5552   -6.8968    7.4461 C   0  0  0  0  0  0  0  0  0  0  0  0
   -1.8059   -6.5119    8.6594 C   0  0  0  0  0  0  0  0  0  0  0  0
   -1.9635   -7.4576    6.5052 O   0  0  0  0  0  0  0  0  0  0  0  0
  -11.2002   -6.3950    9.3247 C   0  0  0  0  0  0  0  0  0  0  0  0
  -11.1649   -7.7295    8.8753 O   0  0  0  0  0  0  0  0  0  0  0  0
 36 37  1  0  0  0
 37 21  1  0  0  0
 21 22  2  0  0  0
 22 23  1  0  0  0
 23 24  2  0  0  0
 24 25  1  0  0  0
 25 26  2  0  0  0
 26  1  1  0  0  0
  1  3  1  0  0  0
  3  4  2  0  0  0
  4  5  1  0  0  0
  5  6  2  0  0  0
  6  7  1  0  0  0
  6  8  1  0  0  0
  8 10  1  0  0  0
 10 12  1  0  0  0
 12 13  2  0  0  0
 13 14  1  0  0  0
 14 15  2  0  0  0
 15 16  1  0  0  0
 16 17  2  0  0  0
 17 18  1  0  0  0
 18 19  1  0  0  0
 18 20  2  0  0  0
  8  9  2  0  0  0
 23 27  1  0  0  0
 27 28  1  0  0  0
 28 29  1  0  0  0
 29 30  1  0  0  0
 30 31  1  0  0  0
 31 32  1  0  0  0
 30 33  1  0  0  0
 33 34  1  0  0  0
 33 35  2  0  0  0
 26 21  1  0  0  0
  9  3  1  0  0  0
 32 27  1  0  0  0
 17 12  1  0  0  0
  1  2  1  0  0  0
 10 11  1  0  0  0
M  END
> <minimizedAffinity>
-9.64711

> <CNNscore>
0.4177725911

> <CNNaffinity>
7.5589981079

> <CNN_VS>
3.1579422951

> <CNNaffinity_variance>
0.1190844327

$$$$
[H]c1nc(N([H])c2c([H])c([H])c(N3C([H])([H])C([H])([H])N(C(=O)C([H])([H])[H])C([H])([H])C3([H])[H])c([H])c2OC([H])([H])[H])nc(N([H])c2c([H])c([H])c([H])c([H])c2C(=O)C([H])([H])[H])c1Cl


 37 40  0  0  0  0  0  0  0  0999 V2000
  -11.1896  -10.0295    7.6478 N   0  0  0  0  0  0  0  0  0  0  0  0
  -11.1640  -11.1059    7.7812 H   0  0  0  0  0  0  0  0  0  0  0  0
  -12.4787   -9.4537    7.6197 C   0  0  0  0  0  0  0  0  0  0  0  0
  -13.3093   -9.2946    8.6452 N   0  0  0  0  0  0  0  0  0  0  0  0
  -14.5161   -8.7464    8.5699 C   0  0  0  0  0  0  0  0  0  0  0  0
  -14.9786   -8.2953    7.3528 C   0  0  0  0  0  0  0  0  0  0  0  0
  -16.5803   -7.5631    7.2310 Cl  0  0  0  0  0  0  0  0  0  0  0  0
  -14.1593   -8.4335    6.2486 C   0  0  0  0  0  0  0  0  0  0  0  0
  -12.9828   -8.9903    6.4322 N   0  0  0  0  0  0  0  0  0  0  0  0
  -14.6186   -8.0166    4.9989 N   0  0  0  0  0  0  0  0  0  0  0  0
  -14.6536   -8.8023    4.2661 H   0  0  0  0  0  0  0  0  0  0  0  0
  -15.0966   -6.7600    4.5771 C   0  0  0  0  0  0  0  0  0  0  0  0
  -14.2815   -5.6435    4.7344 C   0  0  0  0  0  0  0  0  0  0  0  0
  -14.7691   -4.3681    4.4351 C   0  0  0  0  0  0  0  0  0  0  0  0
  -16.0538   -4.2058    3.9852 C   0  0  0  0  0  0  0  0  0  0  0  0
  -16.8765   -5.2783    3.8201 C   0  0  0  0  0  0  0  0  0  0  0  0
  -16.3838   -6.5746    4.1210 C   0  0  0  0  0  0  0  0  0  0  0  0
  -17.2537   -7.6934    3.8476 C   0  0  0  0  0  0  0  0  0  0  0  0
  -18.7268   -7.5381    4.1046 C   0  0  0  0  0  0  0  0  0  0  0  0
  -16.8890   -8.7754    3.4178 O   0  0  0  0  0  0  0  0  0  0  0  0
   -9.8854   -8.0817    8.1575 C   0  0  0  0  0  0  0  0  0  0  0  0
   -8.7423   -7.3245    8.0915 C   0  0  0  0  0  0  0  0  0  0  0  0
   -7.5993   -7.7304    7.3986 C   0  0  0  0  0  0  0  0  0  0  0  0
   -7.6966   -8.9476    6.7832 C   0  0  0  0  0  0  0  0  0  0  0  0
   -8.8604   -9.7324    6.8427 C   0  0  0  0  0  0  0  0  0  0  0  0
   -9.9747   -9.3339    7.5197 C   0  0  0  0  0  0  0  0  0  0  0  0
   -6.4764   -6.8878    7.3928 N   0  0  0  0  0  0  0  0  0  0  0  0
   -5.8340   -6.5126    8.6517 C   0  0  0  0  0  0  0  0  0  0  0  0
   -4.4848   -5.8861    8.3607 C   0  0  0  0  0  0  0  0  0  0  0  0
   -3.8000   -6.5723    7.2529 N   0  0  0  0  0  0  0  0  0  0  0  0
   -4.5258   -6.9816    6.0567 C   0  0  0  0  0  0  0  0  0  0  0  0
   -5.9226   -6.3614    6.1687 C   0  0  0  0  0  0  0  0  0  0  0  0
   -2.4195   -6.8508    7.3228 C   0  0  0  0  0  0  0  0  0  0  0  0
   -1.6590   -6.4468    8.5228 C   0  0  0  0  0  0  0  0  0  0  0  0
   -1.8375   -7.4311    6.3876 O   0  0  0  0  0  0  0  0  0  0  0  0
  -11.0354   -6.2977    9.2964 C   0  0  0  0  0  0  0  0  0  0  0  0
  -11.0093   -7.6377    8.8631 O   0  0  0  0  0  0  0  0  0  0  0  0
 36 37  1  0  0  0
 37 21  1  0  0  0
 21 22  2  0  0  0
 22 23  1  0  0  0
 23 24  2  0  0  0
 24 25  1  0  0  0
 25 26  2  0  0  0
 26  1  1  0  0  0
  1  3  1  0  0  0
  3  4  2  0  0  0
  4  5  1  0  0  0
  5  6  2  0  0  0
  6  7  1  0  0  0
  6  8  1  0  0  0
  8 10  1  0  0  0
 10 12  1  0  0  0
 12 13  2  0  0  0
 13 14  1  0  0  0
 14 15  2  0  0  0
 15 16  1  0  0  0
 16 17  2  0  0  0
 17 18  1  0  0  0
 18 19  1  0  0  0
 18 20  2  0  0  0
  8  9  2  0  0  0
 23 27  1  0  0  0
 27 28  1  0  0  0
 28 29  1  0  0  0
 29 30  1  0  0  0
 30 31  1  0  0  0
 31 32  1  0  0  0
 30 33  1  0  0  0
 33 34  1  0  0  0
 33 35  2  0  0  0
 26 21  1  0  0  0
  9  3  1  0  0  0
 32 27  1  0  0  0
 17 12  1  0  0  0
  1  2  1  0  0  0
 10 11  1  0  0  0
M  END
> <minimizedAffinity>
-9.40971

> <CNNscore>
0.3661601543

> <CNNaffinity>
7.5019750595

> <CNN_VS>
2.7469244003

> <CNNaffinity_variance>
0.1249206811

$$$$
[H]c1nc(N([H])c2c([H])c([H])c(N3C([H])([H])C([H])([H])N(C(=O)C([H])([H])[H])C([H])([H])C3([H])[H])c([H])c2OC([H])([H])[H])nc(N([H])c2c([H])c([H])c([H])c([H])c2C(=O)C([H])([H])[H])c1Cl


 37 40  0  0  0  0  0  0  0  0999 V2000
   -8.9795   -8.4034    6.6857 N   0  0  0  0  0  0  0  0  0  0  0  0
   -9.8128   -7.7087    6.6916 H   0  0  0  0  0  0  0  0  0  0  0  0
   -9.3194   -9.7543    6.4533 C   0  0  0  0  0  0  0  0  0  0  0  0
  -10.3410  -10.4261    6.9746 N   0  0  0  0  0  0  0  0  0  0  0  0
  -10.6212  -11.6997    6.7262 C   0  0  0  0  0  0  0  0  0  0  0  0
   -9.8144  -12.4139    5.8672 C   0  0  0  0  0  0  0  0  0  0  0  0
  -10.1695  -14.1086    5.5233 Cl  0  0  0  0  0  0  0  0  0  0  0  0
   -8.7353  -11.7689    5.2934 C   0  0  0  0  0  0  0  0  0  0  0  0
   -8.5470  -10.5062    5.6065 N   0  0  0  0  0  0  0  0  0  0  0  0
   -7.8833  -12.4798    4.4478 N   0  0  0  0  0  0  0  0  0  0  0  0
   -7.0737  -12.9679    4.9594 H   0  0  0  0  0  0  0  0  0  0  0  0
   -7.9586  -12.7051    3.0589 C   0  0  0  0  0  0  0  0  0  0  0  0
   -8.2804  -11.6414    2.2220 C   0  0  0  0  0  0  0  0  0  0  0  0
   -8.4775  -11.8559    0.8548 C   0  0  0  0  0  0  0  0  0  0  0  0
   -8.3567  -13.1152    0.3270 C   0  0  0  0  0  0  0  0  0  0  0  0
   -8.0422  -14.1772    1.1192 C   0  0  0  0  0  0  0  0  0  0  0  0
   -7.8393  -13.9623    2.5072 C   0  0  0  0  0  0  0  0  0  0  0  0
   -7.4191  -15.0943    3.2978 C   0  0  0  0  0  0  0  0  0  0  0  0
   -6.5741  -16.1529    2.6454 C   0  0  0  0  0  0  0  0  0  0  0  0
   -7.6965  -15.2695    4.4729 O   0  0  0  0  0  0  0  0  0  0  0  0
   -7.5759   -6.5892    7.3880 C   0  0  0  0  0  0  0  0  0  0  0  0
   -6.3542   -6.0128    7.6322 C   0  0  0  0  0  0  0  0  0  0  0  0
   -5.1434   -6.6771    7.4224 C   0  0  0  0  0  0  0  0  0  0  0  0
   -5.2583   -7.9559    6.9521 C   0  0  0  0  0  0  0  0  0  0  0  0
   -6.5021   -8.5577    6.6979 C   0  0  0  0  0  0  0  0  0  0  0  0
   -7.6824   -7.9070    6.9034 C   0  0  0  0  0  0  0  0  0  0  0  0
   -3.9443   -6.0045    7.7062 N   0  0  0  0  0  0  0  0  0  0  0  0
   -3.3739   -5.0776    6.7295 C   0  0  0  0  0  0  0  0  0  0  0  0
   -2.2877   -4.2541    7.3925 C   0  0  0  0  0  0  0  0  0  0  0  0
   -2.6563   -3.8846    8.7690 N   0  0  0  0  0  0  0  0  0  0  0  0
   -3.2902   -4.8460    9.6630 C   0  0  0  0  0  0  0  0  0  0  0  0
   -3.2342   -6.1998    8.9470 C   0  0  0  0  0  0  0  0  0  0  0  0
   -2.4035   -2.5864    9.2576 C   0  0  0  0  0  0  0  0  0  0  0  0
   -1.7618   -1.5920    8.3737 C   0  0  0  0  0  0  0  0  0  0  0  0
   -2.7141   -2.2708   10.4212 O   0  0  0  0  0  0  0  0  0  0  0  0
   -9.5528   -6.2515    8.7223 C   0  0  0  0  0  0  0  0  0  0  0  0
   -8.7660   -5.8881    7.6118 O   0  0  0  0  0  0  0  0  0  0  0  0
 36 37  1  0  0  0
 37 21  1  0  0  0
 21 22  2  0  0  0
 22 23  1  0  0  0
 23 24  2  0  0  0
 24 25  1  0  0  0
 25 26  2  0  0  0
 26  1  1  0  0  0
  1  3  1  0  0  0
  3  4  2  0  0  0
  4  5  1  0  0  0
  5  6  2  0  0  0
  6  7  1  0  0  0
  6  8  1  0  0  0
  8 10  1  0  0  0
 10 12  1  0  0  0
 12 13  2  0  0  0
 13 14  1  0  0  0
 14 15  2  0  0  0
 15 16  1  0  0  0
 16 17  2  0  0  0
 17 18  1  0  0  0
 18 19  1  0  0  0
 18 20  2  0  0  0
  8  9  2  0  0  0
 23 27  1  0  0  0
 27 28  1  0  0  0
 28 29  1  0  0  0
 29 30  1  0  0  0
 30 31  1  0  0  0
 31 32  1  0  0  0
 30 33  1  0  0  0
 33 34  1  0  0  0
 33 35  2  0  0  0
 26 21  1  0  0  0
  9  3  1  0  0  0
 32 27  1  0  0  0
 17 12  1  0  0  0
  1  2  1  0  0  0
 10 11  1  0  0  0
M  END
> <minimizedAffinity>
14.85869

> <CNNscore>
0.3609178364

> <CNNaffinity>
6.3735179901

> <CNN_VS>
2.3003163338

> <CNNaffinity_variance>
0.2057411224

$$$$
[H]c1nc(N([H])c2c([H])c([H])c(N3C([H])([H])C([H])([H])N(C(=O)C([H])([H])[H])C([H])([H])C3([H])[H])c([H])c2OC([H])([H])[H])nc(N([H])c2c([H])c([H])c([H])c([H])c2C(=O)C([H])([H])[H])c1Cl


 37 40  0  0  0  0  0  0  0  0999 V2000
   -6.1526   -7.2507    8.6106 N   0  0  0  0  0  0  0  0  0  0  0  0
   -5.8977   -7.3374    9.6616 H   0  0  0  0  0  0  0  0  0  0  0  0
   -7.2794   -7.9953    8.1978 C   0  0  0  0  0  0  0  0  0  0  0  0
   -7.3196   -9.2889    7.8951 N   0  0  0  0  0  0  0  0  0  0  0  0
   -8.4060   -9.9475    7.5098 C   0  0  0  0  0  0  0  0  0  0  0  0
   -9.6029   -9.2731    7.4036 C   0  0  0  0  0  0  0  0  0  0  0  0
  -11.0594  -10.1302    6.8932 Cl  0  0  0  0  0  0  0  0  0  0  0  0
   -9.6241   -7.9247    7.7055 C   0  0  0  0  0  0  0  0  0  0  0  0
   -8.4926   -7.3686    8.0772 N   0  0  0  0  0  0  0  0  0  0  0  0
  -10.8160   -7.2119    7.5721 N   0  0  0  0  0  0  0  0  0  0  0  0
  -11.1134   -7.0526    6.5514 H   0  0  0  0  0  0  0  0  0  0  0  0
  -11.7065   -6.7347    8.5542 C   0  0  0  0  0  0  0  0  0  0  0  0
  -11.2024   -5.9797    9.6085 C   0  0  0  0  0  0  0  0  0  0  0  0
  -12.0388   -5.5910   10.6590 C   0  0  0  0  0  0  0  0  0  0  0  0
  -13.3616   -5.9505   10.6604 C   0  0  0  0  0  0  0  0  0  0  0  0
  -13.8857   -6.6886    9.6430 C   0  0  0  0  0  0  0  0  0  0  0  0
  -13.0397   -7.0829    8.5741 C   0  0  0  0  0  0  0  0  0  0  0  0
  -13.6505   -7.7855    7.4711 C   0  0  0  0  0  0  0  0  0  0  0  0
  -14.4901   -8.9970    7.7671 C   0  0  0  0  0  0  0  0  0  0  0  0
  -13.5415   -7.4748    6.2964 O   0  0  0  0  0  0  0  0  0  0  0  0
   -4.4976   -5.5236    8.4301 C   0  0  0  0  0  0  0  0  0  0  0  0
   -3.6846   -4.6798    7.7150 C   0  0  0  0  0  0  0  0  0  0  0  0
   -3.6517   -4.6564    6.3186 C   0  0  0  0  0  0  0  0  0  0  0  0
   -4.4937   -5.5416    5.7045 C   0  0  0  0  0  0  0  0  0  0  0  0
   -5.3309   -6.4105    6.4243 C   0  0  0  0  0  0  0  0  0  0  0  0
   -5.3612   -6.4312    7.7872 C   0  0  0  0  0  0  0  0  0  0  0  0
   -2.7824   -3.7601    5.6770 N   0  0  0  0  0  0  0  0  0  0  0  0
   -2.3467   -4.0157    4.3046 C   0  0  0  0  0  0  0  0  0  0  0  0
   -1.6979   -2.7666    3.7422 C   0  0  0  0  0  0  0  0  0  0  0  0
   -2.4060   -1.5505    4.1742 N   0  0  0  0  0  0  0  0  0  0  0  0
   -2.8756   -1.3994    5.5461 C   0  0  0  0  0  0  0  0  0  0  0  0
   -2.2865   -2.5747    6.3335 C   0  0  0  0  0  0  0  0  0  0  0  0
   -2.6477   -0.4982    3.2673 C   0  0  0  0  0  0  0  0  0  0  0  0
   -2.1825   -0.6242    1.8711 C   0  0  0  0  0  0  0  0  0  0  0  0
   -3.2464    0.5315    3.6297 O   0  0  0  0  0  0  0  0  0  0  0  0
   -4.1427   -4.3217   10.4872 C   0  0  0  0  0  0  0  0  0  0  0  0
   -4.4998   -5.5149    9.8294 O   0  0  0  0  0  0  0  0  0  0  0  0
 36 37  1  0  0  0
 37 21  1  0  0  0
 21 22  2  0  0  0
 22 23  1  0  0  0
 23 24  2  0  0  0
 24 25  1  0  0  0
 25 26  2  0  0  0
 26  1  1  0  0  0
  1  3  1  0  0  0
  3  4  2  0  0  0
  4  5  1  0  0  0
  5  6  2  0  0  0
  6  7  1  0  0  0
  6  8  1  0  0  0
  8 10  1  0  0  0
 10 12  1  0  0  0
 12 13  2  0  0  0
 13 14  1  0  0  0
 14 15  2  0  0  0
 15 16  1  0  0  0
 16 17  2  0  0  0
 17 18  1  0  0  0
 18 19  1  0  0  0
 18 20  2  0  0  0
  8  9  2  0  0  0
 23 27  1  0  0  0
 27 28  1  0  0  0
 28 29  1  0  0  0
 29 30  1  0  0  0
 30 31  1  0  0  0
 31 32  1  0  0  0
 30 33  1  0  0  0
 33 34  1  0  0  0
 33 35  2  0  0  0
 26 21  1  0  0  0
  9  3  1  0  0  0
 32 27  1  0  0  0
 17 12  1  0  0  0
  1  2  1  0  0  0
 10 11  1  0  0  0
M  END
> <minimizedAffinity>
-8.33964

> <CNNscore>
0.3495779335

> <CNNaffinity>
6.7199807167

> <CNN_VS>
2.3491568565

> <CNNaffinity_variance>
0.0882103220

$$$$
[H]c1nc(N([H])c2c([H])c([H])c(N3C([H])([H])C([H])([H])N(C(=O)C([H])([H])[H])C([H])([H])C3([H])[H])c([H])c2OC([H])([H])[H])nc(N([H])c2c([H])c([H])c([H])c([H])c2C(=O)C([H])([H])[H])c1Cl


 37 40  0  0  0  0  0  0  0  0999 V2000
   -4.3623   -5.6070    6.4802 N   0  0  0  0  0  0  0  0  0  0  0  0
   -3.8109   -4.8814    5.8916 H   0  0  0  0  0  0  0  0  0  0  0  0
   -4.2600   -5.4537    7.8804 C   0  0  0  0  0  0  0  0  0  0  0  0
   -4.9335   -6.1207    8.8122 N   0  0  0  0  0  0  0  0  0  0  0  0
   -4.8037   -5.9409   10.1211 C   0  0  0  0  0  0  0  0  0  0  0  0
   -3.9123   -4.9998   10.5888 C   0  0  0  0  0  0  0  0  0  0  0  0
   -3.7243   -4.7452   12.3255 Cl  0  0  0  0  0  0  0  0  0  0  0  0
   -3.1824   -4.2738    9.6669 C   0  0  0  0  0  0  0  0  0  0  0  0
   -3.3870   -4.5300    8.3940 N   0  0  0  0  0  0  0  0  0  0  0  0
   -2.2991   -3.2909   10.1142 N   0  0  0  0  0  0  0  0  0  0  0  0
   -1.2928   -3.6430   10.2518 H   0  0  0  0  0  0  0  0  0  0  0  0
   -2.5073   -1.9167   10.3459 C   0  0  0  0  0  0  0  0  0  0  0  0
   -2.6385   -1.4685   11.6564 C   0  0  0  0  0  0  0  0  0  0  0  0
   -2.9616   -0.1332   11.9148 C   0  0  0  0  0  0  0  0  0  0  0  0
   -3.1530    0.7456   10.8803 C   0  0  0  0  0  0  0  0  0  0  0  0
   -3.0313    0.3384    9.5865 C   0  0  0  0  0  0  0  0  0  0  0  0
   -2.7012   -1.0160    9.3210 C   0  0  0  0  0  0  0  0  0  0  0  0
   -2.4920   -1.3883    7.9424 C   0  0  0  0  0  0  0  0  0  0  0  0
   -1.0953   -1.3389    7.3884 C   0  0  0  0  0  0  0  0  0  0  0  0
   -3.3684   -1.7464    7.1729 O   0  0  0  0  0  0  0  0  0  0  0  0
   -4.7556   -7.9384    6.0744 C   0  0  0  0  0  0  0  0  0  0  0  0
   -5.4172   -8.9796    5.4724 C   0  0  0  0  0  0  0  0  0  0  0  0
   -6.4670   -8.7942    4.5696 C   0  0  0  0  0  0  0  0  0  0  0  0
   -6.7954   -7.4900    4.3231 C   0  0  0  0  0  0  0  0  0  0  0  0
   -6.1264   -6.4151    4.9322 C   0  0  0  0  0  0  0  0  0  0  0  0
   -5.1021   -6.5988    5.8130 C   0  0  0  0  0  0  0  0  0  0  0  0
   -7.0851   -9.9232    4.0091 N   0  0  0  0  0  0  0  0  0  0  0  0
   -8.5412  -10.0540    4.0403 C   0  0  0  0  0  0  0  0  0  0  0  0
   -8.9663  -11.1670    3.1033 C   0  0  0  0  0  0  0  0  0  0  0  0
   -8.1598  -11.1719    1.8718 N   0  0  0  0  0  0  0  0  0  0  0  0
   -6.7179  -10.9613    1.9148 C   0  0  0  0  0  0  0  0  0  0  0  0
   -6.3245  -10.9849    3.3957 C   0  0  0  0  0  0  0  0  0  0  0  0
   -8.7656  -11.3815    0.6159 C   0  0  0  0  0  0  0  0  0  0  0  0
  -10.2249  -11.5980    0.5428 C   0  0  0  0  0  0  0  0  0  0  0  0
   -8.0862  -11.3861   -0.4274 O   0  0  0  0  0  0  0  0  0  0  0  0
   -2.3888   -7.9741    6.5209 C   0  0  0  0  0  0  0  0  0  0  0  0
   -3.7084   -8.1681    6.9738 O   0  0  0  0  0  0  0  0  0  0  0  0
 36 37  1  0  0  0
 37 21  1  0  0  0
 21 22  2  0  0  0
 22 23  1  0  0  0
 23 24  2  0  0  0
 24 25  1  0  0  0
 25 26  2  0  0  0
 26  1  1  0  0  0
  1  3  1  0  0  0
  3  4  2  0  0  0
  4  5  1  0  0  0
  5  6  2  0  0  0
  6  7  1  0  0  0
  6  8  1  0  0  0
  8 10  1  0  0  0
 10 12  1  0  0  0
 12 13  2  0  0  0
 13 14  1  0  0  0
 14 15  2  0  0  0
 15 16  1  0  0  0
 16 17  2  0  0  0
 17 18  1  0  0  0
 18 19  1  0  0  0
 18 20  2  0  0  0
  8  9  2  0  0  0
 23 27  1  0  0  0
 27 28  1  0  0  0
 28 29  1  0  0  0
 29 30  1  0  0  0
 30 31  1  0  0  0
 31 32  1  0  0  0
 30 33  1  0  0  0
 33 34  1  0  0  0
 33 35  2  0  0  0
 26 21  1  0  0  0
  9  3  1  0  0  0
 32 27  1  0  0  0
 17 12  1  0  0  0
  1  2  1  0  0  0
 10 11  1  0  0  0
M  END
> <minimizedAffinity>
20.75198

> <CNNscore>
0.3342747986

> <CNNaffinity>
6.0352129936

> <CNN_VS>
2.0174195766

> <CNNaffinity_variance>
0.9120103717

$$$$
[H]c1nc(N([H])c2c([H])c([H])c(N3C([H])([H])C([H])([H])N(C(=O)C([H])([H])[H])C([H])([H])C3([H])[H])c([H])c2OC([H])([H])[H])nc(N([H])c2c([H])c([H])c([H])c([H])c2C(=O)C([H])([H])[H])c1Cl


 37 40  0  0  0  0  0  0  0  0999 V2000
   -5.6419   -5.9387    6.8098 N   0  0  0  0  0  0  0  0  0  0  0  0
   -5.5930   -5.5189    5.8107 H   0  0  0  0  0  0  0  0  0  0  0  0
   -6.5851   -6.9750    6.9854 C   0  0  0  0  0  0  0  0  0  0  0  0
   -6.3342   -8.2714    7.1374 N   0  0  0  0  0  0  0  0  0  0  0  0
   -7.2570   -9.2120    7.2991 C   0  0  0  0  0  0  0  0  0  0  0  0
   -8.5882   -8.8565    7.3164 C   0  0  0  0  0  0  0  0  0  0  0  0
   -9.8312  -10.0917    7.5304 Cl  0  0  0  0  0  0  0  0  0  0  0  0
   -8.9120   -7.5219    7.1629 C   0  0  0  0  0  0  0  0  0  0  0  0
   -7.9216   -6.6714    7.0094 N   0  0  0  0  0  0  0  0  0  0  0  0
  -10.2540   -7.1410    7.1418 N   0  0  0  0  0  0  0  0  0  0  0  0
  -10.6839   -7.1240    6.1567 H   0  0  0  0  0  0  0  0  0  0  0  0
  -11.1331   -6.8440    8.2021 C   0  0  0  0  0  0  0  0  0  0  0  0
  -10.6349   -6.1921    9.3256 C   0  0  0  0  0  0  0  0  0  0  0  0
  -11.4522   -5.9877   10.4412 C   0  0  0  0  0  0  0  0  0  0  0  0
  -12.7503   -6.4281   10.4386 C   0  0  0  0  0  0  0  0  0  0  0  0
  -13.2681   -7.0690    9.3544 C   0  0  0  0  0  0  0  0  0  0  0  0
  -12.4416   -7.2761    8.2196 C   0  0  0  0  0  0  0  0  0  0  0  0
  -13.0512   -7.8771    7.0575 C   0  0  0  0  0  0  0  0  0  0  0  0
  -14.0734   -7.0847    6.2911 C   0  0  0  0  0  0  0  0  0  0  0  0
  -12.8036   -8.9948    6.6358 O   0  0  0  0  0  0  0  0  0  0  0  0
   -3.8165   -4.4944    7.3899 C   0  0  0  0  0  0  0  0  0  0  0  0
   -2.9353   -3.9364    8.2824 C   0  0  0  0  0  0  0  0  0  0  0  0
   -2.9345   -4.2445    9.6449 C   0  0  0  0  0  0  0  0  0  0  0  0
   -3.8820   -5.1500   10.0347 C   0  0  0  0  0  0  0  0  0  0  0  0
   -4.7897   -5.7286    9.1317 C   0  0  0  0  0  0  0  0  0  0  0  0
   -4.7883   -5.4262    7.8023 C   0  0  0  0  0  0  0  0  0  0  0  0
   -1.9960   -3.6177   10.4800 N   0  0  0  0  0  0  0  0  0  0  0  0
   -1.9407   -2.1584   10.5561 C   0  0  0  0  0  0  0  0  0  0  0  0
   -1.0923   -1.7486   11.7435 C   0  0  0  0  0  0  0  0  0  0  0  0
   -1.3214   -2.6308   12.8994 N   0  0  0  0  0  0  0  0  0  0  0  0
   -1.4384   -4.0745   12.7337 C   0  0  0  0  0  0  0  0  0  0  0  0
   -1.0603   -4.3717   11.2786 C   0  0  0  0  0  0  0  0  0  0  0  0
   -1.4334   -2.0980   14.2000 C   0  0  0  0  0  0  0  0  0  0  0  0
   -1.3184   -0.6387   14.3973 C   0  0  0  0  0  0  0  0  0  0  0  0
   -1.6273   -2.8416   15.1796 O   0  0  0  0  0  0  0  0  0  0  0  0
   -3.6212   -2.8019    5.6870 C   0  0  0  0  0  0  0  0  0  0  0  0
   -3.7834   -4.1579    6.0320 O   0  0  0  0  0  0  0  0  0  0  0  0
 36 37  1  0  0  0
 37 21  1  0  0  0
 21 22  2  0  0  0
 22 23  1  0  0  0
 23 24  2  0  0  0
 24 25  1  0  0  0
 25 26  2  0  0  0
 26  1  1  0  0  0
  1  3  1  0  0  0
  3  4  2  0  0  0
  4  5  1  0  0  0
  5  6  2  0  0  0
  6  7  1  0  0  0
  6  8  1  0  0  0
  8 10  1  0  0  0
 10 12  1  0  0  0
 12 13  2  0  0  0
 13 14  1  0  0  0
 14 15  2  0  0  0
 15 16  1  0  0  0
 16 17  2  0  0  0
 17 18  1  0  0  0
 18 19  1  0  0  0
 18 20  2  0  0  0
  8  9  2  0  0  0
 23 27  1  0  0  0
 27 28  1  0  0  0
 28 29  1  0  0  0
 29 30  1  0  0  0
 30 31  1  0  0  0
 31 32  1  0  0  0
 30 33  1  0  0  0
 33 34  1  0  0  0
 33 35  2  0  0  0
 26 21  1  0  0  0
  9  3  1  0  0  0
 32 27  1  0  0  0
 17 12  1  0  0  0
  1  2  1  0  0  0
 10 11  1  0  0  0
M  END
> <minimizedAffinity>
-6.98540

> <CNNscore>
0.3169908524

> <CNNaffinity>
6.3938364983

> <CNN_VS>
2.0267877579

> <CNNaffinity_variance>
0.1750384271

$$$$
[H]c1nc(N([H])c2c([H])c([H])c(N3C([H])([H])C([H])([H])N(C(=O)C([H])([H])[H])C([H])([H])C3([H])[H])c([H])c2OC([H])([H])[H])nc(N([H])c2c([H])c([H])c([H])c([H])c2C(=O)C([H])([H])[H])c1Cl


 37 40  0  0  0  0  0  0  0  0999 V2000
   -7.9295   -7.5358    8.5909 N   0  0  0  0  0  0  0  0  0  0  0  0
   -7.5537   -7.9164    9.5349 H   0  0  0  0  0  0  0  0  0  0  0  0
   -6.9495   -7.0280    7.7100 C   0  0  0  0  0  0  0  0  0  0  0  0
   -7.0362   -6.9221    6.3879 N   0  0  0  0  0  0  0  0  0  0  0  0
   -6.0852   -6.4372    5.5987 C   0  0  0  0  0  0  0  0  0  0  0  0
   -4.9030   -5.9998    6.1554 C   0  0  0  0  0  0  0  0  0  0  0  0
   -3.6257   -5.3513    5.1237 Cl  0  0  0  0  0  0  0  0  0  0  0  0
   -4.7537   -6.0847    7.5266 C   0  0  0  0  0  0  0  0  0  0  0  0
   -5.7567   -6.5808    8.2162 N   0  0  0  0  0  0  0  0  0  0  0  0
   -3.5527   -5.6810    8.1107 N   0  0  0  0  0  0  0  0  0  0  0  0
   -2.6840   -6.1438    7.6788 H   0  0  0  0  0  0  0  0  0  0  0  0
   -3.3054   -4.7274    9.1181 C   0  0  0  0  0  0  0  0  0  0  0  0
   -3.6117   -5.0481   10.4368 C   0  0  0  0  0  0  0  0  0  0  0  0
   -3.4883   -4.0850   11.4425 C   0  0  0  0  0  0  0  0  0  0  0  0
   -3.0656   -2.8169   11.1387 C   0  0  0  0  0  0  0  0  0  0  0  0
   -2.7575   -2.4716    9.8579 C   0  0  0  0  0  0  0  0  0  0  0  0
   -2.8797   -3.4476    8.8352 C   0  0  0  0  0  0  0  0  0  0  0  0
   -2.4581   -3.0712    7.5071 C   0  0  0  0  0  0  0  0  0  0  0  0
   -3.2891   -2.0777    6.7437 C   0  0  0  0  0  0  0  0  0  0  0  0
   -1.4663   -3.4986    6.9397 O   0  0  0  0  0  0  0  0  0  0  0  0
   -9.8055   -8.7291    7.6902 C   0  0  0  0  0  0  0  0  0  0  0  0
  -11.1403   -8.8710    7.4030 C   0  0  0  0  0  0  0  0  0  0  0  0
  -12.0962   -7.9067    7.7312 C   0  0  0  0  0  0  0  0  0  0  0  0
  -11.6071   -6.7987    8.3658 C   0  0  0  0  0  0  0  0  0  0  0  0
  -10.2435   -6.6408    8.6655 C   0  0  0  0  0  0  0  0  0  0  0  0
   -9.3126   -7.5835    8.3439 C   0  0  0  0  0  0  0  0  0  0  0  0
  -13.4395   -8.1449    7.3998 N   0  0  0  0  0  0  0  0  0  0  0  0
  -14.4851   -7.2431    7.8811 C   0  0  0  0  0  0  0  0  0  0  0  0
  -15.7731   -7.5211    7.1318 C   0  0  0  0  0  0  0  0  0  0  0  0
  -15.5180   -7.8113    5.7114 N   0  0  0  0  0  0  0  0  0  0  0  0
  -14.4079   -8.6641    5.3043 C   0  0  0  0  0  0  0  0  0  0  0  0
  -13.8385   -9.2712    6.5909 C   0  0  0  0  0  0  0  0  0  0  0  0
  -16.3452   -7.2691    4.7065 C   0  0  0  0  0  0  0  0  0  0  0  0
  -17.4777   -6.4021    5.0904 C   0  0  0  0  0  0  0  0  0  0  0  0
  -16.1320   -7.5126    3.5043 O   0  0  0  0  0  0  0  0  0  0  0  0
   -9.3408  -10.8339    6.6147 C   0  0  0  0  0  0  0  0  0  0  0  0
   -8.8802   -9.7201    7.3437 O   0  0  0  0  0  0  0  0  0  0  0  0
 36 37  1  0  0  0
 37 21  1  0  0  0
 21 22  2  0  0  0
 22 23  1  0  0  0
 23 24  2  0  0  0
 24 25  1  0  0  0
 25 26  2  0  0  0
 26  1  1  0  0  0
  1  3  1  0  0  0
  3  4  2  0  0  0
  4  5  1  0  0  0
  5  6  2  0  0  0
  6  7  1  0  0  0
  6  8  1  0  0  0
  8 10  1  0  0  0
 10 12  1  0  0  0
 12 13  2  0  0  0
 13 14  1  0  0  0
 14 15  2  0  0  0
 15 16  1  0  0  0
 16 17  2  0  0  0
 17 18  1  0  0  0
 18 19  1  0  0  0
 18 20  2  0  0  0
  8  9  2  0  0  0
 23 27  1  0  0  0
 27 28  1  0  0  0
 28 29  1  0  0  0
 29 30  1  0  0  0
 30 31  1  0  0  0
 31 32  1  0  0  0
 30 33  1  0  0  0
 33 34  1  0  0  0
 33 35  2  0  0  0
 26 21  1  0  0  0
  9  3  1  0  0  0
 32 27  1  0  0  0
 17 12  1  0  0  0
  1  2  1  0  0  0
 10 11  1  0  0  0
M  END
> <minimizedAffinity>
-7.61205

> <CNNscore>
0.3090372384

> <CNNaffinity>
7.2613387108

> <CNN_VS>
2.2440240383

> <CNNaffinity_variance>
0.0303879436

$$$$
[H]c1nc([H])c(-c2c([H])c3nc(N([H])C(=O)N([H])C([H])([H])C([H])([H])[H])sc3n(C3([H])C([H])([H])C([H])([H])C([H])([H])C3([H])[H])c2=O)c([H])c1[H]


 29 32  0  0  0  0  0  0  0  0999 V2000
   -9.0531  -11.0664    5.5811 C   0  0  0  0  0  0  0  0  0  0  0  0
  -10.1053  -10.6821    6.2813 N   0  0  0  0  0  0  0  0  0  0  0  0
  -10.0763   -9.5751    6.9579 C   0  0  0  0  0  0  0  0  0  0  0  0
  -11.1265   -9.0489    7.7446 C   0  0  0  0  0  0  0  0  0  0  0  0
  -10.9300   -7.8562    8.4003 C   0  0  0  0  0  0  0  0  0  0  0  0
   -9.7610   -7.1359    8.3371 C   0  0  0  0  0  0  0  0  0  0  0  0
   -9.6344   -6.0801    8.9390 O   0  0  0  0  0  0  0  0  0  0  0  0
   -8.7639   -7.6479    7.5824 N   0  0  0  0  0  0  0  0  0  0  0  0
   -8.9243   -8.8333    6.9151 C   0  0  0  0  0  0  0  0  0  0  0  0
   -7.9477   -9.7978    5.8868 S   0  0  0  0  0  0  0  0  0  0  0  0
   -8.2866  -13.4095    2.7124 N   0  0  0  0  0  0  0  0  0  0  0  0
   -8.4254  -12.2083    3.4565 C   0  0  0  0  0  0  0  0  0  0  0  0
   -8.1381  -11.0868    2.9589 O   0  0  0  0  0  0  0  0  0  0  0  0
   -8.8898  -12.2518    4.7715 N   0  0  0  0  0  0  0  0  0  0  0  0
   -8.5332  -14.3191    3.1546 H   0  0  0  0  0  0  0  0  0  0  0  0
   -9.1381  -13.1578    5.2197 H   0  0  0  0  0  0  0  0  0  0  0  0
   -8.9214  -13.7415    0.4039 C   0  0  0  0  0  0  0  0  0  0  0  0
   -7.8070  -13.3592    1.3556 C   0  0  0  0  0  0  0  0  0  0  0  0
  -12.0059   -7.2718    9.2286 C   0  0  0  0  0  0  0  0  0  0  0  0
  -11.9866   -5.9745    9.6798 C   0  0  0  0  0  0  0  0  0  0  0  0
  -13.0549   -5.5377   10.4562 C   0  0  0  0  0  0  0  0  0  0  0  0
  -14.1092   -6.3608   10.7751 C   0  0  0  0  0  0  0  0  0  0  0  0
  -14.1108   -7.6202   10.3268 N   0  0  0  0  0  0  0  0  0  0  0  0
  -13.0990   -8.0507    9.5855 C   0  0  0  0  0  0  0  0  0  0  0  0
   -7.4978   -7.0166    7.4224 C   0  0  0  0  0  0  0  0  0  0  0  0
   -7.1874   -6.6199    5.9927 C   0  0  0  0  0  0  0  0  0  0  0  0
   -5.6774   -6.8364    5.8093 C   0  0  0  0  0  0  0  0  0  0  0  0
   -5.1805   -6.9126    7.2605 C   0  0  0  0  0  0  0  0  0  0  0  0
   -6.3143   -7.7953    7.8212 C   0  0  0  0  0  0  0  0  0  0  0  0
 17 18  1  0  0  0
 18 11  1  0  0  0
 11 12  1  0  0  0
 12 13  2  0  0  0
 12 14  1  0  0  0
 14  1  1  0  0  0
  1  2  2  0  0  0
  2  3  1  0  0  0
  3  4  1  0  0  0
  4  5  2  0  0  0
  5 19  1  0  0  0
 19 20  2  0  0  0
 20 21  1  0  0  0
 21 22  2  0  0  0
 22 23  1  0  0  0
 23 24  2  0  0  0
  5  6  1  0  0  0
  6  7  2  0  0  0
  6  8  1  0  0  0
  8 25  1  0  0  0
 25 26  1  0  0  0
 26 27  1  0  0  0
 27 28  1  0  0  0
 28 29  1  0  0  0
  8  9  1  0  0  0
  9 10  1  0  0  0
 10  1  1  0  0  0
  9  3  2  0  0  0
 24 19  1  0  0  0
 29 25  1  0  0  0
 11 15  1  0  0  0
 14 16  1  0  0  0
M  END
> <minimizedAffinity>
3.23721

> <CNNscore>
0.6101230979

> <CNNaffinity>
6.6862916946

> <CNN_VS>
4.0794610977

> <CNNaffinity_variance>
0.4473382831

$$$$
[H]c1nc([H])c(-c2c([H])c3nc(N([H])C(=O)N([H])C([H])([H])C([H])([H])[H])sc3n(C3([H])C([H])([H])C([H])([H])C([H])([H])C3([H])[H])c2=O)c([H])c1[H]


 29 32  0  0  0  0  0  0  0  0999 V2000
   -7.0585   -9.7885    3.2861 C   0  0  0  0  0  0  0  0  0  0  0  0
   -6.0242   -9.2553    3.9114 N   0  0  0  0  0  0  0  0  0  0  0  0
   -6.1727   -8.7053    5.0774 C   0  0  0  0  0  0  0  0  0  0  0  0
   -5.1559   -8.1020    5.8523 C   0  0  0  0  0  0  0  0  0  0  0  0
   -5.4850   -7.5635    7.0741 C   0  0  0  0  0  0  0  0  0  0  0  0
   -6.7572   -7.5760    7.5942 C   0  0  0  0  0  0  0  0  0  0  0  0
   -7.0001   -7.0834    8.6857 O   0  0  0  0  0  0  0  0  0  0  0  0
   -7.7214   -8.1551    6.8452 N   0  0  0  0  0  0  0  0  0  0  0  0
   -7.4301   -8.7018    5.6235 C   0  0  0  0  0  0  0  0  0  0  0  0
   -8.3248   -9.5039    4.3998 S   0  0  0  0  0  0  0  0  0  0  0  0
   -7.5694  -12.3319    0.5334 N   0  0  0  0  0  0  0  0  0  0  0  0
   -7.5554  -11.7473    1.8271 C   0  0  0  0  0  0  0  0  0  0  0  0
   -7.9488  -12.3816    2.8424 O   0  0  0  0  0  0  0  0  0  0  0  0
   -7.0981  -10.4400    1.9972 N   0  0  0  0  0  0  0  0  0  0  0  0
   -7.2371  -11.7792   -0.2837 H   0  0  0  0  0  0  0  0  0  0  0  0
   -6.7644   -9.8818    1.1846 H   0  0  0  0  0  0  0  0  0  0  0  0
   -9.5540  -13.7093    0.4507 C   0  0  0  0  0  0  0  0  0  0  0  0
   -8.0422  -13.6814    0.3634 C   0  0  0  0  0  0  0  0  0  0  0  0
   -4.4485   -6.9284    7.9153 C   0  0  0  0  0  0  0  0  0  0  0  0
   -4.6849   -5.8183    8.6892 C   0  0  0  0  0  0  0  0  0  0  0  0
   -3.6288   -5.3068    9.4362 C   0  0  0  0  0  0  0  0  0  0  0  0
   -2.3781   -5.8778    9.4169 C   0  0  0  0  0  0  0  0  0  0  0  0
   -2.1670   -6.9578    8.6579 N   0  0  0  0  0  0  0  0  0  0  0  0
   -3.1643   -7.4566    7.9403 C   0  0  0  0  0  0  0  0  0  0  0  0
   -9.0833   -8.2428    7.2511 C   0  0  0  0  0  0  0  0  0  0  0  0
   -9.6725   -6.9231    7.7084 C   0  0  0  0  0  0  0  0  0  0  0  0
  -10.6328   -7.2617    8.8589 C   0  0  0  0  0  0  0  0  0  0  0  0
  -10.8479   -8.7706    8.6704 C   0  0  0  0  0  0  0  0  0  0  0  0
   -9.3842   -9.1521    8.3685 C   0  0  0  0  0  0  0  0  0  0  0  0
 17 18  1  0  0  0
 18 11  1  0  0  0
 11 12  1  0  0  0
 12 13  2  0  0  0
 12 14  1  0  0  0
 14  1  1  0  0  0
  1  2  2  0  0  0
  2  3  1  0  0  0
  3  4  1  0  0  0
  4  5  2  0  0  0
  5 19  1  0  0  0
 19 20  2  0  0  0
 20 21  1  0  0  0
 21 22  2  0  0  0
 22 23  1  0  0  0
 23 24  2  0  0  0
  5  6  1  0  0  0
  6  7  2  0  0  0
  6  8  1  0  0  0
  8 25  1  0  0  0
 25 26  1  0  0  0
 26 27  1  0  0  0
 27 28  1  0  0  0
 28 29  1  0  0  0
  8  9  1  0  0  0
  9 10  1  0  0  0
 10  1  1  0  0  0
  9  3  2  0  0  0
 24 19  1  0  0  0
 29 25  1  0  0  0
 11 15  1  0  0  0
 14 16  1  0  0  0
M  END
> <minimizedAffinity>
7.09720

> <CNNscore>
0.5155969262

> <CNNaffinity>
6.1017274857

> <CNN_VS>
3.1460318565

> <CNNaffinity_variance>
1.1343145370

$$$$
[H]c1nc([H])c(-c2c([H])c3nc(N([H])C(=O)N([H])C([H])([H])C([H])([H])[H])sc3n(C3([H])C([H])([H])C([H])([H])C([H])([H])C3([H])[H])c2=O)c([H])c1[H]


 29 32  0  0  0  0  0  0  0  0999 V2000
  -14.7387   -8.1443    6.7939 C   0  0  0  0  0  0  0  0  0  0  0  0
  -14.6657   -7.6052    7.9977 N   0  0  0  0  0  0  0  0  0  0  0  0
  -13.5136   -7.3148    8.5196 C   0  0  0  0  0  0  0  0  0  0  0  0
  -13.2939   -6.7374    9.7911 C   0  0  0  0  0  0  0  0  0  0  0  0
  -12.0019   -6.4923   10.1936 C   0  0  0  0  0  0  0  0  0  0  0  0
  -10.8980   -6.7781    9.4262 C   0  0  0  0  0  0  0  0  0  0  0  0
   -9.7687   -6.5419    9.8285 O   0  0  0  0  0  0  0  0  0  0  0  0
  -11.1194   -7.3297    8.2127 N   0  0  0  0  0  0  0  0  0  0  0  0
  -12.3929   -7.5876    7.7788 C   0  0  0  0  0  0  0  0  0  0  0  0
  -13.0881   -8.2539    6.3596 S   0  0  0  0  0  0  0  0  0  0  0  0
  -17.6631   -8.1520    4.3951 N   0  0  0  0  0  0  0  0  0  0  0  0
  -16.5099   -7.7095    5.0952 C   0  0  0  0  0  0  0  0  0  0  0  0
  -16.0012   -6.5770    4.8800 O   0  0  0  0  0  0  0  0  0  0  0  0
  -15.9125   -8.5354    6.0481 N   0  0  0  0  0  0  0  0  0  0  0  0
  -18.0573   -9.0938    4.5979 H   0  0  0  0  0  0  0  0  0  0  0  0
  -16.3015   -9.4782    6.2557 H   0  0  0  0  0  0  0  0  0  0  0  0
  -18.6664   -5.9797    4.0526 C   0  0  0  0  0  0  0  0  0  0  0  0
  -18.2759   -7.2957    3.4128 C   0  0  0  0  0  0  0  0  0  0  0  0
  -11.7322   -5.8853   11.5142 C   0  0  0  0  0  0  0  0  0  0  0  0
  -12.5626   -4.9613   12.1003 C   0  0  0  0  0  0  0  0  0  0  0  0
  -12.2017   -4.4567   13.3454 C   0  0  0  0  0  0  0  0  0  0  0  0
  -11.0540   -4.8556   13.9890 C   0  0  0  0  0  0  0  0  0  0  0  0
  -10.2582   -5.7560   13.4032 N   0  0  0  0  0  0  0  0  0  0  0  0
  -10.5894   -6.2458   12.2163 C   0  0  0  0  0  0  0  0  0  0  0  0
  -10.0771   -7.6804    7.3084 C   0  0  0  0  0  0  0  0  0  0  0  0
   -9.5008   -9.0624    7.5439 C   0  0  0  0  0  0  0  0  0  0  0  0
   -7.9990   -8.9552    7.2381 C   0  0  0  0  0  0  0  0  0  0  0  0
   -7.9227   -7.6490    6.4338 C   0  0  0  0  0  0  0  0  0  0  0  0
   -8.8867   -6.8148    7.3022 C   0  0  0  0  0  0  0  0  0  0  0  0
 17 18  1  0  0  0
 18 11  1  0  0  0
 11 12  1  0  0  0
 12 13  2  0  0  0
 12 14  1  0  0  0
 14  1  1  0  0  0
  1  2  2  0  0  0
  2  3  1  0  0  0
  3  4  1  0  0  0
  4  5  2  0  0  0
  5 19  1  0  0  0
 19 20  2  0  0  0
 20 21  1  0  0  0
 21 22  2  0  0  0
 22 23  1  0  0  0
 23 24  2  0  0  0
  5  6  1  0  0  0
  6  7  2  0  0  0
  6  8  1  0  0  0
  8 25  1  0  0  0
 25 26  1  0  0  0
 26 27  1  0  0  0
 27 28  1  0  0  0
 28 29  1  0  0  0
  8  9  1  0  0  0
  9 10  1  0  0  0
 10  1  1  0  0  0
  9  3  2  0  0  0
 24 19  1  0  0  0
 29 25  1  0  0  0
 11 15  1  0  0  0
 14 16  1  0  0  0
M  END
> <minimizedAffinity>
-0.63567

> <CNNscore>
0.4866045713

> <CNNaffinity>
7.2475728989

> <CNN_VS>
3.5267021656

> <CNNaffinity_variance>
1.2717305422

$$$$
[H]c1nc([H])c(-c2c([H])c3nc(N([H])C(=O)N([H])C([H])([H])C([H])([H])[H])sc3n(C3([H])C([H])([H])C([H])([H])C([H])([H])C3([H])[H])c2=O)c([H])c1[H]


 29 32  0  0  0  0  0  0  0  0999 V2000
   -8.9918   -6.5965    7.5847 C   0  0  0  0  0  0  0  0  0  0  0  0
   -9.6285   -6.8896    8.7044 N   0  0  0  0  0  0  0  0  0  0  0  0
  -10.8586   -7.3019    8.6729 C   0  0  0  0  0  0  0  0  0  0  0  0
  -11.6525   -7.6486    9.7900 C   0  0  0  0  0  0  0  0  0  0  0  0
  -12.9446   -8.0699    9.5798 C   0  0  0  0  0  0  0  0  0  0  0  0
  -13.5183   -8.1757    8.3353 C   0  0  0  0  0  0  0  0  0  0  0  0
  -14.6718   -8.5550    8.1998 O   0  0  0  0  0  0  0  0  0  0  0  0
  -12.7505   -7.8419    7.2746 N   0  0  0  0  0  0  0  0  0  0  0  0
  -11.4592   -7.4183    7.4462 C   0  0  0  0  0  0  0  0  0  0  0  0
  -10.1898   -6.9177    6.4072 S   0  0  0  0  0  0  0  0  0  0  0  0
   -5.2171   -6.4301    7.4084 N   0  0  0  0  0  0  0  0  0  0  0  0
   -6.5248   -6.9511    7.5937 C   0  0  0  0  0  0  0  0  0  0  0  0
   -6.7162   -8.1523    7.9228 O   0  0  0  0  0  0  0  0  0  0  0  0
   -7.6363   -6.1276    7.4116 N   0  0  0  0  0  0  0  0  0  0  0  0
   -5.0953   -5.4327    7.1365 H   0  0  0  0  0  0  0  0  0  0  0  0
   -7.5217   -5.1294    7.1398 H   0  0  0  0  0  0  0  0  0  0  0  0
   -3.1574   -7.1877    6.3954 C   0  0  0  0  0  0  0  0  0  0  0  0
   -4.0733   -7.2842    7.5977 C   0  0  0  0  0  0  0  0  0  0  0  0
  -13.8041   -8.4456   10.7224 C   0  0  0  0  0  0  0  0  0  0  0  0
  -13.4132   -9.3298   11.6982 C   0  0  0  0  0  0  0  0  0  0  0  0
  -14.3110   -9.6091   12.7233 C   0  0  0  0  0  0  0  0  0  0  0  0
  -15.5569   -9.0300   12.7794 C   0  0  0  0  0  0  0  0  0  0  0  0
  -15.9198   -8.1716   11.8209 N   0  0  0  0  0  0  0  0  0  0  0  0
  -15.0743   -7.8957   10.8373 C   0  0  0  0  0  0  0  0  0  0  0  0
  -13.2065   -7.8999    5.9270 C   0  0  0  0  0  0  0  0  0  0  0  0
  -14.2567   -6.8600    5.5902 C   0  0  0  0  0  0  0  0  0  0  0  0
  -15.2257   -7.5361    4.6082 C   0  0  0  0  0  0  0  0  0  0  0  0
  -14.4098   -8.7444    4.1254 C   0  0  0  0  0  0  0  0  0  0  0  0
  -13.8285   -9.1609    5.4920 C   0  0  0  0  0  0  0  0  0  0  0  0
 17 18  1  0  0  0
 18 11  1  0  0  0
 11 12  1  0  0  0
 12 13  2  0  0  0
 12 14  1  0  0  0
 14  1  1  0  0  0
  1  2  2  0  0  0
  2  3  1  0  0  0
  3  4  1  0  0  0
  4  5  2  0  0  0
  5 19  1  0  0  0
 19 20  2  0  0  0
 20 21  1  0  0  0
 21 22  2  0  0  0
 22 23  1  0  0  0
 23 24  2  0  0  0
  5  6  1  0  0  0
  6  7  2  0  0  0
  6  8  1  0  0  0
  8 25  1  0  0  0
 25 26  1  0  0  0
 26 27  1  0  0  0
 27 28  1  0  0  0
 28 29  1  0  0  0
  8  9  1  0  0  0
  9 10  1  0  0  0
 10  1  1  0  0  0
  9  3  2  0  0  0
 24 19  1  0  0  0
 29 25  1  0  0  0
 11 15  1  0  0  0
 14 16  1  0  0  0
M  END
> <minimizedAffinity>
4.83215

> <CNNscore>
0.4253150225

> <CNNaffinity>
6.7136621475

> <CNN_VS>
2.8554213047

> <CNNaffinity_variance>
1.1361529827

$$$$
[H]c1nc([H])c(-c2c([H])c3nc(N([H])C(=O)N([H])C([H])([H])C([H])([H])[H])sc3n(C3([H])C([H])([H])C([H])([H])C([H])([H])C3([H])[H])c2=O)c([H])c1[H]


 29 32  0  0  0  0  0  0  0  0999 V2000
   -9.3379   -7.8919    8.2981 C   0  0  0  0  0  0  0  0  0  0  0  0
   -8.9095   -7.4538    9.4684 N   0  0  0  0  0  0  0  0  0  0  0  0
   -7.7085   -6.9783    9.5931 C   0  0  0  0  0  0  0  0  0  0  0  0
   -7.1268   -6.4784   10.7806 C   0  0  0  0  0  0  0  0  0  0  0  0
   -5.8352   -6.0082   10.7391 C   0  0  0  0  0  0  0  0  0  0  0  0
   -5.0659   -5.9945    9.6002 C   0  0  0  0  0  0  0  0  0  0  0  0
   -3.9215   -5.5664    9.6140 O   0  0  0  0  0  0  0  0  0  0  0  0
   -5.6316   -6.4746    8.4709 N   0  0  0  0  0  0  0  0  0  0  0  0
   -6.9160   -6.9508    8.4749 C   0  0  0  0  0  0  0  0  0  0  0  0
   -7.9731   -7.6225    7.3033 S   0  0  0  0  0  0  0  0  0  0  0  0
  -12.7817   -8.4056    6.8204 N   0  0  0  0  0  0  0  0  0  0  0  0
  -11.5304   -7.8034    7.1160 C   0  0  0  0  0  0  0  0  0  0  0  0
  -11.2059   -6.6851    6.6344 O   0  0  0  0  0  0  0  0  0  0  0  0
  -10.6260   -8.4510    7.9584 N   0  0  0  0  0  0  0  0  0  0  0  0
  -13.0175   -9.3306    7.2357 H   0  0  0  0  0  0  0  0  0  0  0  0
  -10.8554   -9.3760    8.3770 H   0  0  0  0  0  0  0  0  0  0  0  0
  -15.1295   -8.1050    6.3308 C   0  0  0  0  0  0  0  0  0  0  0  0
  -13.7115   -7.7330    5.9505 C   0  0  0  0  0  0  0  0  0  0  0  0
   -5.1943   -5.4733   11.9591 C   0  0  0  0  0  0  0  0  0  0  0  0
   -5.7880   -4.5386   12.7719 C   0  0  0  0  0  0  0  0  0  0  0  0
   -5.0849   -4.1068   13.8918 C   0  0  0  0  0  0  0  0  0  0  0  0
   -3.8329   -4.5867   14.1964 C   0  0  0  0  0  0  0  0  0  0  0  0
   -3.2710   -5.4963   13.3938 N   0  0  0  0  0  0  0  0  0  0  0  0
   -3.9294   -5.9172   12.3225 C   0  0  0  0  0  0  0  0  0  0  0  0
   -4.9591   -6.5252    7.2169 C   0  0  0  0  0  0  0  0  0  0  0  0
   -3.7071   -5.6728    7.1583 C   0  0  0  0  0  0  0  0  0  0  0  0
   -3.6430   -5.1081    5.7308 C   0  0  0  0  0  0  0  0  0  0  0  0
   -4.6088   -6.0303    4.9720 C   0  0  0  0  0  0  0  0  0  0  0  0
   -5.7224   -6.0855    6.0378 C   0  0  0  0  0  0  0  0  0  0  0  0
 17 18  1  0  0  0
 18 11  1  0  0  0
 11 12  1  0  0  0
 12 13  2  0  0  0
 12 14  1  0  0  0
 14  1  1  0  0  0
  1  2  2  0  0  0
  2  3  1  0  0  0
  3  4  1  0  0  0
  4  5  2  0  0  0
  5 19  1  0  0  0
 19 20  2  0  0  0
 20 21  1  0  0  0
 21 22  2  0  0  0
 22 23  1  0  0  0
 23 24  2  0  0  0
  5  6  1  0  0  0
  6  7  2  0  0  0
  6  8  1  0  0  0
  8 25  1  0  0  0
 25 26  1  0  0  0
 26 27  1  0  0  0
 27 28  1  0  0  0
 28 29  1  0  0  0
  8  9  1  0  0  0
  9 10  1  0  0  0
 10  1  1  0  0  0
  9  3  2  0  0  0
 24 19  1  0  0  0
 29 25  1  0  0  0
 11 15  1  0  0  0
 14 16  1  0  0  0
M  END
> <minimizedAffinity>
5.00234

> <CNNscore>
0.4246840179

> <CNNaffinity>
6.1490240097

> <CNN_VS>
2.6113922596

> <CNNaffinity_variance>
1.9370731115

$$$$
[H]c1nc([H])c(-c2c([H])c3nc(N([H])C(=O)N([H])C([H])([H])C([H])([H])[H])sc3n(C3([H])C([H])([H])C([H])([H])C([H])([H])C3([H])[H])c2=O)c([H])c1[H]


 29 32  0  0  0  0  0  0  0  0999 V2000
  -14.3456   -6.5166    7.8593 C   0  0  0  0  0  0  0  0  0  0  0  0
  -13.7489   -6.6389    6.6871 N   0  0  0  0  0  0  0  0  0  0  0  0
  -14.3231   -7.2887    5.7216 C   0  0  0  0  0  0  0  0  0  0  0  0
  -13.7990   -7.4934    4.4247 C   0  0  0  0  0  0  0  0  0  0  0  0
  -14.5418   -8.2088    3.5149 C   0  0  0  0  0  0  0  0  0  0  0  0
  -15.7771   -8.7437    3.7927 C   0  0  0  0  0  0  0  0  0  0  0  0
  -16.3989   -9.3730    2.9499 O   0  0  0  0  0  0  0  0  0  0  0  0
  -16.2684   -8.5421    5.0353 N   0  0  0  0  0  0  0  0  0  0  0  0
  -15.5565   -7.8342    5.9671 C   0  0  0  0  0  0  0  0  0  0  0  0
  -15.8071   -7.3654    7.5977 S   0  0  0  0  0  0  0  0  0  0  0  0
  -12.3914   -5.5970   10.9646 N   0  0  0  0  0  0  0  0  0  0  0  0
  -12.8049   -6.3082    9.8074 C   0  0  0  0  0  0  0  0  0  0  0  0
  -12.2260   -7.3656    9.4405 O   0  0  0  0  0  0  0  0  0  0  0  0
  -13.8765   -5.8397    9.0463 N   0  0  0  0  0  0  0  0  0  0  0  0
  -12.8923   -4.7268   11.2390 H   0  0  0  0  0  0  0  0  0  0  0  0
  -14.3817   -4.9703    9.3151 H   0  0  0  0  0  0  0  0  0  0  0  0
  -11.3700   -5.5328   13.1543 C   0  0  0  0  0  0  0  0  0  0  0  0
  -11.2850   -6.0849   11.7466 C   0  0  0  0  0  0  0  0  0  0  0  0
  -14.0296   -8.4397    2.1476 C   0  0  0  0  0  0  0  0  0  0  0  0
  -14.0482   -7.4791    1.1658 C   0  0  0  0  0  0  0  0  0  0  0  0
  -13.5415   -7.8149   -0.0854 C   0  0  0  0  0  0  0  0  0  0  0  0
  -13.0323   -9.0635   -0.3547 C   0  0  0  0  0  0  0  0  0  0  0  0
  -13.0223   -9.9855    0.6133 N   0  0  0  0  0  0  0  0  0  0  0  0
  -13.5020   -9.6797    1.8111 C   0  0  0  0  0  0  0  0  0  0  0  0
  -17.5318   -9.0353    5.4688 C   0  0  0  0  0  0  0  0  0  0  0  0
  -18.6583   -8.7816    4.4868 C   0  0  0  0  0  0  0  0  0  0  0  0
  -19.9067   -8.4963    5.3357 C   0  0  0  0  0  0  0  0  0  0  0  0
  -19.4973   -9.0431    6.7113 C   0  0  0  0  0  0  0  0  0  0  0  0
  -18.0565   -8.4926    6.7322 C   0  0  0  0  0  0  0  0  0  0  0  0
 17 18  1  0  0  0
 18 11  1  0  0  0
 11 12  1  0  0  0
 12 13  2  0  0  0
 12 14  1  0  0  0
 14  1  1  0  0  0
  1  2  2  0  0  0
  2  3  1  0  0  0
  3  4  1  0  0  0
  4  5  2  0  0  0
  5 19  1  0  0  0
 19 20  2  0  0  0
 20 21  1  0  0  0
 21 22  2  0  0  0
 22 23  1  0  0  0
 23 24  2  0  0  0
  5  6  1  0  0  0
  6  7  2  0  0  0
  6  8  1  0  0  0
  8 25  1  0  0  0
 25 26  1  0  0  0
 26 27  1  0  0  0
 27 28  1  0  0  0
 28 29  1  0  0  0
  8  9  1  0  0  0
  9 10  1  0  0  0
 10  1  1  0  0  0
  9  3  2  0  0  0
 24 19  1  0  0  0
 29 25  1  0  0  0
 11 15  1  0  0  0
 14 16  1  0  0  0
M  END
> <minimizedAffinity>
19.71305

> <CNNscore>
0.3741693497

> <CNNaffinity>
6.1286244392

> <CNN_VS>
2.2931435108

> <CNNaffinity_variance>
0.8536974192

$$$$
[H]c1nc([H])c(-c2c([H])c3nc(N([H])C(=O)N([H])C([H])([H])C([H])([H])[H])sc3n(C3([H])C([H])([H])C([H])([H])C([H])([H])C3([H])[H])c2=O)c([H])c1[H]


 29 32  0  0  0  0  0  0  0  0999 V2000
  -15.1404   -6.4272    5.4404 C   0  0  0  0  0  0  0  0  0  0  0  0
  -15.5079   -6.8547    6.6351 N   0  0  0  0  0  0  0  0  0  0  0  0
  -14.6252   -7.3077    7.4717 C   0  0  0  0  0  0  0  0  0  0  0  0
  -14.8807   -7.7928    8.7747 C   0  0  0  0  0  0  0  0  0  0  0  0
  -13.8249   -8.2380    9.5351 C   0  0  0  0  0  0  0  0  0  0  0  0
  -12.5209   -8.2403    9.1005 C   0  0  0  0  0  0  0  0  0  0  0  0
  -11.6162   -8.6471    9.8141 O   0  0  0  0  0  0  0  0  0  0  0  0
  -12.2880   -7.7745    7.8536 N   0  0  0  0  0  0  0  0  0  0  0  0
  -13.3153   -7.3229    7.0680 C   0  0  0  0  0  0  0  0  0  0  0  0
  -13.4486   -6.6734    5.4864 S   0  0  0  0  0  0  0  0  0  0  0  0
  -18.0822   -5.1279    3.4493 N   0  0  0  0  0  0  0  0  0  0  0  0
  -17.3287   -5.6549    4.5311 C   0  0  0  0  0  0  0  0  0  0  0  0
  -17.8634   -5.9188    5.6412 O   0  0  0  0  0  0  0  0  0  0  0  0
  -15.9622   -5.8928    4.3792 N   0  0  0  0  0  0  0  0  0  0  0  0
  -17.6084   -4.9214    2.5457 H   0  0  0  0  0  0  0  0  0  0  0  0
  -15.4822   -5.6885    3.4785 H   0  0  0  0  0  0  0  0  0  0  0  0
  -19.7089   -3.7950    4.6407 C   0  0  0  0  0  0  0  0  0  0  0  0
  -19.4922   -4.8844    3.6112 C   0  0  0  0  0  0  0  0  0  0  0  0
  -14.0515   -8.7481   10.9039 C   0  0  0  0  0  0  0  0  0  0  0  0
  -13.1369   -9.5184   11.5799 C   0  0  0  0  0  0  0  0  0  0  0  0
  -13.4638   -9.9440   12.8633 C   0  0  0  0  0  0  0  0  0  0  0  0
  -14.6596   -9.6161   13.4577 C   0  0  0  0  0  0  0  0  0  0  0  0
  -15.5373   -8.8654   12.7845 N   0  0  0  0  0  0  0  0  0  0  0  0
  -15.2393   -8.4524   11.5602 C   0  0  0  0  0  0  0  0  0  0  0  0
  -10.9918   -7.7163    7.2674 C   0  0  0  0  0  0  0  0  0  0  0  0
  -10.2699   -9.0489    7.2431 C   0  0  0  0  0  0  0  0  0  0  0  0
   -8.7850   -8.7330    7.4796 C   0  0  0  0  0  0  0  0  0  0  0  0
   -8.7200   -7.2284    7.1782 C   0  0  0  0  0  0  0  0  0  0  0  0
  -10.0170   -6.8158    7.9039 C   0  0  0  0  0  0  0  0  0  0  0  0
 17 18  1  0  0  0
 18 11  1  0  0  0
 11 12  1  0  0  0
 12 13  2  0  0  0
 12 14  1  0  0  0
 14  1  1  0  0  0
  1  2  2  0  0  0
  2  3  1  0  0  0
  3  4  1  0  0  0
  4  5  2  0  0  0
  5 19  1  0  0  0
 19 20  2  0  0  0
 20 21  1  0  0  0
 21 22  2  0  0  0
 22 23  1  0  0  0
 23 24  2  0  0  0
  5  6  1  0  0  0
  6  7  2  0  0  0
  6  8  1  0  0  0
  8 25  1  0  0  0
 25 26  1  0  0  0
 26 27  1  0  0  0
 27 28  1  0  0  0
 28 29  1  0  0  0
  8  9  1  0  0  0
  9 10  1  0  0  0
 10  1  1  0  0  0
  9  3  2  0  0  0
 24 19  1  0  0  0
 29 25  1  0  0  0
 11 15  1  0  0  0
 14 16  1  0  0  0
M  END
> <minimizedAffinity>
9.64997

> <CNNscore>
0.3677023649

> <CNNaffinity>
6.6307754517

> <CNN_VS>
2.4381518364

> <CNNaffinity_variance>
1.0624599457

$$$$
[H]c1nc([H])c(-c2c([H])c3nc(N([H])C(=O)N([H])C([H])([H])C([H])([H])[H])sc3n(C3([H])C([H])([H])C([H])([H])C([H])([H])C3([H])[H])c2=O)c([H])c1[H]


 29 32  0  0  0  0  0  0  0  0999 V2000
   -7.5206   -8.4277    6.9180 C   0  0  0  0  0  0  0  0  0  0  0  0
   -7.9207   -7.5782    7.8472 N   0  0  0  0  0  0  0  0  0  0  0  0
   -9.1611   -7.5563    8.2280 C   0  0  0  0  0  0  0  0  0  0  0  0
   -9.7195   -6.7033    9.2074 C   0  0  0  0  0  0  0  0  0  0  0  0
  -11.0602   -6.8114    9.4939 C   0  0  0  0  0  0  0  0  0  0  0  0
  -11.9005   -7.7085    8.8789 C   0  0  0  0  0  0  0  0  0  0  0  0
  -13.0863   -7.7662    9.1679 O   0  0  0  0  0  0  0  0  0  0  0  0
  -11.3564   -8.5189    7.9445 N   0  0  0  0  0  0  0  0  0  0  0  0
  -10.0247   -8.4394    7.6336 C   0  0  0  0  0  0  0  0  0  0  0  0
   -8.9729   -9.2526    6.5502 S   0  0  0  0  0  0  0  0  0  0  0  0
   -3.7800   -8.2931    6.3730 N   0  0  0  0  0  0  0  0  0  0  0  0
   -5.0525   -8.0841    6.9670 C   0  0  0  0  0  0  0  0  0  0  0  0
   -5.1820   -7.4325    8.0378 O   0  0  0  0  0  0  0  0  0  0  0  0
   -6.1980   -8.6052    6.3644 N   0  0  0  0  0  0  0  0  0  0  0  0
   -3.7094   -8.8363    5.4877 H   0  0  0  0  0  0  0  0  0  0  0  0
   -6.1345   -9.1491    5.4793 H   0  0  0  0  0  0  0  0  0  0  0  0
   -1.9153   -8.8295    7.8142 C   0  0  0  0  0  0  0  0  0  0  0  0
   -2.6010   -7.7531    6.9989 C   0  0  0  0  0  0  0  0  0  0  0  0
  -11.6795   -5.9402   10.5151 C   0  0  0  0  0  0  0  0  0  0  0  0
  -12.6710   -5.0338   10.2284 C   0  0  0  0  0  0  0  0  0  0  0  0
  -13.1743   -4.2652   11.2729 C   0  0  0  0  0  0  0  0  0  0  0  0
  -12.7094   -4.3913   12.5608 C   0  0  0  0  0  0  0  0  0  0  0  0
  -11.7442   -5.2789   12.8208 N   0  0  0  0  0  0  0  0  0  0  0  0
  -11.2547   -6.0186   11.8350 C   0  0  0  0  0  0  0  0  0  0  0  0
  -12.1006   -9.4958    7.2240 C   0  0  0  0  0  0  0  0  0  0  0  0
  -12.7668   -8.9585    5.9729 C   0  0  0  0  0  0  0  0  0  0  0  0
  -14.1094   -9.6962    5.8554 C   0  0  0  0  0  0  0  0  0  0  0  0
  -13.9034  -10.8985    6.7887 C   0  0  0  0  0  0  0  0  0  0  0  0
  -13.2073  -10.1478    7.9425 C   0  0  0  0  0  0  0  0  0  0  0  0
 17 18  1  0  0  0
 18 11  1  0  0  0
 11 12  1  0  0  0
 12 13  2  0  0  0
 12 14  1  0  0  0
 14  1  1  0  0  0
  1  2  2  0  0  0
  2  3  1  0  0  0
  3  4  1  0  0  0
  4  5  2  0  0  0
  5 19  1  0  0  0
 19 20  2  0  0  0
 20 21  1  0  0  0
 21 22  2  0  0  0
 22 23  1  0  0  0
 23 24  2  0  0  0
  5  6  1  0  0  0
  6  7  2  0  0  0
  6  8  1  0  0  0
  8 25  1  0  0  0
 25 26  1  0  0  0
 26 27  1  0  0  0
 27 28  1  0  0  0
 28 29  1  0  0  0
  8  9  1  0  0  0
  9 10  1  0  0  0
 10  1  1  0  0  0
  9  3  2  0  0  0
 24 19  1  0  0  0
 29 25  1  0  0  0
 11 15  1  0  0  0
 14 16  1  0  0  0
M  END
> <minimizedAffinity>
0.29957

> <CNNscore>
0.3200759888

> <CNNaffinity>
6.1831769943

> <CNN_VS>
1.9790865183

> <CNNaffinity_variance>
0.3458860517

$$$$
[H]c1nc([H])c(-c2c([H])c3nc(N([H])C(=O)N([H])C([H])([H])C([H])([H])[H])sc3n(C3([H])C([H])([H])C([H])([H])C([H])([H])C3([H])[H])c2=O)c([H])c1[H]


 29 32  0  0  0  0  0  0  0  0999 V2000
  -14.6879   -8.2517    6.9036 C   0  0  0  0  0  0  0  0  0  0  0  0
  -13.4455   -8.4111    6.4838 N   0  0  0  0  0  0  0  0  0  0  0  0
  -12.4485   -8.0173    7.2152 C   0  0  0  0  0  0  0  0  0  0  0  0
  -11.0776   -8.1274    6.8884 C   0  0  0  0  0  0  0  0  0  0  0  0
  -10.1434   -7.6576    7.7815 C   0  0  0  0  0  0  0  0  0  0  0  0
  -10.4648   -7.0805    8.9868 C   0  0  0  0  0  0  0  0  0  0  0  0
   -9.5975   -6.6773    9.7473 O   0  0  0  0  0  0  0  0  0  0  0  0
  -11.7780   -6.9803    9.2892 N   0  0  0  0  0  0  0  0  0  0  0  0
  -12.7362   -7.4376    8.4237 C   0  0  0  0  0  0  0  0  0  0  0  0
  -14.4500   -7.5015    8.4219 S   0  0  0  0  0  0  0  0  0  0  0  0
  -17.8429   -8.1545    4.8194 N   0  0  0  0  0  0  0  0  0  0  0  0
  -16.6383   -7.7325    5.4412 C   0  0  0  0  0  0  0  0  0  0  0  0
  -16.1912   -6.5642    5.2892 O   0  0  0  0  0  0  0  0  0  0  0  0
  -15.9194   -8.6192    6.2436 N   0  0  0  0  0  0  0  0  0  0  0  0
  -18.1835   -9.1271    4.9665 H   0  0  0  0  0  0  0  0  0  0  0  0
  -16.2543   -9.5930    6.3949 H   0  0  0  0  0  0  0  0  0  0  0  0
  -18.5230   -5.8462    4.5927 C   0  0  0  0  0  0  0  0  0  0  0  0
  -18.5811   -7.2354    3.9924 C   0  0  0  0  0  0  0  0  0  0  0  0
   -8.7003   -7.7593    7.4774 C   0  0  0  0  0  0  0  0  0  0  0  0
   -8.0417   -6.8781    6.6549 C   0  0  0  0  0  0  0  0  0  0  0  0
   -6.6820   -7.0781    6.4396 C   0  0  0  0  0  0  0  0  0  0  0  0
   -5.9970   -8.1187    7.0215 C   0  0  0  0  0  0  0  0  0  0  0  0
   -6.6547   -8.9661    7.8193 N   0  0  0  0  0  0  0  0  0  0  0  0
   -7.9511   -8.7880    8.0337 C   0  0  0  0  0  0  0  0  0  0  0  0
  -12.2629   -6.4062   10.4986 C   0  0  0  0  0  0  0  0  0  0  0  0
  -13.3056   -5.3261   10.2891 C   0  0  0  0  0  0  0  0  0  0  0  0
  -13.0564   -4.2761   11.3827 C   0  0  0  0  0  0  0  0  0  0  0  0
  -12.1892   -5.0504   12.3863 C   0  0  0  0  0  0  0  0  0  0  0  0
  -11.2697   -5.7528   11.3663 C   0  0  0  0  0  0  0  0  0  0  0  0
 17 18  1  0  0  0
 18 11  1  0  0  0
 11 12  1  0  0  0
 12 13  2  0  0  0
 12 14  1  0  0  0
 14  1  1  0  0  0
  1  2  2  0  0  0
  2  3  1  0  0  0
  3  4  1  0  0  0
  4  5  2  0  0  0
  5 19  1  0  0  0
 19 20  2  0  0  0
 20 21  1  0  0  0
 21 22  2  0  0  0
 22 23  1  0  0  0
 23 24  2  0  0  0
  5  6  1  0  0  0
  6  7  2  0  0  0
  6  8  1  0  0  0
  8 25  1  0  0  0
 25 26  1  0  0  0
 26 27  1  0  0  0
 27 28  1  0  0  0
 28 29  1  0  0  0
  8  9  1  0  0  0
  9 10  1  0  0  0
 10  1  1  0  0  0
  9  3  2  0  0  0
 24 19  1  0  0  0
 29 25  1  0  0  0
 11 15  1  0  0  0
 14 16  1  0  0  0
M  END
> <minimizedAffinity>
-5.30364

> <CNNscore>
0.2564190626

> <CNNaffinity>
6.8510537148

> <CNN_VS>
1.7567408085

> <CNNaffinity_variance>
0.5278047919

$$$$
[H]c1nc(N([H])c2c([H])c([H])c(OC([H])([H])c3c([H])c([H])c([H])c(F)c3[H])c(Cl)c2[H])c2c(n1)c([H])c([H])n2[H]


 28 31  0  0  0  0  0  0  0  0999 V2000
  -12.1332   -7.9351    8.3391 C   0  0  0  0  0  0  0  0  0  0  0  0
  -12.3792   -8.7375    7.2507 C   0  0  0  0  0  0  0  0  0  0  0  0
  -13.6624   -8.9035    6.7953 C   0  0  0  0  0  0  0  0  0  0  0  0
  -14.7779   -8.2908    7.3826 C   0  0  0  0  0  0  0  0  0  0  0  0
  -14.5098   -7.4943    8.4667 C   0  0  0  0  0  0  0  0  0  0  0  0
  -13.1983   -7.3165    8.9432 C   0  0  0  0  0  0  0  0  0  0  0  0
  -12.8982   -6.2950   10.3263 Cl  0  0  0  0  0  0  0  0  0  0  0  0
  -16.0467   -8.5014    6.8460 N   0  0  0  0  0  0  0  0  0  0  0  0
  -16.6315   -9.2706    7.3332 H   0  0  0  0  0  0  0  0  0  0  0  0
  -16.6841   -7.8821    5.7738 C   0  0  0  0  0  0  0  0  0  0  0  0
  -17.7441   -8.3635    5.1123 N   0  0  0  0  0  0  0  0  0  0  0  0
  -18.3286   -7.7469    4.0712 C   0  0  0  0  0  0  0  0  0  0  0  0
  -17.8684   -6.5644    3.6123 N   0  0  0  0  0  0  0  0  0  0  0  0
  -16.8010   -6.0048    4.2212 C   0  0  0  0  0  0  0  0  0  0  0  0
  -16.1180   -4.8145    3.9730 C   0  0  0  0  0  0  0  0  0  0  0  0
  -15.1147   -4.7735    4.9172 C   0  0  0  0  0  0  0  0  0  0  0  0
  -15.1956   -5.8911    5.6951 N   0  0  0  0  0  0  0  0  0  0  0  0
  -16.2173   -6.6531    5.2856 C   0  0  0  0  0  0  0  0  0  0  0  0
  -14.5735   -6.1468    6.4960 H   0  0  0  0  0  0  0  0  0  0  0  0
  -10.8268   -7.7770    8.7893 O   0  0  0  0  0  0  0  0  0  0  0  0
   -9.9949   -6.7272    8.3725 C   0  0  0  0  0  0  0  0  0  0  0  0
   -6.4079   -6.3291    5.0997 F   0  0  0  0  0  0  0  0  0  0  0  0
   -7.0750   -7.0866    6.0005 C   0  0  0  0  0  0  0  0  0  0  0  0
   -6.7062   -8.4082    6.2467 C   0  0  0  0  0  0  0  0  0  0  0  0
   -7.3987   -9.1620    7.1681 C   0  0  0  0  0  0  0  0  0  0  0  0
   -8.4605   -8.6069    7.8490 C   0  0  0  0  0  0  0  0  0  0  0  0
   -8.8508   -7.3025    7.6289 C   0  0  0  0  0  0  0  0  0  0  0  0
   -8.1493   -6.5682    6.7081 C   0  0  0  0  0  0  0  0  0  0  0  0
 22 23  1  0  0  0
 23 24  2  0  0  0
 24 25  1  0  0  0
 25 26  2  0  0  0
 26 27  1  0  0  0
 27 21  1  0  0  0
 21 20  1  0  0  0
 20  1  1  0  0  0
  1  2  2  0  0  0
  2  3  1  0  0  0
  3  4  2  0  0  0
  4  8  1  0  0  0
  8 10  1  0  0  0
 10 11  2  0  0  0
 11 12  1  0  0  0
 12 13  2  0  0  0
 13 14  1  0  0  0
 14 15  1  0  0  0
 15 16  2  0  0  0
 16 17  1  0  0  0
 17 18  1  0  0  0
  4  5  1  0  0  0
  5  6  2  0  0  0
  6  7  1  0  0  0
 27 28  2  0  0  0
 28 23  1  0  0  0
  6  1  1  0  0  0
 18 10  1  0  0  0
 18 14  2  0  0  0
  8  9  1  0  0  0
 17 19  1  0  0  0
M  END
> <minimizedAffinity>
-10.25373

> <CNNscore>
0.8879668713

> <CNNaffinity>
7.9498167038

> <CNN_VS>
7.0591740608

> <CNNaffinity_variance>
0.0394442715

$$$$
[H]c1nc(N([H])c2c([H])c([H])c(OC([H])([H])c3c([H])c([H])c([H])c(F)c3[H])c(Cl)c2[H])c2c(n1)c([H])c([H])n2[H]


 28 31  0  0  0  0  0  0  0  0999 V2000
  -12.1020   -8.1053    8.3604 C   0  0  0  0  0  0  0  0  0  0  0  0
  -13.1063   -7.3294    8.8881 C   0  0  0  0  0  0  0  0  0  0  0  0
  -14.3870   -7.4453    8.4110 C   0  0  0  0  0  0  0  0  0  0  0  0
  -14.7554   -8.3300    7.3882 C   0  0  0  0  0  0  0  0  0  0  0  0
  -13.7383   -9.0948    6.8763 C   0  0  0  0  0  0  0  0  0  0  0  0
  -12.4208   -8.9848    7.3570 C   0  0  0  0  0  0  0  0  0  0  0  0
  -11.1538   -9.9756    6.6789 Cl  0  0  0  0  0  0  0  0  0  0  0  0
  -16.0843   -8.3952    6.9736 N   0  0  0  0  0  0  0  0  0  0  0  0
  -16.7411   -8.9641    7.6184 H   0  0  0  0  0  0  0  0  0  0  0  0
  -16.7050   -7.8483    5.8532 C   0  0  0  0  0  0  0  0  0  0  0  0
  -17.7373   -8.3870    5.1922 N   0  0  0  0  0  0  0  0  0  0  0  0
  -18.3059   -7.8399    4.1045 C   0  0  0  0  0  0  0  0  0  0  0  0
  -17.8571   -6.6744    3.5937 N   0  0  0  0  0  0  0  0  0  0  0  0
  -16.8175   -6.0604    4.1983 C   0  0  0  0  0  0  0  0  0  0  0  0
  -16.1517   -4.8710    3.9031 C   0  0  0  0  0  0  0  0  0  0  0  0
  -15.1750   -4.7579    4.8689 C   0  0  0  0  0  0  0  0  0  0  0  0
  -15.2545   -5.8334    5.7042 N   0  0  0  0  0  0  0  0  0  0  0  0
  -16.2497   -6.6378    5.3109 C   0  0  0  0  0  0  0  0  0  0  0  0
  -14.6490   -6.0323    6.5335 H   0  0  0  0  0  0  0  0  0  0  0  0
  -10.8083   -7.9761    8.8543 O   0  0  0  0  0  0  0  0  0  0  0  0
   -9.9946   -6.8648    8.5886 C   0  0  0  0  0  0  0  0  0  0  0  0
   -6.9208   -6.2188    4.8643 F   0  0  0  0  0  0  0  0  0  0  0  0
   -7.3306   -6.9724    5.9104 C   0  0  0  0  0  0  0  0  0  0  0  0
   -6.6921   -8.1689    6.2323 C   0  0  0  0  0  0  0  0  0  0  0  0
   -7.1252   -8.9212    7.3015 C   0  0  0  0  0  0  0  0  0  0  0  0
   -8.1944   -8.4886    8.0558 C   0  0  0  0  0  0  0  0  0  0  0  0
   -8.8480   -7.3097    7.7639 C   0  0  0  0  0  0  0  0  0  0  0  0
   -8.4022   -6.5749    6.6960 C   0  0  0  0  0  0  0  0  0  0  0  0
 22 23  1  0  0  0
 23 24  2  0  0  0
 24 25  1  0  0  0
 25 26  2  0  0  0
 26 27  1  0  0  0
 27 21  1  0  0  0
 21 20  1  0  0  0
 20  1  1  0  0  0
  1  2  2  0  0  0
  2  3  1  0  0  0
  3  4  2  0  0  0
  4  8  1  0  0  0
  8 10  1  0  0  0
 10 11  2  0  0  0
 11 12  1  0  0  0
 12 13  2  0  0  0
 13 14  1  0  0  0
 14 15  1  0  0  0
 15 16  2  0  0  0
 16 17  1  0  0  0
 17 18  1  0  0  0
  4  5  1  0  0  0
  5  6  2  0  0  0
  6  7  1  0  0  0
 27 28  2  0  0  0
 28 23  1  0  0  0
  6  1  1  0  0  0
 18 10  1  0  0  0
 18 14  2  0  0  0
  8  9  1  0  0  0
 17 19  1  0  0  0
M  END
> <minimizedAffinity>
-10.16982

> <CNNscore>
0.7983778119

> <CNNaffinity>
7.8596458435

> <CNN_VS>
6.2749667168

> <CNNaffinity_variance>
0.0860885307

$$$$
[H]c1nc(N([H])c2c([H])c([H])c(OC([H])([H])c3c([H])c([H])c([H])c(F)c3[H])c(Cl)c2[H])c2c(n1)c([H])c([H])n2[H]


 28 31  0  0  0  0  0  0  0  0999 V2000
  -14.3377   -8.0703    7.5729 C   0  0  0  0  0  0  0  0  0  0  0  0
  -13.9179   -8.6001    6.3761 C   0  0  0  0  0  0  0  0  0  0  0  0
  -12.7093   -9.2436    6.2957 C   0  0  0  0  0  0  0  0  0  0  0  0
  -11.8433   -9.4040    7.3860 C   0  0  0  0  0  0  0  0  0  0  0  0
  -12.2817   -8.8684    8.5703 C   0  0  0  0  0  0  0  0  0  0  0  0
  -13.5190   -8.2059    8.6653 C   0  0  0  0  0  0  0  0  0  0  0  0
  -14.0414   -7.5372   10.1906 Cl  0  0  0  0  0  0  0  0  0  0  0  0
  -10.6391  -10.0858    7.2201 N   0  0  0  0  0  0  0  0  0  0  0  0
  -10.7271  -11.0848    6.8137 H   0  0  0  0  0  0  0  0  0  0  0  0
   -9.3343   -9.6884    7.5009 C   0  0  0  0  0  0  0  0  0  0  0  0
   -8.3422  -10.4938    7.9007 N   0  0  0  0  0  0  0  0  0  0  0  0
   -7.0951  -10.0764    8.1771 C   0  0  0  0  0  0  0  0  0  0  0  0
   -6.7536   -8.7757    8.0649 N   0  0  0  0  0  0  0  0  0  0  0  0
   -7.6934   -7.8916    7.6670 C   0  0  0  0  0  0  0  0  0  0  0  0
   -7.6345   -6.5130    7.4649 C   0  0  0  0  0  0  0  0  0  0  0  0
   -8.9026   -6.1557    7.0600 C   0  0  0  0  0  0  0  0  0  0  0  0
   -9.6844   -7.2729    7.0223 N   0  0  0  0  0  0  0  0  0  0  0  0
   -8.9644   -8.3403    7.3891 C   0  0  0  0  0  0  0  0  0  0  0  0
  -10.6938   -7.3260    6.7536 H   0  0  0  0  0  0  0  0  0  0  0  0
  -15.5655   -7.4203    7.6384 O   0  0  0  0  0  0  0  0  0  0  0  0
  -16.7689   -8.0135    7.2290 C   0  0  0  0  0  0  0  0  0  0  0  0
  -16.6402   -4.5056    3.8505 F   0  0  0  0  0  0  0  0  0  0  0  0
  -17.0376   -5.7453    4.2182 C   0  0  0  0  0  0  0  0  0  0  0  0
  -17.7691   -6.5559    3.3515 C   0  0  0  0  0  0  0  0  0  0  0  0
  -18.1639   -7.8150    3.7457 C   0  0  0  0  0  0  0  0  0  0  0  0
  -17.8342   -8.2749    5.0023 C   0  0  0  0  0  0  0  0  0  0  0  0
  -17.1117   -7.4982    5.8837 C   0  0  0  0  0  0  0  0  0  0  0  0
  -16.7278   -6.2479    5.4732 C   0  0  0  0  0  0  0  0  0  0  0  0
 22 23  1  0  0  0
 23 24  2  0  0  0
 24 25  1  0  0  0
 25 26  2  0  0  0
 26 27  1  0  0  0
 27 21  1  0  0  0
 21 20  1  0  0  0
 20  1  1  0  0  0
  1  2  2  0  0  0
  2  3  1  0  0  0
  3  4  2  0  0  0
  4  8  1  0  0  0
  8 10  1  0  0  0
 10 11  2  0  0  0
 11 12  1  0  0  0
 12 13  2  0  0  0
 13 14  1  0  0  0
 14 15  1  0  0  0
 15 16  2  0  0  0
 16 17  1  0  0  0
 17 18  1  0  0  0
  4  5  1  0  0  0
  5  6  2  0  0  0
  6  7  1  0  0  0
 27 28  2  0  0  0
 28 23  1  0  0  0
  6  1  1  0  0  0
 18 10  1  0  0  0
 18 14  2  0  0  0
  8  9  1  0  0  0
 17 19  1  0  0  0
M  END
> <minimizedAffinity>
-8.33780

> <CNNscore>
0.7486708760

> <CNNaffinity>
7.4423627853

> <CNN_VS>
5.5718803406

> <CNNaffinity_variance>
0.0186292902

$$$$
[H]c1nc(N([H])c2c([H])c([H])c(OC([H])([H])c3c([H])c([H])c([H])c(F)c3[H])c(Cl)c2[H])c2c(n1)c([H])c([H])n2[H]


 28 31  0  0  0  0  0  0  0  0999 V2000
  -12.8369   -7.1046    8.3670 C   0  0  0  0  0  0  0  0  0  0  0  0
  -12.0162   -7.8667    7.5702 C   0  0  0  0  0  0  0  0  0  0  0  0
  -10.6543   -7.7917    7.7158 C   0  0  0  0  0  0  0  0  0  0  0  0
  -10.0200   -6.9641    8.6524 C   0  0  0  0  0  0  0  0  0  0  0  0
  -10.8574   -6.2128    9.4372 C   0  0  0  0  0  0  0  0  0  0  0  0
  -12.2555   -6.2808    9.2971 C   0  0  0  0  0  0  0  0  0  0  0  0
  -13.2875   -5.3081   10.3148 Cl  0  0  0  0  0  0  0  0  0  0  0  0
   -8.6294   -6.9605    8.7445 N   0  0  0  0  0  0  0  0  0  0  0  0
   -8.2281   -6.5157    9.6456 H   0  0  0  0  0  0  0  0  0  0  0  0
   -7.6678   -7.4342    7.8555 C   0  0  0  0  0  0  0  0  0  0  0  0
   -7.8848   -8.3068    6.8633 N   0  0  0  0  0  0  0  0  0  0  0  0
   -6.9309   -8.7552    6.0297 C   0  0  0  0  0  0  0  0  0  0  0  0
   -5.6522   -8.3399    6.1443 N   0  0  0  0  0  0  0  0  0  0  0  0
   -5.3428   -7.4583    7.1192 C   0  0  0  0  0  0  0  0  0  0  0  0
   -4.1321   -6.8631    7.4727 C   0  0  0  0  0  0  0  0  0  0  0  0
   -4.4315   -6.0525    8.5465 C   0  0  0  0  0  0  0  0  0  0  0  0
   -5.7632   -6.1595    8.8217 N   0  0  0  0  0  0  0  0  0  0  0  0
   -6.3348   -7.0120    7.9621 C   0  0  0  0  0  0  0  0  0  0  0  0
   -6.2910   -5.6674    9.5789 H   0  0  0  0  0  0  0  0  0  0  0  0
  -14.2158   -7.1912    8.2071 O   0  0  0  0  0  0  0  0  0  0  0  0
  -14.8657   -8.3600    7.7836 C   0  0  0  0  0  0  0  0  0  0  0  0
  -14.6766   -8.6786    2.9258 F   0  0  0  0  0  0  0  0  0  0  0  0
  -15.3400   -8.2798    4.0353 C   0  0  0  0  0  0  0  0  0  0  0  0
  -16.5730   -7.6356    3.9469 C   0  0  0  0  0  0  0  0  0  0  0  0
  -17.2318   -7.2378    5.0890 C   0  0  0  0  0  0  0  0  0  0  0  0
  -16.6692   -7.4778    6.3239 C   0  0  0  0  0  0  0  0  0  0  0  0
  -15.4509   -8.1126    6.4460 C   0  0  0  0  0  0  0  0  0  0  0  0
  -14.8105   -8.5011    5.2979 C   0  0  0  0  0  0  0  0  0  0  0  0
 22 23  1  0  0  0
 23 24  2  0  0  0
 24 25  1  0  0  0
 25 26  2  0  0  0
 26 27  1  0  0  0
 27 21  1  0  0  0
 21 20  1  0  0  0
 20  1  1  0  0  0
  1  2  2  0  0  0
  2  3  1  0  0  0
  3  4  2  0  0  0
  4  8  1  0  0  0
  8 10  1  0  0  0
 10 11  2  0  0  0
 11 12  1  0  0  0
 12 13  2  0  0  0
 13 14  1  0  0  0
 14 15  1  0  0  0
 15 16  2  0  0  0
 16 17  1  0  0  0
 17 18  1  0  0  0
  4  5  1  0  0  0
  5  6  2  0  0  0
  6  7  1  0  0  0
 27 28  2  0  0  0
 28 23  1  0  0  0
  6  1  1  0  0  0
 18 10  1  0  0  0
 18 14  2  0  0  0
  8  9  1  0  0  0
 17 19  1  0  0  0
M  END
> <minimizedAffinity>
-9.42601

> <CNNscore>
0.7183867693

> <CNNaffinity>
7.2861166000

> <CNN_VS>
5.2342495918

> <CNNaffinity_variance>
0.0710070878

$$$$
[H]c1nc(N([H])c2c([H])c([H])c(OC([H])([H])c3c([H])c([H])c([H])c(F)c3[H])c(Cl)c2[H])c2c(n1)c([H])c([H])n2[H]


 28 31  0  0  0  0  0  0  0  0999 V2000
  -12.8918   -7.0774    8.2726 C   0  0  0  0  0  0  0  0  0  0  0  0
  -12.0804   -7.8370    7.4640 C   0  0  0  0  0  0  0  0  0  0  0  0
  -10.7202   -7.8148    7.6400 C   0  0  0  0  0  0  0  0  0  0  0  0
  -10.0786   -7.0456    8.6203 C   0  0  0  0  0  0  0  0  0  0  0  0
  -10.9068   -6.2958    9.4162 C   0  0  0  0  0  0  0  0  0  0  0  0
  -12.3030   -6.3098    9.2453 C   0  0  0  0  0  0  0  0  0  0  0  0
  -13.3232   -5.3410   10.2783 Cl  0  0  0  0  0  0  0  0  0  0  0  0
   -8.6910   -7.0938    8.7407 N   0  0  0  0  0  0  0  0  0  0  0  0
   -8.2965   -6.7254    9.6785 H   0  0  0  0  0  0  0  0  0  0  0  0
   -7.7248   -7.5363    7.8406 C   0  0  0  0  0  0  0  0  0  0  0  0
   -7.9314   -8.3931    6.8326 N   0  0  0  0  0  0  0  0  0  0  0  0
   -6.9732   -8.8114    5.9885 C   0  0  0  0  0  0  0  0  0  0  0  0
   -5.7005   -8.3794    6.1080 N   0  0  0  0  0  0  0  0  0  0  0  0
   -5.4016   -7.5119    7.0986 C   0  0  0  0  0  0  0  0  0  0  0  0
   -4.1990   -6.9055    7.4605 C   0  0  0  0  0  0  0  0  0  0  0  0
   -4.5075   -6.1198    8.5501 C   0  0  0  0  0  0  0  0  0  0  0  0
   -5.8368   -6.2519    8.8264 N   0  0  0  0  0  0  0  0  0  0  0  0
   -6.3979   -7.0963    7.9521 C   0  0  0  0  0  0  0  0  0  0  0  0
   -6.3698   -5.7820    9.5939 H   0  0  0  0  0  0  0  0  0  0  0  0
  -14.2690   -7.1100    8.0815 O   0  0  0  0  0  0  0  0  0  0  0  0
  -14.8782   -7.7856    7.0138 C   0  0  0  0  0  0  0  0  0  0  0  0
  -18.5394   -5.6421    4.6185 F   0  0  0  0  0  0  0  0  0  0  0  0
  -17.2128   -5.7283    4.8694 C   0  0  0  0  0  0  0  0  0  0  0  0
  -16.3018   -4.8850    4.2353 C   0  0  0  0  0  0  0  0  0  0  0  0
  -14.9553   -4.9893    4.5050 C   0  0  0  0  0  0  0  0  0  0  0  0
  -14.5074   -5.9315    5.4055 C   0  0  0  0  0  0  0  0  0  0  0  0
  -15.3824   -6.7809    6.0498 C   0  0  0  0  0  0  0  0  0  0  0  0
  -16.7187   -6.6617    5.7682 C   0  0  0  0  0  0  0  0  0  0  0  0
 22 23  1  0  0  0
 23 24  2  0  0  0
 24 25  1  0  0  0
 25 26  2  0  0  0
 26 27  1  0  0  0
 27 21  1  0  0  0
 21 20  1  0  0  0
 20  1  1  0  0  0
  1  2  2  0  0  0
  2  3  1  0  0  0
  3  4  2  0  0  0
  4  8  1  0  0  0
  8 10  1  0  0  0
 10 11  2  0  0  0
 11 12  1  0  0  0
 12 13  2  0  0  0
 13 14  1  0  0  0
 14 15  1  0  0  0
 15 16  2  0  0  0
 16 17  1  0  0  0
 17 18  1  0  0  0
  4  5  1  0  0  0
  5  6  2  0  0  0
  6  7  1  0  0  0
 27 28  2  0  0  0
 28 23  1  0  0  0
  6  1  1  0  0  0
 18 10  1  0  0  0
 18 14  2  0  0  0
  8  9  1  0  0  0
 17 19  1  0  0  0
M  END
> <minimizedAffinity>
-9.78011

> <CNNscore>
0.6918837428

> <CNNaffinity>
7.1999845505

> <CNN_VS>
4.9815521240

> <CNNaffinity_variance>
0.0733318105

$$$$
[H]c1nc(N([H])c2c([H])c([H])c(OC([H])([H])c3c([H])c([H])c([H])c(F)c3[H])c(Cl)c2[H])c2c(n1)c([H])c([H])n2[H]


 28 31  0  0  0  0  0  0  0  0999 V2000
  -10.8480   -8.8640    7.6710 C   0  0  0  0  0  0  0  0  0  0  0  0
  -11.6986   -9.7006    6.9886 C   0  0  0  0  0  0  0  0  0  0  0  0
  -13.0035   -9.3330    6.7802 C   0  0  0  0  0  0  0  0  0  0  0  0
  -13.5484   -8.1225    7.2300 C   0  0  0  0  0  0  0  0  0  0  0  0
  -12.6825   -7.3027    7.9080 C   0  0  0  0  0  0  0  0  0  0  0  0
  -11.3422   -7.6687    8.1283 C   0  0  0  0  0  0  0  0  0  0  0  0
  -10.2715   -6.5978    8.9963 Cl  0  0  0  0  0  0  0  0  0  0  0  0
  -14.8821   -7.8206    6.9613 N   0  0  0  0  0  0  0  0  0  0  0  0
  -15.6030   -8.2970    7.6126 H   0  0  0  0  0  0  0  0  0  0  0  0
  -15.4397   -7.0050    5.9798 C   0  0  0  0  0  0  0  0  0  0  0  0
  -14.9737   -5.8076    5.6028 N   0  0  0  0  0  0  0  0  0  0  0  0
  -15.5436   -5.0379    4.6602 C   0  0  0  0  0  0  0  0  0  0  0  0
  -16.6583   -5.4372    4.0131 N   0  0  0  0  0  0  0  0  0  0  0  0
  -17.1975   -6.6337    4.3304 C   0  0  0  0  0  0  0  0  0  0  0  0
  -18.3226   -7.2963    3.8403 C   0  0  0  0  0  0  0  0  0  0  0  0
  -18.3749   -8.4812    4.5425 C   0  0  0  0  0  0  0  0  0  0  0  0
  -17.3263   -8.5236    5.4140 N   0  0  0  0  0  0  0  0  0  0  0  0
  -16.5981   -7.4062    5.2988 C   0  0  0  0  0  0  0  0  0  0  0  0
  -17.0952   -9.2932    6.0835 H   0  0  0  0  0  0  0  0  0  0  0  0
   -9.5278   -9.2509    7.8748 O   0  0  0  0  0  0  0  0  0  0  0  0
   -8.5846   -9.3304    6.8395 C   0  0  0  0  0  0  0  0  0  0  0  0
   -5.4200   -5.9713    5.2781 F   0  0  0  0  0  0  0  0  0  0  0  0
   -5.9533   -6.6709    6.3059 C   0  0  0  0  0  0  0  0  0  0  0  0
   -5.5178   -6.4751    7.6155 C   0  0  0  0  0  0  0  0  0  0  0  0
   -6.0741   -7.1978    8.6474 C   0  0  0  0  0  0  0  0  0  0  0  0
   -7.0652   -8.1183    8.3835 C   0  0  0  0  0  0  0  0  0  0  0  0
   -7.5184   -8.3360    7.0992 C   0  0  0  0  0  0  0  0  0  0  0  0
   -6.9526   -7.6070    6.0855 C   0  0  0  0  0  0  0  0  0  0  0  0
 22 23  1  0  0  0
 23 24  2  0  0  0
 24 25  1  0  0  0
 25 26  2  0  0  0
 26 27  1  0  0  0
 27 21  1  0  0  0
 21 20  1  0  0  0
 20  1  1  0  0  0
  1  2  2  0  0  0
  2  3  1  0  0  0
  3  4  2  0  0  0
  4  8  1  0  0  0
  8 10  1  0  0  0
 10 11  2  0  0  0
 11 12  1  0  0  0
 12 13  2  0  0  0
 13 14  1  0  0  0
 14 15  1  0  0  0
 15 16  2  0  0  0
 16 17  1  0  0  0
 17 18  1  0  0  0
  4  5  1  0  0  0
  5  6  2  0  0  0
  6  7  1  0  0  0
 27 28  2  0  0  0
 28 23  1  0  0  0
  6  1  1  0  0  0
 18 10  1  0  0  0
 18 14  2  0  0  0
  8  9  1  0  0  0
 17 19  1  0  0  0
M  END
> <minimizedAffinity>
-9.52698

> <CNNscore>
0.6460429430

> <CNNaffinity>
7.6085329056

> <CNN_VS>
4.9154391289

> <CNNaffinity_variance>
0.2389750481

$$$$
[H]c1nc(N([H])c2c([H])c([H])c(OC([H])([H])c3c([H])c([H])c([H])c(F)c3[H])c(Cl)c2[H])c2c(n1)c([H])c([H])n2[H]


 28 31  0  0  0  0  0  0  0  0999 V2000
  -12.7630   -7.1162    8.3016 C   0  0  0  0  0  0  0  0  0  0  0  0
  -12.0026   -7.9059    7.4725 C   0  0  0  0  0  0  0  0  0  0  0  0
  -10.6342   -7.8771    7.5610 C   0  0  0  0  0  0  0  0  0  0  0  0
   -9.9335   -7.0712    8.4687 C   0  0  0  0  0  0  0  0  0  0  0  0
  -10.7114   -6.2917    9.2865 C   0  0  0  0  0  0  0  0  0  0  0  0
  -12.1156   -6.3122    9.2052 C   0  0  0  0  0  0  0  0  0  0  0  0
  -13.0706   -5.3049   10.2634 Cl  0  0  0  0  0  0  0  0  0  0  0  0
   -8.5410   -7.1148    8.5026 N   0  0  0  0  0  0  0  0  0  0  0  0
   -8.1115   -7.3961    9.4551 H   0  0  0  0  0  0  0  0  0  0  0  0
   -7.6080   -6.8467    7.5040 C   0  0  0  0  0  0  0  0  0  0  0  0
   -7.8267   -6.9404    6.1863 N   0  0  0  0  0  0  0  0  0  0  0  0
   -6.8997   -6.6874    5.2469 C   0  0  0  0  0  0  0  0  0  0  0  0
   -5.6488   -6.3103    5.5845 N   0  0  0  0  0  0  0  0  0  0  0  0
   -5.3399   -6.1901    6.8934 C   0  0  0  0  0  0  0  0  0  0  0  0
   -4.1540   -5.8256    7.5304 C   0  0  0  0  0  0  0  0  0  0  0  0
   -4.4396   -5.8800    8.8777 C   0  0  0  0  0  0  0  0  0  0  0  0
   -5.7397   -6.2607    9.0376 N   0  0  0  0  0  0  0  0  0  0  0  0
   -6.3041   -6.4541    7.8391 C   0  0  0  0  0  0  0  0  0  0  0  0
   -6.2507   -6.3916    9.9408 H   0  0  0  0  0  0  0  0  0  0  0  0
  -14.1495   -7.1561    8.1997 O   0  0  0  0  0  0  0  0  0  0  0  0
  -14.8235   -7.8725    7.1996 C   0  0  0  0  0  0  0  0  0  0  0  0
  -14.5323   -4.0521    4.1902 F   0  0  0  0  0  0  0  0  0  0  0  0
  -15.2880   -5.0062    4.7808 C   0  0  0  0  0  0  0  0  0  0  0  0
  -16.6566   -5.0993    4.5333 C   0  0  0  0  0  0  0  0  0  0  0  0
  -17.4077   -6.0782    5.1450 C   0  0  0  0  0  0  0  0  0  0  0  0
  -16.8032   -6.9691    6.0052 C   0  0  0  0  0  0  0  0  0  0  0  0
  -15.4515   -6.9043    6.2716 C   0  0  0  0  0  0  0  0  0  0  0  0
  -14.7207   -5.9231    5.6533 C   0  0  0  0  0  0  0  0  0  0  0  0
 22 23  1  0  0  0
 23 24  2  0  0  0
 24 25  1  0  0  0
 25 26  2  0  0  0
 26 27  1  0  0  0
 27 21  1  0  0  0
 21 20  1  0  0  0
 20  1  1  0  0  0
  1  2  2  0  0  0
  2  3  1  0  0  0
  3  4  2  0  0  0
  4  8  1  0  0  0
  8 10  1  0  0  0
 10 11  2  0  0  0
 11 12  1  0  0  0
 12 13  2  0  0  0
 13 14  1  0  0  0
 14 15  1  0  0  0
 15 16  2  0  0  0
 16 17  1  0  0  0
 17 18  1  0  0  0
  4  5  1  0  0  0
  5  6  2  0  0  0
  6  7  1  0  0  0
 27 28  2  0  0  0
 28 23  1  0  0  0
  6  1  1  0  0  0
 18 10  1  0  0  0
 18 14  2  0  0  0
  8  9  1  0  0  0
 17 19  1  0  0  0
M  END
> <minimizedAffinity>
-9.76186

> <CNNscore>
0.6265087128

> <CNNaffinity>
7.2657613754

> <CNN_VS>
4.5520629883

> <CNNaffinity_variance>
0.1889039874

$$$$
[H]c1nc(N([H])c2c([H])c([H])c(OC([H])([H])c3c([H])c([H])c([H])c(F)c3[H])c(Cl)c2[H])c2c(n1)c([H])c([H])n2[H]


 28 31  0  0  0  0  0  0  0  0999 V2000
  -10.9061   -8.0197    8.1843 C   0  0  0  0  0  0  0  0  0  0  0  0
  -11.6530   -6.9766    8.6774 C   0  0  0  0  0  0  0  0  0  0  0  0
  -12.9644   -6.8327    8.3022 C   0  0  0  0  0  0  0  0  0  0  0  0
  -13.6180   -7.7051    7.4212 C   0  0  0  0  0  0  0  0  0  0  0  0
  -12.8548   -8.7390    6.9416 C   0  0  0  0  0  0  0  0  0  0  0  0
  -11.5088   -8.8969    7.3186 C   0  0  0  0  0  0  0  0  0  0  0  0
  -10.5704  -10.2256    6.6858 Cl  0  0  0  0  0  0  0  0  0  0  0  0
  -14.9588   -7.4944    7.1048 N   0  0  0  0  0  0  0  0  0  0  0  0
  -15.6694   -7.9382    7.7897 H   0  0  0  0  0  0  0  0  0  0  0  0
  -15.5344   -6.8062    6.0397 C   0  0  0  0  0  0  0  0  0  0  0  0
  -15.1227   -5.6260    5.5594 N   0  0  0  0  0  0  0  0  0  0  0  0
  -15.7090   -4.9805    4.5371 C   0  0  0  0  0  0  0  0  0  0  0  0
  -16.7854   -5.4988    3.9097 N   0  0  0  0  0  0  0  0  0  0  0  0
  -17.2688   -6.6877    4.3291 C   0  0  0  0  0  0  0  0  0  0  0  0
  -18.3456   -7.4536    3.8829 C   0  0  0  0  0  0  0  0  0  0  0  0
  -18.3528   -8.5683    4.6935 C   0  0  0  0  0  0  0  0  0  0  0  0
  -17.3248   -8.4715    5.5850 N   0  0  0  0  0  0  0  0  0  0  0  0
  -16.6534   -7.3320    5.3779 C   0  0  0  0  0  0  0  0  0  0  0  0
  -17.0701   -9.1610    6.3291 H   0  0  0  0  0  0  0  0  0  0  0  0
   -9.5775   -8.1520    8.5737 O   0  0  0  0  0  0  0  0  0  0  0  0
   -8.6719   -7.0808    8.5827 C   0  0  0  0  0  0  0  0  0  0  0  0
   -6.5911   -9.1597    4.6987 F   0  0  0  0  0  0  0  0  0  0  0  0
   -6.4536   -8.5134    5.8792 C   0  0  0  0  0  0  0  0  0  0  0  0
   -5.1942   -8.2094    6.3935 C   0  0  0  0  0  0  0  0  0  0  0  0
   -5.0764   -7.5508    7.5973 C   0  0  0  0  0  0  0  0  0  0  0  0
   -6.2087   -7.1912    8.2957 C   0  0  0  0  0  0  0  0  0  0  0  0
   -7.4693   -7.4771    7.8147 C   0  0  0  0  0  0  0  0  0  0  0  0
   -7.5661   -8.1331    6.6149 C   0  0  0  0  0  0  0  0  0  0  0  0
 22 23  1  0  0  0
 23 24  2  0  0  0
 24 25  1  0  0  0
 25 26  2  0  0  0
 26 27  1  0  0  0
 27 21  1  0  0  0
 21 20  1  0  0  0
 20  1  1  0  0  0
  1  2  2  0  0  0
  2  3  1  0  0  0
  3  4  2  0  0  0
  4  8  1  0  0  0
  8 10  1  0  0  0
 10 11  2  0  0  0
 11 12  1  0  0  0
 12 13  2  0  0  0
 13 14  1  0  0  0
 14 15  1  0  0  0
 15 16  2  0  0  0
 16 17  1  0  0  0
 17 18  1  0  0  0
  4  5  1  0  0  0
  5  6  2  0  0  0
  6  7  1  0  0  0
 27 28  2  0  0  0
 28 23  1  0  0  0
  6  1  1  0  0  0
 18 10  1  0  0  0
 18 14  2  0  0  0
  8  9  1  0  0  0
 17 19  1  0  0  0
M  END
> <minimizedAffinity>
-9.27904

> <CNNscore>
0.5955317020

> <CNNaffinity>
7.4953165054

> <CNN_VS>
4.4636983871

> <CNNaffinity_variance>
0.1785225868

$$$$
[H]c1nc(N([H])c2c([H])c([H])c(OC([H])([H])c3c([H])c([H])c([H])c(F)c3[H])c(Cl)c2[H])c2c(n1)c([H])c([H])n2[H]


 28 31  0  0  0  0  0  0  0  0999 V2000
  -11.8271   -7.4258    8.8006 C   0  0  0  0  0  0  0  0  0  0  0  0
  -12.1075   -8.3328    7.8068 C   0  0  0  0  0  0  0  0  0  0  0  0
  -13.4035   -8.5332    7.4049 C   0  0  0  0  0  0  0  0  0  0  0  0
  -14.4989   -7.8541    7.9558 C   0  0  0  0  0  0  0  0  0  0  0  0
  -14.1967   -6.9536    8.9454 C   0  0  0  0  0  0  0  0  0  0  0  0
  -12.8717   -6.7396    9.3664 C   0  0  0  0  0  0  0  0  0  0  0  0
  -12.5280   -5.5850   10.6295 Cl  0  0  0  0  0  0  0  0  0  0  0  0
  -15.7831   -8.1072    7.4773 N   0  0  0  0  0  0  0  0  0  0  0  0
  -16.3592   -8.8173    8.0560 H   0  0  0  0  0  0  0  0  0  0  0  0
  -16.4456   -7.5953    6.3644 C   0  0  0  0  0  0  0  0  0  0  0  0
  -17.3538   -6.6116    6.3810 N   0  0  0  0  0  0  0  0  0  0  0  0
  -17.9860   -6.1487    5.2894 C   0  0  0  0  0  0  0  0  0  0  0  0
  -17.7365   -6.6637    4.0673 N   0  0  0  0  0  0  0  0  0  0  0  0
  -16.8330   -7.6611    3.9574 C   0  0  0  0  0  0  0  0  0  0  0  0
  -16.3787   -8.3745    2.8484 C   0  0  0  0  0  0  0  0  0  0  0  0
  -15.4571   -9.2681    3.3503 C   0  0  0  0  0  0  0  0  0  0  0  0
  -15.3657   -9.0955    4.7003 N   0  0  0  0  0  0  0  0  0  0  0  0
  -16.1970   -8.1203    5.0880 C   0  0  0  0  0  0  0  0  0  0  0  0
  -14.7525   -9.6242    5.3623 H   0  0  0  0  0  0  0  0  0  0  0  0
  -10.5080   -7.2340    9.1976 O   0  0  0  0  0  0  0  0  0  0  0  0
   -9.6282   -6.3639    8.5369 C   0  0  0  0  0  0  0  0  0  0  0  0
   -7.1226  -10.4936    7.9009 F   0  0  0  0  0  0  0  0  0  0  0  0
   -7.3998   -9.2330    7.4956 C   0  0  0  0  0  0  0  0  0  0  0  0
   -6.7659   -8.6753    6.3863 C   0  0  0  0  0  0  0  0  0  0  0  0
   -7.0627   -7.3901    5.9905 C   0  0  0  0  0  0  0  0  0  0  0  0
   -7.9902   -6.6528    6.6943 C   0  0  0  0  0  0  0  0  0  0  0  0
   -8.6350   -7.1749    7.7960 C   0  0  0  0  0  0  0  0  0  0  0  0
   -8.3263   -8.4558    8.1745 C   0  0  0  0  0  0  0  0  0  0  0  0
 22 23  1  0  0  0
 23 24  2  0  0  0
 24 25  1  0  0  0
 25 26  2  0  0  0
 26 27  1  0  0  0
 27 21  1  0  0  0
 21 20  1  0  0  0
 20  1  1  0  0  0
  1  2  2  0  0  0
  2  3  1  0  0  0
  3  4  2  0  0  0
  4  8  1  0  0  0
  8 10  1  0  0  0
 10 11  2  0  0  0
 11 12  1  0  0  0
 12 13  2  0  0  0
 13 14  1  0  0  0
 14 15  1  0  0  0
 15 16  2  0  0  0
 16 17  1  0  0  0
 17 18  1  0  0  0
  4  5  1  0  0  0
  5  6  2  0  0  0
  6  7  1  0  0  0
 27 28  2  0  0  0
 28 23  1  0  0  0
  6  1  1  0  0  0
 18 10  1  0  0  0
 18 14  2  0  0  0
  8  9  1  0  0  0
 17 19  1  0  0  0
M  END
> <minimizedAffinity>
-7.86115

> <CNNscore>
0.5856717825

> <CNNaffinity>
7.5247588158

> <CNN_VS>
4.4070386887

> <CNNaffinity_variance>
0.0689071566

$$$$
[H]N=C(N([H])[H])N([H])C([H])([H])C([H])([H])C([H])([H])[C@@]([H])(C(=O)N1C([H])([H])C([H])([H])C([H])([H])[C@@]1([H])C(=O)N([H])C([H])([H])C(=O)N([H])[C@]([H])(C(=O)N([H])[C@]([H])(C(=O)N([H])[C@]([H])(C(=O)N([H])[H])C([H])([H])c1c([H])n([H])c2c([H])c([H])c([H])c([H])c12)C([H])([H])C([H])(C([H])([H])[H])C([H])([H])[H])C([H])([H])c1c([H])n([H])c2c([H])c([H])c([H])c([H])c12)N([H])[H]


 73 77  0  0  0  0  0  0  0  0999 V2000
   -5.3154   -6.4868    6.9132 C   0  0  0  0  0  0  0  0  0  0  0  0
   -5.2269   -5.1823    6.2794 N   0  0  0  0  0  0  0  0  0  0  0  0
   -4.1231   -4.8900    5.4148 C   0  0  0  0  0  0  0  0  0  0  0  0
   -3.2624   -5.7476    5.1839 O   0  0  0  0  0  0  0  0  0  0  0  0
   -5.9822   -4.5002    6.4539 H   0  0  0  0  0  0  0  0  0  0  0  0
   -4.0131   -3.5411    4.7973 C   0  0  0  0  0  0  0  0  0  0  0  0
   -3.0308   -3.5684    3.7072 N   0  0  0  0  0  0  0  0  0  0  0  0
   -1.8300   -2.8221    3.7612 C   0  0  0  0  0  0  0  0  0  0  0  0
   -1.6151   -2.1405    4.8092 O   0  0  0  0  0  0  0  0  0  0  0  0
   -3.2115   -4.1440    2.8610 H   0  0  0  0  0  0  0  0  0  0  0  0
   -0.7934   -2.7498    2.7240 C   0  0  0  0  0  0  0  0  0  0  0  0
    0.3242   -1.8172    2.9902 C   0  0  0  0  0  0  0  0  0  0  0  0
    0.0798   -0.5586    2.2291 C   0  0  0  0  0  0  0  0  0  0  0  0
   -1.2757   -0.8494    1.5594 C   0  0  0  0  0  0  0  0  0  0  0  0
   -1.3404   -2.2672    1.4357 N   0  0  0  0  0  0  0  0  0  0  0  0
   -1.7993   -3.1334    0.4647 C   0  0  0  0  0  0  0  0  0  0  0  0
   -1.7953   -4.4229    0.6420 O   0  0  0  0  0  0  0  0  0  0  0  0
   -2.3678   -2.7949   -0.9084 C   0  0  0  0  0  0  0  0  0  0  0  0
   -1.6606   -3.6066   -1.8794 N   0  0  0  0  0  0  0  0  0  0  0  0
   -1.0090   -3.1358   -2.4876 H   0  0  0  0  0  0  0  0  0  0  0  0
   -1.5860   -4.5931   -1.6721 H   0  0  0  0  0  0  0  0  0  0  0  0
   -3.8161   -3.1492   -0.9267 C   0  0  0  0  0  0  0  0  0  0  0  0
   -4.8464   -2.3553   -0.2977 C   0  0  0  0  0  0  0  0  0  0  0  0
   -5.1000   -0.9378   -0.5125 C   0  0  0  0  0  0  0  0  0  0  0  0
   -5.6878   -0.5871   -1.7766 N   0  0  0  0  0  0  0  0  0  0  0  0
   -5.0904   -0.0756   -2.4859 H   0  0  0  0  0  0  0  0  0  0  0  0
   -7.0556   -0.8628   -2.0785 C   0  0  0  0  0  0  0  0  0  0  0  0
   -8.0657   -0.3617   -1.2157 N   0  0  0  0  0  0  0  0  0  0  0  0
   -7.3486   -1.5541   -3.1242 N   0  0  0  0  0  0  0  0  0  0  0  0
   -9.0586   -0.3066   -1.5409 H   0  0  0  0  0  0  0  0  0  0  0  0
   -7.8099   -0.0514   -0.2548 H   0  0  0  0  0  0  0  0  0  0  0  0
   -6.5697   -1.8960   -3.7246 H   0  0  0  0  0  0  0  0  0  0  0  0
   -7.6199   -7.1234    7.7535 N   0  0  0  0  0  0  0  0  0  0  0  0
   -6.6644   -7.0555    6.6980 C   0  0  0  0  0  0  0  0  0  0  0  0
   -6.9592   -7.4898    5.5695 O   0  0  0  0  0  0  0  0  0  0  0  0
   -7.3000   -6.7194    8.6711 H   0  0  0  0  0  0  0  0  0  0  0  0
   -8.9323   -7.6570    7.6935 C   0  0  0  0  0  0  0  0  0  0  0  0
   -9.9996   -6.7643    8.1782 C   0  0  0  0  0  0  0  0  0  0  0  0
   -9.7698   -5.5331    8.2671 O   0  0  0  0  0  0  0  0  0  0  0  0
  -11.3105   -7.1725    8.5703 N   0  0  0  0  0  0  0  0  0  0  0  0
  -11.5233   -8.1711    8.5422 H   0  0  0  0  0  0  0  0  0  0  0  0
  -12.2737   -6.2403    9.0115 C   0  0  0  0  0  0  0  0  0  0  0  0
  -11.9538   -5.5427   10.2837 C   0  0  0  0  0  0  0  0  0  0  0  0
  -11.9158   -4.1223   10.3913 N   0  0  0  0  0  0  0  0  0  0  0  0
  -11.7050   -6.2017   11.3008 O   0  0  0  0  0  0  0  0  0  0  0  0
  -11.0857   -3.5546   10.6334 H   0  0  0  0  0  0  0  0  0  0  0  0
  -12.7966   -3.6041   10.2103 H   0  0  0  0  0  0  0  0  0  0  0  0
  -13.6600   -6.8026    9.1242 C   0  0  0  0  0  0  0  0  0  0  0  0
  -14.0935   -7.6774    8.0175 C   0  0  0  0  0  0  0  0  0  0  0  0
  -14.2017   -9.0590    8.0952 C   0  0  0  0  0  0  0  0  0  0  0  0
  -14.5736   -9.5072    6.8987 N   0  0  0  0  0  0  0  0  0  0  0  0
  -14.7179   -8.4891    6.0309 C   0  0  0  0  0  0  0  0  0  0  0  0
  -15.1015   -8.4098    4.7014 C   0  0  0  0  0  0  0  0  0  0  0  0
  -15.1901   -7.2052    4.0638 C   0  0  0  0  0  0  0  0  0  0  0  0
  -14.8981   -6.0060    4.7206 C   0  0  0  0  0  0  0  0  0  0  0  0
  -14.5212   -6.1148    6.0333 C   0  0  0  0  0  0  0  0  0  0  0  0
  -14.4204   -7.3087    6.7102 C   0  0  0  0  0  0  0  0  0  0  0  0
  -14.7336  -10.5281    6.6638 H   0  0  0  0  0  0  0  0  0  0  0  0
   -9.0606   -9.0887    8.0667 C   0  0  0  0  0  0  0  0  0  0  0  0
  -11.0570   -9.9857    6.8953 C   0  0  0  0  0  0  0  0  0  0  0  0
   -9.5432  -10.1068    7.1596 C   0  0  0  0  0  0  0  0  0  0  0  0
   -8.8828  -10.3709    5.8640 C   0  0  0  0  0  0  0  0  0  0  0  0
   -4.8324   -6.4655    8.3084 C   0  0  0  0  0  0  0  0  0  0  0  0
   -3.3911   -6.5296    8.5717 C   0  0  0  0  0  0  0  0  0  0  0  0
   -2.6355   -5.6308    9.3460 C   0  0  0  0  0  0  0  0  0  0  0  0
   -1.3539   -5.9614    9.3692 N   0  0  0  0  0  0  0  0  0  0  0  0
   -1.2128   -7.0787    8.6221 C   0  0  0  0  0  0  0  0  0  0  0  0
   -0.0553   -7.7915    8.3793 C   0  0  0  0  0  0  0  0  0  0  0  0
   -0.1635   -8.9188    7.6003 C   0  0  0  0  0  0  0  0  0  0  0  0
   -1.3837   -9.3104    7.0897 C   0  0  0  0  0  0  0  0  0  0  0  0
   -2.5291   -8.5860    7.3431 C   0  0  0  0  0  0  0  0  0  0  0  0
   -2.4584   -7.4458    8.1218 C   0  0  0  0  0  0  0  0  0  0  0  0
   -0.5590   -5.4593    9.8723 H   0  0  0  0  0  0  0  0  0  0  0  0
 60 61  1  0  0  0
 61 62  1  0  0  0
 61 59  1  0  0  0
 59 37  1  0  0  0
 37 33  1  0  0  0
 33 34  1  0  0  0
 34 35  2  0  0  0
 34  1  1  0  0  0
  1 63  1  0  0  0
 63 64  1  0  0  0
 64 65  2  0  0  0
 65 66  1  0  0  0
 66 67  1  0  0  0
 67 68  2  0  0  0
 68 69  1  0  0  0
 69 70  2  0  0  0
 70 71  1  0  0  0
 71 72  2  0  0  0
  1  2  1  0  0  0
  2  3  1  0  0  0
  3  4  2  0  0  0
  3  6  1  0  0  0
  6  7  1  0  0  0
  7  8  1  0  0  0
  8  9  2  0  0  0
  8 11  1  0  0  0
 11 12  1  0  0  0
 12 13  1  0  0  0
 13 14  1  0  0  0
 14 15  1  0  0  0
 15 16  1  0  0  0
 16 17  2  0  0  0
 16 18  1  0  0  0
 18 19  1  0  0  0
 18 22  1  0  0  0
 22 23  1  0  0  0
 23 24  1  0  0  0
 24 25  1  0  0  0
 25 27  1  0  0  0
 27 28  1  0  0  0
 27 29  2  0  0  0
 37 38  1  0  0  0
 38 39  2  0  0  0
 38 40  1  0  0  0
 40 42  1  0  0  0
 42 48  1  0  0  0
 48 49  1  0  0  0
 49 50  2  0  0  0
 50 51  1  0  0  0
 51 52  1  0  0  0
 52 53  2  0  0  0
 53 54  1  0  0  0
 54 55  2  0  0  0
 55 56  1  0  0  0
 56 57  2  0  0  0
 42 43  1  0  0  0
 43 44  1  0  0  0
 43 45  2  0  0  0
 72 64  1  0  0  0
 15 11  1  0  0  0
 57 49  1  0  0  0
 72 67  1  0  0  0
 57 52  1  0  0  0
 33 36  1  0  0  0
 66 73  1  0  0  0
  2  5  1  0  0  0
  7 10  1  0  0  0
 19 20  1  0  0  0
 19 21  1  0  0  0
 25 26  1  0  0  0
 28 30  1  0  0  0
 28 31  1  0  0  0
 29 32  1  0  0  0
 40 41  1  0  0  0
 51 58  1  0  0  0
 44 46  1  0  0  0
 44 47  1  0  0  0
M  END
> <minimizedAffinity>
-7.04161

> <CNNscore>
0.3254550993

> <CNNaffinity>
7.4640936852

> <CNN_VS>
2.4292273521

> <CNNaffinity_variance>
0.0566053763

$$$$
[H]N=C(N([H])[H])N([H])C([H])([H])C([H])([H])C([H])([H])[C@@]([H])(C(=O)N1C([H])([H])C([H])([H])C([H])([H])[C@@]1([H])C(=O)N([H])C([H])([H])C(=O)N([H])[C@]([H])(C(=O)N([H])[C@]([H])(C(=O)N([H])[C@]([H])(C(=O)N([H])[H])C([H])([H])c1c([H])n([H])c2c([H])c([H])c([H])c([H])c12)C([H])([H])C([H])(C([H])([H])[H])C([H])([H])[H])C([H])([H])c1c([H])n([H])c2c([H])c([H])c([H])c([H])c12)N([H])[H]


 73 77  0  0  0  0  0  0  0  0999 V2000
   -4.9843   -6.8008    7.4592 C   0  0  0  0  0  0  0  0  0  0  0  0
   -6.2084   -7.3954    7.9686 N   0  0  0  0  0  0  0  0  0  0  0  0
   -6.8770   -8.4034    7.2015 C   0  0  0  0  0  0  0  0  0  0  0  0
   -6.4056   -8.7887    6.1250 O   0  0  0  0  0  0  0  0  0  0  0  0
   -6.5562   -7.0874    8.8907 H   0  0  0  0  0  0  0  0  0  0  0  0
   -8.1506   -8.9835    7.7057 C   0  0  0  0  0  0  0  0  0  0  0  0
   -9.1130   -7.9111    7.9846 N   0  0  0  0  0  0  0  0  0  0  0  0
  -10.5088   -8.1046    7.8568 C   0  0  0  0  0  0  0  0  0  0  0  0
  -10.9074   -9.2592    7.5147 O   0  0  0  0  0  0  0  0  0  0  0  0
   -8.7740   -6.9744    8.2800 H   0  0  0  0  0  0  0  0  0  0  0  0
  -11.5584   -7.1025    8.0797 C   0  0  0  0  0  0  0  0  0  0  0  0
  -11.4399   -6.3068    9.3217 C   0  0  0  0  0  0  0  0  0  0  0  0
  -12.3676   -6.8792   10.3389 C   0  0  0  0  0  0  0  0  0  0  0  0
  -12.9731   -8.0748    9.5811 C   0  0  0  0  0  0  0  0  0  0  0  0
  -12.8950   -7.7273    8.2016 N   0  0  0  0  0  0  0  0  0  0  0  0
  -13.7286   -7.8908    7.1143 C   0  0  0  0  0  0  0  0  0  0  0  0
  -13.3715   -7.5229    5.9180 O   0  0  0  0  0  0  0  0  0  0  0  0
  -15.1287   -8.4924    7.0818 C   0  0  0  0  0  0  0  0  0  0  0  0
  -15.9856   -7.6325    7.8744 N   0  0  0  0  0  0  0  0  0  0  0  0
  -16.2995   -7.9874    8.7642 H   0  0  0  0  0  0  0  0  0  0  0  0
  -15.9344   -6.6423    7.6783 H   0  0  0  0  0  0  0  0  0  0  0  0
  -15.6100   -8.5070    5.6705 C   0  0  0  0  0  0  0  0  0  0  0  0
  -16.9738   -8.2294    5.2828 C   0  0  0  0  0  0  0  0  0  0  0  0
  -17.4191   -7.6952    4.0037 C   0  0  0  0  0  0  0  0  0  0  0  0
  -16.8329   -6.4448    3.6044 N   0  0  0  0  0  0  0  0  0  0  0  0
  -16.3579   -6.3895    2.6595 H   0  0  0  0  0  0  0  0  0  0  0  0
  -16.8305   -5.3019    4.4598 C   0  0  0  0  0  0  0  0  0  0  0  0
  -15.5957   -4.6675    4.7578 N   0  0  0  0  0  0  0  0  0  0  0  0
  -17.9421   -4.8660    4.9410 N   0  0  0  0  0  0  0  0  0  0  0  0
  -15.5810   -3.6947    5.1427 H   0  0  0  0  0  0  0  0  0  0  0  0
  -14.7042   -5.1800    4.5920 H   0  0  0  0  0  0  0  0  0  0  0  0
  -18.8195   -5.3668    4.6893 H   0  0  0  0  0  0  0  0  0  0  0  0
   -4.7654   -5.3045    9.4927 N   0  0  0  0  0  0  0  0  0  0  0  0
   -4.1976   -6.2410    8.5803 C   0  0  0  0  0  0  0  0  0  0  0  0
   -3.0121   -6.5946    8.7166 O   0  0  0  0  0  0  0  0  0  0  0  0
   -5.7769   -5.0711    9.3200 H   0  0  0  0  0  0  0  0  0  0  0  0
   -4.1256   -4.6772   10.5918 C   0  0  0  0  0  0  0  0  0  0  0  0
   -4.6927   -4.9902   11.9151 C   0  0  0  0  0  0  0  0  0  0  0  0
   -5.5294   -5.9213   12.0142 O   0  0  0  0  0  0  0  0  0  0  0  0
   -4.3768   -4.3185   13.1349 N   0  0  0  0  0  0  0  0  0  0  0  0
   -3.7243   -3.5341   13.0878 H   0  0  0  0  0  0  0  0  0  0  0  0
   -4.9636   -4.6980   14.3609 C   0  0  0  0  0  0  0  0  0  0  0  0
   -6.3747   -4.2747   14.5534 C   0  0  0  0  0  0  0  0  0  0  0  0
   -7.4785   -5.1221   14.2469 N   0  0  0  0  0  0  0  0  0  0  0  0
   -6.6235   -3.1455   14.9935 O   0  0  0  0  0  0  0  0  0  0  0  0
   -8.2068   -4.9361   13.5363 H   0  0  0  0  0  0  0  0  0  0  0  0
   -7.5649   -6.0085   14.7800 H   0  0  0  0  0  0  0  0  0  0  0  0
   -4.1810   -4.2742   15.5687 C   0  0  0  0  0  0  0  0  0  0  0  0
   -4.2339   -5.1892   16.7254 C   0  0  0  0  0  0  0  0  0  0  0  0
   -4.8553   -4.9044   17.9334 C   0  0  0  0  0  0  0  0  0  0  0  0
   -4.6595   -5.9390   18.7471 N   0  0  0  0  0  0  0  0  0  0  0  0
   -3.9384   -6.8970   18.1366 C   0  0  0  0  0  0  0  0  0  0  0  0
   -3.4905   -8.1510   18.5209 C   0  0  0  0  0  0  0  0  0  0  0  0
   -2.7831   -8.9414   17.6603 C   0  0  0  0  0  0  0  0  0  0  0  0
   -2.4805   -8.5215   16.3616 C   0  0  0  0  0  0  0  0  0  0  0  0
   -2.9351   -7.2779   16.0096 C   0  0  0  0  0  0  0  0  0  0  0  0
   -3.6505   -6.4528   16.8471 C   0  0  0  0  0  0  0  0  0  0  0  0
   -5.0232   -5.9979   19.7407 H   0  0  0  0  0  0  0  0  0  0  0  0
   -3.7153   -3.2664   10.3756 C   0  0  0  0  0  0  0  0  0  0  0  0
   -3.3152   -1.2181    9.0314 C   0  0  0  0  0  0  0  0  0  0  0  0
   -3.2600   -2.7571    9.1007 C   0  0  0  0  0  0  0  0  0  0  0  0
   -1.9772   -3.1857    8.5049 C   0  0  0  0  0  0  0  0  0  0  0  0
   -5.2338   -5.8933    6.3214 C   0  0  0  0  0  0  0  0  0  0  0  0
   -4.1123   -5.1568    5.7294 C   0  0  0  0  0  0  0  0  0  0  0  0
   -4.0678   -3.7814    5.4382 C   0  0  0  0  0  0  0  0  0  0  0  0
   -2.9144   -3.4338    4.8892 N   0  0  0  0  0  0  0  0  0  0  0  0
   -2.1591   -4.5508    4.7982 C   0  0  0  0  0  0  0  0  0  0  0  0
   -0.8735   -4.6630    4.3071 C   0  0  0  0  0  0  0  0  0  0  0  0
   -0.2960   -5.9100    4.3374 C   0  0  0  0  0  0  0  0  0  0  0  0
   -0.9833   -6.9948    4.8408 C   0  0  0  0  0  0  0  0  0  0  0  0
   -2.2666   -6.8636    5.3274 C   0  0  0  0  0  0  0  0  0  0  0  0
   -2.8800   -5.6246    5.3119 C   0  0  0  0  0  0  0  0  0  0  0  0
   -2.6104   -2.4636    4.5677 H   0  0  0  0  0  0  0  0  0  0  0  0
 60 61  1  0  0  0
 61 62  1  0  0  0
 61 59  1  0  0  0
 59 37  1  0  0  0
 37 33  1  0  0  0
 33 34  1  0  0  0
 34 35  2  0  0  0
 34  1  1  0  0  0
  1 63  1  0  0  0
 63 64  1  0  0  0
 64 65  2  0  0  0
 65 66  1  0  0  0
 66 67  1  0  0  0
 67 68  2  0  0  0
 68 69  1  0  0  0
 69 70  2  0  0  0
 70 71  1  0  0  0
 71 72  2  0  0  0
  1  2  1  0  0  0
  2  3  1  0  0  0
  3  4  2  0  0  0
  3  6  1  0  0  0
  6  7  1  0  0  0
  7  8  1  0  0  0
  8  9  2  0  0  0
  8 11  1  0  0  0
 11 12  1  0  0  0
 12 13  1  0  0  0
 13 14  1  0  0  0
 14 15  1  0  0  0
 15 16  1  0  0  0
 16 17  2  0  0  0
 16 18  1  0  0  0
 18 19  1  0  0  0
 18 22  1  0  0  0
 22 23  1  0  0  0
 23 24  1  0  0  0
 24 25  1  0  0  0
 25 27  1  0  0  0
 27 28  1  0  0  0
 27 29  2  0  0  0
 37 38  1  0  0  0
 38 39  2  0  0  0
 38 40  1  0  0  0
 40 42  1  0  0  0
 42 48  1  0  0  0
 48 49  1  0  0  0
 49 50  2  0  0  0
 50 51  1  0  0  0
 51 52  1  0  0  0
 52 53  2  0  0  0
 53 54  1  0  0  0
 54 55  2  0  0  0
 55 56  1  0  0  0
 56 57  2  0  0  0
 42 43  1  0  0  0
 43 44  1  0  0  0
 43 45  2  0  0  0
 72 64  1  0  0  0
 15 11  1  0  0  0
 57 49  1  0  0  0
 72 67  1  0  0  0
 57 52  1  0  0  0
 33 36  1  0  0  0
 66 73  1  0  0  0
  2  5  1  0  0  0
  7 10  1  0  0  0
 19 20  1  0  0  0
 19 21  1  0  0  0
 25 26  1  0  0  0
 28 30  1  0  0  0
 28 31  1  0  0  0
 29 32  1  0  0  0
 40 41  1  0  0  0
 51 58  1  0  0  0
 44 46  1  0  0  0
 44 47  1  0  0  0
M  END
> <minimizedAffinity>
-7.87549

> <CNNscore>
0.2464616895

> <CNNaffinity>
7.8094420433

> <CNN_VS>
1.9247282743

> <CNNaffinity_variance>
0.0663367882

$$$$
[H]N=C(N([H])[H])N([H])C([H])([H])C([H])([H])C([H])([H])[C@@]([H])(C(=O)N1C([H])([H])C([H])([H])C([H])([H])[C@@]1([H])C(=O)N([H])C([H])([H])C(=O)N([H])[C@]([H])(C(=O)N([H])[C@]([H])(C(=O)N([H])[C@]([H])(C(=O)N([H])[H])C([H])([H])c1c([H])n([H])c2c([H])c([H])c([H])c([H])c12)C([H])([H])C([H])(C([H])([H])[H])C([H])([H])[H])C([H])([H])c1c([H])n([H])c2c([H])c([H])c([H])c([H])c12)N([H])[H]


 73 77  0  0  0  0  0  0  0  0999 V2000
   -5.2973   -6.3593    6.8696 C   0  0  0  0  0  0  0  0  0  0  0  0
   -5.2367   -5.1699    6.0371 N   0  0  0  0  0  0  0  0  0  0  0  0
   -4.0710   -4.9218    5.2427 C   0  0  0  0  0  0  0  0  0  0  0  0
   -3.1305   -5.7250    5.2403 O   0  0  0  0  0  0  0  0  0  0  0  0
   -6.0539   -4.5389    6.0234 H   0  0  0  0  0  0  0  0  0  0  0  0
   -3.9941   -3.6843    4.4208 C   0  0  0  0  0  0  0  0  0  0  0  0
   -2.7762   -2.9366    4.7550 N   0  0  0  0  0  0  0  0  0  0  0  0
   -2.8229   -1.6697    5.3831 C   0  0  0  0  0  0  0  0  0  0  0  0
   -3.9672   -1.2073    5.6763 O   0  0  0  0  0  0  0  0  0  0  0  0
   -1.8442   -3.3341    4.5241 H   0  0  0  0  0  0  0  0  0  0  0  0
   -1.6776   -0.8218    5.7366 C   0  0  0  0  0  0  0  0  0  0  0  0
   -0.3889   -1.1779    5.1024 C   0  0  0  0  0  0  0  0  0  0  0  0
    0.4245   -1.9476    6.0868 C   0  0  0  0  0  0  0  0  0  0  0  0
   -0.5278   -2.0274    7.2939 C   0  0  0  0  0  0  0  0  0  0  0  0
   -1.3744   -0.8868    7.1843 N   0  0  0  0  0  0  0  0  0  0  0  0
   -1.9083    0.0117    8.0851 C   0  0  0  0  0  0  0  0  0  0  0  0
   -2.7264    0.9517    7.7094 O   0  0  0  0  0  0  0  0  0  0  0  0
   -1.6783    0.0873    9.5900 C   0  0  0  0  0  0  0  0  0  0  0  0
   -0.3450    0.6181    9.7958 N   0  0  0  0  0  0  0  0  0  0  0  0
    0.3582   -0.0195   10.1352 H   0  0  0  0  0  0  0  0  0  0  0  0
   -0.1085    1.4536    9.2785 H   0  0  0  0  0  0  0  0  0  0  0  0
   -2.6802    1.0209   10.1802 C   0  0  0  0  0  0  0  0  0  0  0  0
   -3.3646    0.7812   11.4298 C   0  0  0  0  0  0  0  0  0  0  0  0
   -2.8461    1.0415   12.7652 C   0  0  0  0  0  0  0  0  0  0  0  0
   -3.6744    1.8517   13.6161 N   0  0  0  0  0  0  0  0  0  0  0  0
   -4.2976    1.3675   14.3223 H   0  0  0  0  0  0  0  0  0  0  0  0
   -3.7159    3.2741   13.5012 C   0  0  0  0  0  0  0  0  0  0  0  0
   -2.5756    4.0292   13.8826 N   0  0  0  0  0  0  0  0  0  0  0  0
   -4.7793    3.8446   13.0529 N   0  0  0  0  0  0  0  0  0  0  0  0
   -2.4673    5.0198   13.5637 H   0  0  0  0  0  0  0  0  0  0  0  0
   -1.8486    3.5890   14.4847 H   0  0  0  0  0  0  0  0  0  0  0  0
   -5.5867    3.2442   12.7854 H   0  0  0  0  0  0  0  0  0  0  0  0
   -7.6096   -7.0029    7.6826 N   0  0  0  0  0  0  0  0  0  0  0  0
   -6.5989   -7.0364    6.6780 C   0  0  0  0  0  0  0  0  0  0  0  0
   -6.8034   -7.6538    5.6169 O   0  0  0  0  0  0  0  0  0  0  0  0
   -7.3661   -6.4457    8.5415 H   0  0  0  0  0  0  0  0  0  0  0  0
   -8.8858   -7.6197    7.6406 C   0  0  0  0  0  0  0  0  0  0  0  0
  -10.0061   -6.7851    8.1088 C   0  0  0  0  0  0  0  0  0  0  0  0
   -9.8693   -5.5371    8.1271 O   0  0  0  0  0  0  0  0  0  0  0  0
  -11.2717   -7.2692    8.5592 N   0  0  0  0  0  0  0  0  0  0  0  0
  -11.4078   -8.2810    8.5890 H   0  0  0  0  0  0  0  0  0  0  0  0
  -12.2924   -6.3898    8.9789 C   0  0  0  0  0  0  0  0  0  0  0  0
  -12.0676   -5.7271   10.2896 C   0  0  0  0  0  0  0  0  0  0  0  0
  -12.8052   -4.5815   10.7066 N   0  0  0  0  0  0  0  0  0  0  0  0
  -11.2094   -6.1696   11.0633 O   0  0  0  0  0  0  0  0  0  0  0  0
  -12.4110   -3.6461   10.9060 H   0  0  0  0  0  0  0  0  0  0  0  0
  -13.8312   -4.6876   10.8214 H   0  0  0  0  0  0  0  0  0  0  0  0
  -13.6598   -7.0066    8.9971 C   0  0  0  0  0  0  0  0  0  0  0  0
  -14.0231   -7.8055    7.8106 C   0  0  0  0  0  0  0  0  0  0  0  0
  -14.0062   -9.1922    7.7534 C   0  0  0  0  0  0  0  0  0  0  0  0
  -14.3472   -9.5541    6.5191 N   0  0  0  0  0  0  0  0  0  0  0  0
  -14.5902   -8.4738    5.7545 C   0  0  0  0  0  0  0  0  0  0  0  0
  -14.9915   -8.3010    4.4393 C   0  0  0  0  0  0  0  0  0  0  0  0
  -15.1937   -7.0531    3.9220 C   0  0  0  0  0  0  0  0  0  0  0  0
  -15.0044   -5.9019    4.6923 C   0  0  0  0  0  0  0  0  0  0  0  0
  -14.6074   -6.1029    5.9881 C   0  0  0  0  0  0  0  0  0  0  0  0
  -14.3937   -7.3429    6.5455 C   0  0  0  0  0  0  0  0  0  0  0  0
  -14.4171  -10.5576    6.1859 H   0  0  0  0  0  0  0  0  0  0  0  0
   -8.9221   -9.0475    8.0476 C   0  0  0  0  0  0  0  0  0  0  0  0
  -10.8858  -10.0697    6.9245 C   0  0  0  0  0  0  0  0  0  0  0  0
   -9.3654  -10.1122    7.1747 C   0  0  0  0  0  0  0  0  0  0  0  0
   -8.7065  -10.3815    5.8794 C   0  0  0  0  0  0  0  0  0  0  0  0
   -4.9046   -6.0857    8.2664 C   0  0  0  0  0  0  0  0  0  0  0  0
   -3.5085   -6.2783    8.6720 C   0  0  0  0  0  0  0  0  0  0  0  0
   -2.7648   -5.4638    9.5449 C   0  0  0  0  0  0  0  0  0  0  0  0
   -1.5243   -5.9031    9.6877 N   0  0  0  0  0  0  0  0  0  0  0  0
   -1.3999   -7.0125    8.9260 C   0  0  0  0  0  0  0  0  0  0  0  0
   -0.2867   -7.8164    8.7805 C   0  0  0  0  0  0  0  0  0  0  0  0
   -0.4070   -8.9138    7.9615 C   0  0  0  0  0  0  0  0  0  0  0  0
   -1.5962   -9.1888    7.3189 C   0  0  0  0  0  0  0  0  0  0  0  0
   -2.6976   -8.3747    7.4766 C   0  0  0  0  0  0  0  0  0  0  0  0
   -2.6134   -7.2613    8.2918 C   0  0  0  0  0  0  0  0  0  0  0  0
   -0.7467   -5.4813   10.2832 H   0  0  0  0  0  0  0  0  0  0  0  0
 60 61  1  0  0  0
 61 62  1  0  0  0
 61 59  1  0  0  0
 59 37  1  0  0  0
 37 33  1  0  0  0
 33 34  1  0  0  0
 34 35  2  0  0  0
 34  1  1  0  0  0
  1 63  1  0  0  0
 63 64  1  0  0  0
 64 65  2  0  0  0
 65 66  1  0  0  0
 66 67  1  0  0  0
 67 68  2  0  0  0
 68 69  1  0  0  0
 69 70  2  0  0  0
 70 71  1  0  0  0
 71 72  2  0  0  0
  1  2  1  0  0  0
  2  3  1  0  0  0
  3  4  2  0  0  0
  3  6  1  0  0  0
  6  7  1  0  0  0
  7  8  1  0  0  0
  8  9  2  0  0  0
  8 11  1  0  0  0
 11 12  1  0  0  0
 12 13  1  0  0  0
 13 14  1  0  0  0
 14 15  1  0  0  0
 15 16  1  0  0  0
 16 17  2  0  0  0
 16 18  1  0  0  0
 18 19  1  0  0  0
 18 22  1  0  0  0
 22 23  1  0  0  0
 23 24  1  0  0  0
 24 25  1  0  0  0
 25 27  1  0  0  0
 27 28  1  0  0  0
 27 29  2  0  0  0
 37 38  1  0  0  0
 38 39  2  0  0  0
 38 40  1  0  0  0
 40 42  1  0  0  0
 42 48  1  0  0  0
 48 49  1  0  0  0
 49 50  2  0  0  0
 50 51  1  0  0  0
 51 52  1  0  0  0
 52 53  2  0  0  0
 53 54  1  0  0  0
 54 55  2  0  0  0
 55 56  1  0  0  0
 56 57  2  0  0  0
 42 43  1  0  0  0
 43 44  1  0  0  0
 43 45  2  0  0  0
 72 64  1  0  0  0
 15 11  1  0  0  0
 57 49  1  0  0  0
 72 67  1  0  0  0
 57 52  1  0  0  0
 33 36  1  0  0  0
 66 73  1  0  0  0
  2  5  1  0  0  0
  7 10  1  0  0  0
 19 20  1  0  0  0
 19 21  1  0  0  0
 25 26  1  0  0  0
 28 30  1  0  0  0
 28 31  1  0  0  0
 29 32  1  0  0  0
 40 41  1  0  0  0
 51 58  1  0  0  0
 44 46  1  0  0  0
 44 47  1  0  0  0
M  END
> <minimizedAffinity>
-6.48508

> <CNNscore>
0.2026951462

> <CNNaffinity>
7.4111533165

> <CNN_VS>
1.5022047758

> <CNNaffinity_variance>
0.1783474982

$$$$
[H]N=C(N([H])[H])N([H])C([H])([H])C([H])([H])C([H])([H])[C@@]([H])(C(=O)N1C([H])([H])C([H])([H])C([H])([H])[C@@]1([H])C(=O)N([H])C([H])([H])C(=O)N([H])[C@]([H])(C(=O)N([H])[C@]([H])(C(=O)N([H])[C@]([H])(C(=O)N([H])[H])C([H])([H])c1c([H])n([H])c2c([H])c([H])c([H])c([H])c12)C([H])([H])C([H])(C([H])([H])[H])C([H])([H])[H])C([H])([H])c1c([H])n([H])c2c([H])c([H])c([H])c([H])c12)N([H])[H]


 73 77  0  0  0  0  0  0  0  0999 V2000
   -5.2770   -6.3222    7.0485 C   0  0  0  0  0  0  0  0  0  0  0  0
   -5.1468   -5.1576    6.1892 N   0  0  0  0  0  0  0  0  0  0  0  0
   -3.9854   -5.0150    5.3634 C   0  0  0  0  0  0  0  0  0  0  0  0
   -3.1087   -5.8874    5.3570 O   0  0  0  0  0  0  0  0  0  0  0  0
   -5.9140   -4.4666    6.1804 H   0  0  0  0  0  0  0  0  0  0  0  0
   -3.8350   -3.8036    4.5132 C   0  0  0  0  0  0  0  0  0  0  0  0
   -2.7542   -2.9581    5.0337 N   0  0  0  0  0  0  0  0  0  0  0  0
   -3.0107   -1.7216    5.6719 C   0  0  0  0  0  0  0  0  0  0  0  0
   -4.2240   -1.3762    5.8052 O   0  0  0  0  0  0  0  0  0  0  0  0
   -1.7652   -3.2605    4.9327 H   0  0  0  0  0  0  0  0  0  0  0  0
   -2.0137   -0.7837    6.2029 C   0  0  0  0  0  0  0  0  0  0  0  0
   -0.6119   -1.0332    5.8003 C   0  0  0  0  0  0  0  0  0  0  0  0
    0.0821   -1.7351    6.9177 C   0  0  0  0  0  0  0  0  0  0  0  0
   -1.0514   -1.8932    7.9475 C   0  0  0  0  0  0  0  0  0  0  0  0
   -1.9560   -0.8252    7.6817 N   0  0  0  0  0  0  0  0  0  0  0  0
   -2.7053    0.0260    8.4677 C   0  0  0  0  0  0  0  0  0  0  0  0
   -3.5208    0.8967    7.9472 O   0  0  0  0  0  0  0  0  0  0  0  0
   -2.7405    0.1187    9.9888 C   0  0  0  0  0  0  0  0  0  0  0  0
   -3.8363    1.0002   10.3413 N   0  0  0  0  0  0  0  0  0  0  0  0
   -3.5982    1.9111   10.7017 H   0  0  0  0  0  0  0  0  0  0  0  0
   -4.7249    0.8130    9.8975 H   0  0  0  0  0  0  0  0  0  0  0  0
   -2.9993   -1.2406   10.5445 C   0  0  0  0  0  0  0  0  0  0  0  0
   -2.1967   -1.8532   11.5779 C   0  0  0  0  0  0  0  0  0  0  0  0
   -2.5462   -1.9791   12.9857 C   0  0  0  0  0  0  0  0  0  0  0  0
   -2.3928   -3.2887   13.5585 N   0  0  0  0  0  0  0  0  0  0  0  0
   -1.6312   -3.4378   14.2791 H   0  0  0  0  0  0  0  0  0  0  0  0
   -3.1988   -4.3936   13.1494 C   0  0  0  0  0  0  0  0  0  0  0  0
   -4.5898   -4.1935   12.9467 N   0  0  0  0  0  0  0  0  0  0  0  0
   -2.6533   -5.5456   12.9686 N   0  0  0  0  0  0  0  0  0  0  0  0
   -5.1486   -4.8866   12.3972 H   0  0  0  0  0  0  0  0  0  0  0  0
   -5.0498   -3.3515   13.3521 H   0  0  0  0  0  0  0  0  0  0  0  0
   -1.6287   -5.6376   13.1291 H   0  0  0  0  0  0  0  0  0  0  0  0
   -7.5945   -7.0124    7.8069 N   0  0  0  0  0  0  0  0  0  0  0  0
   -6.5808   -6.9782    6.8053 C   0  0  0  0  0  0  0  0  0  0  0  0
   -6.7846   -7.5171    5.7021 O   0  0  0  0  0  0  0  0  0  0  0  0
   -7.3513   -6.5193    8.7042 H   0  0  0  0  0  0  0  0  0  0  0  0
   -8.8730   -7.6192    7.7172 C   0  0  0  0  0  0  0  0  0  0  0  0
  -10.0009   -6.7843    8.1664 C   0  0  0  0  0  0  0  0  0  0  0  0
   -9.8673   -5.5359    8.1784 O   0  0  0  0  0  0  0  0  0  0  0  0
  -11.2708   -7.2686    8.6045 N   0  0  0  0  0  0  0  0  0  0  0  0
  -11.4048   -8.2806    8.6392 H   0  0  0  0  0  0  0  0  0  0  0  0
  -12.2985   -6.3890    9.0062 C   0  0  0  0  0  0  0  0  0  0  0  0
  -12.0865   -5.7098   10.3105 C   0  0  0  0  0  0  0  0  0  0  0  0
  -12.8341   -4.5643   10.7094 N   0  0  0  0  0  0  0  0  0  0  0  0
  -11.2304   -6.1376   11.0947 O   0  0  0  0  0  0  0  0  0  0  0  0
  -12.4473   -3.6241   10.9004 H   0  0  0  0  0  0  0  0  0  0  0  0
  -13.8602   -4.6757   10.8189 H   0  0  0  0  0  0  0  0  0  0  0  0
  -13.6632   -7.0120    9.0217 C   0  0  0  0  0  0  0  0  0  0  0  0
  -14.0176   -7.8189    7.8379 C   0  0  0  0  0  0  0  0  0  0  0  0
  -13.9963   -9.2059    7.7890 C   0  0  0  0  0  0  0  0  0  0  0  0
  -14.3295   -9.5760    6.5550 N   0  0  0  0  0  0  0  0  0  0  0  0
  -14.5714   -8.5010    5.7828 C   0  0  0  0  0  0  0  0  0  0  0  0
  -14.9659   -8.3371    4.4643 C   0  0  0  0  0  0  0  0  0  0  0  0
  -15.1689   -7.0929    3.9386 C   0  0  0  0  0  0  0  0  0  0  0  0
  -14.9873   -5.9366    4.7031 C   0  0  0  0  0  0  0  0  0  0  0  0
  -14.5968   -6.1289    6.0022 C   0  0  0  0  0  0  0  0  0  0  0  0
  -14.3825   -7.3649    6.5681 C   0  0  0  0  0  0  0  0  0  0  0  0
  -14.3946  -10.5817    6.2274 H   0  0  0  0  0  0  0  0  0  0  0  0
   -8.9310   -9.0532    8.0989 C   0  0  0  0  0  0  0  0  0  0  0  0
  -10.8282  -10.1024    6.8897 C   0  0  0  0  0  0  0  0  0  0  0  0
   -9.3149  -10.1050    7.1832 C   0  0  0  0  0  0  0  0  0  0  0  0
   -8.6110  -10.3152    5.9007 C   0  0  0  0  0  0  0  0  0  0  0  0
   -4.9535   -6.0180    8.4567 C   0  0  0  0  0  0  0  0  0  0  0  0
   -3.5493   -5.8974    8.8622 C   0  0  0  0  0  0  0  0  0  0  0  0
   -2.9660   -4.8326    9.5724 C   0  0  0  0  0  0  0  0  0  0  0  0
   -1.6699   -5.0223    9.7630 N   0  0  0  0  0  0  0  0  0  0  0  0
   -1.3485   -6.2059    9.1953 C   0  0  0  0  0  0  0  0  0  0  0  0
   -0.1120   -6.8198    9.1651 C   0  0  0  0  0  0  0  0  0  0  0  0
   -0.0331   -8.0433    8.5435 C   0  0  0  0  0  0  0  0  0  0  0  0
   -1.1505   -8.6221    7.9786 C   0  0  0  0  0  0  0  0  0  0  0  0
   -2.3773   -7.9942    8.0188 C   0  0  0  0  0  0  0  0  0  0  0  0
   -2.4944   -6.7620    8.6347 C   0  0  0  0  0  0  0  0  0  0  0  0
   -0.9827   -4.3796   10.2648 H   0  0  0  0  0  0  0  0  0  0  0  0
 60 61  1  0  0  0
 61 62  1  0  0  0
 61 59  1  0  0  0
 59 37  1  0  0  0
 37 33  1  0  0  0
 33 34  1  0  0  0
 34 35  2  0  0  0
 34  1  1  0  0  0
  1 63  1  0  0  0
 63 64  1  0  0  0
 64 65  2  0  0  0
 65 66  1  0  0  0
 66 67  1  0  0  0
 67 68  2  0  0  0
 68 69  1  0  0  0
 69 70  2  0  0  0
 70 71  1  0  0  0
 71 72  2  0  0  0
  1  2  1  0  0  0
  2  3  1  0  0  0
  3  4  2  0  0  0
  3  6  1  0  0  0
  6  7  1  0  0  0
  7  8  1  0  0  0
  8  9  2  0  0  0
  8 11  1  0  0  0
 11 12  1  0  0  0
 12 13  1  0  0  0
 13 14  1  0  0  0
 14 15  1  0  0  0
 15 16  1  0  0  0
 16 17  2  0  0  0
 16 18  1  0  0  0
 18 19  1  0  0  0
 18 22  1  0  0  0
 22 23  1  0  0  0
 23 24  1  0  0  0
 24 25  1  0  0  0
 25 27  1  0  0  0
 27 28  1  0  0  0
 27 29  2  0  0  0
 37 38  1  0  0  0
 38 39  2  0  0  0
 38 40  1  0  0  0
 40 42  1  0  0  0
 42 48  1  0  0  0
 48 49  1  0  0  0
 49 50  2  0  0  0
 50 51  1  0  0  0
 51 52  1  0  0  0
 52 53  2  0  0  0
 53 54  1  0  0  0
 54 55  2  0  0  0
 55 56  1  0  0  0
 56 57  2  0  0  0
 42 43  1  0  0  0
 43 44  1  0  0  0
 43 45  2  0  0  0
 72 64  1  0  0  0
 15 11  1  0  0  0
 57 49  1  0  0  0
 72 67  1  0  0  0
 57 52  1  0  0  0
 33 36  1  0  0  0
 66 73  1  0  0  0
  2  5  1  0  0  0
  7 10  1  0  0  0
 19 20  1  0  0  0
 19 21  1  0  0  0
 25 26  1  0  0  0
 28 30  1  0  0  0
 28 31  1  0  0  0
 29 32  1  0  0  0
 40 41  1  0  0  0
 51 58  1  0  0  0
 44 46  1  0  0  0
 44 47  1  0  0  0
M  END
> <minimizedAffinity>
-6.77338

> <CNNscore>
0.1878591329

> <CNNaffinity>
7.5193915367

> <CNN_VS>
1.4125863314

> <CNNaffinity_variance>
0.1204986125

$$$$
[H]N=C(N([H])[H])N([H])C([H])([H])C([H])([H])C([H])([H])[C@@]([H])(C(=O)N1C([H])([H])C([H])([H])C([H])([H])[C@@]1([H])C(=O)N([H])C([H])([H])C(=O)N([H])[C@]([H])(C(=O)N([H])[C@]([H])(C(=O)N([H])[C@]([H])(C(=O)N([H])[H])C([H])([H])c1c([H])n([H])c2c([H])c([H])c([H])c([H])c12)C([H])([H])C([H])(C([H])([H])[H])C([H])([H])[H])C([H])([H])c1c([H])n([H])c2c([H])c([H])c([H])c([H])c12)N([H])[H]


 73 77  0  0  0  0  0  0  0  0999 V2000
   -3.5021   -4.6103   11.7506 C   0  0  0  0  0  0  0  0  0  0  0  0
   -2.8159   -3.3294   11.7458 N   0  0  0  0  0  0  0  0  0  0  0  0
   -3.1646   -2.3445   10.7661 C   0  0  0  0  0  0  0  0  0  0  0  0
   -4.0619   -2.5667    9.9445 O   0  0  0  0  0  0  0  0  0  0  0  0
   -2.1021   -3.1529   12.4706 H   0  0  0  0  0  0  0  0  0  0  0  0
   -2.4348   -1.0486   10.7378 C   0  0  0  0  0  0  0  0  0  0  0  0
   -2.2018   -0.6358    9.3488 N   0  0  0  0  0  0  0  0  0  0  0  0
   -2.7639    0.5473    8.8140 C   0  0  0  0  0  0  0  0  0  0  0  0
   -3.4633    1.2632    9.5933 O   0  0  0  0  0  0  0  0  0  0  0  0
   -1.6132   -1.2230    8.7254 H   0  0  0  0  0  0  0  0  0  0  0  0
   -2.6241    1.0425    7.4389 C   0  0  0  0  0  0  0  0  0  0  0  0
   -3.2623    2.3465    7.1528 C   0  0  0  0  0  0  0  0  0  0  0  0
   -4.5657    2.0950    6.4738 C   0  0  0  0  0  0  0  0  0  0  0  0
   -4.6190    0.5565    6.4464 C   0  0  0  0  0  0  0  0  0  0  0  0
   -3.2596    0.1303    6.4611 N   0  0  0  0  0  0  0  0  0  0  0  0
   -2.5538   -0.8736    5.8305 C   0  0  0  0  0  0  0  0  0  0  0  0
   -1.2941   -1.0846    6.0810 O   0  0  0  0  0  0  0  0  0  0  0  0
   -3.0568   -1.8723    4.7947 C   0  0  0  0  0  0  0  0  0  0  0  0
   -4.1885   -2.5654    5.3787 N   0  0  0  0  0  0  0  0  0  0  0  0
   -4.0541   -3.5296    5.6405 H   0  0  0  0  0  0  0  0  0  0  0  0
   -4.8995   -1.9867    5.8043 H   0  0  0  0  0  0  0  0  0  0  0  0
   -3.5045   -1.1226    3.5860 C   0  0  0  0  0  0  0  0  0  0  0  0
   -3.0451   -1.4083    2.2463 C   0  0  0  0  0  0  0  0  0  0  0  0
   -3.4465   -0.7201    1.0277 C   0  0  0  0  0  0  0  0  0  0  0  0
   -3.4117   -1.5017   -0.1783 N   0  0  0  0  0  0  0  0  0  0  0  0
   -3.0365   -1.0513   -1.0603 H   0  0  0  0  0  0  0  0  0  0  0  0
   -3.9105   -2.8383   -0.2295 C   0  0  0  0  0  0  0  0  0  0  0  0
   -5.3140   -3.0510   -0.1993 N   0  0  0  0  0  0  0  0  0  0  0  0
   -3.0841   -3.8224   -0.3053 N   0  0  0  0  0  0  0  0  0  0  0  0
   -5.7160   -3.9675   -0.5045 H   0  0  0  0  0  0  0  0  0  0  0  0
   -5.9401   -2.2873    0.1318 H   0  0  0  0  0  0  0  0  0  0  0  0
   -2.0649   -3.6111   -0.3264 H   0  0  0  0  0  0  0  0  0  0  0  0
   -4.6180   -5.4391    9.6316 N   0  0  0  0  0  0  0  0  0  0  0  0
   -3.4395   -5.2147   10.4015 C   0  0  0  0  0  0  0  0  0  0  0  0
   -2.3299   -5.5394    9.9407 O   0  0  0  0  0  0  0  0  0  0  0  0
   -5.5132   -5.1208   10.0840 H   0  0  0  0  0  0  0  0  0  0  0  0
   -4.7057   -6.0237    8.3427 C   0  0  0  0  0  0  0  0  0  0  0  0
   -5.9849   -6.6877    8.0365 C   0  0  0  0  0  0  0  0  0  0  0  0
   -6.5223   -6.4882    6.9193 O   0  0  0  0  0  0  0  0  0  0  0  0
   -6.6977   -7.5625    8.9115 N   0  0  0  0  0  0  0  0  0  0  0  0
   -6.3072   -7.7226    9.8416 H   0  0  0  0  0  0  0  0  0  0  0  0
   -7.9143   -8.1640    8.5250 C   0  0  0  0  0  0  0  0  0  0  0  0
   -7.7915   -9.3183    7.5976 C   0  0  0  0  0  0  0  0  0  0  0  0
   -7.3467   -9.1769    6.2513 N   0  0  0  0  0  0  0  0  0  0  0  0
   -8.0841  -10.4552    7.9885 O   0  0  0  0  0  0  0  0  0  0  0  0
   -7.8988   -9.3951    5.4042 H   0  0  0  0  0  0  0  0  0  0  0  0
   -6.3833   -8.8220    6.0994 H   0  0  0  0  0  0  0  0  0  0  0  0
   -8.9120   -7.2050    7.9457 C   0  0  0  0  0  0  0  0  0  0  0  0
  -10.3322   -7.5558    8.1399 C   0  0  0  0  0  0  0  0  0  0  0  0
  -10.9854   -8.5996    7.4994 C   0  0  0  0  0  0  0  0  0  0  0  0
  -12.2588   -8.5825    7.8854 N   0  0  0  0  0  0  0  0  0  0  0  0
  -12.4817   -7.5776    8.7520 C   0  0  0  0  0  0  0  0  0  0  0  0
  -13.5967   -7.1459    9.4529 C   0  0  0  0  0  0  0  0  0  0  0  0
  -13.5237   -6.0847   10.3097 C   0  0  0  0  0  0  0  0  0  0  0  0
  -12.3277   -5.3904   10.5148 C   0  0  0  0  0  0  0  0  0  0  0  0
  -11.2425   -5.8386    9.8086 C   0  0  0  0  0  0  0  0  0  0  0  0
  -11.2758   -6.9033    8.9372 C   0  0  0  0  0  0  0  0  0  0  0  0
  -12.9954   -9.2684    7.5539 H   0  0  0  0  0  0  0  0  0  0  0  0
   -3.4813   -6.7170    7.8677 C   0  0  0  0  0  0  0  0  0  0  0  0
   -2.8694   -5.8804    5.6120 C   0  0  0  0  0  0  0  0  0  0  0  0
   -3.2622   -7.0873    6.4868 C   0  0  0  0  0  0  0  0  0  0  0  0
   -2.3826   -8.2150    6.1139 C   0  0  0  0  0  0  0  0  0  0  0  0
   -4.8422   -4.5253   12.3648 C   0  0  0  0  0  0  0  0  0  0  0  0
   -4.9927   -4.7807   13.8011 C   0  0  0  0  0  0  0  0  0  0  0  0
   -5.7509   -4.0278   14.7157 C   0  0  0  0  0  0  0  0  0  0  0  0
   -5.6612   -4.5136   15.9438 N   0  0  0  0  0  0  0  0  0  0  0  0
   -4.8517   -5.5945   15.8909 C   0  0  0  0  0  0  0  0  0  0  0  0
   -4.4876   -6.4284   16.9296 C   0  0  0  0  0  0  0  0  0  0  0  0
   -3.6646   -7.4868   16.6265 C   0  0  0  0  0  0  0  0  0  0  0  0
   -3.2288   -7.6955   15.3345 C   0  0  0  0  0  0  0  0  0  0  0  0
   -3.6030   -6.8523   14.3099 C   0  0  0  0  0  0  0  0  0  0  0  0
   -4.4293   -5.7766   14.5775 C   0  0  0  0  0  0  0  0  0  0  0  0
   -6.1271   -4.1427   16.8284 H   0  0  0  0  0  0  0  0  0  0  0  0
 60 61  1  0  0  0
 61 62  1  0  0  0
 61 59  1  0  0  0
 59 37  1  0  0  0
 37 33  1  0  0  0
 33 34  1  0  0  0
 34 35  2  0  0  0
 34  1  1  0  0  0
  1 63  1  0  0  0
 63 64  1  0  0  0
 64 65  2  0  0  0
 65 66  1  0  0  0
 66 67  1  0  0  0
 67 68  2  0  0  0
 68 69  1  0  0  0
 69 70  2  0  0  0
 70 71  1  0  0  0
 71 72  2  0  0  0
  1  2  1  0  0  0
  2  3  1  0  0  0
  3  4  2  0  0  0
  3  6  1  0  0  0
  6  7  1  0  0  0
  7  8  1  0  0  0
  8  9  2  0  0  0
  8 11  1  0  0  0
 11 12  1  0  0  0
 12 13  1  0  0  0
 13 14  1  0  0  0
 14 15  1  0  0  0
 15 16  1  0  0  0
 16 17  2  0  0  0
 16 18  1  0  0  0
 18 19  1  0  0  0
 18 22  1  0  0  0
 22 23  1  0  0  0
 23 24  1  0  0  0
 24 25  1  0  0  0
 25 27  1  0  0  0
 27 28  1  0  0  0
 27 29  2  0  0  0
 37 38  1  0  0  0
 38 39  2  0  0  0
 38 40  1  0  0  0
 40 42  1  0  0  0
 42 48  1  0  0  0
 48 49  1  0  0  0
 49 50  2  0  0  0
 50 51  1  0  0  0
 51 52  1  0  0  0
 52 53  2  0  0  0
 53 54  1  0  0  0
 54 55  2  0  0  0
 55 56  1  0  0  0
 56 57  2  0  0  0
 42 43  1  0  0  0
 43 44  1  0  0  0
 43 45  2  0  0  0
 72 64  1  0  0  0
 15 11  1  0  0  0
 57 49  1  0  0  0
 72 67  1  0  0  0
 57 52  1  0  0  0
 33 36  1  0  0  0
 66 73  1  0  0  0
  2  5  1  0  0  0
  7 10  1  0  0  0
 19 20  1  0  0  0
 19 21  1  0  0  0
 25 26  1  0  0  0
 28 30  1  0  0  0
 28 31  1  0  0  0
 29 32  1  0  0  0
 40 41  1  0  0  0
 51 58  1  0  0  0
 44 46  1  0  0  0
 44 47  1  0  0  0
M  END
> <minimizedAffinity>
-8.20429

> <CNNscore>
0.1499469429

> <CNNaffinity>
6.8884758949

> <CNN_VS>
1.0329059362

> <CNNaffinity_variance>
0.7312126160

$$$$
[H]N=C(N([H])[H])N([H])C([H])([H])C([H])([H])C([H])([H])[C@@]([H])(C(=O)N1C([H])([H])C([H])([H])C([H])([H])[C@@]1([H])C(=O)N([H])C([H])([H])C(=O)N([H])[C@]([H])(C(=O)N([H])[C@]([H])(C(=O)N([H])[C@]([H])(C(=O)N([H])[H])C([H])([H])c1c([H])n([H])c2c([H])c([H])c([H])c([H])c12)C([H])([H])C([H])(C([H])([H])[H])C([H])([H])[H])C([H])([H])c1c([H])n([H])c2c([H])c([H])c([H])c([H])c12)N([H])[H]


 73 77  0  0  0  0  0  0  0  0999 V2000
   -2.8338   -4.8410   10.4581 C   0  0  0  0  0  0  0  0  0  0  0  0
   -1.7744   -3.9981    9.9300 N   0  0  0  0  0  0  0  0  0  0  0  0
   -2.0787   -3.0314    8.9180 C   0  0  0  0  0  0  0  0  0  0  0  0
   -3.2385   -2.8915    8.5120 O   0  0  0  0  0  0  0  0  0  0  0  0
   -0.8236   -4.1047   10.3182 H   0  0  0  0  0  0  0  0  0  0  0  0
   -0.9865   -2.1960    8.3505 C   0  0  0  0  0  0  0  0  0  0  0  0
   -1.4804   -1.4488    7.1879 N   0  0  0  0  0  0  0  0  0  0  0  0
   -1.8634   -0.0897    7.2777 C   0  0  0  0  0  0  0  0  0  0  0  0
   -1.7383    0.4769    8.4058 O   0  0  0  0  0  0  0  0  0  0  0  0
   -1.5626   -1.9203    6.2656 H   0  0  0  0  0  0  0  0  0  0  0  0
   -2.3961    0.7462    6.1946 C   0  0  0  0  0  0  0  0  0  0  0  0
   -3.1487    1.9486    6.6157 C   0  0  0  0  0  0  0  0  0  0  0  0
   -4.6064    1.6493    6.5228 C   0  0  0  0  0  0  0  0  0  0  0  0
   -4.6013    0.1802    6.0620 C   0  0  0  0  0  0  0  0  0  0  0  0
   -3.3724    0.0072    5.3623 N   0  0  0  0  0  0  0  0  0  0  0  0
   -2.9963   -0.6711    4.2211 C   0  0  0  0  0  0  0  0  0  0  0  0
   -1.7559   -0.7145    3.8294 O   0  0  0  0  0  0  0  0  0  0  0  0
   -3.8785   -1.4551    3.2565 C   0  0  0  0  0  0  0  0  0  0  0  0
   -4.4041   -0.5113    2.2896 N   0  0  0  0  0  0  0  0  0  0  0  0
   -5.3839   -0.2830    2.3530 H   0  0  0  0  0  0  0  0  0  0  0  0
   -3.7342    0.1100    1.8573 H   0  0  0  0  0  0  0  0  0  0  0  0
   -3.0376   -2.4672    2.5550 C   0  0  0  0  0  0  0  0  0  0  0  0
   -2.9016   -2.5437    1.1187 C   0  0  0  0  0  0  0  0  0  0  0  0
   -3.6725   -3.3905    0.2195 C   0  0  0  0  0  0  0  0  0  0  0  0
   -5.0388   -2.9997    0.0023 N   0  0  0  0  0  0  0  0  0  0  0  0
   -5.7672   -3.2980    0.7109 H   0  0  0  0  0  0  0  0  0  0  0  0
   -5.4432   -2.2709   -1.1566 C   0  0  0  0  0  0  0  0  0  0  0  0
   -4.8716   -2.6031   -2.4131 N   0  0  0  0  0  0  0  0  0  0  0  0
   -6.3171   -1.3323   -1.0441 N   0  0  0  0  0  0  0  0  0  0  0  0
   -5.3295   -2.2913   -3.3007 H   0  0  0  0  0  0  0  0  0  0  0  0
   -3.9908   -3.1583   -2.4437 H   0  0  0  0  0  0  0  0  0  0  0  0
   -6.7064   -1.1304   -0.0998 H   0  0  0  0  0  0  0  0  0  0  0  0
   -4.6253   -5.5728    8.8219 N   0  0  0  0  0  0  0  0  0  0  0  0
   -3.3311   -5.7419    9.3950 C   0  0  0  0  0  0  0  0  0  0  0  0
   -2.5999   -6.6705    9.0051 O   0  0  0  0  0  0  0  0  0  0  0  0
   -5.1736   -4.7547    9.1928 H   0  0  0  0  0  0  0  0  0  0  0  0
   -5.2327   -6.3687    7.8177 C   0  0  0  0  0  0  0  0  0  0  0  0
   -6.4454   -7.0941    8.2347 C   0  0  0  0  0  0  0  0  0  0  0  0
   -6.5839   -7.4043    9.4435 O   0  0  0  0  0  0  0  0  0  0  0  0
   -7.5125   -7.4933    7.3739 N   0  0  0  0  0  0  0  0  0  0  0  0
   -7.4195   -7.2867    6.3779 H   0  0  0  0  0  0  0  0  0  0  0  0
   -8.6443   -8.1763    7.8678 C   0  0  0  0  0  0  0  0  0  0  0  0
   -8.6286   -9.6516    7.6927 C   0  0  0  0  0  0  0  0  0  0  0  0
   -9.6647  -10.3545    7.0124 N   0  0  0  0  0  0  0  0  0  0  0  0
   -7.6898  -10.3153    8.1499 O   0  0  0  0  0  0  0  0  0  0  0  0
  -10.2878  -11.0678    7.4284 H   0  0  0  0  0  0  0  0  0  0  0  0
   -9.8142  -10.1350    6.0091 H   0  0  0  0  0  0  0  0  0  0  0  0
   -9.9488   -7.6580    7.3383 C   0  0  0  0  0  0  0  0  0  0  0  0
  -10.9556   -7.2886    8.3521 C   0  0  0  0  0  0  0  0  0  0  0  0
  -10.7138   -6.4722    9.4483 C   0  0  0  0  0  0  0  0  0  0  0  0
  -11.8361   -6.4011   10.1598 N   0  0  0  0  0  0  0  0  0  0  0  0
  -12.8112   -7.1308    9.5879 C   0  0  0  0  0  0  0  0  0  0  0  0
  -14.1400   -7.3688    9.9019 C   0  0  0  0  0  0  0  0  0  0  0  0
  -14.9243   -8.1509    9.1026 C   0  0  0  0  0  0  0  0  0  0  0  0
  -14.4231   -8.7434    7.9397 C   0  0  0  0  0  0  0  0  0  0  0  0
  -13.1069   -8.4914    7.6547 C   0  0  0  0  0  0  0  0  0  0  0  0
  -12.2851   -7.7096    8.4339 C   0  0  0  0  0  0  0  0  0  0  0  0
  -11.9445   -5.8447   11.0551 H   0  0  0  0  0  0  0  0  0  0  0  0
   -4.2978   -7.1141    6.9368 C   0  0  0  0  0  0  0  0  0  0  0  0
   -4.1615   -5.0965    5.4969 C   0  0  0  0  0  0  0  0  0  0  0  0
   -3.6846   -6.5386    5.7600 C   0  0  0  0  0  0  0  0  0  0  0  0
   -2.2220   -6.5712    5.5500 C   0  0  0  0  0  0  0  0  0  0  0  0
   -3.8575   -4.0640   11.1852 C   0  0  0  0  0  0  0  0  0  0  0  0
   -4.4938   -4.6458   12.3716 C   0  0  0  0  0  0  0  0  0  0  0  0
   -5.5625   -5.5601   12.3914 C   0  0  0  0  0  0  0  0  0  0  0  0
   -5.9153   -5.8749   13.6278 N   0  0  0  0  0  0  0  0  0  0  0  0
   -5.1033   -5.1915   14.4645 C   0  0  0  0  0  0  0  0  0  0  0  0
   -5.0934   -5.2235   15.8449 C   0  0  0  0  0  0  0  0  0  0  0  0
   -4.1518   -4.4528   16.4844 C   0  0  0  0  0  0  0  0  0  0  0  0
   -3.2600   -3.6851   15.7648 C   0  0  0  0  0  0  0  0  0  0  0  0
   -3.2847   -3.6659   14.3864 C   0  0  0  0  0  0  0  0  0  0  0  0
   -4.2187   -4.4277   13.7090 C   0  0  0  0  0  0  0  0  0  0  0  0
   -6.6908   -6.5385   13.9366 H   0  0  0  0  0  0  0  0  0  0  0  0
 60 61  1  0  0  0
 61 62  1  0  0  0
 61 59  1  0  0  0
 59 37  1  0  0  0
 37 33  1  0  0  0
 33 34  1  0  0  0
 34 35  2  0  0  0
 34  1  1  0  0  0
  1 63  1  0  0  0
 63 64  1  0  0  0
 64 65  2  0  0  0
 65 66  1  0  0  0
 66 67  1  0  0  0
 67 68  2  0  0  0
 68 69  1  0  0  0
 69 70  2  0  0  0
 70 71  1  0  0  0
 71 72  2  0  0  0
  1  2  1  0  0  0
  2  3  1  0  0  0
  3  4  2  0  0  0
  3  6  1  0  0  0
  6  7  1  0  0  0
  7  8  1  0  0  0
  8  9  2  0  0  0
  8 11  1  0  0  0
 11 12  1  0  0  0
 12 13  1  0  0  0
 13 14  1  0  0  0
 14 15  1  0  0  0
 15 16  1  0  0  0
 16 17  2  0  0  0
 16 18  1  0  0  0
 18 19  1  0  0  0
 18 22  1  0  0  0
 22 23  1  0  0  0
 23 24  1  0  0  0
 24 25  1  0  0  0
 25 27  1  0  0  0
 27 28  1  0  0  0
 27 29  2  0  0  0
 37 38  1  0  0  0
 38 39  2  0  0  0
 38 40  1  0  0  0
 40 42  1  0  0  0
 42 48  1  0  0  0
 48 49  1  0  0  0
 49 50  2  0  0  0
 50 51  1  0  0  0
 51 52  1  0  0  0
 52 53  2  0  0  0
 53 54  1  0  0  0
 54 55  2  0  0  0
 55 56  1  0  0  0
 56 57  2  0  0  0
 42 43  1  0  0  0
 43 44  1  0  0  0
 43 45  2  0  0  0
 72 64  1  0  0  0
 15 11  1  0  0  0
 57 49  1  0  0  0
 72 67  1  0  0  0
 57 52  1  0  0  0
 33 36  1  0  0  0
 66 73  1  0  0  0
  2  5  1  0  0  0
  7 10  1  0  0  0
 19 20  1  0  0  0
 19 21  1  0  0  0
 25 26  1  0  0  0
 28 30  1  0  0  0
 28 31  1  0  0  0
 29 32  1  0  0  0
 40 41  1  0  0  0
 51 58  1  0  0  0
 44 46  1  0  0  0
 44 47  1  0  0  0
M  END
> <minimizedAffinity>
-7.47345

> <CNNscore>
0.1457687467

> <CNNaffinity>
6.9861650467

> <CNN_VS>
1.0183645487

> <CNNaffinity_variance>
0.5331469774

$$$$
[H]N=C(N([H])[H])N([H])C([H])([H])C([H])([H])C([H])([H])[C@@]([H])(C(=O)N1C([H])([H])C([H])([H])C([H])([H])[C@@]1([H])C(=O)N([H])C([H])([H])C(=O)N([H])[C@]([H])(C(=O)N([H])[C@]([H])(C(=O)N([H])[C@]([H])(C(=O)N([H])[H])C([H])([H])c1c([H])n([H])c2c([H])c([H])c([H])c([H])c12)C([H])([H])C([H])(C([H])([H])[H])C([H])([H])[H])C([H])([H])c1c([H])n([H])c2c([H])c([H])c([H])c([H])c12)N([H])[H]


 73 77  0  0  0  0  0  0  0  0999 V2000
   -3.3642   -4.4762   11.3757 C   0  0  0  0  0  0  0  0  0  0  0  0
   -2.7369   -3.1678   11.4537 N   0  0  0  0  0  0  0  0  0  0  0  0
   -3.2359   -2.0955   10.6458 C   0  0  0  0  0  0  0  0  0  0  0  0
   -4.2111   -2.2689    9.9052 O   0  0  0  0  0  0  0  0  0  0  0  0
   -1.9530   -3.0385   12.1130 H   0  0  0  0  0  0  0  0  0  0  0  0
   -2.5686   -0.7671   10.6978 C   0  0  0  0  0  0  0  0  0  0  0  0
   -2.2506   -0.3134    9.3387 N   0  0  0  0  0  0  0  0  0  0  0  0
   -2.6081    0.9749    8.8755 C   0  0  0  0  0  0  0  0  0  0  0  0
   -3.1967    1.7450    9.6939 O   0  0  0  0  0  0  0  0  0  0  0  0
   -1.7535   -0.9483    8.6833 H   0  0  0  0  0  0  0  0  0  0  0  0
   -2.3693    1.5239    7.5349 C   0  0  0  0  0  0  0  0  0  0  0  0
   -2.5906    2.9790    7.3828 C   0  0  0  0  0  0  0  0  0  0  0  0
   -3.9302    3.1901    6.7629 C   0  0  0  0  0  0  0  0  0  0  0  0
   -4.4486    1.7470    6.6253 C   0  0  0  0  0  0  0  0  0  0  0  0
   -3.2829    0.9334    6.5307 N   0  0  0  0  0  0  0  0  0  0  0  0
   -2.9357   -0.1767    5.7883 C   0  0  0  0  0  0  0  0  0  0  0  0
   -1.7921   -0.7766    5.9499 O   0  0  0  0  0  0  0  0  0  0  0  0
   -3.7513   -0.8840    4.7123 C   0  0  0  0  0  0  0  0  0  0  0  0
   -5.1073   -1.0064    5.2104 N   0  0  0  0  0  0  0  0  0  0  0  0
   -5.4209   -1.9276    5.4735 H   0  0  0  0  0  0  0  0  0  0  0  0
   -5.5247   -0.1676    5.5897 H   0  0  0  0  0  0  0  0  0  0  0  0
   -3.7495   -0.0428    3.4810 C   0  0  0  0  0  0  0  0  0  0  0  0
   -4.9317    0.5775    2.9289 C   0  0  0  0  0  0  0  0  0  0  0  0
   -5.1033    1.0526    1.5633 C   0  0  0  0  0  0  0  0  0  0  0  0
   -6.2872    0.6025    0.8834 N   0  0  0  0  0  0  0  0  0  0  0  0
   -6.2602   -0.3346    0.3906 H   0  0  0  0  0  0  0  0  0  0  0  0
   -7.4697    1.3991    0.8135 C   0  0  0  0  0  0  0  0  0  0  0  0
   -8.6921    0.7851    0.4331 N   0  0  0  0  0  0  0  0  0  0  0  0
   -7.4089    2.6531    1.0983 N   0  0  0  0  0  0  0  0  0  0  0  0
   -9.6045    1.2571    0.6316 H   0  0  0  0  0  0  0  0  0  0  0  0
   -8.6726   -0.1388   -0.0477 H   0  0  0  0  0  0  0  0  0  0  0  0
   -6.4878    3.0530    1.3736 H   0  0  0  0  0  0  0  0  0  0  0  0
   -4.5770   -5.4835    9.3916 N   0  0  0  0  0  0  0  0  0  0  0  0
   -3.3962   -4.9308    9.9680 C   0  0  0  0  0  0  0  0  0  0  0  0
   -2.3621   -4.8329    9.2824 O   0  0  0  0  0  0  0  0  0  0  0  0
   -5.4124   -5.5152   10.0308 H   0  0  0  0  0  0  0  0  0  0  0  0
   -4.7421   -5.9740    8.0714 C   0  0  0  0  0  0  0  0  0  0  0  0
   -5.9804   -6.7353    7.8310 C   0  0  0  0  0  0  0  0  0  0  0  0
   -6.3894   -6.8762    6.6522 O   0  0  0  0  0  0  0  0  0  0  0  0
   -6.7883   -7.3475    8.8368 N   0  0  0  0  0  0  0  0  0  0  0  0
   -6.5043   -7.2262    9.8104 H   0  0  0  0  0  0  0  0  0  0  0  0
   -7.9553   -8.0698    8.5088 C   0  0  0  0  0  0  0  0  0  0  0  0
   -7.7369   -9.3310    7.7545 C   0  0  0  0  0  0  0  0  0  0  0  0
   -7.6443   -9.3687    6.3331 N   0  0  0  0  0  0  0  0  0  0  0  0
   -7.6310  -10.4022    8.3647 O   0  0  0  0  0  0  0  0  0  0  0  0
   -8.2886   -9.8685    5.6965 H   0  0  0  0  0  0  0  0  0  0  0  0
   -6.8632   -8.8488    5.8895 H   0  0  0  0  0  0  0  0  0  0  0  0
   -8.9872   -7.2624    7.7778 C   0  0  0  0  0  0  0  0  0  0  0  0
  -10.3942   -7.6101    8.0558 C   0  0  0  0  0  0  0  0  0  0  0  0
  -11.0734   -8.6792    7.4881 C   0  0  0  0  0  0  0  0  0  0  0  0
  -12.3260   -8.6515    7.9364 N   0  0  0  0  0  0  0  0  0  0  0  0
  -12.5104   -7.6154    8.7749 C   0  0  0  0  0  0  0  0  0  0  0  0
  -13.5912   -7.1612    9.5141 C   0  0  0  0  0  0  0  0  0  0  0  0
  -13.4808   -6.0683   10.3259 C   0  0  0  0  0  0  0  0  0  0  0  0
  -12.2795   -5.3632   10.4449 C   0  0  0  0  0  0  0  0  0  0  0  0
  -11.2287   -5.8343    9.7026 C   0  0  0  0  0  0  0  0  0  0  0  0
  -11.3001   -6.9310    8.8742 C   0  0  0  0  0  0  0  0  0  0  0  0
  -13.0748   -9.3516    7.6679 H   0  0  0  0  0  0  0  0  0  0  0  0
   -3.5146   -6.5053    7.4260 C   0  0  0  0  0  0  0  0  0  0  0  0
   -2.9482   -8.6440    6.3000 C   0  0  0  0  0  0  0  0  0  0  0  0
   -3.0340   -7.8554    7.6218 C   0  0  0  0  0  0  0  0  0  0  0  0
   -1.8054   -8.1398    8.3926 C   0  0  0  0  0  0  0  0  0  0  0  0
   -4.6466   -4.5268   12.1059 C   0  0  0  0  0  0  0  0  0  0  0  0
   -4.6994   -5.1693   13.4231 C   0  0  0  0  0  0  0  0  0  0  0  0
   -4.6802   -6.5506   13.6880 C   0  0  0  0  0  0  0  0  0  0  0  0
   -4.7611   -6.8021   14.9851 N   0  0  0  0  0  0  0  0  0  0  0  0
   -4.8344   -5.6124   15.6220 C   0  0  0  0  0  0  0  0  0  0  0  0
   -4.9127   -5.3860   16.9819 C   0  0  0  0  0  0  0  0  0  0  0  0
   -4.9548   -4.0771   17.3995 C   0  0  0  0  0  0  0  0  0  0  0  0
   -4.9189   -3.0429   16.4873 C   0  0  0  0  0  0  0  0  0  0  0  0
   -4.8403   -3.2883   15.1329 C   0  0  0  0  0  0  0  0  0  0  0  0
   -4.7972   -4.5924   14.6760 C   0  0  0  0  0  0  0  0  0  0  0  0
   -4.7704   -7.7536   15.4664 H   0  0  0  0  0  0  0  0  0  0  0  0
 60 61  1  0  0  0
 61 62  1  0  0  0
 61 59  1  0  0  0
 59 37  1  0  0  0
 37 33  1  0  0  0
 33 34  1  0  0  0
 34 35  2  0  0  0
 34  1  1  0  0  0
  1 63  1  0  0  0
 63 64  1  0  0  0
 64 65  2  0  0  0
 65 66  1  0  0  0
 66 67  1  0  0  0
 67 68  2  0  0  0
 68 69  1  0  0  0
 69 70  2  0  0  0
 70 71  1  0  0  0
 71 72  2  0  0  0
  1  2  1  0  0  0
  2  3  1  0  0  0
  3  4  2  0  0  0
  3  6  1  0  0  0
  6  7  1  0  0  0
  7  8  1  0  0  0
  8  9  2  0  0  0
  8 11  1  0  0  0
 11 12  1  0  0  0
 12 13  1  0  0  0
 13 14  1  0  0  0
 14 15  1  0  0  0
 15 16  1  0  0  0
 16 17  2  0  0  0
 16 18  1  0  0  0
 18 19  1  0  0  0
 18 22  1  0  0  0
 22 23  1  0  0  0
 23 24  1  0  0  0
 24 25  1  0  0  0
 25 27  1  0  0  0
 27 28  1  0  0  0
 27 29  2  0  0  0
 37 38  1  0  0  0
 38 39  2  0  0  0
 38 40  1  0  0  0
 40 42  1  0  0  0
 42 48  1  0  0  0
 48 49  1  0  0  0
 49 50  2  0  0  0
 50 51  1  0  0  0
 51 52  1  0  0  0
 52 53  2  0  0  0
 53 54  1  0  0  0
 54 55  2  0  0  0
 55 56  1  0  0  0
 56 57  2  0  0  0
 42 43  1  0  0  0
 43 44  1  0  0  0
 43 45  2  0  0  0
 72 64  1  0  0  0
 15 11  1  0  0  0
 57 49  1  0  0  0
 72 67  1  0  0  0
 57 52  1  0  0  0
 33 36  1  0  0  0
 66 73  1  0  0  0
  2  5  1  0  0  0
  7 10  1  0  0  0
 19 20  1  0  0  0
 19 21  1  0  0  0
 25 26  1  0  0  0
 28 30  1  0  0  0
 28 31  1  0  0  0
 29 32  1  0  0  0
 40 41  1  0  0  0
 51 58  1  0  0  0
 44 46  1  0  0  0
 44 47  1  0  0  0
M  END
> <minimizedAffinity>
-8.11776

> <CNNscore>
0.1432330012

> <CNNaffinity>
6.9014258385

> <CNN_VS>
0.9885119200

> <CNNaffinity_variance>
0.4963162839

$$$$
[H]N=C(N([H])[H])N([H])C([H])([H])C([H])([H])C([H])([H])[C@@]([H])(C(=O)N1C([H])([H])C([H])([H])C([H])([H])[C@@]1([H])C(=O)N([H])C([H])([H])C(=O)N([H])[C@]([H])(C(=O)N([H])[C@]([H])(C(=O)N([H])[C@]([H])(C(=O)N([H])[H])C([H])([H])c1c([H])n([H])c2c([H])c([H])c([H])c([H])c12)C([H])([H])C([H])(C([H])([H])[H])C([H])([H])[H])C([H])([H])c1c([H])n([H])c2c([H])c([H])c([H])c([H])c12)N([H])[H]


 73 77  0  0  0  0  0  0  0  0999 V2000
   -4.9774   -6.1303    7.2750 C   0  0  0  0  0  0  0  0  0  0  0  0
   -4.2077   -6.1545    6.0427 N   0  0  0  0  0  0  0  0  0  0  0  0
   -3.7064   -4.9282    5.4984 C   0  0  0  0  0  0  0  0  0  0  0  0
   -3.9008   -3.8560    6.0833 O   0  0  0  0  0  0  0  0  0  0  0  0
   -4.0220   -7.0679    5.5986 H   0  0  0  0  0  0  0  0  0  0  0  0
   -2.9518   -4.9498    4.2166 C   0  0  0  0  0  0  0  0  0  0  0  0
   -2.7139   -3.5778    3.7529 N   0  0  0  0  0  0  0  0  0  0  0  0
   -2.2118   -3.3001    2.4596 C   0  0  0  0  0  0  0  0  0  0  0  0
   -1.9968   -4.2885    1.6941 O   0  0  0  0  0  0  0  0  0  0  0  0
   -2.9097   -2.7760    4.3842 H   0  0  0  0  0  0  0  0  0  0  0  0
   -1.9090   -1.9767    1.9004 C   0  0  0  0  0  0  0  0  0  0  0  0
   -2.0617   -0.8327    2.8265 C   0  0  0  0  0  0  0  0  0  0  0  0
   -3.3715   -0.1752    2.5520 C   0  0  0  0  0  0  0  0  0  0  0  0
   -3.9483   -1.0670    1.4374 C   0  0  0  0  0  0  0  0  0  0  0  0
   -2.8171   -1.6337    0.7825 N   0  0  0  0  0  0  0  0  0  0  0  0
   -2.4969   -1.9079   -0.5313 C   0  0  0  0  0  0  0  0  0  0  0  0
   -1.3859   -2.5045   -0.8537 O   0  0  0  0  0  0  0  0  0  0  0  0
   -3.3100   -1.6015   -1.7835 C   0  0  0  0  0  0  0  0  0  0  0  0
   -2.4509   -1.8463   -2.9255 N   0  0  0  0  0  0  0  0  0  0  0  0
   -2.1252   -1.0421   -3.4387 H   0  0  0  0  0  0  0  0  0  0  0  0
   -1.9553   -2.7270   -2.9350 H   0  0  0  0  0  0  0  0  0  0  0  0
   -4.4775   -2.5278   -1.8338 C   0  0  0  0  0  0  0  0  0  0  0  0
   -5.8463   -2.1080   -1.6401 C   0  0  0  0  0  0  0  0  0  0  0  0
   -6.3507   -0.7436   -1.7010 C   0  0  0  0  0  0  0  0  0  0  0  0
   -7.6875   -0.5434   -1.2118 N   0  0  0  0  0  0  0  0  0  0  0  0
   -8.3724   -1.3489   -1.2723 H   0  0  0  0  0  0  0  0  0  0  0  0
   -8.1258    0.7144   -0.6981 C   0  0  0  0  0  0  0  0  0  0  0  0
   -8.3000    0.8628    0.7031 N   0  0  0  0  0  0  0  0  0  0  0  0
   -8.3510    1.6883   -1.5092 N   0  0  0  0  0  0  0  0  0  0  0  0
   -8.3504    1.8163    1.1310 H   0  0  0  0  0  0  0  0  0  0  0  0
   -8.3796    0.0140    1.3015 H   0  0  0  0  0  0  0  0  0  0  0  0
   -8.2057    1.5269   -2.5275 H   0  0  0  0  0  0  0  0  0  0  0  0
   -4.2972   -4.5616    9.1455 N   0  0  0  0  0  0  0  0  0  0  0  0
   -4.0967   -5.7636    8.4060 C   0  0  0  0  0  0  0  0  0  0  0  0
   -3.1573   -6.5232    8.7055 O   0  0  0  0  0  0  0  0  0  0  0  0
   -5.1226   -3.9837    8.8416 H   0  0  0  0  0  0  0  0  0  0  0  0
   -3.5233   -4.0799   10.2316 C   0  0  0  0  0  0  0  0  0  0  0  0
   -3.8533   -4.6566   11.5467 C   0  0  0  0  0  0  0  0  0  0  0  0
   -3.2320   -5.6751   11.9381 O   0  0  0  0  0  0  0  0  0  0  0  0
   -4.8414   -4.1577   12.4488 N   0  0  0  0  0  0  0  0  0  0  0  0
   -5.3898   -3.3494   12.1500 H   0  0  0  0  0  0  0  0  0  0  0  0
   -5.0798   -4.7716   13.6968 C   0  0  0  0  0  0  0  0  0  0  0  0
   -6.4256   -4.5347   14.2802 C   0  0  0  0  0  0  0  0  0  0  0  0
   -7.5316   -5.3987   14.0336 N   0  0  0  0  0  0  0  0  0  0  0  0
   -6.6158   -3.5534   15.0093 O   0  0  0  0  0  0  0  0  0  0  0  0
   -8.4120   -5.1360   13.5582 H   0  0  0  0  0  0  0  0  0  0  0  0
   -7.4530   -6.3820   14.3561 H   0  0  0  0  0  0  0  0  0  0  0  0
   -4.0547   -4.4458   14.7426 C   0  0  0  0  0  0  0  0  0  0  0  0
   -3.8513   -5.4680   15.7874 C   0  0  0  0  0  0  0  0  0  0  0  0
   -4.1983   -5.3163   17.1228 C   0  0  0  0  0  0  0  0  0  0  0  0
   -3.8258   -6.4183   17.7691 N   0  0  0  0  0  0  0  0  0  0  0  0
   -3.2487   -7.2943   16.9264 C   0  0  0  0  0  0  0  0  0  0  0  0
   -2.7218   -8.5669   17.0796 C   0  0  0  0  0  0  0  0  0  0  0  0
   -2.2131   -9.2526   16.0134 C   0  0  0  0  0  0  0  0  0  0  0  0
   -2.2007   -8.7028   14.7280 C   0  0  0  0  0  0  0  0  0  0  0  0
   -2.7272   -7.4438   14.6065 C   0  0  0  0  0  0  0  0  0  0  0  0
   -3.2488   -6.7215   15.6554 C   0  0  0  0  0  0  0  0  0  0  0  0
   -3.9657   -6.5813   18.8067 H   0  0  0  0  0  0  0  0  0  0  0  0
   -3.2280   -2.6246   10.2137 C   0  0  0  0  0  0  0  0  0  0  0  0
   -1.7492   -1.4860   11.8506 C   0  0  0  0  0  0  0  0  0  0  0  0
   -1.9073   -2.0783   10.4362 C   0  0  0  0  0  0  0  0  0  0  0  0
   -0.6845   -2.8525   10.1364 C   0  0  0  0  0  0  0  0  0  0  0  0
   -5.7906   -7.3501    7.4514 C   0  0  0  0  0  0  0  0  0  0  0  0
   -7.2488   -7.2338    7.5547 C   0  0  0  0  0  0  0  0  0  0  0  0
   -7.9841   -6.0636    7.8159 C   0  0  0  0  0  0  0  0  0  0  0  0
   -9.2853   -6.3028    7.8637 N   0  0  0  0  0  0  0  0  0  0  0  0
   -9.4604   -7.6235    7.6372 C   0  0  0  0  0  0  0  0  0  0  0  0
  -10.6517   -8.3190    7.5753 C   0  0  0  0  0  0  0  0  0  0  0  0
  -10.5800   -9.6652    7.3070 C   0  0  0  0  0  0  0  0  0  0  0  0
   -9.3623  -10.2824    7.1092 C   0  0  0  0  0  0  0  0  0  0  0  0
   -8.1828   -9.5715    7.1745 C   0  0  0  0  0  0  0  0  0  0  0  0
   -8.2160   -8.2157    7.4434 C   0  0  0  0  0  0  0  0  0  0  0  0
  -10.0711   -5.6054    8.0461 H   0  0  0  0  0  0  0  0  0  0  0  0
 60 61  1  0  0  0
 61 62  1  0  0  0
 61 59  1  0  0  0
 59 37  1  0  0  0
 37 33  1  0  0  0
 33 34  1  0  0  0
 34 35  2  0  0  0
 34  1  1  0  0  0
  1 63  1  0  0  0
 63 64  1  0  0  0
 64 65  2  0  0  0
 65 66  1  0  0  0
 66 67  1  0  0  0
 67 68  2  0  0  0
 68 69  1  0  0  0
 69 70  2  0  0  0
 70 71  1  0  0  0
 71 72  2  0  0  0
  1  2  1  0  0  0
  2  3  1  0  0  0
  3  4  2  0  0  0
  3  6  1  0  0  0
  6  7  1  0  0  0
  7  8  1  0  0  0
  8  9  2  0  0  0
  8 11  1  0  0  0
 11 12  1  0  0  0
 12 13  1  0  0  0
 13 14  1  0  0  0
 14 15  1  0  0  0
 15 16  1  0  0  0
 16 17  2  0  0  0
 16 18  1  0  0  0
 18 19  1  0  0  0
 18 22  1  0  0  0
 22 23  1  0  0  0
 23 24  1  0  0  0
 24 25  1  0  0  0
 25 27  1  0  0  0
 27 28  1  0  0  0
 27 29  2  0  0  0
 37 38  1  0  0  0
 38 39  2  0  0  0
 38 40  1  0  0  0
 40 42  1  0  0  0
 42 48  1  0  0  0
 48 49  1  0  0  0
 49 50  2  0  0  0
 50 51  1  0  0  0
 51 52  1  0  0  0
 52 53  2  0  0  0
 53 54  1  0  0  0
 54 55  2  0  0  0
 55 56  1  0  0  0
 56 57  2  0  0  0
 42 43  1  0  0  0
 43 44  1  0  0  0
 43 45  2  0  0  0
 72 64  1  0  0  0
 15 11  1  0  0  0
 57 49  1  0  0  0
 72 67  1  0  0  0
 57 52  1  0  0  0
 33 36  1  0  0  0
 66 73  1  0  0  0
  2  5  1  0  0  0
  7 10  1  0  0  0
 19 20  1  0  0  0
 19 21  1  0  0  0
 25 26  1  0  0  0
 28 30  1  0  0  0
 28 31  1  0  0  0
 29 32  1  0  0  0
 40 41  1  0  0  0
 51 58  1  0  0  0
 44 46  1  0  0  0
 44 47  1  0  0  0
M  END
> <minimizedAffinity>
-6.47401

> <CNNscore>
0.1229326352

> <CNNaffinity>
6.7381896973

> <CNN_VS>
0.8283433914

> <CNNaffinity_variance>
0.0648157522

$$$$
[H]N=C(N([H])[H])N([H])C([H])([H])C([H])([H])C([H])([H])[C@@]([H])(C(=O)N1C([H])([H])C([H])([H])C([H])([H])[C@@]1([H])C(=O)N([H])C([H])([H])C(=O)N([H])[C@]([H])(C(=O)N([H])[C@]([H])(C(=O)N([H])[C@]([H])(C(=O)N([H])[H])C([H])([H])c1c([H])n([H])c2c([H])c([H])c([H])c([H])c12)C([H])([H])C([H])(C([H])([H])[H])C([H])([H])[H])C([H])([H])c1c([H])n([H])c2c([H])c([H])c([H])c([H])c12)N([H])[H]


 73 77  0  0  0  0  0  0  0  0999 V2000
   -3.9829   -4.4630   12.3168 C   0  0  0  0  0  0  0  0  0  0  0  0
   -3.6161   -3.1881   12.9098 N   0  0  0  0  0  0  0  0  0  0  0  0
   -2.4600   -3.1067   13.7514 C   0  0  0  0  0  0  0  0  0  0  0  0
   -1.7592   -4.1055   13.9535 O   0  0  0  0  0  0  0  0  0  0  0  0
   -4.1927   -2.3607   12.6889 H   0  0  0  0  0  0  0  0  0  0  0  0
   -2.1077   -1.8098   14.3890 C   0  0  0  0  0  0  0  0  0  0  0  0
   -1.7779   -0.8186   13.3581 N   0  0  0  0  0  0  0  0  0  0  0  0
   -2.0291    0.5621   13.5380 C   0  0  0  0  0  0  0  0  0  0  0  0
   -2.5307    0.9229   14.6458 O   0  0  0  0  0  0  0  0  0  0  0  0
   -1.3522   -1.1256   12.4613 H   0  0  0  0  0  0  0  0  0  0  0  0
   -1.7693    1.6355   12.5705 C   0  0  0  0  0  0  0  0  0  0  0  0
   -2.2009    2.9913   12.9769 C   0  0  0  0  0  0  0  0  0  0  0  0
   -3.5015    3.2913   12.3125 C   0  0  0  0  0  0  0  0  0  0  0  0
   -3.7763    1.9849   11.5455 C   0  0  0  0  0  0  0  0  0  0  0  0
   -2.4946    1.4139   11.2989 N   0  0  0  0  0  0  0  0  0  0  0  0
   -1.9195    0.7514   10.2339 C   0  0  0  0  0  0  0  0  0  0  0  0
   -0.7136    0.2663   10.3015 O   0  0  0  0  0  0  0  0  0  0  0  0
   -2.5242    0.4642    8.8646 C   0  0  0  0  0  0  0  0  0  0  0  0
   -3.7199   -0.3271    9.0792 N   0  0  0  0  0  0  0  0  0  0  0  0
   -3.6848   -1.2984    8.8116 H   0  0  0  0  0  0  0  0  0  0  0  0
   -4.3671    0.0156    9.7759 H   0  0  0  0  0  0  0  0  0  0  0  0
   -2.8948    1.7591    8.2247 C   0  0  0  0  0  0  0  0  0  0  0  0
   -4.0514    1.9355    7.3771 C   0  0  0  0  0  0  0  0  0  0  0  0
   -4.2915    1.2906    6.0940 C   0  0  0  0  0  0  0  0  0  0  0  0
   -4.9440    0.0107    6.1440 N   0  0  0  0  0  0  0  0  0  0  0  0
   -5.8844   -0.0572    6.6264 H   0  0  0  0  0  0  0  0  0  0  0  0
   -4.3414   -1.1683    5.6105 C   0  0  0  0  0  0  0  0  0  0  0  0
   -3.6184   -2.0262    6.4806 N   0  0  0  0  0  0  0  0  0  0  0  0
   -4.4659   -1.4341    4.3570 N   0  0  0  0  0  0  0  0  0  0  0  0
   -3.4041   -3.0096    6.1948 H   0  0  0  0  0  0  0  0  0  0  0  0
   -3.3011   -1.6673    7.4055 H   0  0  0  0  0  0  0  0  0  0  0  0
   -5.0082   -0.7727    3.7633 H   0  0  0  0  0  0  0  0  0  0  0  0
   -4.0057   -5.4443    9.9804 N   0  0  0  0  0  0  0  0  0  0  0  0
   -4.0923   -4.3169   10.8484 C   0  0  0  0  0  0  0  0  0  0  0  0
   -4.2546   -3.1798   10.3692 O   0  0  0  0  0  0  0  0  0  0  0  0
   -3.8865   -6.3712   10.4642 H   0  0  0  0  0  0  0  0  0  0  0  0
   -4.0733   -5.4472    8.5640 C   0  0  0  0  0  0  0  0  0  0  0  0
   -5.0956   -6.3349    7.9827 C   0  0  0  0  0  0  0  0  0  0  0  0
   -4.7573   -7.4795    7.5926 O   0  0  0  0  0  0  0  0  0  0  0  0
   -6.4762   -6.0130    7.8120 N   0  0  0  0  0  0  0  0  0  0  0  0
   -6.7817   -5.0782    8.0880 H   0  0  0  0  0  0  0  0  0  0  0  0
   -7.3868   -6.9358    7.2546 C   0  0  0  0  0  0  0  0  0  0  0  0
   -7.0832   -7.3770    5.8687 C   0  0  0  0  0  0  0  0  0  0  0  0
   -6.6358   -8.6951    5.5639 N   0  0  0  0  0  0  0  0  0  0  0  0
   -7.2150   -6.5842    4.9280 O   0  0  0  0  0  0  0  0  0  0  0  0
   -5.7241   -8.9437    5.1430 H   0  0  0  0  0  0  0  0  0  0  0  0
   -7.2767   -9.4816    5.7825 H   0  0  0  0  0  0  0  0  0  0  0  0
   -8.8166   -6.4834    7.2970 C   0  0  0  0  0  0  0  0  0  0  0  0
   -9.8007   -7.4948    7.7287 C   0  0  0  0  0  0  0  0  0  0  0  0
   -9.7792   -8.8315    7.3554 C   0  0  0  0  0  0  0  0  0  0  0  0
  -10.8410   -9.4236    7.8964 N   0  0  0  0  0  0  0  0  0  0  0  0
  -11.5659   -8.5440    8.6113 C   0  0  0  0  0  0  0  0  0  0  0  0
  -12.7192   -8.6472    9.3729 C   0  0  0  0  0  0  0  0  0  0  0  0
  -13.2291   -7.5641   10.0307 C   0  0  0  0  0  0  0  0  0  0  0  0
  -12.6138   -6.3105    9.9635 C   0  0  0  0  0  0  0  0  0  0  0  0
  -11.4763   -6.2380    9.2033 C   0  0  0  0  0  0  0  0  0  0  0  0
  -10.9318   -7.3054    8.5266 C   0  0  0  0  0  0  0  0  0  0  0  0
  -11.0810  -10.4490    7.7785 H   0  0  0  0  0  0  0  0  0  0  0  0
   -2.7668   -5.4082    7.8590 C   0  0  0  0  0  0  0  0  0  0  0  0
   -0.4201   -6.2128    7.9497 C   0  0  0  0  0  0  0  0  0  0  0  0
   -1.4980   -5.2836    8.5422 C   0  0  0  0  0  0  0  0  0  0  0  0
   -0.8703   -3.9675    8.7836 C   0  0  0  0  0  0  0  0  0  0  0  0
   -5.1358   -5.0860   12.9972 C   0  0  0  0  0  0  0  0  0  0  0  0
   -4.9940   -5.5371   14.3854 C   0  0  0  0  0  0  0  0  0  0  0  0
   -5.6775   -5.0359   15.5079 C   0  0  0  0  0  0  0  0  0  0  0  0
   -5.3060   -5.6479   16.6214 N   0  0  0  0  0  0  0  0  0  0  0  0
   -4.3751   -6.5676   16.2840 C   0  0  0  0  0  0  0  0  0  0  0  0
   -3.7209   -7.4522   17.1183 C   0  0  0  0  0  0  0  0  0  0  0  0
   -2.8238   -8.3169   16.5377 C   0  0  0  0  0  0  0  0  0  0  0  0
   -2.5972   -8.2915   15.1773 C   0  0  0  0  0  0  0  0  0  0  0  0
   -3.2602   -7.4011   14.3597 C   0  0  0  0  0  0  0  0  0  0  0  0
   -4.1690   -6.5156   14.9087 C   0  0  0  0  0  0  0  0  0  0  0  0
   -5.6564   -5.4694   17.6127 H   0  0  0  0  0  0  0  0  0  0  0  0
 60 61  1  0  0  0
 61 62  1  0  0  0
 61 59  1  0  0  0
 59 37  1  0  0  0
 37 33  1  0  0  0
 33 34  1  0  0  0
 34 35  2  0  0  0
 34  1  1  0  0  0
  1 63  1  0  0  0
 63 64  1  0  0  0
 64 65  2  0  0  0
 65 66  1  0  0  0
 66 67  1  0  0  0
 67 68  2  0  0  0
 68 69  1  0  0  0
 69 70  2  0  0  0
 70 71  1  0  0  0
 71 72  2  0  0  0
  1  2  1  0  0  0
  2  3  1  0  0  0
  3  4  2  0  0  0
  3  6  1  0  0  0
  6  7  1  0  0  0
  7  8  1  0  0  0
  8  9  2  0  0  0
  8 11  1  0  0  0
 11 12  1  0  0  0
 12 13  1  0  0  0
 13 14  1  0  0  0
 14 15  1  0  0  0
 15 16  1  0  0  0
 16 17  2  0  0  0
 16 18  1  0  0  0
 18 19  1  0  0  0
 18 22  1  0  0  0
 22 23  1  0  0  0
 23 24  1  0  0  0
 24 25  1  0  0  0
 25 27  1  0  0  0
 27 28  1  0  0  0
 27 29  2  0  0  0
 37 38  1  0  0  0
 38 39  2  0  0  0
 38 40  1  0  0  0
 40 42  1  0  0  0
 42 48  1  0  0  0
 48 49  1  0  0  0
 49 50  2  0  0  0
 50 51  1  0  0  0
 51 52  1  0  0  0
 52 53  2  0  0  0
 53 54  1  0  0  0
 54 55  2  0  0  0
 55 56  1  0  0  0
 56 57  2  0  0  0
 42 43  1  0  0  0
 43 44  1  0  0  0
 43 45  2  0  0  0
 72 64  1  0  0  0
 15 11  1  0  0  0
 57 49  1  0  0  0
 72 67  1  0  0  0
 57 52  1  0  0  0
 33 36  1  0  0  0
 66 73  1  0  0  0
  2  5  1  0  0  0
  7 10  1  0  0  0
 19 20  1  0  0  0
 19 21  1  0  0  0
 25 26  1  0  0  0
 28 30  1  0  0  0
 28 31  1  0  0  0
 29 32  1  0  0  0
 40 41  1  0  0  0
 51 58  1  0  0  0
 44 46  1  0  0  0
 44 47  1  0  0  0
M  END
> <minimizedAffinity>
-7.37199

> <CNNscore>
0.1169877574

> <CNNaffinity>
6.9220552444

> <CNN_VS>
0.8097957373

> <CNNaffinity_variance>
0.5522196889

$$$$
[H]c1nc(N([H])c2c([H])c([H])c(C([H])(C([H])([H])[H])C([H])([H])[H])c([H])c2OC([H])([H])[H])nc(N([H])c2c([H])c([H])c([H])c([H])c2S(=O)(=O)C([H])(C([H])([H])[H])C([H])([H])[H])c1Cl


 34 36  0  0  0  0  0  0  0  0999 V2000
   -8.1843   -7.3785    8.0436 C   0  0  0  0  0  0  0  0  0  0  0  0
   -7.8334   -8.6350    7.7648 N   0  0  0  0  0  0  0  0  0  0  0  0
   -6.6311   -8.9707    7.2832 C   0  0  0  0  0  0  0  0  0  0  0  0
   -5.7001   -8.0021    7.0569 C   0  0  0  0  0  0  0  0  0  0  0  0
   -4.1402   -8.3889    6.4380 Cl  0  0  0  0  0  0  0  0  0  0  0  0
   -6.0033   -6.6586    7.3287 C   0  0  0  0  0  0  0  0  0  0  0  0
   -7.2154   -6.4501    7.7986 N   0  0  0  0  0  0  0  0  0  0  0  0
   -9.4402   -6.9567    8.5551 N   0  0  0  0  0  0  0  0  0  0  0  0
   -9.3965   -6.1606    9.2734 H   0  0  0  0  0  0  0  0  0  0  0  0
  -11.8171   -6.7830    8.7994 C   0  0  0  0  0  0  0  0  0  0  0  0
  -13.1088   -7.1808    8.5567 C   0  0  0  0  0  0  0  0  0  0  0  0
  -13.3802   -8.2504    7.7537 C   0  0  0  0  0  0  0  0  0  0  0  0
  -12.3276   -8.9185    7.1948 C   0  0  0  0  0  0  0  0  0  0  0  0
  -11.0079   -8.5051    7.4483 C   0  0  0  0  0  0  0  0  0  0  0  0
  -10.7056   -7.4355    8.2497 C   0  0  0  0  0  0  0  0  0  0  0  0
  -14.7692   -8.7007    7.4754 C   0  0  0  0  0  0  0  0  0  0  0  0
  -15.2996   -8.1023    6.1774 C   0  0  0  0  0  0  0  0  0  0  0  0
  -15.6989   -8.2446    8.5921 C   0  0  0  0  0  0  0  0  0  0  0  0
  -12.5814   -5.2210   10.5344 C   0  0  0  0  0  0  0  0  0  0  0  0
  -11.6371   -5.6948    9.6210 O   0  0  0  0  0  0  0  0  0  0  0  0
   -5.0687   -5.6503    7.1059 N   0  0  0  0  0  0  0  0  0  0  0  0
   -5.1228   -5.1943    6.1126 H   0  0  0  0  0  0  0  0  0  0  0  0
   -4.0650   -5.0951    7.8979 C   0  0  0  0  0  0  0  0  0  0  0  0
   -4.0779   -5.1997    9.2563 C   0  0  0  0  0  0  0  0  0  0  0  0
   -3.0997   -4.6632   10.0963 C   0  0  0  0  0  0  0  0  0  0  0  0
   -2.0589   -3.9888    9.5349 C   0  0  0  0  0  0  0  0  0  0  0  0
   -2.0025   -3.8574    8.1727 C   0  0  0  0  0  0  0  0  0  0  0  0
   -2.9792   -4.3945    7.3549 C   0  0  0  0  0  0  0  0  0  0  0  0
   -2.8669   -4.2067    5.6513 S   0  0  0  0  0  0  0  0  0  0  0  0
   -1.4893   -3.8463    5.1615 O   0  0  0  0  0  0  0  0  0  0  0  0
   -3.2652   -5.4927    4.9671 O   0  0  0  0  0  0  0  0  0  0  0  0
   -3.9536   -2.9595    5.0098 C   0  0  0  0  0  0  0  0  0  0  0  0
   -3.9027   -1.6823    5.8063 C   0  0  0  0  0  0  0  0  0  0  0  0
   -3.8462   -2.7699    3.5264 C   0  0  0  0  0  0  0  0  0  0  0  0
 19 20  1  0  0  0
 20 10  1  0  0  0
 10 11  2  0  0  0
 11 12  1  0  0  0
 12 13  2  0  0  0
 13 14  1  0  0  0
 14 15  2  0  0  0
 15  8  1  0  0  0
  8  1  1  0  0  0
  1  2  2  0  0  0
  2  3  1  0  0  0
  3  4  2  0  0  0
  4  5  1  0  0  0
  4  6  1  0  0  0
  6 21  1  0  0  0
 21 23  1  0  0  0
 23 24  2  0  0  0
 24 25  1  0  0  0
 25 26  2  0  0  0
 26 27  1  0  0  0
 27 28  2  0  0  0
 28 29  1  0  0  0
 29 30  2  0  0  0
 29 31  2  0  0  0
 29 32  1  0  0  0
 32 33  1  0  0  0
 32 34  1  0  0  0
  6  7  2  0  0  0
 12 16  1  0  0  0
 16 17  1  0  0  0
 16 18  1  0  0  0
 15 10  1  0  0  0
  7  1  1  0  0  0
 28 23  1  0  0  0
  8  9  1  0  0  0
 21 22  1  0  0  0
M  END
> <minimizedAffinity>
-7.12816

> <CNNscore>
0.4660656750

> <CNNaffinity>
6.9246077538

> <CNN_VS>
3.2273221016

> <CNNaffinity_variance>
0.1898015440

$$$$
[H]c1nc(N([H])c2c([H])c([H])c(C([H])(C([H])([H])[H])C([H])([H])[H])c([H])c2OC([H])([H])[H])nc(N([H])c2c([H])c([H])c([H])c([H])c2S(=O)(=O)C([H])(C([H])([H])[H])C([H])([H])[H])c1Cl


 34 36  0  0  0  0  0  0  0  0999 V2000
   -7.2887   -7.7752    8.1407 C   0  0  0  0  0  0  0  0  0  0  0  0
   -7.0593   -9.0124    7.6978 N   0  0  0  0  0  0  0  0  0  0  0  0
   -8.0292   -9.8313    7.2750 C   0  0  0  0  0  0  0  0  0  0  0  0
   -9.3238   -9.4067    7.2864 C   0  0  0  0  0  0  0  0  0  0  0  0
  -10.6038  -10.4271    6.7513 Cl  0  0  0  0  0  0  0  0  0  0  0  0
   -9.6360   -8.1154    7.7402 C   0  0  0  0  0  0  0  0  0  0  0  0
   -8.6007   -7.4019    8.1306 N   0  0  0  0  0  0  0  0  0  0  0  0
   -6.3069   -6.8585    8.6019 N   0  0  0  0  0  0  0  0  0  0  0  0
   -6.3170   -6.6722    9.6588 H   0  0  0  0  0  0  0  0  0  0  0  0
   -4.4107   -5.3949    8.5617 C   0  0  0  0  0  0  0  0  0  0  0  0
   -3.4206   -4.6850    7.9281 C   0  0  0  0  0  0  0  0  0  0  0  0
   -3.2939   -4.7068    6.5694 C   0  0  0  0  0  0  0  0  0  0  0  0
   -4.1824   -5.4572    5.8526 C   0  0  0  0  0  0  0  0  0  0  0  0
   -5.1934   -6.1812    6.5088 C   0  0  0  0  0  0  0  0  0  0  0  0
   -5.3445   -6.1781    7.8706 C   0  0  0  0  0  0  0  0  0  0  0  0
   -2.2311   -3.9473    5.8600 C   0  0  0  0  0  0  0  0  0  0  0  0
   -2.2389   -2.4752    6.2567 C   0  0  0  0  0  0  0  0  0  0  0  0
   -2.4625   -4.0075    4.3560 C   0  0  0  0  0  0  0  0  0  0  0  0
   -4.1134   -4.1874   10.6802 C   0  0  0  0  0  0  0  0  0  0  0  0
   -4.4636   -5.3147    9.9337 O   0  0  0  0  0  0  0  0  0  0  0  0
  -10.9513   -7.6582    7.7615 N   0  0  0  0  0  0  0  0  0  0  0  0
  -11.5377   -7.9252    6.8769 H   0  0  0  0  0  0  0  0  0  0  0  0
  -11.6845   -6.9206    8.6895 C   0  0  0  0  0  0  0  0  0  0  0  0
  -11.0935   -6.0186    9.5222 C   0  0  0  0  0  0  0  0  0  0  0  0
  -11.7793   -5.2545   10.4689 C   0  0  0  0  0  0  0  0  0  0  0  0
  -13.1273   -5.4106   10.5780 C   0  0  0  0  0  0  0  0  0  0  0  0
  -13.7662   -6.3059    9.7620 C   0  0  0  0  0  0  0  0  0  0  0  0
  -13.0727   -7.0551    8.8296 C   0  0  0  0  0  0  0  0  0  0  0  0
  -13.9156   -8.1650    7.8260 S   0  0  0  0  0  0  0  0  0  0  0  0
  -13.3812   -9.5718    7.8797 O   0  0  0  0  0  0  0  0  0  0  0  0
  -15.3692   -8.2206    8.2320 O   0  0  0  0  0  0  0  0  0  0  0  0
  -13.9084   -7.7064    6.1120 C   0  0  0  0  0  0  0  0  0  0  0  0
  -14.2186   -8.8654    5.2016 C   0  0  0  0  0  0  0  0  0  0  0  0
  -14.6882   -6.4602    5.8171 C   0  0  0  0  0  0  0  0  0  0  0  0
 19 20  1  0  0  0
 20 10  1  0  0  0
 10 11  2  0  0  0
 11 12  1  0  0  0
 12 13  2  0  0  0
 13 14  1  0  0  0
 14 15  2  0  0  0
 15  8  1  0  0  0
  8  1  1  0  0  0
  1  2  2  0  0  0
  2  3  1  0  0  0
  3  4  2  0  0  0
  4  5  1  0  0  0
  4  6  1  0  0  0
  6 21  1  0  0  0
 21 23  1  0  0  0
 23 24  2  0  0  0
 24 25  1  0  0  0
 25 26  2  0  0  0
 26 27  1  0  0  0
 27 28  2  0  0  0
 28 29  1  0  0  0
 29 30  2  0  0  0
 29 31  2  0  0  0
 29 32  1  0  0  0
 32 33  1  0  0  0
 32 34  1  0  0  0
  6  7  2  0  0  0
 12 16  1  0  0  0
 16 17  1  0  0  0
 16 18  1  0  0  0
 15 10  1  0  0  0
  7  1  1  0  0  0
 28 23  1  0  0  0
  8  9  1  0  0  0
 21 22  1  0  0  0
M  END
> <minimizedAffinity>
-8.60938

> <CNNscore>
0.3961448371

> <CNNaffinity>
7.1151022911

> <CNN_VS>
2.8186111450

> <CNNaffinity_variance>
0.2680279613

$$$$
[H]c1nc(N([H])c2c([H])c([H])c(C([H])(C([H])([H])[H])C([H])([H])[H])c([H])c2OC([H])([H])[H])nc(N([H])c2c([H])c([H])c([H])c([H])c2S(=O)(=O)C([H])(C([H])([H])[H])C([H])([H])[H])c1Cl


 34 36  0  0  0  0  0  0  0  0999 V2000
   -8.9985   -8.1531    8.1060 C   0  0  0  0  0  0  0  0  0  0  0  0
   -8.5371   -9.2619    7.5253 N   0  0  0  0  0  0  0  0  0  0  0  0
   -7.2643   -9.4131    7.1413 C   0  0  0  0  0  0  0  0  0  0  0  0
   -6.3742   -8.4012    7.3410 C   0  0  0  0  0  0  0  0  0  0  0  0
   -4.7267   -8.5525    6.8627 Cl  0  0  0  0  0  0  0  0  0  0  0  0
   -6.7930   -7.2062    7.9472 C   0  0  0  0  0  0  0  0  0  0  0  0
   -8.0660   -7.1731    8.2817 N   0  0  0  0  0  0  0  0  0  0  0  0
  -10.3335   -7.9298    8.5358 N   0  0  0  0  0  0  0  0  0  0  0  0
  -10.4367   -7.5969    9.5508 H   0  0  0  0  0  0  0  0  0  0  0  0
  -12.5451   -7.1613    8.0282 C   0  0  0  0  0  0  0  0  0  0  0  0
  -13.7476   -7.2295    7.3687 C   0  0  0  0  0  0  0  0  0  0  0  0
  -14.0017   -8.2172    6.4617 C   0  0  0  0  0  0  0  0  0  0  0  0
  -13.0232   -9.1411    6.2261 C   0  0  0  0  0  0  0  0  0  0  0  0
  -11.7946   -9.0645    6.9055 C   0  0  0  0  0  0  0  0  0  0  0  0
  -11.5119   -8.0846    7.8206 C   0  0  0  0  0  0  0  0  0  0  0  0
  -15.2948   -8.3128    5.7350 C   0  0  0  0  0  0  0  0  0  0  0  0
  -15.0913   -8.7615    4.2921 C   0  0  0  0  0  0  0  0  0  0  0  0
  -15.9695   -6.9482    5.6891 C   0  0  0  0  0  0  0  0  0  0  0  0
  -13.0023   -6.0500   10.1706 C   0  0  0  0  0  0  0  0  0  0  0  0
  -12.3762   -6.1323    8.9250 O   0  0  0  0  0  0  0  0  0  0  0  0
   -5.9024   -6.1574    8.1623 N   0  0  0  0  0  0  0  0  0  0  0  0
   -6.0006   -5.6730    9.1387 H   0  0  0  0  0  0  0  0  0  0  0  0
   -4.8983   -5.5896    7.3797 C   0  0  0  0  0  0  0  0  0  0  0  0
   -4.9647   -5.5781    6.0190 C   0  0  0  0  0  0  0  0  0  0  0  0
   -3.9885   -5.0240    5.1880 C   0  0  0  0  0  0  0  0  0  0  0  0
   -2.8932   -4.4543    5.7615 C   0  0  0  0  0  0  0  0  0  0  0  0
   -2.7818   -4.4416    7.1266 C   0  0  0  0  0  0  0  0  0  0  0  0
   -3.7572   -4.9947    7.9354 C   0  0  0  0  0  0  0  0  0  0  0  0
   -3.5765   -4.9546    9.6429 S   0  0  0  0  0  0  0  0  0  0  0  0
   -4.7007   -5.6150   10.3963 O   0  0  0  0  0  0  0  0  0  0  0  0
   -2.2980   -5.6540   10.0390 O   0  0  0  0  0  0  0  0  0  0  0  0
   -3.4519   -3.3100   10.2968 C   0  0  0  0  0  0  0  0  0  0  0  0
   -2.3837   -3.1860   11.3513 C   0  0  0  0  0  0  0  0  0  0  0  0
   -3.4110   -2.2430    9.2443 C   0  0  0  0  0  0  0  0  0  0  0  0
 19 20  1  0  0  0
 20 10  1  0  0  0
 10 11  2  0  0  0
 11 12  1  0  0  0
 12 13  2  0  0  0
 13 14  1  0  0  0
 14 15  2  0  0  0
 15  8  1  0  0  0
  8  1  1  0  0  0
  1  2  2  0  0  0
  2  3  1  0  0  0
  3  4  2  0  0  0
  4  5  1  0  0  0
  4  6  1  0  0  0
  6 21  1  0  0  0
 21 23  1  0  0  0
 23 24  2  0  0  0
 24 25  1  0  0  0
 25 26  2  0  0  0
 26 27  1  0  0  0
 27 28  2  0  0  0
 28 29  1  0  0  0
 29 30  2  0  0  0
 29 31  2  0  0  0
 29 32  1  0  0  0
 32 33  1  0  0  0
 32 34  1  0  0  0
  6  7  2  0  0  0
 12 16  1  0  0  0
 16 17  1  0  0  0
 16 18  1  0  0  0
 15 10  1  0  0  0
  7  1  1  0  0  0
 28 23  1  0  0  0
  8  9  1  0  0  0
 21 22  1  0  0  0
M  END
> <minimizedAffinity>
-7.01270

> <CNNscore>
0.3809795082

> <CNNaffinity>
6.9982461929

> <CNN_VS>
2.6661884785

> <CNNaffinity_variance>
0.0452623367

$$$$
[H]c1nc(N([H])c2c([H])c([H])c(C([H])(C([H])([H])[H])C([H])([H])[H])c([H])c2OC([H])([H])[H])nc(N([H])c2c([H])c([H])c([H])c([H])c2S(=O)(=O)C([H])(C([H])([H])[H])C([H])([H])[H])c1Cl


 34 36  0  0  0  0  0  0  0  0999 V2000
   -7.0380   -7.0626    7.1154 C   0  0  0  0  0  0  0  0  0  0  0  0
   -6.5962   -8.3207    7.0776 N   0  0  0  0  0  0  0  0  0  0  0  0
   -7.4072   -9.3841    7.1193 C   0  0  0  0  0  0  0  0  0  0  0  0
   -8.7548   -9.2022    7.2045 C   0  0  0  0  0  0  0  0  0  0  0  0
   -9.8356  -10.5419    7.2606 Cl  0  0  0  0  0  0  0  0  0  0  0  0
   -9.2874   -7.9041    7.2483 C   0  0  0  0  0  0  0  0  0  0  0  0
   -8.3937   -6.9385    7.2007 N   0  0  0  0  0  0  0  0  0  0  0  0
   -6.2324   -5.8937    7.0750 N   0  0  0  0  0  0  0  0  0  0  0  0
   -6.6027   -5.1055    6.4479 H   0  0  0  0  0  0  0  0  0  0  0  0
   -3.9467   -5.1814    6.9871 C   0  0  0  0  0  0  0  0  0  0  0  0
   -2.7250   -4.9021    7.5485 C   0  0  0  0  0  0  0  0  0  0  0  0
   -2.5093   -5.0597    8.8869 C   0  0  0  0  0  0  0  0  0  0  0  0
   -3.5460   -5.5050    9.6573 C   0  0  0  0  0  0  0  0  0  0  0  0
   -4.7938   -5.7889    9.0749 C   0  0  0  0  0  0  0  0  0  0  0  0
   -5.0391   -5.6400    7.7351 C   0  0  0  0  0  0  0  0  0  0  0  0
   -1.1966   -4.7644    9.5186 C   0  0  0  0  0  0  0  0  0  0  0  0
   -1.0606   -5.4557   10.8706 C   0  0  0  0  0  0  0  0  0  0  0  0
   -1.0612   -3.2676    9.7647 C   0  0  0  0  0  0  0  0  0  0  0  0
   -3.0299   -4.6384    4.7738 C   0  0  0  0  0  0  0  0  0  0  0  0
   -4.0740   -4.9939    5.6306 O   0  0  0  0  0  0  0  0  0  0  0  0
  -10.6612   -7.6922    7.3353 N   0  0  0  0  0  0  0  0  0  0  0  0
  -11.2287   -8.0389    6.4663 H   0  0  0  0  0  0  0  0  0  0  0  0
  -11.4730   -7.1215    8.3142 C   0  0  0  0  0  0  0  0  0  0  0  0
  -10.9720   -6.2947    9.2742 C   0  0  0  0  0  0  0  0  0  0  0  0
  -11.7390   -5.6972   10.2768 C   0  0  0  0  0  0  0  0  0  0  0  0
  -13.0766   -5.9484   10.3092 C   0  0  0  0  0  0  0  0  0  0  0  0
  -13.6264   -6.7736    9.3646 C   0  0  0  0  0  0  0  0  0  0  0  0
  -12.8532   -7.3576    8.3784 C   0  0  0  0  0  0  0  0  0  0  0  0
  -13.5858   -8.3848    7.2130 S   0  0  0  0  0  0  0  0  0  0  0  0
  -12.7034   -9.5114    6.7443 O   0  0  0  0  0  0  0  0  0  0  0  0
  -14.8365   -9.0037    7.7903 O   0  0  0  0  0  0  0  0  0  0  0  0
  -14.1011   -7.5277    5.7475 C   0  0  0  0  0  0  0  0  0  0  0  0
  -14.9193   -8.3952    4.8275 C   0  0  0  0  0  0  0  0  0  0  0  0
  -14.6931   -6.1764    6.0148 C   0  0  0  0  0  0  0  0  0  0  0  0
 19 20  1  0  0  0
 20 10  1  0  0  0
 10 11  2  0  0  0
 11 12  1  0  0  0
 12 13  2  0  0  0
 13 14  1  0  0  0
 14 15  2  0  0  0
 15  8  1  0  0  0
  8  1  1  0  0  0
  1  2  2  0  0  0
  2  3  1  0  0  0
  3  4  2  0  0  0
  4  5  1  0  0  0
  4  6  1  0  0  0
  6 21  1  0  0  0
 21 23  1  0  0  0
 23 24  2  0  0  0
 24 25  1  0  0  0
 25 26  2  0  0  0
 26 27  1  0  0  0
 27 28  2  0  0  0
 28 29  1  0  0  0
 29 30  2  0  0  0
 29 31  2  0  0  0
 29 32  1  0  0  0
 32 33  1  0  0  0
 32 34  1  0  0  0
  6  7  2  0  0  0
 12 16  1  0  0  0
 16 17  1  0  0  0
 16 18  1  0  0  0
 15 10  1  0  0  0
  7  1  1  0  0  0
 28 23  1  0  0  0
  8  9  1  0  0  0
 21 22  1  0  0  0
M  END
> <minimizedAffinity>
-7.69561

> <CNNscore>
0.3732101619

> <CNNaffinity>
7.1773171425

> <CNN_VS>
2.6786477566

> <CNNaffinity_variance>
0.1945474297

$$$$
[H]c1nc(N([H])c2c([H])c([H])c(C([H])(C([H])([H])[H])C([H])([H])[H])c([H])c2OC([H])([H])[H])nc(N([H])c2c([H])c([H])c([H])c([H])c2S(=O)(=O)C([H])(C([H])([H])[H])C([H])([H])[H])c1Cl


 34 36  0  0  0  0  0  0  0  0999 V2000
   -7.8753   -7.5295    7.9786 C   0  0  0  0  0  0  0  0  0  0  0  0
   -7.6018   -8.6633    7.3311 N   0  0  0  0  0  0  0  0  0  0  0  0
   -6.3980   -8.9423    6.8180 C   0  0  0  0  0  0  0  0  0  0  0  0
   -5.3834   -8.0424    6.9487 C   0  0  0  0  0  0  0  0  0  0  0  0
   -3.8184   -8.3601    6.3040 Cl  0  0  0  0  0  0  0  0  0  0  0  0
   -5.6026   -6.8286    7.6191 C   0  0  0  0  0  0  0  0  0  0  0  0
   -6.8249   -6.6653    8.0804 N   0  0  0  0  0  0  0  0  0  0  0  0
   -9.1280   -7.1734    8.5451 N   0  0  0  0  0  0  0  0  0  0  0  0
   -9.0834   -6.4401    9.3273 H   0  0  0  0  0  0  0  0  0  0  0  0
  -11.5074   -6.9851    8.7518 C   0  0  0  0  0  0  0  0  0  0  0  0
  -12.7974   -7.3763    8.4904 C   0  0  0  0  0  0  0  0  0  0  0  0
  -13.0626   -8.4472    7.6871 C   0  0  0  0  0  0  0  0  0  0  0  0
  -12.0054   -9.1235    7.1471 C   0  0  0  0  0  0  0  0  0  0  0  0
  -10.6874   -8.7167    7.4196 C   0  0  0  0  0  0  0  0  0  0  0  0
  -10.3914   -7.6461    8.2218 C   0  0  0  0  0  0  0  0  0  0  0  0
  -14.4497   -8.8905    7.3889 C   0  0  0  0  0  0  0  0  0  0  0  0
  -14.9267   -8.3601    6.0415 C   0  0  0  0  0  0  0  0  0  0  0  0
  -15.4069   -8.3552    8.4457 C   0  0  0  0  0  0  0  0  0  0  0  0
  -11.9362   -5.7342   10.8219 C   0  0  0  0  0  0  0  0  0  0  0  0
  -11.3338   -5.8950    9.5722 O   0  0  0  0  0  0  0  0  0  0  0  0
   -4.5818   -5.8926    7.7657 N   0  0  0  0  0  0  0  0  0  0  0  0
   -4.0712   -5.9275    8.7330 H   0  0  0  0  0  0  0  0  0  0  0  0
   -4.0697   -4.9072    6.9232 C   0  0  0  0  0  0  0  0  0  0  0  0
   -4.3341   -4.8928    5.5868 C   0  0  0  0  0  0  0  0  0  0  0  0
   -3.8476   -3.9311    4.6986 C   0  0  0  0  0  0  0  0  0  0  0  0
   -3.0560   -2.9367    5.1862 C   0  0  0  0  0  0  0  0  0  0  0  0
   -2.7623   -2.9091    6.5237 C   0  0  0  0  0  0  0  0  0  0  0  0
   -3.2519   -3.8689    7.3900 C   0  0  0  0  0  0  0  0  0  0  0  0
   -2.8590   -3.7939    9.0603 S   0  0  0  0  0  0  0  0  0  0  0  0
   -2.4205   -2.4317    9.5287 O   0  0  0  0  0  0  0  0  0  0  0  0
   -4.0598   -4.1885    9.8869 O   0  0  0  0  0  0  0  0  0  0  0  0
   -1.5614   -4.9104    9.5266 C   0  0  0  0  0  0  0  0  0  0  0  0
   -1.8794   -5.6734   10.7857 C   0  0  0  0  0  0  0  0  0  0  0  0
   -1.0601   -5.7593    8.3970 C   0  0  0  0  0  0  0  0  0  0  0  0
 19 20  1  0  0  0
 20 10  1  0  0  0
 10 11  2  0  0  0
 11 12  1  0  0  0
 12 13  2  0  0  0
 13 14  1  0  0  0
 14 15  2  0  0  0
 15  8  1  0  0  0
  8  1  1  0  0  0
  1  2  2  0  0  0
  2  3  1  0  0  0
  3  4  2  0  0  0
  4  5  1  0  0  0
  4  6  1  0  0  0
  6 21  1  0  0  0
 21 23  1  0  0  0
 23 24  2  0  0  0
 24 25  1  0  0  0
 25 26  2  0  0  0
 26 27  1  0  0  0
 27 28  2  0  0  0
 28 29  1  0  0  0
 29 30  2  0  0  0
 29 31  2  0  0  0
 29 32  1  0  0  0
 32 33  1  0  0  0
 32 34  1  0  0  0
  6  7  2  0  0  0
 12 16  1  0  0  0
 16 17  1  0  0  0
 16 18  1  0  0  0
 15 10  1  0  0  0
  7  1  1  0  0  0
 28 23  1  0  0  0
  8  9  1  0  0  0
 21 22  1  0  0  0
M  END
> <minimizedAffinity>
-6.91815

> <CNNscore>
0.3604299724

> <CNNaffinity>
6.7631149292

> <CNN_VS>
2.4376292229

> <CNNaffinity_variance>
0.1147158518

$$$$
[H]c1nc(N([H])c2c([H])c([H])c(C([H])(C([H])([H])[H])C([H])([H])[H])c([H])c2OC([H])([H])[H])nc(N([H])c2c([H])c([H])c([H])c([H])c2S(=O)(=O)C([H])(C([H])([H])[H])C([H])([H])[H])c1Cl


 34 36  0  0  0  0  0  0  0  0999 V2000
  -13.0330   -9.0842    8.3821 C   0  0  0  0  0  0  0  0  0  0  0  0
  -13.7374   -8.5747    9.3939 N   0  0  0  0  0  0  0  0  0  0  0  0
  -14.9996   -8.1493    9.2675 C   0  0  0  0  0  0  0  0  0  0  0  0
  -15.6207   -8.2288    8.0574 C   0  0  0  0  0  0  0  0  0  0  0  0
  -17.2442   -7.6934    7.8492 Cl  0  0  0  0  0  0  0  0  0  0  0  0
  -14.9372   -8.7551    6.9498 C   0  0  0  0  0  0  0  0  0  0  0  0
  -13.7024   -9.1405    7.1949 N   0  0  0  0  0  0  0  0  0  0  0  0
  -11.6938   -9.5521    8.4498 N   0  0  0  0  0  0  0  0  0  0  0  0
  -11.5704  -10.5201    8.8964 H   0  0  0  0  0  0  0  0  0  0  0  0
  -10.3948   -7.5500    8.2406 C   0  0  0  0  0  0  0  0  0  0  0  0
   -9.2852   -6.8413    7.8507 C   0  0  0  0  0  0  0  0  0  0  0  0
   -8.2434   -7.4522    7.2150 C   0  0  0  0  0  0  0  0  0  0  0  0
   -8.3340   -8.7942    6.9755 C   0  0  0  0  0  0  0  0  0  0  0  0
   -9.4736   -9.5128    7.3779 C   0  0  0  0  0  0  0  0  0  0  0  0
  -10.5339   -8.9263    8.0175 C   0  0  0  0  0  0  0  0  0  0  0  0
   -7.0317   -6.7075    6.7830 C   0  0  0  0  0  0  0  0  0  0  0  0
   -6.7119   -6.9670    5.3151 C   0  0  0  0  0  0  0  0  0  0  0  0
   -5.8241   -7.1619    7.5920 C   0  0  0  0  0  0  0  0  0  0  0  0
  -11.1910   -5.8212    9.7935 C   0  0  0  0  0  0  0  0  0  0  0  0
  -11.3965   -6.8529    8.8749 O   0  0  0  0  0  0  0  0  0  0  0  0
  -15.5502   -8.8469    5.7026 N   0  0  0  0  0  0  0  0  0  0  0  0
  -15.1656   -9.6506    5.0673 H   0  0  0  0  0  0  0  0  0  0  0  0
  -16.5661   -8.1162    5.0886 C   0  0  0  0  0  0  0  0  0  0  0  0
  -17.7880   -8.6593    4.8275 C   0  0  0  0  0  0  0  0  0  0  0  0
  -18.8395   -7.9736    4.2154 C   0  0  0  0  0  0  0  0  0  0  0  0
  -18.6451   -6.6766    3.8504 C   0  0  0  0  0  0  0  0  0  0  0  0
  -17.4329   -6.0869    4.0925 C   0  0  0  0  0  0  0  0  0  0  0  0
  -16.4018   -6.7797    4.6994 C   0  0  0  0  0  0  0  0  0  0  0  0
  -14.8987   -5.9993    4.9850 S   0  0  0  0  0  0  0  0  0  0  0  0
  -14.6581   -5.6357    6.4263 O   0  0  0  0  0  0  0  0  0  0  0  0
  -13.7648   -6.8985    4.5530 O   0  0  0  0  0  0  0  0  0  0  0  0
  -14.7027   -4.4955    4.0641 C   0  0  0  0  0  0  0  0  0  0  0  0
  -14.9533   -3.2682    4.9002 C   0  0  0  0  0  0  0  0  0  0  0  0
  -13.4443   -4.4452    3.2506 C   0  0  0  0  0  0  0  0  0  0  0  0
 19 20  1  0  0  0
 20 10  1  0  0  0
 10 11  2  0  0  0
 11 12  1  0  0  0
 12 13  2  0  0  0
 13 14  1  0  0  0
 14 15  2  0  0  0
 15  8  1  0  0  0
  8  1  1  0  0  0
  1  2  2  0  0  0
  2  3  1  0  0  0
  3  4  2  0  0  0
  4  5  1  0  0  0
  4  6  1  0  0  0
  6 21  1  0  0  0
 21 23  1  0  0  0
 23 24  2  0  0  0
 24 25  1  0  0  0
 25 26  2  0  0  0
 26 27  1  0  0  0
 27 28  2  0  0  0
 28 29  1  0  0  0
 29 30  2  0  0  0
 29 31  2  0  0  0
 29 32  1  0  0  0
 32 33  1  0  0  0
 32 34  1  0  0  0
  6  7  2  0  0  0
 12 16  1  0  0  0
 16 17  1  0  0  0
 16 18  1  0  0  0
 15 10  1  0  0  0
  7  1  1  0  0  0
 28 23  1  0  0  0
  8  9  1  0  0  0
 21 22  1  0  0  0
M  END
> <minimizedAffinity>
-6.87714

> <CNNscore>
0.2639707327

> <CNNaffinity>
7.3410596848

> <CNN_VS>
1.9378248453

> <CNNaffinity_variance>
0.2917821407

$$$$
[H]c1nc(N([H])c2c([H])c([H])c(C([H])(C([H])([H])[H])C([H])([H])[H])c([H])c2OC([H])([H])[H])nc(N([H])c2c([H])c([H])c([H])c([H])c2S(=O)(=O)C([H])(C([H])([H])[H])C([H])([H])[H])c1Cl


 34 36  0  0  0  0  0  0  0  0999 V2000
   -7.1736   -6.9851    7.6301 C   0  0  0  0  0  0  0  0  0  0  0  0
   -7.2522   -7.0055    6.2986 N   0  0  0  0  0  0  0  0  0  0  0  0
   -6.3063   -6.4972    5.5005 C   0  0  0  0  0  0  0  0  0  0  0  0
   -5.1975   -5.9248    6.0476 C   0  0  0  0  0  0  0  0  0  0  0  0
   -3.9552   -5.2584    5.0584 Cl  0  0  0  0  0  0  0  0  0  0  0  0
   -5.0506   -5.8698    7.4427 C   0  0  0  0  0  0  0  0  0  0  0  0
   -6.0441   -6.4010    8.1240 N   0  0  0  0  0  0  0  0  0  0  0  0
   -8.1400   -7.5056    8.5312 N   0  0  0  0  0  0  0  0  0  0  0  0
   -7.7391   -7.9979    9.3964 H   0  0  0  0  0  0  0  0  0  0  0  0
  -10.1824   -8.5019    7.7727 C   0  0  0  0  0  0  0  0  0  0  0  0
  -11.5474   -8.5478    7.6300 C   0  0  0  0  0  0  0  0  0  0  0  0
  -12.3451   -7.5647    8.1396 C   0  0  0  0  0  0  0  0  0  0  0  0
  -11.7469   -6.5282    8.7987 C   0  0  0  0  0  0  0  0  0  0  0  0
  -10.3486   -6.4884    8.9406 C   0  0  0  0  0  0  0  0  0  0  0  0
   -9.5233   -7.4608    8.4398 C   0  0  0  0  0  0  0  0  0  0  0  0
  -13.8246   -7.5913    7.9984 C   0  0  0  0  0  0  0  0  0  0  0  0
  -14.3316   -8.9999    7.7097 C   0  0  0  0  0  0  0  0  0  0  0  0
  -14.2531   -6.7125    6.8307 C   0  0  0  0  0  0  0  0  0  0  0  0
  -10.0109  -10.6537    6.6004 C   0  0  0  0  0  0  0  0  0  0  0  0
   -9.4571   -9.5353    7.2273 O   0  0  0  0  0  0  0  0  0  0  0  0
   -3.9267   -5.2900    8.0260 N   0  0  0  0  0  0  0  0  0  0  0  0
   -3.0271   -5.3202    7.4034 H   0  0  0  0  0  0  0  0  0  0  0  0
   -3.7083   -4.6712    9.2557 C   0  0  0  0  0  0  0  0  0  0  0  0
   -4.2459   -5.1537   10.4110 C   0  0  0  0  0  0  0  0  0  0  0  0
   -4.0598   -4.5740   11.6678 C   0  0  0  0  0  0  0  0  0  0  0  0
   -3.2931   -3.4529   11.7599 C   0  0  0  0  0  0  0  0  0  0  0  0
   -2.7311   -2.9304   10.6255 C   0  0  0  0  0  0  0  0  0  0  0  0
   -2.9251   -3.5164    9.3883 C   0  0  0  0  0  0  0  0  0  0  0  0
   -2.1994   -2.8276    7.9923 S   0  0  0  0  0  0  0  0  0  0  0  0
   -1.0604   -1.8888    8.2905 O   0  0  0  0  0  0  0  0  0  0  0  0
   -1.6587   -3.9222    7.1034 O   0  0  0  0  0  0  0  0  0  0  0  0
   -3.3389   -1.9081    6.9904 C   0  0  0  0  0  0  0  0  0  0  0  0
   -3.6687   -0.5609    7.5774 C   0  0  0  0  0  0  0  0  0  0  0  0
   -2.9767   -1.8789    5.5358 C   0  0  0  0  0  0  0  0  0  0  0  0
 19 20  1  0  0  0
 20 10  1  0  0  0
 10 11  2  0  0  0
 11 12  1  0  0  0
 12 13  2  0  0  0
 13 14  1  0  0  0
 14 15  2  0  0  0
 15  8  1  0  0  0
  8  1  1  0  0  0
  1  2  2  0  0  0
  2  3  1  0  0  0
  3  4  2  0  0  0
  4  5  1  0  0  0
  4  6  1  0  0  0
  6 21  1  0  0  0
 21 23  1  0  0  0
 23 24  2  0  0  0
 24 25  1  0  0  0
 25 26  2  0  0  0
 26 27  1  0  0  0
 27 28  2  0  0  0
 28 29  1  0  0  0
 29 30  2  0  0  0
 29 31  2  0  0  0
 29 32  1  0  0  0
 32 33  1  0  0  0
 32 34  1  0  0  0
  6  7  2  0  0  0
 12 16  1  0  0  0
 16 17  1  0  0  0
 16 18  1  0  0  0
 15 10  1  0  0  0
  7  1  1  0  0  0
 28 23  1  0  0  0
  8  9  1  0  0  0
 21 22  1  0  0  0
M  END
> <minimizedAffinity>
-6.93072

> <CNNscore>
0.2516457736

> <CNNaffinity>
6.5751905441

> <CNN_VS>
1.6546188593

> <CNNaffinity_variance>
0.0871235207

$$$$
[H]c1nc(N([H])c2c([H])c([H])c(C([H])(C([H])([H])[H])C([H])([H])[H])c([H])c2OC([H])([H])[H])nc(N([H])c2c([H])c([H])c([H])c([H])c2S(=O)(=O)C([H])(C([H])([H])[H])C([H])([H])[H])c1Cl


 34 36  0  0  0  0  0  0  0  0999 V2000
   -7.3314   -7.9666    8.1460 C   0  0  0  0  0  0  0  0  0  0  0  0
   -7.1778   -9.2286    7.7420 N   0  0  0  0  0  0  0  0  0  0  0  0
   -8.1970  -10.0027    7.3518 C   0  0  0  0  0  0  0  0  0  0  0  0
   -9.4646   -9.5032    7.3574 C   0  0  0  0  0  0  0  0  0  0  0  0
  -10.8059  -10.4638    6.8634 Cl  0  0  0  0  0  0  0  0  0  0  0  0
   -9.6976   -8.1821    7.7711 C   0  0  0  0  0  0  0  0  0  0  0  0
   -8.6195   -7.5180    8.1319 N   0  0  0  0  0  0  0  0  0  0  0  0
   -6.2944   -7.0945    8.5714 N   0  0  0  0  0  0  0  0  0  0  0  0
   -6.4159   -6.6873    9.5569 H   0  0  0  0  0  0  0  0  0  0  0  0
   -5.3004   -6.1660    6.5993 C   0  0  0  0  0  0  0  0  0  0  0  0
   -4.2338   -5.7502    5.8410 C   0  0  0  0  0  0  0  0  0  0  0  0
   -2.9551   -5.8410    6.3093 C   0  0  0  0  0  0  0  0  0  0  0  0
   -2.7631   -6.3592    7.5588 C   0  0  0  0  0  0  0  0  0  0  0  0
   -3.8605   -6.7828    8.3290 C   0  0  0  0  0  0  0  0  0  0  0  0
   -5.1543   -6.7035    7.8849 C   0  0  0  0  0  0  0  0  0  0  0  0
   -1.7840   -5.3980    5.5082 C   0  0  0  0  0  0  0  0  0  0  0  0
   -2.2024   -4.4612    4.3804 C   0  0  0  0  0  0  0  0  0  0  0  0
   -1.1076   -6.6009    4.8640 C   0  0  0  0  0  0  0  0  0  0  0  0
   -6.9759   -6.6656    4.8738 C   0  0  0  0  0  0  0  0  0  0  0  0
   -6.5536   -6.0374    6.0475 O   0  0  0  0  0  0  0  0  0  0  0  0
  -10.9840   -7.6485    7.7856 N   0  0  0  0  0  0  0  0  0  0  0  0
  -11.5751   -7.8677    6.8911 H   0  0  0  0  0  0  0  0  0  0  0  0
  -11.6830   -6.8825    8.7170 C   0  0  0  0  0  0  0  0  0  0  0  0
  -11.0539   -5.9977    9.5402 C   0  0  0  0  0  0  0  0  0  0  0  0
  -11.7044   -5.2067   10.4898 C   0  0  0  0  0  0  0  0  0  0  0  0
  -13.0558   -5.3162   10.6118 C   0  0  0  0  0  0  0  0  0  0  0  0
  -13.7325   -6.1927    9.8057 C   0  0  0  0  0  0  0  0  0  0  0  0
  -13.0735   -6.9689    8.8704 C   0  0  0  0  0  0  0  0  0  0  0  0
  -13.9631   -8.0536    7.8795 S   0  0  0  0  0  0  0  0  0  0  0  0
  -13.4811   -9.4788    7.9402 O   0  0  0  0  0  0  0  0  0  0  0  0
  -15.4153   -8.0521    8.2941 O   0  0  0  0  0  0  0  0  0  0  0  0
  -13.9489   -7.6073    6.1623 C   0  0  0  0  0  0  0  0  0  0  0  0
  -14.2155   -8.7813    5.2573 C   0  0  0  0  0  0  0  0  0  0  0  0
  -14.7603   -6.3861    5.8490 C   0  0  0  0  0  0  0  0  0  0  0  0
 19 20  1  0  0  0
 20 10  1  0  0  0
 10 11  2  0  0  0
 11 12  1  0  0  0
 12 13  2  0  0  0
 13 14  1  0  0  0
 14 15  2  0  0  0
 15  8  1  0  0  0
  8  1  1  0  0  0
  1  2  2  0  0  0
  2  3  1  0  0  0
  3  4  2  0  0  0
  4  5  1  0  0  0
  4  6  1  0  0  0
  6 21  1  0  0  0
 21 23  1  0  0  0
 23 24  2  0  0  0
 24 25  1  0  0  0
 25 26  2  0  0  0
 26 27  1  0  0  0
 27 28  2  0  0  0
 28 29  1  0  0  0
 29 30  2  0  0  0
 29 31  2  0  0  0
 29 32  1  0  0  0
 32 33  1  0  0  0
 32 34  1  0  0  0
  6  7  2  0  0  0
 12 16  1  0  0  0
 16 17  1  0  0  0
 16 18  1  0  0  0
 15 10  1  0  0  0
  7  1  1  0  0  0
 28 23  1  0  0  0
  8  9  1  0  0  0
 21 22  1  0  0  0
M  END
> <minimizedAffinity>
-8.24331

> <CNNscore>
0.2441188246

> <CNNaffinity>
6.9795165062

> <CNN_VS>
1.7038313150

> <CNNaffinity_variance>
0.2130517662

$$$$
[H]c1nc(N([H])c2c([H])c([H])c(C([H])(C([H])([H])[H])C([H])([H])[H])c([H])c2OC([H])([H])[H])nc(N([H])c2c([H])c([H])c([H])c([H])c2S(=O)(=O)C([H])(C([H])([H])[H])C([H])([H])[H])c1Cl


 34 36  0  0  0  0  0  0  0  0999 V2000
   -7.7000   -7.6541    8.2011 C   0  0  0  0  0  0  0  0  0  0  0  0
   -7.3005   -8.8365    7.7299 N   0  0  0  0  0  0  0  0  0  0  0  0
   -6.1878   -8.9987    7.0049 C   0  0  0  0  0  0  0  0  0  0  0  0
   -5.4054   -7.9206    6.7189 C   0  0  0  0  0  0  0  0  0  0  0  0
   -3.9648   -8.0832    5.7893 Cl  0  0  0  0  0  0  0  0  0  0  0  0
   -5.7673   -6.6464    7.1839 C   0  0  0  0  0  0  0  0  0  0  0  0
   -6.8807   -6.6102    7.8856 N   0  0  0  0  0  0  0  0  0  0  0  0
   -8.8670   -7.4151    8.9743 N   0  0  0  0  0  0  0  0  0  0  0  0
   -8.6916   -7.1981   10.0105 H   0  0  0  0  0  0  0  0  0  0  0  0
  -10.6498   -8.5085    7.8055 C   0  0  0  0  0  0  0  0  0  0  0  0
  -11.9436   -8.6099    7.3568 C   0  0  0  0  0  0  0  0  0  0  0  0
  -12.8665   -7.6441    7.6359 C   0  0  0  0  0  0  0  0  0  0  0  0
  -12.4673   -6.5680    8.3770 C   0  0  0  0  0  0  0  0  0  0  0  0
  -11.1407   -6.4714    8.8326 C   0  0  0  0  0  0  0  0  0  0  0  0
  -10.1933   -7.4253    8.5681 C   0  0  0  0  0  0  0  0  0  0  0  0
  -14.2727   -7.7306    7.1619 C   0  0  0  0  0  0  0  0  0  0  0  0
  -15.1841   -8.3296    8.2273 C   0  0  0  0  0  0  0  0  0  0  0  0
  -14.3566   -8.6355    5.9399 C   0  0  0  0  0  0  0  0  0  0  0  0
  -10.0787  -10.5613    6.5834 C   0  0  0  0  0  0  0  0  0  0  0  0
   -9.7875   -9.5283    7.4770 O   0  0  0  0  0  0  0  0  0  0  0  0
   -4.9842   -5.5290    6.9049 N   0  0  0  0  0  0  0  0  0  0  0  0
   -5.2210   -5.0353    5.9574 H   0  0  0  0  0  0  0  0  0  0  0  0
   -3.9469   -4.9015    7.5929 C   0  0  0  0  0  0  0  0  0  0  0  0
   -3.8056   -5.0144    8.9433 C   0  0  0  0  0  0  0  0  0  0  0  0
   -2.7869   -4.4079    9.6815 C   0  0  0  0  0  0  0  0  0  0  0  0
   -1.8676   -3.6512    9.0216 C   0  0  0  0  0  0  0  0  0  0  0  0
   -1.9682   -3.5083    7.6632 C   0  0  0  0  0  0  0  0  0  0  0  0
   -2.9829   -4.1154    6.9468 C   0  0  0  0  0  0  0  0  0  0  0  0
   -3.0691   -3.9099    5.2438 S   0  0  0  0  0  0  0  0  0  0  0  0
   -2.8971   -5.1845    4.4607 O   0  0  0  0  0  0  0  0  0  0  0  0
   -4.4102   -3.3274    4.8657 O   0  0  0  0  0  0  0  0  0  0  0  0
   -1.8548   -2.7817    4.6109 C   0  0  0  0  0  0  0  0  0  0  0  0
   -1.2817   -3.2287    3.2918 C   0  0  0  0  0  0  0  0  0  0  0  0
   -2.2882   -1.3468    4.6443 C   0  0  0  0  0  0  0  0  0  0  0  0
 19 20  1  0  0  0
 20 10  1  0  0  0
 10 11  2  0  0  0
 11 12  1  0  0  0
 12 13  2  0  0  0
 13 14  1  0  0  0
 14 15  2  0  0  0
 15  8  1  0  0  0
  8  1  1  0  0  0
  1  2  2  0  0  0
  2  3  1  0  0  0
  3  4  2  0  0  0
  4  5  1  0  0  0
  4  6  1  0  0  0
  6 21  1  0  0  0
 21 23  1  0  0  0
 23 24  2  0  0  0
 24 25  1  0  0  0
 25 26  2  0  0  0
 26 27  1  0  0  0
 27 28  2  0  0  0
 28 29  1  0  0  0
 29 30  2  0  0  0
 29 31  2  0  0  0
 29 32  1  0  0  0
 32 33  1  0  0  0
 32 34  1  0  0  0
  6  7  2  0  0  0
 12 16  1  0  0  0
 16 17  1  0  0  0
 16 18  1  0  0  0
 15 10  1  0  0  0
  7  1  1  0  0  0
 28 23  1  0  0  0
  8  9  1  0  0  0
 21 22  1  0  0  0
M  END
> <minimizedAffinity>
-6.04895

> <CNNscore>
0.2360126674

> <CNNaffinity>
6.6961479187

> <CNN_VS>
1.5803757906

> <CNNaffinity_variance>
0.1089720502

$$$$
[H]OC([H])([H])C([H])([H])N1C([H])([H])C([H])([H])C([H])(N([H])c2c([H])c([H])c(S(=O)(=O)N([H])C(=O)c3c([H])c([H])c(N4C([H])([H])C([H])([H])N(C([H])([H])C5=C(c6c([H])c([H])c(Cl)c([H])c6[H])C([H])([H])C(C([H])([H])[H])(C([H])([H])[H])C([H])([H])C5([H])[H])C([H])([H])C4([H])[H])c([H])c3Oc3c([H])c([H])c([H])c4c3c([H])c([H])n4[H])c([H])c2[N+](=O)[O-])C([H])([H])C1([H])[H]


 67 74  0  0  0  0  0  0  0  0999 V2000
   -2.9717   -3.3132    9.1499 C   0  0  0  0  0  0  0  0  0  0  0  0
   -3.5495   -4.2766    9.9638 C   0  0  0  0  0  0  0  0  0  0  0  0
   -4.2070   -5.3471    9.4415 C   0  0  0  0  0  0  0  0  0  0  0  0
   -4.3372   -5.5323    8.0227 C   0  0  0  0  0  0  0  0  0  0  0  0
   -3.7708   -4.6004    7.2362 C   0  0  0  0  0  0  0  0  0  0  0  0
   -3.0927   -3.4912    7.8292 C   0  0  0  0  0  0  0  0  0  0  0  0
   -1.4213   -1.1818   12.0417 N   0  0  0  0  0  0  0  0  0  0  0  0
   -0.4355   -1.7650   11.2809 C   0  0  0  0  0  0  0  0  0  0  0  0
   -0.8328   -2.2841    9.9336 C   0  0  0  0  0  0  0  0  0  0  0  0
   -2.2404   -2.2293    9.7329 N   0  0  0  0  0  0  0  0  0  0  0  0
   -2.9299   -1.0469   10.1748 C   0  0  0  0  0  0  0  0  0  0  0  0
   -2.7222   -0.8973   11.6840 C   0  0  0  0  0  0  0  0  0  0  0  0
   -1.1772   -1.1383   13.4919 C   0  0  0  0  0  0  0  0  0  0  0  0
   -3.6140    2.8194   13.6087 C   0  0  0  0  0  0  0  0  0  0  0  0
   -2.1277    2.9483   13.8779 C   0  0  0  0  0  0  0  0  0  0  0  0
   -1.7518    4.4015   14.0253 C   0  0  0  0  0  0  0  0  0  0  0  0
   -1.3359    2.3465   12.7372 C   0  0  0  0  0  0  0  0  0  0  0  0
   -0.3439    1.3081   13.2599 C   0  0  0  0  0  0  0  0  0  0  0  0
   -1.2306    0.2534   13.9275 C   0  0  0  0  0  0  0  0  0  0  0  0
   -1.9730    0.7388   14.8880 C   0  0  0  0  0  0  0  0  0  0  0  0
   -1.8382    2.2329   15.1803 C   0  0  0  0  0  0  0  0  0  0  0  0
   -2.9185   -0.0484   15.6248 C   0  0  0  0  0  0  0  0  0  0  0  0
   -4.1850   -0.4179   15.2783 C   0  0  0  0  0  0  0  0  0  0  0  0
   -5.0274   -1.1916   16.0506 C   0  0  0  0  0  0  0  0  0  0  0  0
   -4.5697   -1.6314   17.2672 C   0  0  0  0  0  0  0  0  0  0  0  0
   -5.6535   -2.6121   18.2321 Cl  0  0  0  0  0  0  0  0  0  0  0  0
   -3.2982   -1.2965   17.6847 C   0  0  0  0  0  0  0  0  0  0  0  0
   -2.4852   -0.5170   16.8758 C   0  0  0  0  0  0  0  0  0  0  0  0
   -5.2499   -6.5770    7.6270 C   0  0  0  0  0  0  0  0  0  0  0  0
   -4.7333   -7.4623    6.8146 O   0  0  0  0  0  0  0  0  0  0  0  0
   -6.5673   -6.7892    7.9311 N   0  0  0  0  0  0  0  0  0  0  0  0
   -7.0866   -6.2424    8.6855 H   0  0  0  0  0  0  0  0  0  0  0  0
   -7.5097   -8.0506    7.2296 S   0  0  0  0  0  0  0  0  0  0  0  0
   -7.5015   -7.9186    5.7235 O   0  0  0  0  0  0  0  0  0  0  0  0
   -6.8703   -9.4004    7.5533 O   0  0  0  0  0  0  0  0  0  0  0  0
   -9.1260   -8.0558    7.8412 C   0  0  0  0  0  0  0  0  0  0  0  0
  -10.0304   -9.0307    7.4751 C   0  0  0  0  0  0  0  0  0  0  0  0
  -11.3408   -9.0249    7.9152 C   0  0  0  0  0  0  0  0  0  0  0  0
  -11.7609   -7.9890    8.7645 C   0  0  0  0  0  0  0  0  0  0  0  0
  -10.8953   -7.0018    9.1523 C   0  0  0  0  0  0  0  0  0  0  0  0
   -9.5828   -7.0689    8.6700 C   0  0  0  0  0  0  0  0  0  0  0  0
  -11.2709   -5.9316   10.0020 N   0  0  0  0  0  0  0  0  0  0  0  0
  -11.8636   -6.0442   11.2219 O   0  0  0  0  0  0  0  0  0  0  0  0
  -11.0029   -4.7747    9.5317 O   0  0  0  0  0  0  0  0  0  0  0  0
  -13.0870   -8.0584    9.2271 N   0  0  0  0  0  0  0  0  0  0  0  0
  -13.3571   -8.7362    9.9676 H   0  0  0  0  0  0  0  0  0  0  0  0
  -14.1361   -7.2238    8.6953 C   0  0  0  0  0  0  0  0  0  0  0  0
  -15.3786   -8.0440    8.4322 C   0  0  0  0  0  0  0  0  0  0  0  0
  -15.0599   -8.9227    7.2229 C   0  0  0  0  0  0  0  0  0  0  0  0
  -15.1583   -8.0787    6.0320 N   0  0  0  0  0  0  0  0  0  0  0  0
  -14.7505   -6.7336    6.3023 C   0  0  0  0  0  0  0  0  0  0  0  0
  -13.6977   -6.5977    7.3784 C   0  0  0  0  0  0  0  0  0  0  0  0
  -14.5134   -8.7199    4.9321 C   0  0  0  0  0  0  0  0  0  0  0  0
  -15.2013   -8.5800    3.6135 C   0  0  0  0  0  0  0  0  0  0  0  0
  -16.5820   -8.8194    3.7302 O   0  0  0  0  0  0  0  0  0  0  0  0
  -16.7398   -9.3142    4.5788 H   0  0  0  0  0  0  0  0  0  0  0  0
   -3.7347   -4.5720    5.8711 O   0  0  0  0  0  0  0  0  0  0  0  0
   -2.8906   -4.9373    4.8908 C   0  0  0  0  0  0  0  0  0  0  0  0
   -2.0642   -6.0628    4.9388 C   0  0  0  0  0  0  0  0  0  0  0  0
   -1.2092   -6.4223    3.9430 C   0  0  0  0  0  0  0  0  0  0  0  0
   -1.0950   -5.6872    2.7937 C   0  0  0  0  0  0  0  0  0  0  0  0
   -1.8934   -4.5586    2.6928 C   0  0  0  0  0  0  0  0  0  0  0  0
   -1.9596   -3.6723    1.6609 N   0  0  0  0  0  0  0  0  0  0  0  0
   -2.8532   -2.7603    2.0088 C   0  0  0  0  0  0  0  0  0  0  0  0
   -3.3684   -3.0545    3.2687 C   0  0  0  0  0  0  0  0  0  0  0  0
   -2.7599   -4.1958    3.7042 C   0  0  0  0  0  0  0  0  0  0  0  0
   -1.4179   -3.7000    0.7723 H   0  0  0  0  0  0  0  0  0  0  0  0
 14 15  1  0  0  0
 15 16  1  0  0  0
 15 17  1  0  0  0
 17 18  1  0  0  0
 18 19  1  0  0  0
 19 13  1  0  0  0
 13  7  1  0  0  0
  7  8  1  0  0  0
  8  9  1  0  0  0
  9 10  1  0  0  0
 10 11  1  0  0  0
 11 12  1  0  0  0
 10  1  1  0  0  0
  1  2  2  0  0  0
  2  3  1  0  0  0
  3  4  2  0  0  0
  4 29  1  0  0  0
 29 30  2  0  0  0
 29 31  1  0  0  0
 31 33  1  0  0  0
 33 34  2  0  0  0
 33 35  2  0  0  0
 33 36  1  0  0  0
 36 37  2  0  0  0
 37 38  1  0  0  0
 38 39  2  0  0  0
 39 45  1  0  0  0
 45 47  1  0  0  0
 47 48  1  0  0  0
 48 49  1  0  0  0
 49 50  1  0  0  0
 50 53  1  0  0  0
 53 54  1  0  0  0
 54 55  1  0  0  0
 50 51  1  0  0  0
 51 52  1  0  0  0
 39 40  1  0  0  0
 40 41  2  0  0  0
 40 42  1  0  0  0
 42 43  1  0  0  0
 42 44  2  0  0  0
  4  5  1  0  0  0
  5 57  1  0  0  0
 57 58  1  0  0  0
 58 59  2  0  0  0
 59 60  1  0  0  0
 60 61  2  0  0  0
 61 62  1  0  0  0
 62 63  1  0  0  0
 63 64  1  0  0  0
 64 65  2  0  0  0
 65 66  1  0  0  0
  5  6  2  0  0  0
 19 20  2  0  0  0
 20 21  1  0  0  0
 20 22  1  0  0  0
 22 23  2  0  0  0
 23 24  1  0  0  0
 24 25  2  0  0  0
 25 26  1  0  0  0
 25 27  1  0  0  0
 27 28  2  0  0  0
 21 15  1  0  0  0
 28 22  1  0  0  0
 12  7  1  0  0  0
  6  1  1  0  0  0
 41 36  1  0  0  0
 66 58  1  0  0  0
 52 47  1  0  0  0
 66 62  2  0  0  0
 31 32  1  0  0  0
 45 46  1  0  0  0
 55 56  1  0  0  0
 63 67  1  0  0  0
M  CHG 1  42   1
M  CHG 1  43  -1
M  END
> <minimizedAffinity>
-8.05575

> <CNNscore>
0.2352698892

> <CNNaffinity>
7.7359452248

> <CNN_VS>
1.8200349808

> <CNNaffinity_variance>
0.0861922950

$$$$
[H]OC([H])([H])C([H])([H])N1C([H])([H])C([H])([H])C([H])(N([H])c2c([H])c([H])c(S(=O)(=O)N([H])C(=O)c3c([H])c([H])c(N4C([H])([H])C([H])([H])N(C([H])([H])C5=C(c6c([H])c([H])c(Cl)c([H])c6[H])C([H])([H])C(C([H])([H])[H])(C([H])([H])[H])C([H])([H])C5([H])[H])C([H])([H])C4([H])[H])c([H])c3Oc3c([H])c([H])c([H])c4c3c([H])c([H])n4[H])c([H])c2[N+](=O)[O-])C([H])([H])C1([H])[H]


 67 74  0  0  0  0  0  0  0  0999 V2000
   -2.9110   -3.4377    9.5125 C   0  0  0  0  0  0  0  0  0  0  0  0
   -3.5412   -4.4262   10.2542 C   0  0  0  0  0  0  0  0  0  0  0  0
   -4.2206   -5.4409    9.6542 C   0  0  0  0  0  0  0  0  0  0  0  0
   -4.3207   -5.5384    8.2243 C   0  0  0  0  0  0  0  0  0  0  0  0
   -3.7035   -4.5826    7.5078 C   0  0  0  0  0  0  0  0  0  0  0  0
   -3.0041   -3.5341    8.1810 C   0  0  0  0  0  0  0  0  0  0  0  0
   -1.0299   -0.0240    9.8542 N   0  0  0  0  0  0  0  0  0  0  0  0
   -2.1671   -0.0355   10.6270 C   0  0  0  0  0  0  0  0  0  0  0  0
   -2.7832   -1.3704   10.9118 C   0  0  0  0  0  0  0  0  0  0  0  0
   -2.1590   -2.4157   10.1755 N   0  0  0  0  0  0  0  0  0  0  0  0
   -0.7238   -2.3976   10.0808 C   0  0  0  0  0  0  0  0  0  0  0  0
   -0.2974   -1.0978    9.3941 C   0  0  0  0  0  0  0  0  0  0  0  0
   -0.7258    1.2432    9.1714 C   0  0  0  0  0  0  0  0  0  0  0  0
   -4.6473    0.1928    6.9059 C   0  0  0  0  0  0  0  0  0  0  0  0
   -3.4309    0.4527    6.0394 C   0  0  0  0  0  0  0  0  0  0  0  0
   -3.7632    0.1993    4.5902 C   0  0  0  0  0  0  0  0  0  0  0  0
   -2.2923   -0.4552    6.4512 C   0  0  0  0  0  0  0  0  0  0  0  0
   -1.0353    0.3606    6.7510 C   0  0  0  0  0  0  0  0  0  0  0  0
   -1.4541    1.2728    7.9072 C   0  0  0  0  0  0  0  0  0  0  0  0
   -2.4703    2.0414    7.6140 C   0  0  0  0  0  0  0  0  0  0  0  0
   -3.0557    1.9096    6.2083 C   0  0  0  0  0  0  0  0  0  0  0  0
   -3.0697    2.9441    8.5533 C   0  0  0  0  0  0  0  0  0  0  0  0
   -3.0023    4.3056    8.6006 C   0  0  0  0  0  0  0  0  0  0  0  0
   -3.6240    5.1007    9.5419 C   0  0  0  0  0  0  0  0  0  0  0  0
   -4.3726    4.4880   10.5151 C   0  0  0  0  0  0  0  0  0  0  0  0
   -5.1538    5.5142   11.7000 Cl  0  0  0  0  0  0  0  0  0  0  0  0
   -4.4860    3.1132   10.5308 C   0  0  0  0  0  0  0  0  0  0  0  0
   -3.8444    2.3530    9.5647 C   0  0  0  0  0  0  0  0  0  0  0  0
   -5.2573   -6.5259    7.7462 C   0  0  0  0  0  0  0  0  0  0  0  0
   -4.7238   -7.4514    6.9917 O   0  0  0  0  0  0  0  0  0  0  0  0
   -6.6091   -6.6490    7.9217 N   0  0  0  0  0  0  0  0  0  0  0  0
   -7.1619   -6.0616    8.6196 H   0  0  0  0  0  0  0  0  0  0  0  0
   -7.5599   -7.8540    7.1373 S   0  0  0  0  0  0  0  0  0  0  0  0
   -7.5937   -7.5906    5.6489 O   0  0  0  0  0  0  0  0  0  0  0  0
   -6.9010   -9.2201    7.3243 O   0  0  0  0  0  0  0  0  0  0  0  0
   -9.1588   -7.9296    7.7884 C   0  0  0  0  0  0  0  0  0  0  0  0
  -10.0217   -8.9541    7.4594 C   0  0  0  0  0  0  0  0  0  0  0  0
  -11.3199   -9.0064    7.9314 C   0  0  0  0  0  0  0  0  0  0  0  0
  -11.7711   -7.9789    8.7751 C   0  0  0  0  0  0  0  0  0  0  0  0
  -10.9471   -6.9438    9.1266 C   0  0  0  0  0  0  0  0  0  0  0  0
   -9.6447   -6.9534    8.6132 C   0  0  0  0  0  0  0  0  0  0  0  0
  -11.3554   -5.8799    9.9691 N   0  0  0  0  0  0  0  0  0  0  0  0
  -12.0610   -5.9974   11.1270 O   0  0  0  0  0  0  0  0  0  0  0  0
  -10.9997   -4.7242    9.5580 O   0  0  0  0  0  0  0  0  0  0  0  0
  -13.0807   -8.1068    9.2711 N   0  0  0  0  0  0  0  0  0  0  0  0
  -13.2985   -8.7843   10.0289 H   0  0  0  0  0  0  0  0  0  0  0  0
  -14.1829   -7.3351    8.7519 C   0  0  0  0  0  0  0  0  0  0  0  0
  -15.3592   -8.2353    8.4496 C   0  0  0  0  0  0  0  0  0  0  0  0
  -14.9651   -9.0510    7.2185 C   0  0  0  0  0  0  0  0  0  0  0  0
  -15.1135   -8.1802    6.0522 N   0  0  0  0  0  0  0  0  0  0  0  0
  -14.8080   -6.8180    6.3674 C   0  0  0  0  0  0  0  0  0  0  0  0
  -13.7786   -6.6386    7.4596 C   0  0  0  0  0  0  0  0  0  0  0  0
  -14.4125   -8.7387    4.9416 C   0  0  0  0  0  0  0  0  0  0  0  0
  -15.1090   -8.6347    3.6241 C   0  0  0  0  0  0  0  0  0  0  0  0
  -16.4823   -8.3826    3.7913 O   0  0  0  0  0  0  0  0  0  0  0  0
  -16.7309   -8.6278    4.7229 H   0  0  0  0  0  0  0  0  0  0  0  0
   -3.6316   -4.4761    6.1480 O   0  0  0  0  0  0  0  0  0  0  0  0
   -2.8512   -4.9350    5.1544 C   0  0  0  0  0  0  0  0  0  0  0  0
   -2.0494   -6.0757    5.2426 C   0  0  0  0  0  0  0  0  0  0  0  0
   -1.2588   -6.5304    4.2326 C   0  0  0  0  0  0  0  0  0  0  0  0
   -1.1911   -5.8851    3.0270 C   0  0  0  0  0  0  0  0  0  0  0  0
   -1.9678   -4.7459    2.8843 C   0  0  0  0  0  0  0  0  0  0  0  0
   -2.0703   -3.9364    1.7940 N   0  0  0  0  0  0  0  0  0  0  0  0
   -2.9224   -2.9776    2.1196 C   0  0  0  0  0  0  0  0  0  0  0  0
   -3.3742   -3.1645    3.4236 C   0  0  0  0  0  0  0  0  0  0  0  0
   -2.7690   -4.2866    3.9103 C   0  0  0  0  0  0  0  0  0  0  0  0
   -1.5790   -4.0439    0.8825 H   0  0  0  0  0  0  0  0  0  0  0  0
 14 15  1  0  0  0
 15 16  1  0  0  0
 15 17  1  0  0  0
 17 18  1  0  0  0
 18 19  1  0  0  0
 19 13  1  0  0  0
 13  7  1  0  0  0
  7  8  1  0  0  0
  8  9  1  0  0  0
  9 10  1  0  0  0
 10 11  1  0  0  0
 11 12  1  0  0  0
 10  1  1  0  0  0
  1  2  2  0  0  0
  2  3  1  0  0  0
  3  4  2  0  0  0
  4 29  1  0  0  0
 29 30  2  0  0  0
 29 31  1  0  0  0
 31 33  1  0  0  0
 33 34  2  0  0  0
 33 35  2  0  0  0
 33 36  1  0  0  0
 36 37  2  0  0  0
 37 38  1  0  0  0
 38 39  2  0  0  0
 39 45  1  0  0  0
 45 47  1  0  0  0
 47 48  1  0  0  0
 48 49  1  0  0  0
 49 50  1  0  0  0
 50 53  1  0  0  0
 53 54  1  0  0  0
 54 55  1  0  0  0
 50 51  1  0  0  0
 51 52  1  0  0  0
 39 40  1  0  0  0
 40 41  2  0  0  0
 40 42  1  0  0  0
 42 43  1  0  0  0
 42 44  2  0  0  0
  4  5  1  0  0  0
  5 57  1  0  0  0
 57 58  1  0  0  0
 58 59  2  0  0  0
 59 60  1  0  0  0
 60 61  2  0  0  0
 61 62  1  0  0  0
 62 63  1  0  0  0
 63 64  1  0  0  0
 64 65  2  0  0  0
 65 66  1  0  0  0
  5  6  2  0  0  0
 19 20  2  0  0  0
 20 21  1  0  0  0
 20 22  1  0  0  0
 22 23  2  0  0  0
 23 24  1  0  0  0
 24 25  2  0  0  0
 25 26  1  0  0  0
 25 27  1  0  0  0
 27 28  2  0  0  0
 21 15  1  0  0  0
 28 22  1  0  0  0
 12  7  1  0  0  0
  6  1  1  0  0  0
 41 36  1  0  0  0
 66 58  1  0  0  0
 52 47  1  0  0  0
 66 62  2  0  0  0
 31 32  1  0  0  0
 45 46  1  0  0  0
 55 56  1  0  0  0
 63 67  1  0  0  0
M  CHG 1  42   1
M  CHG 1  43  -1
M  END
> <minimizedAffinity>
-8.77642

> <CNNscore>
0.1671468765

> <CNNaffinity>
7.7211966515

> <CNN_VS>
1.2905739546

> <CNNaffinity_variance>
0.4771558344

$$$$
[H]OC([H])([H])C([H])([H])N1C([H])([H])C([H])([H])C([H])(N([H])c2c([H])c([H])c(S(=O)(=O)N([H])C(=O)c3c([H])c([H])c(N4C([H])([H])C([H])([H])N(C([H])([H])C5=C(c6c([H])c([H])c(Cl)c([H])c6[H])C([H])([H])C(C([H])([H])[H])(C([H])([H])[H])C([H])([H])C5([H])[H])C([H])([H])C4([H])[H])c([H])c3Oc3c([H])c([H])c([H])c4c3c([H])c([H])n4[H])c([H])c2[N+](=O)[O-])C([H])([H])C1([H])[H]


 67 74  0  0  0  0  0  0  0  0999 V2000
   -3.1199   -3.3322    9.3402 C   0  0  0  0  0  0  0  0  0  0  0  0
   -3.6650   -4.3160   10.1523 C   0  0  0  0  0  0  0  0  0  0  0  0
   -4.2844   -5.4081    9.6280 C   0  0  0  0  0  0  0  0  0  0  0  0
   -4.4062   -5.5961    8.2088 C   0  0  0  0  0  0  0  0  0  0  0  0
   -3.8714   -4.6442    7.4241 C   0  0  0  0  0  0  0  0  0  0  0  0
   -3.2330   -3.5128    8.0191 C   0  0  0  0  0  0  0  0  0  0  0  0
   -1.3360    0.1495    9.4030 N   0  0  0  0  0  0  0  0  0  0  0  0
   -2.5125    0.1896   10.1137 C   0  0  0  0  0  0  0  0  0  0  0  0
   -3.1132   -1.1235   10.5105 C   0  0  0  0  0  0  0  0  0  0  0  0
   -2.4274   -2.2243    9.9253 N   0  0  0  0  0  0  0  0  0  0  0  0
   -0.9899   -2.1765    9.9022 C   0  0  0  0  0  0  0  0  0  0  0  0
   -0.5563   -0.9467    9.1005 C   0  0  0  0  0  0  0  0  0  0  0  0
   -1.0240    1.3438    8.6026 C   0  0  0  0  0  0  0  0  0  0  0  0
   -2.6064    3.5733    4.8423 C   0  0  0  0  0  0  0  0  0  0  0  0
   -3.6583    3.1203    5.8355 C   0  0  0  0  0  0  0  0  0  0  0  0
   -5.0198    3.6078    5.4070 C   0  0  0  0  0  0  0  0  0  0  0  0
   -3.3480    3.6682    7.2117 C   0  0  0  0  0  0  0  0  0  0  0  0
   -3.2982    2.5399    8.2412 C   0  0  0  0  0  0  0  0  0  0  0  0
   -2.1672    1.6357    7.7438 C   0  0  0  0  0  0  0  0  0  0  0  0
   -2.3676    1.1786    6.5353 C   0  0  0  0  0  0  0  0  0  0  0  0
   -3.6586    1.6065    5.8381 C   0  0  0  0  0  0  0  0  0  0  0  0
   -1.4234    0.3523    5.8410 C   0  0  0  0  0  0  0  0  0  0  0  0
   -0.3152    0.7192    5.1355 C   0  0  0  0  0  0  0  0  0  0  0  0
    0.5495   -0.1510    4.5031 C   0  0  0  0  0  0  0  0  0  0  0  0
    0.2869   -1.4956    4.5799 C   0  0  0  0  0  0  0  0  0  0  0  0
    1.3960   -2.5833    3.7712 Cl  0  0  0  0  0  0  0  0  0  0  0  0
   -0.8174   -1.9411    5.2767 C   0  0  0  0  0  0  0  0  0  0  0  0
   -1.6594   -1.0311    5.8976 C   0  0  0  0  0  0  0  0  0  0  0  0
   -5.2816   -6.6714    7.8108 C   0  0  0  0  0  0  0  0  0  0  0  0
   -4.6811   -7.6475    7.1805 O   0  0  0  0  0  0  0  0  0  0  0  0
   -6.6327   -6.8368    7.9535 N   0  0  0  0  0  0  0  0  0  0  0  0
   -7.2359   -6.2035    8.5640 H   0  0  0  0  0  0  0  0  0  0  0  0
   -7.5013   -8.1618    7.2745 S   0  0  0  0  0  0  0  0  0  0  0  0
   -7.4054   -8.1177    5.7663 O   0  0  0  0  0  0  0  0  0  0  0  0
   -6.8513   -9.4727    7.7154 O   0  0  0  0  0  0  0  0  0  0  0  0
   -9.1509   -8.1747    7.7892 C   0  0  0  0  0  0  0  0  0  0  0  0
  -10.0432   -9.1166    7.3209 C   0  0  0  0  0  0  0  0  0  0  0  0
  -11.3772   -9.1143    7.6830 C   0  0  0  0  0  0  0  0  0  0  0  0
  -11.8351   -8.1170    8.5587 C   0  0  0  0  0  0  0  0  0  0  0  0
  -10.9828   -7.1634    9.0470 C   0  0  0  0  0  0  0  0  0  0  0  0
   -9.6448   -7.2249    8.6397 C   0  0  0  0  0  0  0  0  0  0  0  0
  -11.3958   -6.1326    9.9274 N   0  0  0  0  0  0  0  0  0  0  0  0
  -12.1213   -6.2925   11.0677 O   0  0  0  0  0  0  0  0  0  0  0  0
  -11.0234   -4.9637    9.5717 O   0  0  0  0  0  0  0  0  0  0  0  0
  -13.1870   -8.1907    8.9385 N   0  0  0  0  0  0  0  0  0  0  0  0
  -13.5259   -8.9586    9.5519 H   0  0  0  0  0  0  0  0  0  0  0  0
  -14.1695   -7.2352    8.4895 C   0  0  0  0  0  0  0  0  0  0  0  0
  -15.4808   -7.9277    8.1951 C   0  0  0  0  0  0  0  0  0  0  0  0
  -15.2558   -8.7400    6.9200 C   0  0  0  0  0  0  0  0  0  0  0  0
  -15.3002   -7.8065    5.7943 N   0  0  0  0  0  0  0  0  0  0  0  0
  -14.7760   -6.5233    6.1508 C   0  0  0  0  0  0  0  0  0  0  0  0
  -13.6994   -6.5540    7.2114 C   0  0  0  0  0  0  0  0  0  0  0  0
  -14.7285   -8.4179    4.6384 C   0  0  0  0  0  0  0  0  0  0  0  0
  -15.6989   -8.8100    3.5726 C   0  0  0  0  0  0  0  0  0  0  0  0
  -16.9946   -8.3499    3.8676 O   0  0  0  0  0  0  0  0  0  0  0  0
  -17.0343   -8.1385    4.8389 H   0  0  0  0  0  0  0  0  0  0  0  0
   -3.8345   -4.6131    6.0591 O   0  0  0  0  0  0  0  0  0  0  0  0
   -2.9814   -4.9580    5.0791 C   0  0  0  0  0  0  0  0  0  0  0  0
   -2.1038   -6.0433    5.1418 C   0  0  0  0  0  0  0  0  0  0  0  0
   -1.2401   -6.3822    4.1462 C   0  0  0  0  0  0  0  0  0  0  0  0
   -1.1681   -5.6648    2.9824 C   0  0  0  0  0  0  0  0  0  0  0  0
   -2.0183   -4.5763    2.8665 C   0  0  0  0  0  0  0  0  0  0  0  0
   -2.1326   -3.7140    1.8186 N   0  0  0  0  0  0  0  0  0  0  0  0
   -3.0648   -2.8374    2.1564 C   0  0  0  0  0  0  0  0  0  0  0  0
   -3.5569   -3.1307    3.4257 C   0  0  0  0  0  0  0  0  0  0  0  0
   -2.8935   -4.2343    3.8777 C   0  0  0  0  0  0  0  0  0  0  0  0
   -1.5965   -3.7338    0.9265 H   0  0  0  0  0  0  0  0  0  0  0  0
 14 15  1  0  0  0
 15 16  1  0  0  0
 15 17  1  0  0  0
 17 18  1  0  0  0
 18 19  1  0  0  0
 19 13  1  0  0  0
 13  7  1  0  0  0
  7  8  1  0  0  0
  8  9  1  0  0  0
  9 10  1  0  0  0
 10 11  1  0  0  0
 11 12  1  0  0  0
 10  1  1  0  0  0
  1  2  2  0  0  0
  2  3  1  0  0  0
  3  4  2  0  0  0
  4 29  1  0  0  0
 29 30  2  0  0  0
 29 31  1  0  0  0
 31 33  1  0  0  0
 33 34  2  0  0  0
 33 35  2  0  0  0
 33 36  1  0  0  0
 36 37  2  0  0  0
 37 38  1  0  0  0
 38 39  2  0  0  0
 39 45  1  0  0  0
 45 47  1  0  0  0
 47 48  1  0  0  0
 48 49  1  0  0  0
 49 50  1  0  0  0
 50 53  1  0  0  0
 53 54  1  0  0  0
 54 55  1  0  0  0
 50 51  1  0  0  0
 51 52  1  0  0  0
 39 40  1  0  0  0
 40 41  2  0  0  0
 40 42  1  0  0  0
 42 43  1  0  0  0
 42 44  2  0  0  0
  4  5  1  0  0  0
  5 57  1  0  0  0
 57 58  1  0  0  0
 58 59  2  0  0  0
 59 60  1  0  0  0
 60 61  2  0  0  0
 61 62  1  0  0  0
 62 63  1  0  0  0
 63 64  1  0  0  0
 64 65  2  0  0  0
 65 66  1  0  0  0
  5  6  2  0  0  0
 19 20  2  0  0  0
 20 21  1  0  0  0
 20 22  1  0  0  0
 22 23  2  0  0  0
 23 24  1  0  0  0
 24 25  2  0  0  0
 25 26  1  0  0  0
 25 27  1  0  0  0
 27 28  2  0  0  0
 21 15  1  0  0  0
 28 22  1  0  0  0
 12  7  1  0  0  0
  6  1  1  0  0  0
 41 36  1  0  0  0
 66 58  1  0  0  0
 52 47  1  0  0  0
 66 62  2  0  0  0
 31 32  1  0  0  0
 45 46  1  0  0  0
 55 56  1  0  0  0
 63 67  1  0  0  0
M  CHG 1  42   1
M  CHG 1  43  -1
M  END
> <minimizedAffinity>
-8.22139

> <CNNscore>
0.1440672725

> <CNNaffinity>
7.6744627953

> <CNN_VS>
1.1056389809

> <CNNaffinity_variance>
0.4862571359

$$$$
[H]OC([H])([H])C([H])([H])N1C([H])([H])C([H])([H])C([H])(N([H])c2c([H])c([H])c(S(=O)(=O)N([H])C(=O)c3c([H])c([H])c(N4C([H])([H])C([H])([H])N(C([H])([H])C5=C(c6c([H])c([H])c(Cl)c([H])c6[H])C([H])([H])C(C([H])([H])[H])(C([H])([H])[H])C([H])([H])C5([H])[H])C([H])([H])C4([H])[H])c([H])c3Oc3c([H])c([H])c([H])c4c3c([H])c([H])n4[H])c([H])c2[N+](=O)[O-])C([H])([H])C1([H])[H]


 67 74  0  0  0  0  0  0  0  0999 V2000
   -3.3206   -3.7687    8.9434 C   0  0  0  0  0  0  0  0  0  0  0  0
   -3.9315   -4.5999    9.8710 C   0  0  0  0  0  0  0  0  0  0  0  0
   -4.5686   -5.7408    9.4923 C   0  0  0  0  0  0  0  0  0  0  0  0
   -4.6419   -6.1407    8.1143 C   0  0  0  0  0  0  0  0  0  0  0  0
   -4.0435   -5.3367    7.2181 C   0  0  0  0  0  0  0  0  0  0  0  0
   -3.3886   -4.1466    7.6615 C   0  0  0  0  0  0  0  0  0  0  0  0
   -1.7145   -1.3177   11.5361 N   0  0  0  0  0  0  0  0  0  0  0  0
   -0.7463   -1.9222   10.7693 C   0  0  0  0  0  0  0  0  0  0  0  0
   -1.1944   -2.5780    9.4998 C   0  0  0  0  0  0  0  0  0  0  0  0
   -2.6122   -2.6049    9.3830 N   0  0  0  0  0  0  0  0  0  0  0  0
   -3.3336   -1.4197    9.7620 C   0  0  0  0  0  0  0  0  0  0  0  0
   -3.0467   -1.1255   11.2365 C   0  0  0  0  0  0  0  0  0  0  0  0
   -1.3894   -1.1327   12.9590 C   0  0  0  0  0  0  0  0  0  0  0  0
   -2.2442   -3.2365   17.0159 C   0  0  0  0  0  0  0  0  0  0  0  0
   -3.0879   -3.6932   15.8421 C   0  0  0  0  0  0  0  0  0  0  0  0
   -3.9730   -4.8421   16.2559 C   0  0  0  0  0  0  0  0  0  0  0  0
   -2.1987   -4.1403   14.7020 C   0  0  0  0  0  0  0  0  0  0  0  0
   -2.5627   -3.4020   13.4145 C   0  0  0  0  0  0  0  0  0  0  0  0
   -2.3204   -1.9284   13.7525 C   0  0  0  0  0  0  0  0  0  0  0  0
   -3.0311   -1.5098   14.7670 C   0  0  0  0  0  0  0  0  0  0  0  0
   -3.9603   -2.5270   15.4287 C   0  0  0  0  0  0  0  0  0  0  0  0
   -2.9373   -0.1807   15.2971 C   0  0  0  0  0  0  0  0  0  0  0  0
   -2.1724    0.2821   16.3273 C   0  0  0  0  0  0  0  0  0  0  0  0
   -2.1369    1.5900   16.7668 C   0  0  0  0  0  0  0  0  0  0  0  0
   -2.9291    2.5101   16.1276 C   0  0  0  0  0  0  0  0  0  0  0  0
   -2.8696    4.1643   16.6999 Cl  0  0  0  0  0  0  0  0  0  0  0  0
   -3.7303    2.1145   15.0765 C   0  0  0  0  0  0  0  0  0  0  0  0
   -3.7342    0.7895   14.6676 C   0  0  0  0  0  0  0  0  0  0  0  0
   -5.5390   -7.2383    7.8465 C   0  0  0  0  0  0  0  0  0  0  0  0
   -4.9679   -8.2755    7.2910 O   0  0  0  0  0  0  0  0  0  0  0  0
   -6.8860   -7.3742    8.0472 N   0  0  0  0  0  0  0  0  0  0  0  0
   -7.4634   -6.6801    8.6151 H   0  0  0  0  0  0  0  0  0  0  0  0
   -7.7877   -8.7465    7.5229 S   0  0  0  0  0  0  0  0  0  0  0  0
   -7.4637   -9.0502    6.0777 O   0  0  0  0  0  0  0  0  0  0  0  0
   -7.3628   -9.9711    8.3324 O   0  0  0  0  0  0  0  0  0  0  0  0
   -9.4864   -8.5155    7.7404 C   0  0  0  0  0  0  0  0  0  0  0  0
  -10.4063   -9.3891    7.1991 C   0  0  0  0  0  0  0  0  0  0  0  0
  -11.7695   -9.1951    7.3209 C   0  0  0  0  0  0  0  0  0  0  0  0
  -12.2289   -8.0685    8.0215 C   0  0  0  0  0  0  0  0  0  0  0  0
  -11.3498   -7.1767    8.5746 C   0  0  0  0  0  0  0  0  0  0  0  0
   -9.9832   -7.4341    8.4138 C   0  0  0  0  0  0  0  0  0  0  0  0
  -11.7617   -6.0217    9.2851 N   0  0  0  0  0  0  0  0  0  0  0  0
  -13.0334   -5.7253    9.6688 O   0  0  0  0  0  0  0  0  0  0  0  0
  -10.8103   -5.2182    9.5690 O   0  0  0  0  0  0  0  0  0  0  0  0
  -13.6225   -7.9458    8.1636 N   0  0  0  0  0  0  0  0  0  0  0  0
  -14.0303   -7.3449    8.9074 H   0  0  0  0  0  0  0  0  0  0  0  0
  -14.5513   -8.6511    7.3151 C   0  0  0  0  0  0  0  0  0  0  0  0
  -14.1294   -8.5409    5.8675 C   0  0  0  0  0  0  0  0  0  0  0  0
  -14.3957   -7.0931    5.4561 C   0  0  0  0  0  0  0  0  0  0  0  0
  -15.8344   -6.9628    5.2242 N   0  0  0  0  0  0  0  0  0  0  0  0
  -16.5895   -7.8048    6.1012 C   0  0  0  0  0  0  0  0  0  0  0  0
  -15.9457   -8.0538    7.4460 C   0  0  0  0  0  0  0  0  0  0  0  0
  -16.1978   -5.5827    5.2137 C   0  0  0  0  0  0  0  0  0  0  0  0
  -17.0333   -5.1471    4.0545 C   0  0  0  0  0  0  0  0  0  0  0  0
  -18.3988   -5.3844    4.2918 O   0  0  0  0  0  0  0  0  0  0  0  0
  -18.4741   -6.0502    5.0273 H   0  0  0  0  0  0  0  0  0  0  0  0
   -3.9525   -5.5165    5.8672 O   0  0  0  0  0  0  0  0  0  0  0  0
   -3.0747   -5.2483    4.8851 C   0  0  0  0  0  0  0  0  0  0  0  0
   -1.9934   -6.0660    4.5473 C   0  0  0  0  0  0  0  0  0  0  0  0
   -1.1069   -5.7839    3.5541 C   0  0  0  0  0  0  0  0  0  0  0  0
   -1.2146   -4.6491    2.7958 C   0  0  0  0  0  0  0  0  0  0  0  0
   -2.2713   -3.8010    3.0882 C   0  0  0  0  0  0  0  0  0  0  0  0
   -2.5875   -2.6222    2.4840 N   0  0  0  0  0  0  0  0  0  0  0  0
   -3.6687   -2.1670    3.0965 C   0  0  0  0  0  0  0  0  0  0  0  0
   -4.0554   -3.0514    4.1003 C   0  0  0  0  0  0  0  0  0  0  0  0
   -3.1692   -4.0891    4.0962 C   0  0  0  0  0  0  0  0  0  0  0  0
   -2.0837   -2.1640    1.6966 H   0  0  0  0  0  0  0  0  0  0  0  0
 14 15  1  0  0  0
 15 16  1  0  0  0
 15 17  1  0  0  0
 17 18  1  0  0  0
 18 19  1  0  0  0
 19 13  1  0  0  0
 13  7  1  0  0  0
  7  8  1  0  0  0
  8  9  1  0  0  0
  9 10  1  0  0  0
 10 11  1  0  0  0
 11 12  1  0  0  0
 10  1  1  0  0  0
  1  2  2  0  0  0
  2  3  1  0  0  0
  3  4  2  0  0  0
  4 29  1  0  0  0
 29 30  2  0  0  0
 29 31  1  0  0  0
 31 33  1  0  0  0
 33 34  2  0  0  0
 33 35  2  0  0  0
 33 36  1  0  0  0
 36 37  2  0  0  0
 37 38  1  0  0  0
 38 39  2  0  0  0
 39 45  1  0  0  0
 45 47  1  0  0  0
 47 48  1  0  0  0
 48 49  1  0  0  0
 49 50  1  0  0  0
 50 53  1  0  0  0
 53 54  1  0  0  0
 54 55  1  0  0  0
 50 51  1  0  0  0
 51 52  1  0  0  0
 39 40  1  0  0  0
 40 41  2  0  0  0
 40 42  1  0  0  0
 42 43  1  0  0  0
 42 44  2  0  0  0
  4  5  1  0  0  0
  5 57  1  0  0  0
 57 58  1  0  0  0
 58 59  2  0  0  0
 59 60  1  0  0  0
 60 61  2  0  0  0
 61 62  1  0  0  0
 62 63  1  0  0  0
 63 64  1  0  0  0
 64 65  2  0  0  0
 65 66  1  0  0  0
  5  6  2  0  0  0
 19 20  2  0  0  0
 20 21  1  0  0  0
 20 22  1  0  0  0
 22 23  2  0  0  0
 23 24  1  0  0  0
 24 25  2  0  0  0
 25 26  1  0  0  0
 25 27  1  0  0  0
 27 28  2  0  0  0
 21 15  1  0  0  0
 28 22  1  0  0  0
 12  7  1  0  0  0
  6  1  1  0  0  0
 41 36  1  0  0  0
 66 58  1  0  0  0
 52 47  1  0  0  0
 66 62  2  0  0  0
 31 32  1  0  0  0
 45 46  1  0  0  0
 55 56  1  0  0  0
 63 67  1  0  0  0
M  CHG 1  42   1
M  CHG 1  43  -1
M  END
> <minimizedAffinity>
-8.54409

> <CNNscore>
0.1145398393

> <CNNaffinity>
7.7168755531

> <CNN_VS>
0.8838896751

> <CNNaffinity_variance>
0.0951219425

$$$$
[H]OC([H])([H])C([H])([H])N1C([H])([H])C([H])([H])C([H])(N([H])c2c([H])c([H])c(S(=O)(=O)N([H])C(=O)c3c([H])c([H])c(N4C([H])([H])C([H])([H])N(C([H])([H])C5=C(c6c([H])c([H])c(Cl)c([H])c6[H])C([H])([H])C(C([H])([H])[H])(C([H])([H])[H])C([H])([H])C5([H])[H])C([H])([H])C4([H])[H])c([H])c3Oc3c([H])c([H])c([H])c4c3c([H])c([H])n4[H])c([H])c2[N+](=O)[O-])C([H])([H])C1([H])[H]


 67 74  0  0  0  0  0  0  0  0999 V2000
   -1.4729   -3.8313    2.7232 C   0  0  0  0  0  0  0  0  0  0  0  0
   -2.0123   -3.1430    3.8002 C   0  0  0  0  0  0  0  0  0  0  0  0
   -2.7991   -2.0475    3.6217 C   0  0  0  0  0  0  0  0  0  0  0  0
   -3.1092   -1.5482    2.3107 C   0  0  0  0  0  0  0  0  0  0  0  0
   -2.5904   -2.2209    1.2686 C   0  0  0  0  0  0  0  0  0  0  0  0
   -1.7668   -3.3646    1.5039 C   0  0  0  0  0  0  0  0  0  0  0  0
    0.1505   -6.7106    4.8166 N   0  0  0  0  0  0  0  0  0  0  0  0
   -0.8124   -7.2051    3.9687 C   0  0  0  0  0  0  0  0  0  0  0  0
   -1.2501   -6.3180    2.8444 C   0  0  0  0  0  0  0  0  0  0  0  0
   -0.6946   -5.0119    2.9461 N   0  0  0  0  0  0  0  0  0  0  0  0
    0.6892   -4.9050    3.3236 C   0  0  0  0  0  0  0  0  0  0  0  0
    0.8672   -5.5378    4.7060 C   0  0  0  0  0  0  0  0  0  0  0  0
    0.2124   -7.3249    6.1520 C   0  0  0  0  0  0  0  0  0  0  0  0
   -4.3955   -7.9121    6.3463 C   0  0  0  0  0  0  0  0  0  0  0  0
   -3.8433   -6.7396    7.1329 C   0  0  0  0  0  0  0  0  0  0  0  0
   -4.9725   -5.9427    7.7367 C   0  0  0  0  0  0  0  0  0  0  0  0
   -3.0317   -5.8387    6.2273 C   0  0  0  0  0  0  0  0  0  0  0  0
   -1.6323   -5.6192    6.8009 C   0  0  0  0  0  0  0  0  0  0  0  0
   -1.0307   -7.0260    6.8557 C   0  0  0  0  0  0  0  0  0  0  0  0
   -1.7280   -7.8556    7.5871 C   0  0  0  0  0  0  0  0  0  0  0  0
   -2.9899   -7.3031    8.2492 C   0  0  0  0  0  0  0  0  0  0  0  0
   -1.3874   -9.2394    7.7471 C   0  0  0  0  0  0  0  0  0  0  0  0
   -0.9467   -9.8933    8.8601 C   0  0  0  0  0  0  0  0  0  0  0  0
   -0.6505  -11.2396    8.9268 C   0  0  0  0  0  0  0  0  0  0  0  0
   -0.8056  -11.9943    7.7913 C   0  0  0  0  0  0  0  0  0  0  0  0
   -0.4249  -13.7006    7.8965 Cl  0  0  0  0  0  0  0  0  0  0  0  0
   -1.2474  -11.4006    6.6270 C   0  0  0  0  0  0  0  0  0  0  0  0
   -1.5339  -10.0441    6.6054 C   0  0  0  0  0  0  0  0  0  0  0  0
   -3.7553   -0.2586    2.2883 C   0  0  0  0  0  0  0  0  0  0  0  0
   -4.9832   -0.2651    2.7388 O   0  0  0  0  0  0  0  0  0  0  0  0
   -3.3187    0.9637    1.8540 N   0  0  0  0  0  0  0  0  0  0  0  0
   -2.3031    1.1610    1.5944 H   0  0  0  0  0  0  0  0  0  0  0  0
   -4.3229    2.3637    1.8005 S   0  0  0  0  0  0  0  0  0  0  0  0
   -4.9586    2.5896    3.1536 O   0  0  0  0  0  0  0  0  0  0  0  0
   -3.4626    3.5932    1.5113 O   0  0  0  0  0  0  0  0  0  0  0  0
   -5.5250    2.2403    0.5653 C   0  0  0  0  0  0  0  0  0  0  0  0
   -5.1919    2.3050   -0.7716 C   0  0  0  0  0  0  0  0  0  0  0  0
   -6.1436    2.2567   -1.7730 C   0  0  0  0  0  0  0  0  0  0  0  0
   -7.4950    2.1372   -1.4118 C   0  0  0  0  0  0  0  0  0  0  0  0
   -7.8688    2.0696   -0.0965 C   0  0  0  0  0  0  0  0  0  0  0  0
   -6.8537    2.1236    0.8660 C   0  0  0  0  0  0  0  0  0  0  0  0
   -9.2183    1.9551    0.3207 N   0  0  0  0  0  0  0  0  0  0  0  0
   -9.7158    1.0313    1.1875 O   0  0  0  0  0  0  0  0  0  0  0  0
   -9.9978    2.8269   -0.1930 O   0  0  0  0  0  0  0  0  0  0  0  0
   -8.4182    2.0379   -2.4678 N   0  0  0  0  0  0  0  0  0  0  0  0
   -8.9439    2.8730   -2.7948 H   0  0  0  0  0  0  0  0  0  0  0  0
   -8.7011    0.7898   -3.1327 C   0  0  0  0  0  0  0  0  0  0  0  0
   -8.1858    0.8220   -4.5536 C   0  0  0  0  0  0  0  0  0  0  0  0
   -9.1032    1.7768   -5.3170 C   0  0  0  0  0  0  0  0  0  0  0  0
  -10.3437    1.0555   -5.6025 N   0  0  0  0  0  0  0  0  0  0  0  0
  -10.6702    0.1321   -4.5588 C   0  0  0  0  0  0  0  0  0  0  0  0
  -10.2032    0.5453   -3.1819 C   0  0  0  0  0  0  0  0  0  0  0  0
  -11.3679    1.9817   -5.9627 C   0  0  0  0  0  0  0  0  0  0  0  0
  -11.1985    3.3666   -5.4289 C   0  0  0  0  0  0  0  0  0  0  0  0
  -11.7729    3.4952   -4.1519 O   0  0  0  0  0  0  0  0  0  0  0  0
  -12.4126    2.7442   -4.0231 H   0  0  0  0  0  0  0  0  0  0  0  0
   -2.7641   -1.9608   -0.0610 O   0  0  0  0  0  0  0  0  0  0  0  0
   -3.7770   -1.9296   -0.9442 C   0  0  0  0  0  0  0  0  0  0  0  0
   -5.0748   -1.5090   -0.6429 C   0  0  0  0  0  0  0  0  0  0  0  0
   -6.0954   -1.4851   -1.5429 C   0  0  0  0  0  0  0  0  0  0  0  0
   -5.9180   -1.8822   -2.8411 C   0  0  0  0  0  0  0  0  0  0  0  0
   -4.6477   -2.3093   -3.1951 C   0  0  0  0  0  0  0  0  0  0  0  0
   -4.2244   -2.7510   -4.4118 N   0  0  0  0  0  0  0  0  0  0  0  0
   -2.9427   -3.0508   -4.2748 C   0  0  0  0  0  0  0  0  0  0  0  0
   -2.5327   -2.8034   -2.9672 C   0  0  0  0  0  0  0  0  0  0  0  0
   -3.6141   -2.3328   -2.2806 C   0  0  0  0  0  0  0  0  0  0  0  0
   -4.7905   -2.8386   -5.2810 H   0  0  0  0  0  0  0  0  0  0  0  0
 14 15  1  0  0  0
 15 16  1  0  0  0
 15 17  1  0  0  0
 17 18  1  0  0  0
 18 19  1  0  0  0
 19 13  1  0  0  0
 13  7  1  0  0  0
  7  8  1  0  0  0
  8  9  1  0  0  0
  9 10  1  0  0  0
 10 11  1  0  0  0
 11 12  1  0  0  0
 10  1  1  0  0  0
  1  2  2  0  0  0
  2  3  1  0  0  0
  3  4  2  0  0  0
  4 29  1  0  0  0
 29 30  2  0  0  0
 29 31  1  0  0  0
 31 33  1  0  0  0
 33 34  2  0  0  0
 33 35  2  0  0  0
 33 36  1  0  0  0
 36 37  2  0  0  0
 37 38  1  0  0  0
 38 39  2  0  0  0
 39 45  1  0  0  0
 45 47  1  0  0  0
 47 48  1  0  0  0
 48 49  1  0  0  0
 49 50  1  0  0  0
 50 53  1  0  0  0
 53 54  1  0  0  0
 54 55  1  0  0  0
 50 51  1  0  0  0
 51 52  1  0  0  0
 39 40  1  0  0  0
 40 41  2  0  0  0
 40 42  1  0  0  0
 42 43  1  0  0  0
 42 44  2  0  0  0
  4  5  1  0  0  0
  5 57  1  0  0  0
 57 58  1  0  0  0
 58 59  2  0  0  0
 59 60  1  0  0  0
 60 61  2  0  0  0
 61 62  1  0  0  0
 62 63  1  0  0  0
 63 64  1  0  0  0
 64 65  2  0  0  0
 65 66  1  0  0  0
  5  6  2  0  0  0
 19 20  2  0  0  0
 20 21  1  0  0  0
 20 22  1  0  0  0
 22 23  2  0  0  0
 23 24  1  0  0  0
 24 25  2  0  0  0
 25 26  1  0  0  0
 25 27  1  0  0  0
 27 28  2  0  0  0
 21 15  1  0  0  0
 28 22  1  0  0  0
 12  7  1  0  0  0
  6  1  1  0  0  0
 41 36  1  0  0  0
 66 58  1  0  0  0
 52 47  1  0  0  0
 66 62  2  0  0  0
 31 32  1  0  0  0
 45 46  1  0  0  0
 55 56  1  0  0  0
 63 67  1  0  0  0
M  CHG 1  42   1
M  CHG 1  43  -1
M  END
> <minimizedAffinity>
-6.52839

> <CNNscore>
0.1138120964

> <CNNaffinity>
7.0925126076

> <CNN_VS>
0.8072137237

> <CNNaffinity_variance>
0.2425093204

$$$$
[H]OC([H])([H])C([H])([H])N1C([H])([H])C([H])([H])C([H])(N([H])c2c([H])c([H])c(S(=O)(=O)N([H])C(=O)c3c([H])c([H])c(N4C([H])([H])C([H])([H])N(C([H])([H])C5=C(c6c([H])c([H])c(Cl)c([H])c6[H])C([H])([H])C(C([H])([H])[H])(C([H])([H])[H])C([H])([H])C5([H])[H])C([H])([H])C4([H])[H])c([H])c3Oc3c([H])c([H])c([H])c4c3c([H])c([H])n4[H])c([H])c2[N+](=O)[O-])C([H])([H])C1([H])[H]


 67 74  0  0  0  0  0  0  0  0999 V2000
   -2.3933   -3.8357    9.8749 C   0  0  0  0  0  0  0  0  0  0  0  0
   -3.6519   -4.1604   10.3598 C   0  0  0  0  0  0  0  0  0  0  0  0
   -4.4379   -5.0802    9.7375 C   0  0  0  0  0  0  0  0  0  0  0  0
   -4.0051   -5.7594    8.5478 C   0  0  0  0  0  0  0  0  0  0  0  0
   -2.7824   -5.4475    8.0837 C   0  0  0  0  0  0  0  0  0  0  0  0
   -1.9930   -4.4729    8.7683 C   0  0  0  0  0  0  0  0  0  0  0  0
   -0.6643   -0.3986   10.5860 N   0  0  0  0  0  0  0  0  0  0  0  0
   -1.6074   -0.6799   11.5463 C   0  0  0  0  0  0  0  0  0  0  0  0
   -2.0773   -2.0984   11.6441 C   0  0  0  0  0  0  0  0  0  0  0  0
   -1.5714   -2.9038   10.5858 N   0  0  0  0  0  0  0  0  0  0  0  0
   -0.1928   -2.7266   10.2155 C   0  0  0  0  0  0  0  0  0  0  0  0
    0.0078   -1.2780    9.7636 C   0  0  0  0  0  0  0  0  0  0  0  0
   -0.5805    1.0055   10.1549 C   0  0  0  0  0  0  0  0  0  0  0  0
   -3.5918    4.4118    9.1835 C   0  0  0  0  0  0  0  0  0  0  0  0
   -3.6877    3.8199   10.5758 C   0  0  0  0  0  0  0  0  0  0  0  0
   -4.7096    4.5732   11.3900 C   0  0  0  0  0  0  0  0  0  0  0  0
   -2.3458    3.8997   11.2711 C   0  0  0  0  0  0  0  0  0  0  0  0
   -1.9203    2.5225   11.7787 C   0  0  0  0  0  0  0  0  0  0  0  0
   -1.8294    1.6724   10.5085 C   0  0  0  0  0  0  0  0  0  0  0  0
   -2.9548    1.6164    9.8453 C   0  0  0  0  0  0  0  0  0  0  0  0
   -4.1414    2.3832   10.4284 C   0  0  0  0  0  0  0  0  0  0  0  0
   -3.0991    0.9206    8.5998 C   0  0  0  0  0  0  0  0  0  0  0  0
   -3.4726   -0.3720    8.3752 C   0  0  0  0  0  0  0  0  0  0  0  0
   -3.5960   -0.9600    7.1327 C   0  0  0  0  0  0  0  0  0  0  0  0
   -3.3240   -0.1972    6.0249 C   0  0  0  0  0  0  0  0  0  0  0  0
   -3.4868   -0.9616    4.4575 Cl  0  0  0  0  0  0  0  0  0  0  0  0
   -2.9399    1.1193    6.1748 C   0  0  0  0  0  0  0  0  0  0  0  0
   -2.8292    1.6696    7.4428 C   0  0  0  0  0  0  0  0  0  0  0  0
   -5.0279   -6.5259    7.8790 C   0  0  0  0  0  0  0  0  0  0  0  0
   -4.5862   -7.2718    6.8996 O   0  0  0  0  0  0  0  0  0  0  0  0
   -6.3814   -6.5892    8.0719 N   0  0  0  0  0  0  0  0  0  0  0  0
   -6.8708   -6.1545    8.9141 H   0  0  0  0  0  0  0  0  0  0  0  0
   -7.4421   -7.4887    7.0535 S   0  0  0  0  0  0  0  0  0  0  0  0
   -7.5322   -6.8273    5.6969 O   0  0  0  0  0  0  0  0  0  0  0  0
   -6.8605   -8.8828    6.8221 O   0  0  0  0  0  0  0  0  0  0  0  0
   -9.0089   -7.6654    7.7607 C   0  0  0  0  0  0  0  0  0  0  0  0
   -9.8271   -8.7284    7.4399 C   0  0  0  0  0  0  0  0  0  0  0  0
  -11.1019   -8.8617    7.9577 C   0  0  0  0  0  0  0  0  0  0  0  0
  -11.5756   -7.8785    8.8408 C   0  0  0  0  0  0  0  0  0  0  0  0
  -10.7959   -6.8073    9.1857 C   0  0  0  0  0  0  0  0  0  0  0  0
   -9.5153   -6.7348    8.6250 C   0  0  0  0  0  0  0  0  0  0  0  0
  -11.2290   -5.7854   10.0669 N   0  0  0  0  0  0  0  0  0  0  0  0
  -11.8036   -5.9669   11.2872 O   0  0  0  0  0  0  0  0  0  0  0  0
  -11.0360   -4.6021    9.6268 O   0  0  0  0  0  0  0  0  0  0  0  0
  -12.8567   -8.0882    9.3812 N   0  0  0  0  0  0  0  0  0  0  0  0
  -13.0079   -8.7882   10.1348 H   0  0  0  0  0  0  0  0  0  0  0  0
  -14.0192   -7.3732    8.9149 C   0  0  0  0  0  0  0  0  0  0  0  0
  -15.1572   -8.3332    8.6526 C   0  0  0  0  0  0  0  0  0  0  0  0
  -14.7714   -9.1175    7.3987 C   0  0  0  0  0  0  0  0  0  0  0  0
  -15.0143   -8.2476    6.2478 N   0  0  0  0  0  0  0  0  0  0  0  0
  -14.7693   -6.8732    6.5631 C   0  0  0  0  0  0  0  0  0  0  0  0
  -13.7066   -6.6466    7.6138 C   0  0  0  0  0  0  0  0  0  0  0  0
  -14.3311   -8.7595    5.1041 C   0  0  0  0  0  0  0  0  0  0  0  0
  -15.1243   -8.7816    3.8384 C   0  0  0  0  0  0  0  0  0  0  0  0
  -16.4576   -9.1585    4.0782 O   0  0  0  0  0  0  0  0  0  0  0  0
  -16.4973   -9.6097    4.9640 H   0  0  0  0  0  0  0  0  0  0  0  0
   -2.1440   -5.9743    6.9972 O   0  0  0  0  0  0  0  0  0  0  0  0
   -2.0259   -5.7046    5.6855 C   0  0  0  0  0  0  0  0  0  0  0  0
   -2.4573   -4.5214    5.0807 C   0  0  0  0  0  0  0  0  0  0  0  0
   -2.3377   -4.2590    3.7507 C   0  0  0  0  0  0  0  0  0  0  0  0
   -1.7716   -5.1595    2.8887 C   0  0  0  0  0  0  0  0  0  0  0  0
   -1.3251   -6.3520    3.4363 C   0  0  0  0  0  0  0  0  0  0  0  0
   -0.7348   -7.3969    2.7928 N   0  0  0  0  0  0  0  0  0  0  0  0
   -0.4853   -8.3113    3.7164 C   0  0  0  0  0  0  0  0  0  0  0  0
   -0.9141   -7.8597    4.9619 C   0  0  0  0  0  0  0  0  0  0  0  0
   -1.4476   -6.6160    4.7857 C   0  0  0  0  0  0  0  0  0  0  0  0
   -0.5198   -7.4694    1.7768 H   0  0  0  0  0  0  0  0  0  0  0  0
 14 15  1  0  0  0
 15 16  1  0  0  0
 15 17  1  0  0  0
 17 18  1  0  0  0
 18 19  1  0  0  0
 19 13  1  0  0  0
 13  7  1  0  0  0
  7  8  1  0  0  0
  8  9  1  0  0  0
  9 10  1  0  0  0
 10 11  1  0  0  0
 11 12  1  0  0  0
 10  1  1  0  0  0
  1  2  2  0  0  0
  2  3  1  0  0  0
  3  4  2  0  0  0
  4 29  1  0  0  0
 29 30  2  0  0  0
 29 31  1  0  0  0
 31 33  1  0  0  0
 33 34  2  0  0  0
 33 35  2  0  0  0
 33 36  1  0  0  0
 36 37  2  0  0  0
 37 38  1  0  0  0
 38 39  2  0  0  0
 39 45  1  0  0  0
 45 47  1  0  0  0
 47 48  1  0  0  0
 48 49  1  0  0  0
 49 50  1  0  0  0
 50 53  1  0  0  0
 53 54  1  0  0  0
 54 55  1  0  0  0
 50 51  1  0  0  0
 51 52  1  0  0  0
 39 40  1  0  0  0
 40 41  2  0  0  0
 40 42  1  0  0  0
 42 43  1  0  0  0
 42 44  2  0  0  0
  4  5  1  0  0  0
  5 57  1  0  0  0
 57 58  1  0  0  0
 58 59  2  0  0  0
 59 60  1  0  0  0
 60 61  2  0  0  0
 61 62  1  0  0  0
 62 63  1  0  0  0
 63 64  1  0  0  0
 64 65  2  0  0  0
 65 66  1  0  0  0
  5  6  2  0  0  0
 19 20  2  0  0  0
 20 21  1  0  0  0
 20 22  1  0  0  0
 22 23  2  0  0  0
 23 24  1  0  0  0
 24 25  2  0  0  0
 25 26  1  0  0  0
 25 27  1  0  0  0
 27 28  2  0  0  0
 21 15  1  0  0  0
 28 22  1  0  0  0
 12  7  1  0  0  0
  6  1  1  0  0  0
 41 36  1  0  0  0
 66 58  1  0  0  0
 52 47  1  0  0  0
 66 62  2  0  0  0
 31 32  1  0  0  0
 45 46  1  0  0  0
 55 56  1  0  0  0
 63 67  1  0  0  0
M  CHG 1  42   1
M  CHG 1  43  -1
M  END
> <minimizedAffinity>
-8.66369

> <CNNscore>
0.0898366943

> <CNNaffinity>
7.6339216232

> <CNN_VS>
0.6858062744

> <CNNaffinity_variance>
0.5062813759

$$$$
[H]OC([H])([H])C([H])([H])N1C([H])([H])C([H])([H])C([H])(N([H])c2c([H])c([H])c(S(=O)(=O)N([H])C(=O)c3c([H])c([H])c(N4C([H])([H])C([H])([H])N(C([H])([H])C5=C(c6c([H])c([H])c(Cl)c([H])c6[H])C([H])([H])C(C([H])([H])[H])(C([H])([H])[H])C([H])([H])C5([H])[H])C([H])([H])C4([H])[H])c([H])c3Oc3c([H])c([H])c([H])c4c3c([H])c([H])n4[H])c([H])c2[N+](=O)[O-])C([H])([H])C1([H])[H]


 67 74  0  0  0  0  0  0  0  0999 V2000
   -2.2622   -2.9117    8.5254 C   0  0  0  0  0  0  0  0  0  0  0  0
   -2.5985   -3.9157    9.4218 C   0  0  0  0  0  0  0  0  0  0  0  0
   -2.7643   -3.6588   10.7475 C   0  0  0  0  0  0  0  0  0  0  0  0
   -2.5981   -2.3369   11.2852 C   0  0  0  0  0  0  0  0  0  0  0  0
   -2.2785   -1.3647   10.4133 C   0  0  0  0  0  0  0  0  0  0  0  0
   -2.1114   -1.6815    9.0300 C   0  0  0  0  0  0  0  0  0  0  0  0
   -2.0783   -5.1878    5.3483 N   0  0  0  0  0  0  0  0  0  0  0  0
   -3.2352   -4.4446    5.3515 C   0  0  0  0  0  0  0  0  0  0  0  0
   -3.2831   -3.2637    6.2711 C   0  0  0  0  0  0  0  0  0  0  0  0
   -2.1496   -3.2075    7.1293 N   0  0  0  0  0  0  0  0  0  0  0  0
   -0.8641   -3.4989    6.5534 C   0  0  0  0  0  0  0  0  0  0  0  0
   -0.8910   -4.9252    5.9984 C   0  0  0  0  0  0  0  0  0  0  0  0
   -2.2011   -6.5718    4.8645 C   0  0  0  0  0  0  0  0  0  0  0  0
   -1.2066   -7.0832    9.3771 C   0  0  0  0  0  0  0  0  0  0  0  0
   -0.6566   -8.1511    8.4524 C   0  0  0  0  0  0  0  0  0  0  0  0
    0.2066   -9.1143    9.2283 C   0  0  0  0  0  0  0  0  0  0  0  0
    0.1726   -7.5171    7.3566 C   0  0  0  0  0  0  0  0  0  0  0  0
   -0.3194   -7.9665    5.9813 C   0  0  0  0  0  0  0  0  0  0  0  0
   -1.7677   -7.4727    5.9276 C   0  0  0  0  0  0  0  0  0  0  0  0
   -2.5118   -7.9552    6.8883 C   0  0  0  0  0  0  0  0  0  0  0  0
   -1.8365   -8.9052    7.8769 C   0  0  0  0  0  0  0  0  0  0  0  0
   -3.8883   -7.5974    7.0714 C   0  0  0  0  0  0  0  0  0  0  0  0
   -4.4207   -6.5666    7.7887 C   0  0  0  0  0  0  0  0  0  0  0  0
   -5.7678   -6.2888    7.9025 C   0  0  0  0  0  0  0  0  0  0  0  0
   -6.6554   -7.1058    7.2486 C   0  0  0  0  0  0  0  0  0  0  0  0
   -8.3602   -6.7365    7.4051 Cl  0  0  0  0  0  0  0  0  0  0  0  0
   -6.1895   -8.1694    6.5037 C   0  0  0  0  0  0  0  0  0  0  0  0
   -4.8269   -8.4113    6.4165 C   0  0  0  0  0  0  0  0  0  0  0  0
   -2.5781   -2.2645   12.7259 C   0  0  0  0  0  0  0  0  0  0  0  0
   -1.5914   -2.9178   13.2828 O   0  0  0  0  0  0  0  0  0  0  0  0
   -3.4246   -1.6551   13.6120 N   0  0  0  0  0  0  0  0  0  0  0  0
   -4.1872   -0.9718   13.3135 H   0  0  0  0  0  0  0  0  0  0  0  0
   -3.2780   -1.8121   15.3223 S   0  0  0  0  0  0  0  0  0  0  0  0
   -3.3751   -3.2695   15.7128 O   0  0  0  0  0  0  0  0  0  0  0  0
   -1.8933   -1.3344   15.7579 O   0  0  0  0  0  0  0  0  0  0  0  0
   -4.4633   -0.8689   16.1540 C   0  0  0  0  0  0  0  0  0  0  0  0
   -4.1153    0.2635   16.8604 C   0  0  0  0  0  0  0  0  0  0  0  0
   -5.0409    1.0039   17.5716 C   0  0  0  0  0  0  0  0  0  0  0  0
   -6.3809    0.5850   17.5715 C   0  0  0  0  0  0  0  0  0  0  0  0
   -6.7689   -0.5331   16.8833 C   0  0  0  0  0  0  0  0  0  0  0  0
   -5.7802   -1.2355   16.1842 C   0  0  0  0  0  0  0  0  0  0  0  0
   -8.1062   -1.0014   16.8566 N   0  0  0  0  0  0  0  0  0  0  0  0
   -8.8489   -1.2486   15.7433 O   0  0  0  0  0  0  0  0  0  0  0  0
   -8.6130   -1.1957   18.0128 O   0  0  0  0  0  0  0  0  0  0  0  0
   -7.2915    1.4019   18.2648 N   0  0  0  0  0  0  0  0  0  0  0  0
   -7.7613    1.0614   19.1275 H   0  0  0  0  0  0  0  0  0  0  0  0
   -7.6378    2.7279   17.8157 C   0  0  0  0  0  0  0  0  0  0  0  0
   -8.3907    3.4697   18.8967 C   0  0  0  0  0  0  0  0  0  0  0  0
   -9.7703    2.8168   18.9784 C   0  0  0  0  0  0  0  0  0  0  0  0
  -10.5569    3.3161   17.8504 N   0  0  0  0  0  0  0  0  0  0  0  0
   -9.7390    3.5558   16.7006 C   0  0  0  0  0  0  0  0  0  0  0  0
   -8.5321    2.6531   16.5856 C   0  0  0  0  0  0  0  0  0  0  0  0
  -11.6937    2.4776   17.6469 C   0  0  0  0  0  0  0  0  0  0  0  0
  -11.5677    1.0854   18.1734 C   0  0  0  0  0  0  0  0  0  0  0  0
  -11.1550    0.1945   17.1668 O   0  0  0  0  0  0  0  0  0  0  0  0
  -11.3307    0.6206   16.2851 H   0  0  0  0  0  0  0  0  0  0  0  0
   -2.0978   -0.0364   10.6755 O   0  0  0  0  0  0  0  0  0  0  0  0
   -2.8222    1.0949   10.6245 C   0  0  0  0  0  0  0  0  0  0  0  0
   -3.2194    1.7256    9.4428 C   0  0  0  0  0  0  0  0  0  0  0  0
   -3.9491    2.8736    9.4010 C   0  0  0  0  0  0  0  0  0  0  0  0
   -4.3560    3.5084   10.5437 C   0  0  0  0  0  0  0  0  0  0  0  0
   -3.9894    2.9247   11.7463 C   0  0  0  0  0  0  0  0  0  0  0  0
   -4.2683    3.3615   13.0057 N   0  0  0  0  0  0  0  0  0  0  0  0
   -3.7153    2.4902   13.8341 C   0  0  0  0  0  0  0  0  0  0  0  0
   -3.0760    1.4857   13.1118 C   0  0  0  0  0  0  0  0  0  0  0  0
   -3.2491    1.7602   11.7863 C   0  0  0  0  0  0  0  0  0  0  0  0
   -4.8082    4.2110   13.2716 H   0  0  0  0  0  0  0  0  0  0  0  0
 14 15  1  0  0  0
 15 16  1  0  0  0
 15 17  1  0  0  0
 17 18  1  0  0  0
 18 19  1  0  0  0
 19 13  1  0  0  0
 13  7  1  0  0  0
  7  8  1  0  0  0
  8  9  1  0  0  0
  9 10  1  0  0  0
 10 11  1  0  0  0
 11 12  1  0  0  0
 10  1  1  0  0  0
  1  2  2  0  0  0
  2  3  1  0  0  0
  3  4  2  0  0  0
  4 29  1  0  0  0
 29 30  2  0  0  0
 29 31  1  0  0  0
 31 33  1  0  0  0
 33 34  2  0  0  0
 33 35  2  0  0  0
 33 36  1  0  0  0
 36 37  2  0  0  0
 37 38  1  0  0  0
 38 39  2  0  0  0
 39 45  1  0  0  0
 45 47  1  0  0  0
 47 48  1  0  0  0
 48 49  1  0  0  0
 49 50  1  0  0  0
 50 53  1  0  0  0
 53 54  1  0  0  0
 54 55  1  0  0  0
 50 51  1  0  0  0
 51 52  1  0  0  0
 39 40  1  0  0  0
 40 41  2  0  0  0
 40 42  1  0  0  0
 42 43  1  0  0  0
 42 44  2  0  0  0
  4  5  1  0  0  0
  5 57  1  0  0  0
 57 58  1  0  0  0
 58 59  2  0  0  0
 59 60  1  0  0  0
 60 61  2  0  0  0
 61 62  1  0  0  0
 62 63  1  0  0  0
 63 64  1  0  0  0
 64 65  2  0  0  0
 65 66  1  0  0  0
  5  6  2  0  0  0
 19 20  2  0  0  0
 20 21  1  0  0  0
 20 22  1  0  0  0
 22 23  2  0  0  0
 23 24  1  0  0  0
 24 25  2  0  0  0
 25 26  1  0  0  0
 25 27  1  0  0  0
 27 28  2  0  0  0
 21 15  1  0  0  0
 28 22  1  0  0  0
 12  7  1  0  0  0
  6  1  1  0  0  0
 41 36  1  0  0  0
 66 58  1  0  0  0
 52 47  1  0  0  0
 66 62  2  0  0  0
 31 32  1  0  0  0
 45 46  1  0  0  0
 55 56  1  0  0  0
 63 67  1  0  0  0
M  CHG 1  42   1
M  CHG 1  43  -1
M  END
> <minimizedAffinity>
-6.68177

> <CNNscore>
0.0763366818

> <CNNaffinity>
6.8760633469

> <CNN_VS>
0.5248958468

> <CNNaffinity_variance>
0.3253705800

$$$$
[H]OC([H])([H])C([H])([H])N1C([H])([H])C([H])([H])C([H])(N([H])c2c([H])c([H])c(S(=O)(=O)N([H])C(=O)c3c([H])c([H])c(N4C([H])([H])C([H])([H])N(C([H])([H])C5=C(c6c([H])c([H])c(Cl)c([H])c6[H])C([H])([H])C(C([H])([H])[H])(C([H])([H])[H])C([H])([H])C5([H])[H])C([H])([H])C4([H])[H])c([H])c3Oc3c([H])c([H])c([H])c4c3c([H])c([H])n4[H])c([H])c2[N+](=O)[O-])C([H])([H])C1([H])[H]


 67 74  0  0  0  0  0  0  0  0999 V2000
   -7.1038   -7.3413    7.1185 C   0  0  0  0  0  0  0  0  0  0  0  0
   -7.1229   -7.0197    5.7691 C   0  0  0  0  0  0  0  0  0  0  0  0
   -6.1163   -6.3079    5.1936 C   0  0  0  0  0  0  0  0  0  0  0  0
   -4.9853   -5.8529    5.9538 C   0  0  0  0  0  0  0  0  0  0  0  0
   -4.9662   -6.1714    7.2599 C   0  0  0  0  0  0  0  0  0  0  0  0
   -6.0470   -6.9180    7.8220 C   0  0  0  0  0  0  0  0  0  0  0  0
  -10.7363   -8.7530    7.4657 N   0  0  0  0  0  0  0  0  0  0  0  0
   -9.8651   -9.7376    7.0628 C   0  0  0  0  0  0  0  0  0  0  0  0
   -8.4034   -9.4723    7.2517 C   0  0  0  0  0  0  0  0  0  0  0  0
   -8.1526   -8.1384    7.6788 N   0  0  0  0  0  0  0  0  0  0  0  0
   -9.0224   -7.5866    8.6828 C   0  0  0  0  0  0  0  0  0  0  0  0
  -10.4533   -7.5835    8.1392 C   0  0  0  0  0  0  0  0  0  0  0  0
  -12.0701   -8.7775    6.8455 C   0  0  0  0  0  0  0  0  0  0  0  0
  -14.2030   -6.4309   10.2454 C   0  0  0  0  0  0  0  0  0  0  0  0
  -14.3147   -7.9413   10.3119 C   0  0  0  0  0  0  0  0  0  0  0  0
  -15.0334   -8.3529   11.5724 C   0  0  0  0  0  0  0  0  0  0  0  0
  -12.9373   -8.5682   10.3014 C   0  0  0  0  0  0  0  0  0  0  0  0
  -12.8271   -9.6061    9.1851 C   0  0  0  0  0  0  0  0  0  0  0  0
  -13.0721   -8.8006    7.9063 C   0  0  0  0  0  0  0  0  0  0  0  0
  -14.2321   -8.1975    7.8924 C   0  0  0  0  0  0  0  0  0  0  0  0
  -15.1275   -8.3897    9.1160 C   0  0  0  0  0  0  0  0  0  0  0  0
  -14.6626   -7.3464    6.8216 C   0  0  0  0  0  0  0  0  0  0  0  0
  -13.9225   -6.5144    6.0339 C   0  0  0  0  0  0  0  0  0  0  0  0
  -14.4223   -5.7334    5.0115 C   0  0  0  0  0  0  0  0  0  0  0  0
  -15.7693   -5.7861    4.7550 C   0  0  0  0  0  0  0  0  0  0  0  0
  -16.3839   -4.7881    3.4537 Cl  0  0  0  0  0  0  0  0  0  0  0  0
  -16.5811   -6.6055    5.5118 C   0  0  0  0  0  0  0  0  0  0  0  0
  -16.0360   -7.3738    6.5294 C   0  0  0  0  0  0  0  0  0  0  0  0
   -4.1243   -4.9225    5.2651 C   0  0  0  0  0  0  0  0  0  0  0  0
   -3.0611   -5.4674    4.7331 O   0  0  0  0  0  0  0  0  0  0  0  0
   -4.2113   -3.5674    5.0939 N   0  0  0  0  0  0  0  0  0  0  0  0
   -5.0818   -3.0034    5.3425 H   0  0  0  0  0  0  0  0  0  0  0  0
   -2.9810   -2.6280    4.3355 S   0  0  0  0  0  0  0  0  0  0  0  0
   -3.1802   -1.1650    4.6610 O   0  0  0  0  0  0  0  0  0  0  0  0
   -1.6192   -3.0211    4.9066 O   0  0  0  0  0  0  0  0  0  0  0  0
   -2.9460   -2.8820    2.6265 C   0  0  0  0  0  0  0  0  0  0  0  0
   -1.9573   -3.6378    2.0318 C   0  0  0  0  0  0  0  0  0  0  0  0
   -1.8845   -3.8127    0.6625 C   0  0  0  0  0  0  0  0  0  0  0  0
   -2.8531   -3.1981   -0.1468 C   0  0  0  0  0  0  0  0  0  0  0  0
   -3.8516   -2.4398    0.4028 C   0  0  0  0  0  0  0  0  0  0  0  0
   -3.8661   -2.3046    1.7962 C   0  0  0  0  0  0  0  0  0  0  0  0
   -4.8487   -1.7937   -0.3696 N   0  0  0  0  0  0  0  0  0  0  0  0
   -5.7268   -2.3980   -1.2158 O   0  0  0  0  0  0  0  0  0  0  0  0
   -4.8848   -0.5260   -0.2179 O   0  0  0  0  0  0  0  0  0  0  0  0
   -2.7665   -3.4510   -1.5274 N   0  0  0  0  0  0  0  0  0  0  0  0
   -3.3673   -4.1720   -1.9746 H   0  0  0  0  0  0  0  0  0  0  0  0
   -1.8403   -2.7531   -2.3847 C   0  0  0  0  0  0  0  0  0  0  0  0
   -2.4767   -1.4968   -2.9346 C   0  0  0  0  0  0  0  0  0  0  0  0
   -3.5242   -1.9590   -3.9472 C   0  0  0  0  0  0  0  0  0  0  0  0
   -2.8133   -2.3379   -5.1685 N   0  0  0  0  0  0  0  0  0  0  0  0
   -1.5286   -2.8988   -4.8798 C   0  0  0  0  0  0  0  0  0  0  0  0
   -1.4427   -3.6336   -3.5616 C   0  0  0  0  0  0  0  0  0  0  0  0
   -3.6675   -3.1231   -5.9994 C   0  0  0  0  0  0  0  0  0  0  0  0
   -5.0781   -3.2571   -5.5263 C   0  0  0  0  0  0  0  0  0  0  0  0
   -5.5515   -4.5701   -5.6978 O   0  0  0  0  0  0  0  0  0  0  0  0
   -4.9641   -5.0271   -6.3581 H   0  0  0  0  0  0  0  0  0  0  0  0
   -3.9945   -5.8803    8.1746 O   0  0  0  0  0  0  0  0  0  0  0  0
   -3.5757   -4.8120    8.8748 C   0  0  0  0  0  0  0  0  0  0  0  0
   -2.7695   -3.7951    8.3572 C   0  0  0  0  0  0  0  0  0  0  0  0
   -2.3466   -2.7191    9.0752 C   0  0  0  0  0  0  0  0  0  0  0  0
   -2.6900   -2.5529   10.3901 C   0  0  0  0  0  0  0  0  0  0  0  0
   -3.4903   -3.5335   10.9550 C   0  0  0  0  0  0  0  0  0  0  0  0
   -3.9593   -3.5951   12.2320 N   0  0  0  0  0  0  0  0  0  0  0  0
   -4.6739   -4.7059   12.3141 C   0  0  0  0  0  0  0  0  0  0  0  0
   -4.6691   -5.3671   11.0885 C   0  0  0  0  0  0  0  0  0  0  0  0
   -3.9180   -4.6240   10.2247 C   0  0  0  0  0  0  0  0  0  0  0  0
   -3.7929   -2.9089   12.9970 H   0  0  0  0  0  0  0  0  0  0  0  0
 14 15  1  0  0  0
 15 16  1  0  0  0
 15 17  1  0  0  0
 17 18  1  0  0  0
 18 19  1  0  0  0
 19 13  1  0  0  0
 13  7  1  0  0  0
  7  8  1  0  0  0
  8  9  1  0  0  0
  9 10  1  0  0  0
 10 11  1  0  0  0
 11 12  1  0  0  0
 10  1  1  0  0  0
  1  2  2  0  0  0
  2  3  1  0  0  0
  3  4  2  0  0  0
  4 29  1  0  0  0
 29 30  2  0  0  0
 29 31  1  0  0  0
 31 33  1  0  0  0
 33 34  2  0  0  0
 33 35  2  0  0  0
 33 36  1  0  0  0
 36 37  2  0  0  0
 37 38  1  0  0  0
 38 39  2  0  0  0
 39 45  1  0  0  0
 45 47  1  0  0  0
 47 48  1  0  0  0
 48 49  1  0  0  0
 49 50  1  0  0  0
 50 53  1  0  0  0
 53 54  1  0  0  0
 54 55  1  0  0  0
 50 51  1  0  0  0
 51 52  1  0  0  0
 39 40  1  0  0  0
 40 41  2  0  0  0
 40 42  1  0  0  0
 42 43  1  0  0  0
 42 44  2  0  0  0
  4  5  1  0  0  0
  5 57  1  0  0  0
 57 58  1  0  0  0
 58 59  2  0  0  0
 59 60  1  0  0  0
 60 61  2  0  0  0
 61 62  1  0  0  0
 62 63  1  0  0  0
 63 64  1  0  0  0
 64 65  2  0  0  0
 65 66  1  0  0  0
  5  6  2  0  0  0
 19 20  2  0  0  0
 20 21  1  0  0  0
 20 22  1  0  0  0
 22 23  2  0  0  0
 23 24  1  0  0  0
 24 25  2  0  0  0
 25 26  1  0  0  0
 25 27  1  0  0  0
 27 28  2  0  0  0
 21 15  1  0  0  0
 28 22  1  0  0  0
 12  7  1  0  0  0
  6  1  1  0  0  0
 41 36  1  0  0  0
 66 58  1  0  0  0
 52 47  1  0  0  0
 66 62  2  0  0  0
 31 32  1  0  0  0
 45 46  1  0  0  0
 55 56  1  0  0  0
 63 67  1  0  0  0
M  CHG 1  42   1
M  CHG 1  43  -1
M  END
> <minimizedAffinity>
-8.31630

> <CNNscore>
0.0614847951

> <CNNaffinity>
7.6167092323

> <CNN_VS>
0.4683118165

> <CNNaffinity_variance>
0.1246536523

$$$$
[H]OC([H])([H])C([H])([H])N1C([H])([H])C([H])([H])C([H])(N([H])c2c([H])c([H])c(S(=O)(=O)N([H])C(=O)c3c([H])c([H])c(N4C([H])([H])C([H])([H])N(C([H])([H])C5=C(c6c([H])c([H])c(Cl)c([H])c6[H])C([H])([H])C(C([H])([H])[H])(C([H])([H])[H])C([H])([H])C5([H])[H])C([H])([H])C4([H])[H])c([H])c3Oc3c([H])c([H])c([H])c4c3c([H])c([H])n4[H])c([H])c2[N+](=O)[O-])C([H])([H])C1([H])[H]


 67 74  0  0  0  0  0  0  0  0999 V2000
   -7.1301   -7.2998    7.0041 C   0  0  0  0  0  0  0  0  0  0  0  0
   -7.1680   -6.9999    5.6502 C   0  0  0  0  0  0  0  0  0  0  0  0
   -6.1735   -6.2905    5.0512 C   0  0  0  0  0  0  0  0  0  0  0  0
   -5.0366   -5.8155    5.7901 C   0  0  0  0  0  0  0  0  0  0  0  0
   -4.9994   -6.1131    7.1008 C   0  0  0  0  0  0  0  0  0  0  0  0
   -6.0680   -6.8582    7.6879 C   0  0  0  0  0  0  0  0  0  0  0  0
  -10.7531   -8.7138    7.4324 N   0  0  0  0  0  0  0  0  0  0  0  0
   -9.8890   -9.6996    7.0172 C   0  0  0  0  0  0  0  0  0  0  0  0
   -8.4241   -9.4316    7.1751 C   0  0  0  0  0  0  0  0  0  0  0  0
   -8.1663   -8.0951    7.5899 N   0  0  0  0  0  0  0  0  0  0  0  0
   -9.0163   -7.5390    8.6083 C   0  0  0  0  0  0  0  0  0  0  0  0
  -10.4580   -7.5405    8.0938 C   0  0  0  0  0  0  0  0  0  0  0  0
  -12.0992   -8.7432    6.8396 C   0  0  0  0  0  0  0  0  0  0  0  0
  -14.2183   -6.3817   10.2377 C   0  0  0  0  0  0  0  0  0  0  0  0
  -14.2938   -7.8927   10.3343 C   0  0  0  0  0  0  0  0  0  0  0  0
  -14.9778   -8.2965   11.6164 C   0  0  0  0  0  0  0  0  0  0  0  0
  -12.9027   -8.4882   10.3077 C   0  0  0  0  0  0  0  0  0  0  0  0
  -12.7907   -9.5443    9.2088 C   0  0  0  0  0  0  0  0  0  0  0  0
  -13.0793   -8.7690    7.9205 C   0  0  0  0  0  0  0  0  0  0  0  0
  -14.2529   -8.1927    7.9188 C   0  0  0  0  0  0  0  0  0  0  0  0
  -15.1194   -8.3820    9.1635 C   0  0  0  0  0  0  0  0  0  0  0  0
  -14.7239   -7.3721    6.8413 C   0  0  0  0  0  0  0  0  0  0  0  0
  -14.0481   -6.4370    6.1136 C   0  0  0  0  0  0  0  0  0  0  0  0
  -14.5819   -5.6956    5.0792 C   0  0  0  0  0  0  0  0  0  0  0  0
  -15.8964   -5.9030    4.7444 C   0  0  0  0  0  0  0  0  0  0  0  0
  -16.5550   -4.9526    3.4289 Cl  0  0  0  0  0  0  0  0  0  0  0  0
  -16.6432   -6.8333    5.4373 C   0  0  0  0  0  0  0  0  0  0  0  0
  -16.0657   -7.5566    6.4698 C   0  0  0  0  0  0  0  0  0  0  0  0
   -4.1907   -4.8903    5.0763 C   0  0  0  0  0  0  0  0  0  0  0  0
   -3.0077   -5.3629    4.7802 O   0  0  0  0  0  0  0  0  0  0  0  0
   -4.3991   -3.5974    4.6786 N   0  0  0  0  0  0  0  0  0  0  0  0
   -5.3530   -3.1220    4.7190 H   0  0  0  0  0  0  0  0  0  0  0  0
   -3.1808   -2.6252    3.9424 S   0  0  0  0  0  0  0  0  0  0  0  0
   -3.0356   -1.3254    4.7009 O   0  0  0  0  0  0  0  0  0  0  0  0
   -1.8341   -3.3408    4.0401 O   0  0  0  0  0  0  0  0  0  0  0  0
   -3.5196   -2.3327    2.2733 C   0  0  0  0  0  0  0  0  0  0  0  0
   -3.2600   -3.2844    1.3092 C   0  0  0  0  0  0  0  0  0  0  0  0
   -3.4787   -3.0518   -0.0358 C   0  0  0  0  0  0  0  0  0  0  0  0
   -3.9833   -1.8021   -0.4292 C   0  0  0  0  0  0  0  0  0  0  0  0
   -4.2548   -0.8297    0.4954 C   0  0  0  0  0  0  0  0  0  0  0  0
   -4.0104   -1.1323    1.8402 C   0  0  0  0  0  0  0  0  0  0  0  0
   -4.7585    0.4490    0.1500 N   0  0  0  0  0  0  0  0  0  0  0  0
   -4.2713    1.2692   -0.8207 O   0  0  0  0  0  0  0  0  0  0  0  0
   -5.7659    0.8167    0.8438 O   0  0  0  0  0  0  0  0  0  0  0  0
   -4.2390   -1.6349   -1.8018 N   0  0  0  0  0  0  0  0  0  0  0  0
   -3.6304   -1.0274   -2.3860 H   0  0  0  0  0  0  0  0  0  0  0  0
   -5.3536   -2.2675   -2.4633 C   0  0  0  0  0  0  0  0  0  0  0  0
   -5.0793   -2.4021   -3.9439 C   0  0  0  0  0  0  0  0  0  0  0  0
   -5.1578   -0.9889   -4.5210 C   0  0  0  0  0  0  0  0  0  0  0  0
   -6.5747   -0.6447   -4.6413 N   0  0  0  0  0  0  0  0  0  0  0  0
   -7.3531   -1.2370   -3.5964 C   0  0  0  0  0  0  0  0  0  0  0  0
   -6.6144   -1.4311   -2.2920 C   0  0  0  0  0  0  0  0  0  0  0  0
   -6.7158    0.7659   -4.8051 C   0  0  0  0  0  0  0  0  0  0  0  0
   -5.6775    1.5986   -4.1267 C   0  0  0  0  0  0  0  0  0  0  0  0
   -6.1261    2.0530   -2.8739 O   0  0  0  0  0  0  0  0  0  0  0  0
   -7.1178    1.9768   -2.8539 H   0  0  0  0  0  0  0  0  0  0  0  0
   -4.0187   -5.8008    7.9988 O   0  0  0  0  0  0  0  0  0  0  0  0
   -2.9263   -6.3844    8.5213 C   0  0  0  0  0  0  0  0  0  0  0  0
   -2.2083   -5.8843    9.6106 C   0  0  0  0  0  0  0  0  0  0  0  0
   -1.1004   -6.4798   10.1301 C   0  0  0  0  0  0  0  0  0  0  0  0
   -0.5977   -7.6414    9.6084 C   0  0  0  0  0  0  0  0  0  0  0  0
   -1.2723   -8.1826    8.5251 C   0  0  0  0  0  0  0  0  0  0  0  0
   -0.9707   -9.3178    7.8361 N   0  0  0  0  0  0  0  0  0  0  0  0
   -1.8865   -9.4335    6.8878 C   0  0  0  0  0  0  0  0  0  0  0  0
   -2.7846   -8.3716    6.9609 C   0  0  0  0  0  0  0  0  0  0  0  0
   -2.3958   -7.5767    7.9998 C   0  0  0  0  0  0  0  0  0  0  0  0
   -0.1788   -9.9698    8.0139 H   0  0  0  0  0  0  0  0  0  0  0  0
 14 15  1  0  0  0
 15 16  1  0  0  0
 15 17  1  0  0  0
 17 18  1  0  0  0
 18 19  1  0  0  0
 19 13  1  0  0  0
 13  7  1  0  0  0
  7  8  1  0  0  0
  8  9  1  0  0  0
  9 10  1  0  0  0
 10 11  1  0  0  0
 11 12  1  0  0  0
 10  1  1  0  0  0
  1  2  2  0  0  0
  2  3  1  0  0  0
  3  4  2  0  0  0
  4 29  1  0  0  0
 29 30  2  0  0  0
 29 31  1  0  0  0
 31 33  1  0  0  0
 33 34  2  0  0  0
 33 35  2  0  0  0
 33 36  1  0  0  0
 36 37  2  0  0  0
 37 38  1  0  0  0
 38 39  2  0  0  0
 39 45  1  0  0  0
 45 47  1  0  0  0
 47 48  1  0  0  0
 48 49  1  0  0  0
 49 50  1  0  0  0
 50 53  1  0  0  0
 53 54  1  0  0  0
 54 55  1  0  0  0
 50 51  1  0  0  0
 51 52  1  0  0  0
 39 40  1  0  0  0
 40 41  2  0  0  0
 40 42  1  0  0  0
 42 43  1  0  0  0
 42 44  2  0  0  0
  4  5  1  0  0  0
  5 57  1  0  0  0
 57 58  1  0  0  0
 58 59  2  0  0  0
 59 60  1  0  0  0
 60 61  2  0  0  0
 61 62  1  0  0  0
 62 63  1  0  0  0
 63 64  1  0  0  0
 64 65  2  0  0  0
 65 66  1  0  0  0
  5  6  2  0  0  0
 19 20  2  0  0  0
 20 21  1  0  0  0
 20 22  1  0  0  0
 22 23  2  0  0  0
 23 24  1  0  0  0
 24 25  2  0  0  0
 25 26  1  0  0  0
 25 27  1  0  0  0
 27 28  2  0  0  0
 21 15  1  0  0  0
 28 22  1  0  0  0
 12  7  1  0  0  0
  6  1  1  0  0  0
 41 36  1  0  0  0
 66 58  1  0  0  0
 52 47  1  0  0  0
 66 62  2  0  0  0
 31 32  1  0  0  0
 45 46  1  0  0  0
 55 56  1  0  0  0
 63 67  1  0  0  0
M  CHG 1  42   1
M  CHG 1  43  -1
M  END
> <minimizedAffinity>
-8.07755

> <CNNscore>
0.0609903671

> <CNNaffinity>
7.5555868149

> <CNN_VS>
0.4608180225

> <CNNaffinity_variance>
0.1806093305

$$$$
[H]c1c([H])c([H])c(-c2c([H])c(C(F)(F)F)c([H])c(C3([H])C([H])([H])C([H])([H])N(C(=O)c4c([H])c(OC([H])([H])[H])c(OC([H])([H])[H])c(OC([H])([H])[H])c4[H])C([H])([H])C3([H])[H])c2[H])c([H])c1[H]


 36 39  0  0  0  0  0  0  0  0999 V2000
  -15.1716   -8.4044    9.2628 C   0  0  0  0  0  0  0  0  0  0  0  0
  -15.4210   -7.9077   10.4371 O   0  0  0  0  0  0  0  0  0  0  0  0
  -13.8306   -8.7838    9.0696 N   0  0  0  0  0  0  0  0  0  0  0  0
  -13.3050   -9.3013    7.8563 C   0  0  0  0  0  0  0  0  0  0  0  0
  -11.8408   -9.1124    7.6321 C   0  0  0  0  0  0  0  0  0  0  0  0
  -11.2686   -8.1051    8.5387 C   0  0  0  0  0  0  0  0  0  0  0  0
  -11.5246   -8.5603    9.9762 C   0  0  0  0  0  0  0  0  0  0  0  0
  -12.9783   -8.6266   10.2609 C   0  0  0  0  0  0  0  0  0  0  0  0
  -17.6065   -7.9958    6.4071 C   0  0  0  0  0  0  0  0  0  0  0  0
  -16.4317   -7.9435    7.1460 C   0  0  0  0  0  0  0  0  0  0  0  0
  -16.3150   -8.4616    8.3939 C   0  0  0  0  0  0  0  0  0  0  0  0
  -17.4921   -9.0702    8.8887 C   0  0  0  0  0  0  0  0  0  0  0  0
  -18.6700   -9.1431    8.1873 C   0  0  0  0  0  0  0  0  0  0  0  0
  -18.7200   -8.5977    6.9370 C   0  0  0  0  0  0  0  0  0  0  0  0
  -16.5734   -7.5879    4.2551 C   0  0  0  0  0  0  0  0  0  0  0  0
  -17.6504   -7.4466    5.1524 O   0  0  0  0  0  0  0  0  0  0  0  0
  -19.8080   -9.7566    8.7128 O   0  0  0  0  0  0  0  0  0  0  0  0
  -19.6440  -10.7275    9.7262 C   0  0  0  0  0  0  0  0  0  0  0  0
  -19.8657   -8.6227    6.1570 O   0  0  0  0  0  0  0  0  0  0  0  0
  -20.4181   -9.8937    5.7934 C   0  0  0  0  0  0  0  0  0  0  0  0
   -9.8202   -7.8918    8.3878 C   0  0  0  0  0  0  0  0  0  0  0  0
   -9.0505   -7.3192    9.3837 C   0  0  0  0  0  0  0  0  0  0  0  0
   -7.6973   -7.1100    9.2535 C   0  0  0  0  0  0  0  0  0  0  0  0
   -7.1429   -7.5022    8.0661 C   0  0  0  0  0  0  0  0  0  0  0  0
   -7.8459   -8.0752    7.0290 C   0  0  0  0  0  0  0  0  0  0  0  0
   -9.2207   -8.2692    7.2128 C   0  0  0  0  0  0  0  0  0  0  0  0
   -6.9064   -6.5232   10.3424 C   0  0  0  0  0  0  0  0  0  0  0  0
   -7.2866   -6.6824   11.6663 C   0  0  0  0  0  0  0  0  0  0  0  0
   -6.5498   -6.1363   12.6951 C   0  0  0  0  0  0  0  0  0  0  0  0
   -5.3985   -5.4081   12.4621 C   0  0  0  0  0  0  0  0  0  0  0  0
   -5.0184   -5.2506   11.1474 C   0  0  0  0  0  0  0  0  0  0  0  0
   -5.7595   -5.7978   10.1107 C   0  0  0  0  0  0  0  0  0  0  0  0
   -7.2110   -8.4820    5.7430 C   0  0  0  0  0  0  0  0  0  0  0  0
   -7.2929   -7.3781    4.9056 F   0  0  0  0  0  0  0  0  0  0  0  0
   -5.8950   -8.8484    5.9810 F   0  0  0  0  0  0  0  0  0  0  0  0
   -7.9529   -9.5162    5.1838 F   0  0  0  0  0  0  0  0  0  0  0  0
 15 16  1  0  0  0
 16  9  1  0  0  0
  9 10  2  0  0  0
 10 11  1  0  0  0
 11 12  2  0  0  0
 12 13  1  0  0  0
 13 17  1  0  0  0
 17 18  1  0  0  0
 13 14  2  0  0  0
 14 19  1  0  0  0
 19 20  1  0  0  0
 11  1  1  0  0  0
  1  2  2  0  0  0
  1  3  1  0  0  0
  3  4  1  0  0  0
  4  5  1  0  0  0
  5  6  1  0  0  0
  6  7  1  0  0  0
  7  8  1  0  0  0
  6 21  1  0  0  0
 21 22  2  0  0  0
 22 23  1  0  0  0
 23 24  2  0  0  0
 24 25  1  0  0  0
 25 26  2  0  0  0
 25 33  1  0  0  0
 33 34  1  0  0  0
 33 35  1  0  0  0
 33 36  1  0  0  0
 23 27  1  0  0  0
 27 28  2  0  0  0
 28 29  1  0  0  0
 29 30  2  0  0  0
 30 31  1  0  0  0
 31 32  2  0  0  0
 14  9  1  0  0  0
  8  3  1  0  0  0
 26 21  1  0  0  0
 32 27  1  0  0  0
M  END
> <minimizedAffinity>
10.95695

> <CNNscore>
0.4659710824

> <CNNaffinity>
6.8749856949

> <CNN_VS>
3.2035446167

> <CNNaffinity_variance>
1.6622302532

$$$$
[H]c1c([H])c([H])c(-c2c([H])c(C(F)(F)F)c([H])c(C3([H])C([H])([H])C([H])([H])N(C(=O)c4c([H])c(OC([H])([H])[H])c(OC([H])([H])[H])c(OC([H])([H])[H])c4[H])C([H])([H])C3([H])[H])c2[H])c([H])c1[H]


 36 39  0  0  0  0  0  0  0  0999 V2000
   -9.3146  -11.8716    5.4883 C   0  0  0  0  0  0  0  0  0  0  0  0
   -9.1959  -12.8787    6.3004 O   0  0  0  0  0  0  0  0  0  0  0  0
  -10.0022  -10.7705    6.0310 N   0  0  0  0  0  0  0  0  0  0  0  0
  -10.3022   -9.5772    5.3223 C   0  0  0  0  0  0  0  0  0  0  0  0
  -11.4755   -8.7922    5.8091 C   0  0  0  0  0  0  0  0  0  0  0  0
  -12.3322   -9.5799    6.7089 C   0  0  0  0  0  0  0  0  0  0  0  0
  -11.4808  -10.0394    7.8934 C   0  0  0  0  0  0  0  0  0  0  0  0
  -10.3844  -10.9313    7.4446 C   0  0  0  0  0  0  0  0  0  0  0  0
   -7.8816  -13.3789    2.3378 C   0  0  0  0  0  0  0  0  0  0  0  0
   -8.5217  -13.2700    3.5655 C   0  0  0  0  0  0  0  0  0  0  0  0
   -8.7246  -12.0862    4.1955 C   0  0  0  0  0  0  0  0  0  0  0  0
   -8.2336  -10.9585    3.4969 C   0  0  0  0  0  0  0  0  0  0  0  0
   -7.5985  -11.0267    2.2818 C   0  0  0  0  0  0  0  0  0  0  0  0
   -7.4236  -12.2511    1.7044 C   0  0  0  0  0  0  0  0  0  0  0  0
   -6.6906  -15.4827    2.1960 C   0  0  0  0  0  0  0  0  0  0  0  0
   -7.7092  -14.6109    1.7632 O   0  0  0  0  0  0  0  0  0  0  0  0
   -7.1323   -9.8870    1.6249 O   0  0  0  0  0  0  0  0  0  0  0  0
   -6.7008   -8.7890    2.4027 C   0  0  0  0  0  0  0  0  0  0  0  0
   -6.7926  -12.4163    0.4812 O   0  0  0  0  0  0  0  0  0  0  0  0
   -7.5999  -12.4945   -0.6999 C   0  0  0  0  0  0  0  0  0  0  0  0
  -13.4934   -8.8534    7.2472 C   0  0  0  0  0  0  0  0  0  0  0  0
  -14.5177   -8.3958    6.4390 C   0  0  0  0  0  0  0  0  0  0  0  0
  -15.6057   -7.7114    6.9288 C   0  0  0  0  0  0  0  0  0  0  0  0
  -15.6212   -7.5011    8.2804 C   0  0  0  0  0  0  0  0  0  0  0  0
  -14.6365   -7.9236    9.1465 C   0  0  0  0  0  0  0  0  0  0  0  0
  -13.5513   -8.6184    8.5978 C   0  0  0  0  0  0  0  0  0  0  0  0
  -16.6883   -7.2631    6.0442 C   0  0  0  0  0  0  0  0  0  0  0  0
  -16.7327   -5.9589    5.5755 C   0  0  0  0  0  0  0  0  0  0  0  0
  -17.7443   -5.5294    4.7437 C   0  0  0  0  0  0  0  0  0  0  0  0
  -18.7599   -6.3723    4.3338 C   0  0  0  0  0  0  0  0  0  0  0  0
  -18.7162   -7.6689    4.7972 C   0  0  0  0  0  0  0  0  0  0  0  0
  -17.7001   -8.1025    5.6356 C   0  0  0  0  0  0  0  0  0  0  0  0
  -14.6802   -7.6681   10.6145 C   0  0  0  0  0  0  0  0  0  0  0  0
  -15.9349   -8.0806   11.0412 F   0  0  0  0  0  0  0  0  0  0  0  0
  -13.6671   -8.3862   11.2317 F   0  0  0  0  0  0  0  0  0  0  0  0
  -14.5665   -6.3003   10.8355 F   0  0  0  0  0  0  0  0  0  0  0  0
 15 16  1  0  0  0
 16  9  1  0  0  0
  9 10  2  0  0  0
 10 11  1  0  0  0
 11 12  2  0  0  0
 12 13  1  0  0  0
 13 17  1  0  0  0
 17 18  1  0  0  0
 13 14  2  0  0  0
 14 19  1  0  0  0
 19 20  1  0  0  0
 11  1  1  0  0  0
  1  2  2  0  0  0
  1  3  1  0  0  0
  3  4  1  0  0  0
  4  5  1  0  0  0
  5  6  1  0  0  0
  6  7  1  0  0  0
  7  8  1  0  0  0
  6 21  1  0  0  0
 21 22  2  0  0  0
 22 23  1  0  0  0
 23 24  2  0  0  0
 24 25  1  0  0  0
 25 26  2  0  0  0
 25 33  1  0  0  0
 33 34  1  0  0  0
 33 35  1  0  0  0
 33 36  1  0  0  0
 23 27  1  0  0  0
 27 28  2  0  0  0
 28 29  1  0  0  0
 29 30  2  0  0  0
 30 31  1  0  0  0
 31 32  2  0  0  0
 14  9  1  0  0  0
  8  3  1  0  0  0
 26 21  1  0  0  0
 32 27  1  0  0  0
M  END
> <minimizedAffinity>
19.55725

> <CNNscore>
0.4312374890

> <CNNaffinity>
6.4472784996

> <CNN_VS>
2.7803082466

> <CNNaffinity_variance>
0.6556867957

$$$$
[H]c1c([H])c([H])c(-c2c([H])c(C(F)(F)F)c([H])c(C3([H])C([H])([H])C([H])([H])N(C(=O)c4c([H])c(OC([H])([H])[H])c(OC([H])([H])[H])c(OC([H])([H])[H])c4[H])C([H])([H])C3([H])[H])c2[H])c([H])c1[H]


 36 39  0  0  0  0  0  0  0  0999 V2000
  -10.8614   -5.9631   12.7435 C   0  0  0  0  0  0  0  0  0  0  0  0
  -11.3183   -6.8275   13.5991 O   0  0  0  0  0  0  0  0  0  0  0  0
  -11.6715   -5.7936   11.6057 N   0  0  0  0  0  0  0  0  0  0  0  0
  -11.3576   -4.9463   10.5104 C   0  0  0  0  0  0  0  0  0  0  0  0
  -11.9774   -5.2988    9.1983 C   0  0  0  0  0  0  0  0  0  0  0  0
  -12.5124   -6.6691    9.1906 C   0  0  0  0  0  0  0  0  0  0  0  0
  -13.5511   -6.7794   10.3078 C   0  0  0  0  0  0  0  0  0  0  0  0
  -12.9274   -6.5630   11.6355 C   0  0  0  0  0  0  0  0  0  0  0  0
   -7.2476   -5.2767   13.5920 C   0  0  0  0  0  0  0  0  0  0  0  0
   -8.3869   -5.9296   13.1398 C   0  0  0  0  0  0  0  0  0  0  0  0
   -9.6163   -5.3570   13.1282 C   0  0  0  0  0  0  0  0  0  0  0  0
   -9.6490   -4.0284   13.6123 C   0  0  0  0  0  0  0  0  0  0  0  0
   -8.5444   -3.3503   14.0647 C   0  0  0  0  0  0  0  0  0  0  0  0
   -7.3372   -3.9872   14.0525 C   0  0  0  0  0  0  0  0  0  0  0  0
   -5.0584   -5.6585   14.5546 C   0  0  0  0  0  0  0  0  0  0  0  0
   -6.0384   -5.9213   13.5771 O   0  0  0  0  0  0  0  0  0  0  0  0
   -8.6213   -2.0372   14.5312 O   0  0  0  0  0  0  0  0  0  0  0  0
   -9.8949   -1.4957   14.8160 C   0  0  0  0  0  0  0  0  0  0  0  0
   -6.1697   -3.3823   14.4915 O   0  0  0  0  0  0  0  0  0  0  0  0
   -4.9503   -4.1331   14.4431 C   0  0  0  0  0  0  0  0  0  0  0  0
  -13.1634   -7.0696    7.9329 C   0  0  0  0  0  0  0  0  0  0  0  0
  -14.0819   -6.2624    7.2871 C   0  0  0  0  0  0  0  0  0  0  0  0
  -14.7008   -6.6269    6.1142 C   0  0  0  0  0  0  0  0  0  0  0  0
  -14.3567   -7.8518    5.6117 C   0  0  0  0  0  0  0  0  0  0  0  0
  -13.4540   -8.7103    6.2003 C   0  0  0  0  0  0  0  0  0  0  0  0
  -12.8495   -8.2908    7.3920 C   0  0  0  0  0  0  0  0  0  0  0  0
  -15.6518   -5.7329    5.4419 C   0  0  0  0  0  0  0  0  0  0  0  0
  -17.0181   -5.8704    5.6338 C   0  0  0  0  0  0  0  0  0  0  0  0
  -17.9183   -5.0351    5.0080 C   0  0  0  0  0  0  0  0  0  0  0  0
  -17.5079   -4.0210    4.1634 C   0  0  0  0  0  0  0  0  0  0  0  0
  -16.1507   -3.8820    3.9731 C   0  0  0  0  0  0  0  0  0  0  0  0
  -15.2434   -4.7226    4.6005 C   0  0  0  0  0  0  0  0  0  0  0  0
  -13.1093  -10.0439    5.6303 C   0  0  0  0  0  0  0  0  0  0  0  0
  -11.7388  -10.0278    5.4112 F   0  0  0  0  0  0  0  0  0  0  0  0
  -13.4727  -11.0322    6.5326 F   0  0  0  0  0  0  0  0  0  0  0  0
  -13.7505  -10.1875    4.4052 F   0  0  0  0  0  0  0  0  0  0  0  0
 15 16  1  0  0  0
 16  9  1  0  0  0
  9 10  2  0  0  0
 10 11  1  0  0  0
 11 12  2  0  0  0
 12 13  1  0  0  0
 13 17  1  0  0  0
 17 18  1  0  0  0
 13 14  2  0  0  0
 14 19  1  0  0  0
 19 20  1  0  0  0
 11  1  1  0  0  0
  1  2  2  0  0  0
  1  3  1  0  0  0
  3  4  1  0  0  0
  4  5  1  0  0  0
  5  6  1  0  0  0
  6  7  1  0  0  0
  7  8  1  0  0  0
  6 21  1  0  0  0
 21 22  2  0  0  0
 22 23  1  0  0  0
 23 24  2  0  0  0
 24 25  1  0  0  0
 25 26  2  0  0  0
 25 33  1  0  0  0
 33 34  1  0  0  0
 33 35  1  0  0  0
 33 36  1  0  0  0
 23 27  1  0  0  0
 27 28  2  0  0  0
 28 29  1  0  0  0
 29 30  2  0  0  0
 30 31  1  0  0  0
 31 32  2  0  0  0
 14  9  1  0  0  0
  8  3  1  0  0  0
 26 21  1  0  0  0
 32 27  1  0  0  0
M  END
> <minimizedAffinity>
9.75216

> <CNNscore>
0.4298384786

> <CNNaffinity>
6.5658826828

> <CNN_VS>
2.8222689629

> <CNNaffinity_variance>
1.1260538101

$$$$
[H]c1c([H])c([H])c(-c2c([H])c(C(F)(F)F)c([H])c(C3([H])C([H])([H])C([H])([H])N(C(=O)c4c([H])c(OC([H])([H])[H])c(OC([H])([H])[H])c(OC([H])([H])[H])c4[H])C([H])([H])C3([H])[H])c2[H])c([H])c1[H]


 36 39  0  0  0  0  0  0  0  0999 V2000
   -9.3129  -11.9884    5.5544 C   0  0  0  0  0  0  0  0  0  0  0  0
   -9.4061  -12.9845    6.3833 O   0  0  0  0  0  0  0  0  0  0  0  0
   -9.6991  -10.7486    6.0961 N   0  0  0  0  0  0  0  0  0  0  0  0
   -9.7339   -9.5274    5.3726 C   0  0  0  0  0  0  0  0  0  0  0  0
  -10.6687   -8.4799    5.8812 C   0  0  0  0  0  0  0  0  0  0  0  0
  -11.6537   -9.0298    6.8254 C   0  0  0  0  0  0  0  0  0  0  0  0
  -10.8919   -9.6634    7.9905 C   0  0  0  0  0  0  0  0  0  0  0  0
  -10.0557  -10.7959    7.5247 C   0  0  0  0  0  0  0  0  0  0  0  0
   -8.6089  -12.1743    1.8502 C   0  0  0  0  0  0  0  0  0  0  0  0
   -9.0586  -11.7042    3.0774 C   0  0  0  0  0  0  0  0  0  0  0  0
   -8.8390  -12.3536    4.2476 C   0  0  0  0  0  0  0  0  0  0  0  0
   -8.1050  -13.5561    4.1223 C   0  0  0  0  0  0  0  0  0  0  0  0
   -7.6425  -14.0506    2.9280 C   0  0  0  0  0  0  0  0  0  0  0  0
   -7.9019  -13.3485    1.7865 C   0  0  0  0  0  0  0  0  0  0  0  0
  -10.1338  -11.5276    0.0835 C   0  0  0  0  0  0  0  0  0  0  0  0
   -8.8724  -11.4648    0.7078 O   0  0  0  0  0  0  0  0  0  0  0  0
   -6.9182  -15.2410    2.8501 O   0  0  0  0  0  0  0  0  0  0  0  0
   -5.9074  -15.4798    3.8082 C   0  0  0  0  0  0  0  0  0  0  0  0
   -7.4762  -13.7717    0.5369 O   0  0  0  0  0  0  0  0  0  0  0  0
   -6.2229  -13.2862    0.0406 C   0  0  0  0  0  0  0  0  0  0  0  0
  -12.5886   -8.0414    7.3864 C   0  0  0  0  0  0  0  0  0  0  0  0
  -13.6372   -7.5174    6.6529 C   0  0  0  0  0  0  0  0  0  0  0  0
  -14.5149   -6.5897    7.1637 C   0  0  0  0  0  0  0  0  0  0  0  0
  -14.2916   -6.2035    8.4568 C   0  0  0  0  0  0  0  0  0  0  0  0
  -13.2673   -6.6784    9.2465 C   0  0  0  0  0  0  0  0  0  0  0  0
  -12.4029   -7.6236    8.6801 C   0  0  0  0  0  0  0  0  0  0  0  0
  -15.6333   -6.0744    6.3642 C   0  0  0  0  0  0  0  0  0  0  0  0
  -15.4409   -5.0600    5.4388 C   0  0  0  0  0  0  0  0  0  0  0  0
  -16.4845   -4.5708    4.6829 C   0  0  0  0  0  0  0  0  0  0  0  0
  -17.7693   -5.0651    4.8056 C   0  0  0  0  0  0  0  0  0  0  0  0
  -17.9617   -6.0742    5.7233 C   0  0  0  0  0  0  0  0  0  0  0  0
  -16.9133   -6.5666    6.4861 C   0  0  0  0  0  0  0  0  0  0  0  0
  -13.0467   -6.2278   10.6503 C   0  0  0  0  0  0  0  0  0  0  0  0
  -14.1517   -5.4583   10.9871 F   0  0  0  0  0  0  0  0  0  0  0  0
  -12.9262   -7.3387   11.4712 F   0  0  0  0  0  0  0  0  0  0  0  0
  -11.9169   -5.4187   10.6894 F   0  0  0  0  0  0  0  0  0  0  0  0
 15 16  1  0  0  0
 16  9  1  0  0  0
  9 10  2  0  0  0
 10 11  1  0  0  0
 11 12  2  0  0  0
 12 13  1  0  0  0
 13 17  1  0  0  0
 17 18  1  0  0  0
 13 14  2  0  0  0
 14 19  1  0  0  0
 19 20  1  0  0  0
 11  1  1  0  0  0
  1  2  2  0  0  0
  1  3  1  0  0  0
  3  4  1  0  0  0
  4  5  1  0  0  0
  5  6  1  0  0  0
  6  7  1  0  0  0
  7  8  1  0  0  0
  6 21  1  0  0  0
 21 22  2  0  0  0
 22 23  1  0  0  0
 23 24  2  0  0  0
 24 25  1  0  0  0
 25 26  2  0  0  0
 25 33  1  0  0  0
 33 34  1  0  0  0
 33 35  1  0  0  0
 33 36  1  0  0  0
 23 27  1  0  0  0
 27 28  2  0  0  0
 28 29  1  0  0  0
 29 30  2  0  0  0
 30 31  1  0  0  0
 31 32  2  0  0  0
 14  9  1  0  0  0
  8  3  1  0  0  0
 26 21  1  0  0  0
 32 27  1  0  0  0
M  END
> <minimizedAffinity>
22.28902

> <CNNscore>
0.4210583866

> <CNNaffinity>
6.4405927658

> <CNN_VS>
2.7118656635

> <CNNaffinity_variance>
0.5804693103

$$$$
[H]c1c([H])c([H])c(-c2c([H])c(C(F)(F)F)c([H])c(C3([H])C([H])([H])C([H])([H])N(C(=O)c4c([H])c(OC([H])([H])[H])c(OC([H])([H])[H])c(OC([H])([H])[H])c4[H])C([H])([H])C3([H])[H])c2[H])c([H])c1[H]


 36 39  0  0  0  0  0  0  0  0999 V2000
  -13.1461   -6.7843    8.1360 C   0  0  0  0  0  0  0  0  0  0  0  0
  -13.6824   -6.2949    9.2133 O   0  0  0  0  0  0  0  0  0  0  0  0
  -11.8229   -7.2327    8.3023 N   0  0  0  0  0  0  0  0  0  0  0  0
  -11.0117   -7.7572    7.2617 C   0  0  0  0  0  0  0  0  0  0  0  0
   -9.5345   -7.6445    7.4495 C   0  0  0  0  0  0  0  0  0  0  0  0
   -9.1839   -6.6855    8.5085 C   0  0  0  0  0  0  0  0  0  0  0  0
   -9.8438   -7.1506    9.8075 C   0  0  0  0  0  0  0  0  0  0  0  0
  -11.3215   -7.1426    9.6846 C   0  0  0  0  0  0  0  0  0  0  0  0
  -14.8013   -6.0240    4.8294 C   0  0  0  0  0  0  0  0  0  0  0  0
  -13.8729   -6.0204    5.8623 C   0  0  0  0  0  0  0  0  0  0  0  0
  -14.0105   -6.7643    6.9879 C   0  0  0  0  0  0  0  0  0  0  0  0
  -15.1816   -7.5565    7.0277 C   0  0  0  0  0  0  0  0  0  0  0  0
  -16.1198   -7.5880    6.0259 C   0  0  0  0  0  0  0  0  0  0  0  0
  -15.9214   -6.8113    4.9211 C   0  0  0  0  0  0  0  0  0  0  0  0
  -14.6272   -3.8361    3.8059 C   0  0  0  0  0  0  0  0  0  0  0  0
  -14.5964   -5.2422    3.7228 O   0  0  0  0  0  0  0  0  0  0  0  0
  -17.2608   -8.3878    6.1048 O   0  0  0  0  0  0  0  0  0  0  0  0
  -18.1509   -8.1889    7.1840 C   0  0  0  0  0  0  0  0  0  0  0  0
  -16.8152   -6.7777    3.8620 O   0  0  0  0  0  0  0  0  0  0  0  0
  -16.9165   -7.9294    3.0158 C   0  0  0  0  0  0  0  0  0  0  0  0
   -7.7409   -6.5488    8.7633 C   0  0  0  0  0  0  0  0  0  0  0  0
   -6.8085   -6.5381    7.7422 C   0  0  0  0  0  0  0  0  0  0  0  0
   -5.4571   -6.4159    7.9672 C   0  0  0  0  0  0  0  0  0  0  0  0
   -5.0760   -6.3060    9.2764 C   0  0  0  0  0  0  0  0  0  0  0  0
   -5.9460   -6.3124   10.3447 C   0  0  0  0  0  0  0  0  0  0  0  0
   -7.3121   -6.4365   10.0618 C   0  0  0  0  0  0  0  0  0  0  0  0
   -4.4973   -6.3819    6.8566 C   0  0  0  0  0  0  0  0  0  0  0  0
   -3.6480   -7.4508    6.6147 C   0  0  0  0  0  0  0  0  0  0  0  0
   -2.7448   -7.4284    5.5739 C   0  0  0  0  0  0  0  0  0  0  0  0
   -2.6411   -6.3464    4.7204 C   0  0  0  0  0  0  0  0  0  0  0  0
   -3.4856   -5.2843    4.9583 C   0  0  0  0  0  0  0  0  0  0  0  0
   -4.3939   -5.3043    6.0061 C   0  0  0  0  0  0  0  0  0  0  0  0
   -5.4953   -6.2006   11.7613 C   0  0  0  0  0  0  0  0  0  0  0  0
   -5.7842   -7.4211   12.3559 F   0  0  0  0  0  0  0  0  0  0  0  0
   -4.1361   -5.9272   11.7861 F   0  0  0  0  0  0  0  0  0  0  0  0
   -6.2430   -5.2137   12.3934 F   0  0  0  0  0  0  0  0  0  0  0  0
 15 16  1  0  0  0
 16  9  1  0  0  0
  9 10  2  0  0  0
 10 11  1  0  0  0
 11 12  2  0  0  0
 12 13  1  0  0  0
 13 17  1  0  0  0
 17 18  1  0  0  0
 13 14  2  0  0  0
 14 19  1  0  0  0
 19 20  1  0  0  0
 11  1  1  0  0  0
  1  2  2  0  0  0
  1  3  1  0  0  0
  3  4  1  0  0  0
  4  5  1  0  0  0
  5  6  1  0  0  0
  6  7  1  0  0  0
  7  8  1  0  0  0
  6 21  1  0  0  0
 21 22  2  0  0  0
 22 23  1  0  0  0
 23 24  2  0  0  0
 24 25  1  0  0  0
 25 26  2  0  0  0
 25 33  1  0  0  0
 33 34  1  0  0  0
 33 35  1  0  0  0
 33 36  1  0  0  0
 23 27  1  0  0  0
 27 28  2  0  0  0
 28 29  1  0  0  0
 29 30  2  0  0  0
 30 31  1  0  0  0
 31 32  2  0  0  0
 14  9  1  0  0  0
  8  3  1  0  0  0
 26 21  1  0  0  0
 32 27  1  0  0  0
M  END
> <minimizedAffinity>
1.13196

> <CNNscore>
0.4208379090

> <CNNaffinity>
6.8361487389

> <CNN_VS>
2.8769104481

> <CNNaffinity_variance>
1.2531129122

$$$$
[H]c1c([H])c([H])c(-c2c([H])c(C(F)(F)F)c([H])c(C3([H])C([H])([H])C([H])([H])N(C(=O)c4c([H])c(OC([H])([H])[H])c(OC([H])([H])[H])c(OC([H])([H])[H])c4[H])C([H])([H])C3([H])[H])c2[H])c([H])c1[H]


 36 39  0  0  0  0  0  0  0  0999 V2000
  -15.5919   -8.5784    8.7358 C   0  0  0  0  0  0  0  0  0  0  0  0
  -15.5191   -7.4650    9.4014 O   0  0  0  0  0  0  0  0  0  0  0  0
  -14.3588   -9.2367    8.5754 N   0  0  0  0  0  0  0  0  0  0  0  0
  -14.1751  -10.4392    7.8431 C   0  0  0  0  0  0  0  0  0  0  0  0
  -12.8067  -10.6826    7.2972 C   0  0  0  0  0  0  0  0  0  0  0  0
  -11.9844   -9.4629    7.3038 C   0  0  0  0  0  0  0  0  0  0  0  0
  -11.8923   -8.9602    8.7453 C   0  0  0  0  0  0  0  0  0  0  0  0
  -13.2303   -8.5861    9.2635 C   0  0  0  0  0  0  0  0  0  0  0  0
  -19.0464  -10.0507    8.3482 C   0  0  0  0  0  0  0  0  0  0  0  0
  -17.8068   -9.7407    8.8926 C   0  0  0  0  0  0  0  0  0  0  0  0
  -16.9174   -8.9119    8.2914 C   0  0  0  0  0  0  0  0  0  0  0  0
  -17.3553   -8.3776    7.0571 C   0  0  0  0  0  0  0  0  0  0  0  0
  -18.5733   -8.6588    6.4894 C   0  0  0  0  0  0  0  0  0  0  0  0
  -19.4199   -9.5045    7.1461 C   0  0  0  0  0  0  0  0  0  0  0  0
  -20.4099  -10.5713   10.2807 C   0  0  0  0  0  0  0  0  0  0  0  0
  -19.8920  -10.9001    9.0124 O   0  0  0  0  0  0  0  0  0  0  0  0
  -18.9671   -8.1063    5.2698 O   0  0  0  0  0  0  0  0  0  0  0  0
  -18.7298   -6.7319    5.0438 C   0  0  0  0  0  0  0  0  0  0  0  0
  -20.6677   -9.8467    6.6484 O   0  0  0  0  0  0  0  0  0  0  0  0
  -21.4405   -8.8376    5.9871 C   0  0  0  0  0  0  0  0  0  0  0  0
  -10.6119   -9.6419    6.8035 C   0  0  0  0  0  0  0  0  0  0  0  0
  -10.2856  -10.6120    5.8737 C   0  0  0  0  0  0  0  0  0  0  0  0
   -9.0064  -10.7929    5.4018 C   0  0  0  0  0  0  0  0  0  0  0  0
   -8.0563   -9.9503    5.9105 C   0  0  0  0  0  0  0  0  0  0  0  0
   -8.3058   -8.9646    6.8401 C   0  0  0  0  0  0  0  0  0  0  0  0
   -9.6254   -8.8197    7.2865 C   0  0  0  0  0  0  0  0  0  0  0  0
   -8.7009  -11.8163    4.3943 C   0  0  0  0  0  0  0  0  0  0  0  0
   -8.5271  -11.4758    3.0615 C   0  0  0  0  0  0  0  0  0  0  0  0
   -8.2389  -12.4294    2.1090 C   0  0  0  0  0  0  0  0  0  0  0  0
   -8.1062  -13.7667    2.4315 C   0  0  0  0  0  0  0  0  0  0  0  0
   -8.2767  -14.1063    3.7556 C   0  0  0  0  0  0  0  0  0  0  0  0
   -8.5685  -13.1485    4.7152 C   0  0  0  0  0  0  0  0  0  0  0  0
   -7.2437   -8.0695    7.3814 C   0  0  0  0  0  0  0  0  0  0  0  0
   -6.0464   -8.5223    6.8446 F   0  0  0  0  0  0  0  0  0  0  0  0
   -7.5134   -6.7629    7.0035 F   0  0  0  0  0  0  0  0  0  0  0  0
   -7.1923   -8.2186    8.7627 F   0  0  0  0  0  0  0  0  0  0  0  0
 15 16  1  0  0  0
 16  9  1  0  0  0
  9 10  2  0  0  0
 10 11  1  0  0  0
 11 12  2  0  0  0
 12 13  1  0  0  0
 13 17  1  0  0  0
 17 18  1  0  0  0
 13 14  2  0  0  0
 14 19  1  0  0  0
 19 20  1  0  0  0
 11  1  1  0  0  0
  1  2  2  0  0  0
  1  3  1  0  0  0
  3  4  1  0  0  0
  4  5  1  0  0  0
  5  6  1  0  0  0
  6  7  1  0  0  0
  7  8  1  0  0  0
  6 21  1  0  0  0
 21 22  2  0  0  0
 22 23  1  0  0  0
 23 24  2  0  0  0
 24 25  1  0  0  0
 25 26  2  0  0  0
 25 33  1  0  0  0
 33 34  1  0  0  0
 33 35  1  0  0  0
 33 36  1  0  0  0
 23 27  1  0  0  0
 27 28  2  0  0  0
 28 29  1  0  0  0
 29 30  2  0  0  0
 30 31  1  0  0  0
 31 32  2  0  0  0
 14  9  1  0  0  0
  8  3  1  0  0  0
 26 21  1  0  0  0
 32 27  1  0  0  0
M  END
> <minimizedAffinity>
18.13302

> <CNNscore>
0.3768419623

> <CNNaffinity>
6.4174332619

> <CNN_VS>
2.4183580875

> <CNNaffinity_variance>
1.0142514706

$$$$
[H]c1c([H])c([H])c(-c2c([H])c(C(F)(F)F)c([H])c(C3([H])C([H])([H])C([H])([H])N(C(=O)c4c([H])c(OC([H])([H])[H])c(OC([H])([H])[H])c(OC([H])([H])[H])c4[H])C([H])([H])C3([H])[H])c2[H])c([H])c1[H]


 36 39  0  0  0  0  0  0  0  0999 V2000
   -8.4295   -8.8797    7.8337 C   0  0  0  0  0  0  0  0  0  0  0  0
   -8.1464  -10.1454    7.7571 O   0  0  0  0  0  0  0  0  0  0  0  0
   -9.8056   -8.5918    7.7791 N   0  0  0  0  0  0  0  0  0  0  0  0
  -10.3576   -7.2836    7.7916 C   0  0  0  0  0  0  0  0  0  0  0  0
  -11.7060   -7.1252    7.1699 C   0  0  0  0  0  0  0  0  0  0  0  0
  -12.0668   -8.2788    6.3315 C   0  0  0  0  0  0  0  0  0  0  0  0
  -12.0377   -9.5311    7.2092 C   0  0  0  0  0  0  0  0  0  0  0  0
  -10.6726   -9.7819    7.7310 C   0  0  0  0  0  0  0  0  0  0  0  0
   -5.2373   -6.9557    7.2346 C   0  0  0  0  0  0  0  0  0  0  0  0
   -6.3548   -7.7466    7.0012 C   0  0  0  0  0  0  0  0  0  0  0  0
   -7.2793   -8.0263    7.9533 C   0  0  0  0  0  0  0  0  0  0  0  0
   -7.0183   -7.4407    9.2141 C   0  0  0  0  0  0  0  0  0  0  0  0
   -5.9267   -6.6521    9.4815 C   0  0  0  0  0  0  0  0  0  0  0  0
   -5.0325   -6.4134    8.4782 C   0  0  0  0  0  0  0  0  0  0  0  0
   -4.4392   -5.5677    5.4176 C   0  0  0  0  0  0  0  0  0  0  0  0
   -4.3432   -6.7195    6.2233 O   0  0  0  0  0  0  0  0  0  0  0  0
   -5.7094   -6.0908   10.7406 O   0  0  0  0  0  0  0  0  0  0  0  0
   -6.1264   -6.8118   11.8820 C   0  0  0  0  0  0  0  0  0  0  0  0
   -3.9017   -5.6315    8.6566 O   0  0  0  0  0  0  0  0  0  0  0  0
   -2.7463   -6.2273    9.2591 C   0  0  0  0  0  0  0  0  0  0  0  0
  -13.3989   -8.1977    5.7113 C   0  0  0  0  0  0  0  0  0  0  0  0
  -14.1617   -7.0449    5.7484 C   0  0  0  0  0  0  0  0  0  0  0  0
  -15.4098   -6.9574    5.1770 C   0  0  0  0  0  0  0  0  0  0  0  0
  -15.8667   -8.0903    4.5614 C   0  0  0  0  0  0  0  0  0  0  0  0
  -15.1659   -9.2742    4.4877 C   0  0  0  0  0  0  0  0  0  0  0  0
  -13.8986   -9.3103    5.0830 C   0  0  0  0  0  0  0  0  0  0  0  0
  -16.1810   -5.7085    5.2128 C   0  0  0  0  0  0  0  0  0  0  0  0
  -17.5662   -5.7269    5.2718 C   0  0  0  0  0  0  0  0  0  0  0  0
  -18.2984   -4.5598    5.3070 C   0  0  0  0  0  0  0  0  0  0  0  0
  -17.6933   -3.3174    5.2881 C   0  0  0  0  0  0  0  0  0  0  0  0
  -16.3170   -3.2975    5.2313 C   0  0  0  0  0  0  0  0  0  0  0  0
  -15.5786   -4.4708    5.1940 C   0  0  0  0  0  0  0  0  0  0  0  0
  -15.6987  -10.4943    3.8170 C   0  0  0  0  0  0  0  0  0  0  0  0
  -15.3407  -10.3877    2.4802 F   0  0  0  0  0  0  0  0  0  0  0  0
  -15.1425  -11.6184    4.4086 F   0  0  0  0  0  0  0  0  0  0  0  0
  -17.0861  -10.4848    3.9046 F   0  0  0  0  0  0  0  0  0  0  0  0
 15 16  1  0  0  0
 16  9  1  0  0  0
  9 10  2  0  0  0
 10 11  1  0  0  0
 11 12  2  0  0  0
 12 13  1  0  0  0
 13 17  1  0  0  0
 17 18  1  0  0  0
 13 14  2  0  0  0
 14 19  1  0  0  0
 19 20  1  0  0  0
 11  1  1  0  0  0
  1  2  2  0  0  0
  1  3  1  0  0  0
  3  4  1  0  0  0
  4  5  1  0  0  0
  5  6  1  0  0  0
  6  7  1  0  0  0
  7  8  1  0  0  0
  6 21  1  0  0  0
 21 22  2  0  0  0
 22 23  1  0  0  0
 23 24  2  0  0  0
 24 25  1  0  0  0
 25 26  2  0  0  0
 25 33  1  0  0  0
 33 34  1  0  0  0
 33 35  1  0  0  0
 33 36  1  0  0  0
 23 27  1  0  0  0
 27 28  2  0  0  0
 28 29  1  0  0  0
 29 30  2  0  0  0
 30 31  1  0  0  0
 31 32  2  0  0  0
 14  9  1  0  0  0
  8  3  1  0  0  0
 26 21  1  0  0  0
 32 27  1  0  0  0
M  END
> <minimizedAffinity>
6.08181

> <CNNscore>
0.3587242365

> <CNNaffinity>
6.6731309891

> <CNN_VS>
2.3938138485

> <CNNaffinity_variance>
1.3823472261

$$$$
[H]c1c([H])c([H])c(-c2c([H])c(C(F)(F)F)c([H])c(C3([H])C([H])([H])C([H])([H])N(C(=O)c4c([H])c(OC([H])([H])[H])c(OC([H])([H])[H])c(OC([H])([H])[H])c4[H])C([H])([H])C3([H])[H])c2[H])c([H])c1[H]


 36 39  0  0  0  0  0  0  0  0999 V2000
   -8.3717   -8.9112    7.9106 C   0  0  0  0  0  0  0  0  0  0  0  0
   -7.9197  -10.0494    7.4766 O   0  0  0  0  0  0  0  0  0  0  0  0
   -9.7718   -8.7859    7.8514 N   0  0  0  0  0  0  0  0  0  0  0  0
  -10.4940   -7.6198    8.2188 C   0  0  0  0  0  0  0  0  0  0  0  0
  -11.8331   -7.4395    7.5831 C   0  0  0  0  0  0  0  0  0  0  0  0
  -12.0120   -8.3145    6.4142 C   0  0  0  0  0  0  0  0  0  0  0  0
  -11.8409   -9.7628    6.8748 C   0  0  0  0  0  0  0  0  0  0  0  0
  -10.4700   -9.9978    7.3889 C   0  0  0  0  0  0  0  0  0  0  0  0
   -6.2087   -6.5593    9.9208 C   0  0  0  0  0  0  0  0  0  0  0  0
   -7.1965   -7.4816    9.6006 C   0  0  0  0  0  0  0  0  0  0  0  0
   -7.3499   -8.0055    8.3592 C   0  0  0  0  0  0  0  0  0  0  0  0
   -6.4138   -7.5399    7.4064 C   0  0  0  0  0  0  0  0  0  0  0  0
   -5.4231   -6.6316    7.6860 C   0  0  0  0  0  0  0  0  0  0  0  0
   -5.3271   -6.1408    8.9561 C   0  0  0  0  0  0  0  0  0  0  0  0
   -5.6195   -6.8641   12.2499 C   0  0  0  0  0  0  0  0  0  0  0  0
   -6.1173   -6.0704   11.1977 O   0  0  0  0  0  0  0  0  0  0  0  0
   -4.5174   -6.2015    6.7153 O   0  0  0  0  0  0  0  0  0  0  0  0
   -4.9929   -5.9665    5.4057 C   0  0  0  0  0  0  0  0  0  0  0  0
   -4.3605   -5.2198    9.3294 O   0  0  0  0  0  0  0  0  0  0  0  0
   -3.0400   -5.6939    9.6200 C   0  0  0  0  0  0  0  0  0  0  0  0
  -13.3247   -8.2055    5.7577 C   0  0  0  0  0  0  0  0  0  0  0  0
  -14.0686   -7.0401    5.7831 C   0  0  0  0  0  0  0  0  0  0  0  0
  -15.2985   -6.9268    5.1779 C   0  0  0  0  0  0  0  0  0  0  0  0
  -15.7571   -8.0468    4.5405 C   0  0  0  0  0  0  0  0  0  0  0  0
  -15.0747   -9.2420    4.4766 C   0  0  0  0  0  0  0  0  0  0  0  0
  -13.8255   -9.3045    5.1066 C   0  0  0  0  0  0  0  0  0  0  0  0
  -16.0491   -5.6651    5.2025 C   0  0  0  0  0  0  0  0  0  0  0  0
  -17.4312   -5.6594    5.3125 C   0  0  0  0  0  0  0  0  0  0  0  0
  -18.1442   -4.4801    5.3376 C   0  0  0  0  0  0  0  0  0  0  0  0
  -17.5217   -3.2488    5.2577 C   0  0  0  0  0  0  0  0  0  0  0  0
  -16.1483   -3.2528    5.1502 C   0  0  0  0  0  0  0  0  0  0  0  0
  -15.4293   -4.4384    5.1230 C   0  0  0  0  0  0  0  0  0  0  0  0
  -15.6091  -10.4475    3.7812 C   0  0  0  0  0  0  0  0  0  0  0  0
  -15.1757  -10.3584    2.4656 F   0  0  0  0  0  0  0  0  0  0  0  0
  -15.1224  -11.5860    4.4053 F   0  0  0  0  0  0  0  0  0  0  0  0
  -16.9982  -10.3932    3.7929 F   0  0  0  0  0  0  0  0  0  0  0  0
 15 16  1  0  0  0
 16  9  1  0  0  0
  9 10  2  0  0  0
 10 11  1  0  0  0
 11 12  2  0  0  0
 12 13  1  0  0  0
 13 17  1  0  0  0
 17 18  1  0  0  0
 13 14  2  0  0  0
 14 19  1  0  0  0
 19 20  1  0  0  0
 11  1  1  0  0  0
  1  2  2  0  0  0
  1  3  1  0  0  0
  3  4  1  0  0  0
  4  5  1  0  0  0
  5  6  1  0  0  0
  6  7  1  0  0  0
  7  8  1  0  0  0
  6 21  1  0  0  0
 21 22  2  0  0  0
 22 23  1  0  0  0
 23 24  2  0  0  0
 24 25  1  0  0  0
 25 26  2  0  0  0
 25 33  1  0  0  0
 33 34  1  0  0  0
 33 35  1  0  0  0
 33 36  1  0  0  0
 23 27  1  0  0  0
 27 28  2  0  0  0
 28 29  1  0  0  0
 29 30  2  0  0  0
 30 31  1  0  0  0
 31 32  2  0  0  0
 14  9  1  0  0  0
  8  3  1  0  0  0
 26 21  1  0  0  0
 32 27  1  0  0  0
M  END
> <minimizedAffinity>
6.16176

> <CNNscore>
0.3504144549

> <CNNaffinity>
6.5983366966

> <CNN_VS>
2.3121526241

> <CNNaffinity_variance>
1.3538546562

$$$$
[H]c1c([H])c([H])c(-c2c([H])c(C(F)(F)F)c([H])c(C3([H])C([H])([H])C([H])([H])N(C(=O)c4c([H])c(OC([H])([H])[H])c(OC([H])([H])[H])c(OC([H])([H])[H])c4[H])C([H])([H])C3([H])[H])c2[H])c([H])c1[H]


 36 39  0  0  0  0  0  0  0  0999 V2000
  -11.4647   -6.4202    9.5207 C   0  0  0  0  0  0  0  0  0  0  0  0
  -11.5000   -5.3939   10.3165 O   0  0  0  0  0  0  0  0  0  0  0  0
  -10.1800   -6.9633    9.3358 N   0  0  0  0  0  0  0  0  0  0  0  0
   -9.8800   -8.0513    8.4742 C   0  0  0  0  0  0  0  0  0  0  0  0
   -8.4793   -8.1269    7.9620 C   0  0  0  0  0  0  0  0  0  0  0  0
   -7.7538   -6.8609    8.1486 C   0  0  0  0  0  0  0  0  0  0  0  0
   -7.7490   -6.5323    9.6423 C   0  0  0  0  0  0  0  0  0  0  0  0
   -9.1285   -6.3216   10.1438 C   0  0  0  0  0  0  0  0  0  0  0  0
  -14.7798   -8.0814    8.8126 C   0  0  0  0  0  0  0  0  0  0  0  0
  -13.5866   -7.7516    9.4422 C   0  0  0  0  0  0  0  0  0  0  0  0
  -12.7450   -6.7920    8.9837 C   0  0  0  0  0  0  0  0  0  0  0  0
  -13.1822   -6.1424    7.8058 C   0  0  0  0  0  0  0  0  0  0  0  0
  -14.3553   -6.4392    7.1574 C   0  0  0  0  0  0  0  0  0  0  0  0
  -15.1549   -7.4193    7.6708 C   0  0  0  0  0  0  0  0  0  0  0  0
  -15.8260   -9.1504   10.7172 C   0  0  0  0  0  0  0  0  0  0  0  0
  -15.5783   -9.0661    9.3328 O   0  0  0  0  0  0  0  0  0  0  0  0
  -14.7505   -5.7701    5.9983 O   0  0  0  0  0  0  0  0  0  0  0  0
  -13.9229   -4.7397    5.4985 C   0  0  0  0  0  0  0  0  0  0  0  0
  -16.3553   -7.7873    7.0831 O   0  0  0  0  0  0  0  0  0  0  0  0
  -16.3211   -8.6521    5.9412 C   0  0  0  0  0  0  0  0  0  0  0  0
   -6.3556   -6.8781    7.6894 C   0  0  0  0  0  0  0  0  0  0  0  0
   -5.5117   -5.7948    7.8518 C   0  0  0  0  0  0  0  0  0  0  0  0
   -4.2048   -5.7963    7.4230 C   0  0  0  0  0  0  0  0  0  0  0  0
   -3.7760   -6.9441    6.8148 C   0  0  0  0  0  0  0  0  0  0  0  0
   -4.5591   -8.0600    6.6152 C   0  0  0  0  0  0  0  0  0  0  0  0
   -5.8818   -8.0085    7.0727 C   0  0  0  0  0  0  0  0  0  0  0  0
   -3.3293   -4.6371    7.6358 C   0  0  0  0  0  0  0  0  0  0  0  0
   -1.9649   -4.7216    7.4038 C   0  0  0  0  0  0  0  0  0  0  0  0
   -1.1353   -3.6384    7.5995 C   0  0  0  0  0  0  0  0  0  0  0  0
   -1.6181   -2.4178    8.0322 C   0  0  0  0  0  0  0  0  0  0  0  0
   -2.9738   -2.3318    8.2613 C   0  0  0  0  0  0  0  0  0  0  0  0
   -3.8098   -3.4211    8.0667 C   0  0  0  0  0  0  0  0  0  0  0  0
   -4.0621   -9.2920    5.9388 C   0  0  0  0  0  0  0  0  0  0  0  0
   -4.3709  -10.3483    6.7846 F   0  0  0  0  0  0  0  0  0  0  0  0
   -4.6890   -9.4201    4.7086 F   0  0  0  0  0  0  0  0  0  0  0  0
   -2.6793   -9.2116    5.8196 F   0  0  0  0  0  0  0  0  0  0  0  0
 15 16  1  0  0  0
 16  9  1  0  0  0
  9 10  2  0  0  0
 10 11  1  0  0  0
 11 12  2  0  0  0
 12 13  1  0  0  0
 13 17  1  0  0  0
 17 18  1  0  0  0
 13 14  2  0  0  0
 14 19  1  0  0  0
 19 20  1  0  0  0
 11  1  1  0  0  0
  1  2  2  0  0  0
  1  3  1  0  0  0
  3  4  1  0  0  0
  4  5  1  0  0  0
  5  6  1  0  0  0
  6  7  1  0  0  0
  7  8  1  0  0  0
  6 21  1  0  0  0
 21 22  2  0  0  0
 22 23  1  0  0  0
 23 24  2  0  0  0
 24 25  1  0  0  0
 25 26  2  0  0  0
 25 33  1  0  0  0
 33 34  1  0  0  0
 33 35  1  0  0  0
 33 36  1  0  0  0
 23 27  1  0  0  0
 27 28  2  0  0  0
 28 29  1  0  0  0
 29 30  2  0  0  0
 30 31  1  0  0  0
 31 32  2  0  0  0
 14  9  1  0  0  0
  8  3  1  0  0  0
 26 21  1  0  0  0
 32 27  1  0  0  0
M  END
> <minimizedAffinity>
7.78841

> <CNNscore>
0.3232273459

> <CNNaffinity>
6.2615814209

> <CNN_VS>
2.0239143372

> <CNNaffinity_variance>
1.0372180939

$$$$
[H]OC(=O)[C@@]([H])(N([H])C(=O)[C@]([H])(C([H])([H])S[H])C([H])([H])c1c([H])c([H])c([H])c([H])c1[H])C([H])([H])[H]


 21 21  0  0  0  0  0  0  0  0999 V2000
   -7.2237   -7.7775    6.7693 C   0  0  0  0  0  0  0  0  0  0  0  0
   -7.5917   -9.1762    4.6922 N   0  0  0  0  0  0  0  0  0  0  0  0
   -6.7479   -8.7556    5.7576 C   0  0  0  0  0  0  0  0  0  0  0  0
   -5.5647   -9.2365    5.8307 O   0  0  0  0  0  0  0  0  0  0  0  0
   -8.5487   -8.7782    4.6448 H   0  0  0  0  0  0  0  0  0  0  0  0
   -8.1708  -11.2236    3.4584 C   0  0  0  0  0  0  0  0  0  0  0  0
   -7.1418  -10.1204    3.7098 C   0  0  0  0  0  0  0  0  0  0  0  0
   -6.9016   -9.4762    2.3880 C   0  0  0  0  0  0  0  0  0  0  0  0
   -6.5943  -10.2295    1.2853 O   0  0  0  0  0  0  0  0  0  0  0  0
   -6.9922   -8.2267    2.3301 O   0  0  0  0  0  0  0  0  0  0  0  0
   -5.6079  -10.2922    1.0071 H   0  0  0  0  0  0  0  0  0  0  0  0
   -6.0336   -6.9388    7.1922 C   0  0  0  0  0  0  0  0  0  0  0  0
   -5.4651   -6.0758    5.6855 S   0  0  0  0  0  0  0  0  0  0  0  0
   -4.9359   -4.8220    5.9772 H   0  0  0  0  0  0  0  0  0  0  0  0
   -7.8941   -8.4383    7.9391 C   0  0  0  0  0  0  0  0  0  0  0  0
   -9.3308   -8.1675    8.0727 C   0  0  0  0  0  0  0  0  0  0  0  0
   -9.8860   -7.0603    8.6673 C   0  0  0  0  0  0  0  0  0  0  0  0
  -11.2666   -6.8803    8.7451 C   0  0  0  0  0  0  0  0  0  0  0  0
  -12.1364   -7.8100    8.2267 C   0  0  0  0  0  0  0  0  0  0  0  0
  -11.5931   -8.9259    7.6275 C   0  0  0  0  0  0  0  0  0  0  0  0
  -10.2287   -9.1034    7.5505 C   0  0  0  0  0  0  0  0  0  0  0  0
  6  7  1  0  0  0
  7  2  1  0  0  0
  2  3  1  0  0  0
  3  4  2  0  0  0
  3  1  1  0  0  0
  1 12  1  0  0  0
 12 13  1  0  0  0
  1 15  1  0  0  0
 15 16  1  0  0  0
 16 17  2  0  0  0
 17 18  1  0  0  0
 18 19  2  0  0  0
 19 20  1  0  0  0
 20 21  2  0  0  0
  7  8  1  0  0  0
  8  9  1  0  0  0
  8 10  2  0  0  0
 21 16  1  0  0  0
  2  5  1  0  0  0
 13 14  1  0  0  0
  9 11  1  0  0  0
M  END
> <minimizedAffinity>
4.90416

> <CNNscore>
0.5257602334

> <CNNaffinity>
4.8515262604

> <CNN_VS>
2.5507395267

> <CNNaffinity_variance>
0.7412674427

$$$$
[H]OC(=O)[C@@]([H])(N([H])C(=O)[C@]([H])(C([H])([H])S[H])C([H])([H])c1c([H])c([H])c([H])c([H])c1[H])C([H])([H])[H]


 21 21  0  0  0  0  0  0  0  0999 V2000
   -6.5021   -8.0781    7.4410 C   0  0  0  0  0  0  0  0  0  0  0  0
   -5.1207   -6.2696    8.5489 N   0  0  0  0  0  0  0  0  0  0  0  0
   -5.1953   -7.4393    7.7426 C   0  0  0  0  0  0  0  0  0  0  0  0
   -4.1114   -7.9357    7.2783 O   0  0  0  0  0  0  0  0  0  0  0  0
   -6.0073   -5.8777    8.9190 H   0  0  0  0  0  0  0  0  0  0  0  0
   -3.5679   -4.4726    7.9095 C   0  0  0  0  0  0  0  0  0  0  0  0
   -3.8635   -5.6450    8.8461 C   0  0  0  0  0  0  0  0  0  0  0  0
   -3.8337   -5.0836   10.2259 C   0  0  0  0  0  0  0  0  0  0  0  0
   -4.9153   -4.4135   10.7348 O   0  0  0  0  0  0  0  0  0  0  0  0
   -2.7855   -5.2498   10.8939 O   0  0  0  0  0  0  0  0  0  0  0  0
   -4.8914   -3.3870   10.7256 H   0  0  0  0  0  0  0  0  0  0  0  0
   -6.5920   -8.2520    5.9376 C   0  0  0  0  0  0  0  0  0  0  0  0
   -6.8266   -6.5757    5.2500 S   0  0  0  0  0  0  0  0  0  0  0  0
   -6.2318   -6.4429    3.9987 H   0  0  0  0  0  0  0  0  0  0  0  0
   -7.6637   -7.3016    7.9909 C   0  0  0  0  0  0  0  0  0  0  0  0
   -8.9749   -7.9442    7.8392 C   0  0  0  0  0  0  0  0  0  0  0  0
   -9.1924   -9.2296    7.4054 C   0  0  0  0  0  0  0  0  0  0  0  0
  -10.4762   -9.7631    7.2967 C   0  0  0  0  0  0  0  0  0  0  0  0
  -11.5862   -9.0198    7.6210 C   0  0  0  0  0  0  0  0  0  0  0  0
  -11.3827   -7.7284    8.0573 C   0  0  0  0  0  0  0  0  0  0  0  0
  -10.1138   -7.2015    8.1649 C   0  0  0  0  0  0  0  0  0  0  0  0
  6  7  1  0  0  0
  7  2  1  0  0  0
  2  3  1  0  0  0
  3  4  2  0  0  0
  3  1  1  0  0  0
  1 12  1  0  0  0
 12 13  1  0  0  0
  1 15  1  0  0  0
 15 16  1  0  0  0
 16 17  2  0  0  0
 17 18  1  0  0  0
 18 19  2  0  0  0
 19 20  1  0  0  0
 20 21  2  0  0  0
  7  8  1  0  0  0
  8  9  1  0  0  0
  8 10  2  0  0  0
 21 16  1  0  0  0
  2  5  1  0  0  0
 13 14  1  0  0  0
  9 11  1  0  0  0
M  END
> <minimizedAffinity>
-5.49463

> <CNNscore>
0.5090734959

> <CNNaffinity>
4.5943355560

> <CNN_VS>
2.3388545513

> <CNNaffinity_variance>
0.1825476587

$$$$
[H]OC(=O)[C@@]([H])(N([H])C(=O)[C@]([H])(C([H])([H])S[H])C([H])([H])c1c([H])c([H])c([H])c([H])c1[H])C([H])([H])[H]


 21 21  0  0  0  0  0  0  0  0999 V2000
   -8.3821   -8.5164    8.2088 C   0  0  0  0  0  0  0  0  0  0  0  0
   -6.4650   -6.8643    8.1718 N   0  0  0  0  0  0  0  0  0  0  0  0
   -7.0289   -8.1028    7.7568 C   0  0  0  0  0  0  0  0  0  0  0  0
   -6.3471   -8.8596    6.9829 O   0  0  0  0  0  0  0  0  0  0  0  0
   -7.0287   -6.2603    8.7995 H   0  0  0  0  0  0  0  0  0  0  0  0
   -5.1940   -5.7566    6.3809 C   0  0  0  0  0  0  0  0  0  0  0  0
   -5.1588   -6.4555    7.7409 C   0  0  0  0  0  0  0  0  0  0  0  0
   -4.5410   -5.4823    8.6849 C   0  0  0  0  0  0  0  0  0  0  0  0
   -4.9483   -5.4163    9.9916 O   0  0  0  0  0  0  0  0  0  0  0  0
   -3.6409   -4.7338    8.2349 O   0  0  0  0  0  0  0  0  0  0  0  0
   -5.6057   -4.6718   10.2521 H   0  0  0  0  0  0  0  0  0  0  0  0
   -8.5117  -10.0072    7.9654 C   0  0  0  0  0  0  0  0  0  0  0  0
   -9.7846  -10.1968    6.6686 S   0  0  0  0  0  0  0  0  0  0  0  0
   -9.5316  -11.2963    5.8535 H   0  0  0  0  0  0  0  0  0  0  0  0
   -9.4768   -7.7368    7.5391 C   0  0  0  0  0  0  0  0  0  0  0  0
  -10.5854   -7.3355    8.4138 C   0  0  0  0  0  0  0  0  0  0  0  0
  -11.7457   -8.0437    8.6137 C   0  0  0  0  0  0  0  0  0  0  0  0
  -12.7476   -7.5893    9.4707 C   0  0  0  0  0  0  0  0  0  0  0  0
  -12.6156   -6.4050   10.1561 C   0  0  0  0  0  0  0  0  0  0  0  0
  -11.4567   -5.6841    9.9647 C   0  0  0  0  0  0  0  0  0  0  0  0
  -10.4666   -6.1335    9.1180 C   0  0  0  0  0  0  0  0  0  0  0  0
  6  7  1  0  0  0
  7  2  1  0  0  0
  2  3  1  0  0  0
  3  4  2  0  0  0
  3  1  1  0  0  0
  1 12  1  0  0  0
 12 13  1  0  0  0
  1 15  1  0  0  0
 15 16  1  0  0  0
 16 17  2  0  0  0
 17 18  1  0  0  0
 18 19  2  0  0  0
 19 20  1  0  0  0
 20 21  2  0  0  0
  7  8  1  0  0  0
  8  9  1  0  0  0
  8 10  2  0  0  0
 21 16  1  0  0  0
  2  5  1  0  0  0
 13 14  1  0  0  0
  9 11  1  0  0  0
M  END
> <minimizedAffinity>
-6.09115

> <CNNscore>
0.5053182244

> <CNNaffinity>
4.7523779869

> <CNN_VS>
2.4014632702

> <CNNaffinity_variance>
0.1589921862

$$$$
[H]OC(=O)[C@@]([H])(N([H])C(=O)[C@]([H])(C([H])([H])S[H])C([H])([H])c1c([H])c([H])c([H])c([H])c1[H])C([H])([H])[H]


 21 21  0  0  0  0  0  0  0  0999 V2000
   -8.9407   -6.8617    8.4343 C   0  0  0  0  0  0  0  0  0  0  0  0
   -7.3867   -7.9636    6.7678 N   0  0  0  0  0  0  0  0  0  0  0  0
   -8.2327   -6.8782    7.1285 C   0  0  0  0  0  0  0  0  0  0  0  0
   -8.3749   -5.9100    6.3045 O   0  0  0  0  0  0  0  0  0  0  0  0
   -7.2804   -8.7423    7.4454 H   0  0  0  0  0  0  0  0  0  0  0  0
   -5.1793   -7.9519    5.6830 C   0  0  0  0  0  0  0  0  0  0  0  0
   -6.6983   -7.9892    5.5091 C   0  0  0  0  0  0  0  0  0  0  0  0
   -6.9915   -9.2312    4.7399 C   0  0  0  0  0  0  0  0  0  0  0  0
   -6.3381   -9.5006    3.5659 O   0  0  0  0  0  0  0  0  0  0  0  0
   -7.8540  -10.0109    5.2099 O   0  0  0  0  0  0  0  0  0  0  0  0
   -6.8272   -9.2949    2.6867 H   0  0  0  0  0  0  0  0  0  0  0  0
   -8.0061   -7.4540    9.4708 C   0  0  0  0  0  0  0  0  0  0  0  0
   -6.3427   -6.8098    9.0754 S   0  0  0  0  0  0  0  0  0  0  0  0
   -5.5709   -6.6352   10.2204 H   0  0  0  0  0  0  0  0  0  0  0  0
  -10.2582   -7.5801    8.3846 C   0  0  0  0  0  0  0  0  0  0  0  0
  -11.3532   -6.9317    9.1166 C   0  0  0  0  0  0  0  0  0  0  0  0
  -11.2080   -6.0297   10.1429 C   0  0  0  0  0  0  0  0  0  0  0  0
  -12.3075   -5.4559   10.7804 C   0  0  0  0  0  0  0  0  0  0  0  0
  -13.5922   -5.7712   10.4064 C   0  0  0  0  0  0  0  0  0  0  0  0
  -13.7526   -6.6750    9.3784 C   0  0  0  0  0  0  0  0  0  0  0  0
  -12.6659   -7.2417    8.7483 C   0  0  0  0  0  0  0  0  0  0  0  0
  6  7  1  0  0  0
  7  2  1  0  0  0
  2  3  1  0  0  0
  3  4  2  0  0  0
  3  1  1  0  0  0
  1 12  1  0  0  0
 12 13  1  0  0  0
  1 15  1  0  0  0
 15 16  1  0  0  0
 16 17  2  0  0  0
 17 18  1  0  0  0
 18 19  2  0  0  0
 19 20  1  0  0  0
 20 21  2  0  0  0
  7  8  1  0  0  0
  8  9  1  0  0  0
  8 10  2  0  0  0
 21 16  1  0  0  0
  2  5  1  0  0  0
 13 14  1  0  0  0
  9 11  1  0  0  0
M  END
> <minimizedAffinity>
-0.64621

> <CNNscore>
0.4188221395

> <CNNaffinity>
4.7112245560

> <CNN_VS>
1.9731651545

> <CNNaffinity_variance>
0.8238956332

$$$$
[H]OC(=O)[C@@]([H])(N([H])C(=O)[C@]([H])(C([H])([H])S[H])C([H])([H])c1c([H])c([H])c([H])c([H])c1[H])C([H])([H])[H]


 21 21  0  0  0  0  0  0  0  0999 V2000
  -13.6295   -8.3713    6.7389 C   0  0  0  0  0  0  0  0  0  0  0  0
  -15.8240   -7.6125    5.7317 N   0  0  0  0  0  0  0  0  0  0  0  0
  -14.5930   -8.3151    5.6097 C   0  0  0  0  0  0  0  0  0  0  0  0
  -14.3274   -8.9018    4.5043 O   0  0  0  0  0  0  0  0  0  0  0  0
  -16.0267   -7.1412    6.6336 H   0  0  0  0  0  0  0  0  0  0  0  0
  -17.9321   -8.5166    4.8440 C   0  0  0  0  0  0  0  0  0  0  0  0
  -16.7615   -7.5521    4.6471 C   0  0  0  0  0  0  0  0  0  0  0  0
  -17.3664   -6.1975    4.5094 C   0  0  0  0  0  0  0  0  0  0  0  0
  -18.6476   -6.0443    4.0478 O   0  0  0  0  0  0  0  0  0  0  0  0
  -16.6582   -5.2139    4.8312 O   0  0  0  0  0  0  0  0  0  0  0  0
  -18.7746   -5.7847    3.0625 H   0  0  0  0  0  0  0  0  0  0  0  0
  -13.3024   -9.8301    6.9911 C   0  0  0  0  0  0  0  0  0  0  0  0
  -11.4865   -9.9709    6.8471 S   0  0  0  0  0  0  0  0  0  0  0  0
  -10.9750  -10.9462    7.6983 H   0  0  0  0  0  0  0  0  0  0  0  0
  -14.1453   -7.6861    7.9714 C   0  0  0  0  0  0  0  0  0  0  0  0
  -13.1385   -6.9525    8.7481 C   0  0  0  0  0  0  0  0  0  0  0  0
  -11.7822   -6.9791    8.5305 C   0  0  0  0  0  0  0  0  0  0  0  0
  -10.8955   -6.2433    9.3160 C   0  0  0  0  0  0  0  0  0  0  0  0
  -11.3445   -5.4549   10.3487 C   0  0  0  0  0  0  0  0  0  0  0  0
  -12.7029   -5.4190   10.5785 C   0  0  0  0  0  0  0  0  0  0  0  0
  -13.5790   -6.1461    9.8019 C   0  0  0  0  0  0  0  0  0  0  0  0
  6  7  1  0  0  0
  7  2  1  0  0  0
  2  3  1  0  0  0
  3  4  2  0  0  0
  3  1  1  0  0  0
  1 12  1  0  0  0
 12 13  1  0  0  0
  1 15  1  0  0  0
 15 16  1  0  0  0
 16 17  2  0  0  0
 17 18  1  0  0  0
 18 19  2  0  0  0
 19 20  1  0  0  0
 20 21  2  0  0  0
  7  8  1  0  0  0
  8  9  1  0  0  0
  8 10  2  0  0  0
 21 16  1  0  0  0
  2  5  1  0  0  0
 13 14  1  0  0  0
  9 11  1  0  0  0
M  END
> <minimizedAffinity>
-6.99515

> <CNNscore>
0.4000547528

> <CNNaffinity>
5.4970502853

> <CNN_VS>
2.1991209984

> <CNNaffinity_variance>
0.0317323282

$$$$
[H]OC(=O)[C@@]([H])(N([H])C(=O)[C@]([H])(C([H])([H])S[H])C([H])([H])c1c([H])c([H])c([H])c([H])c1[H])C([H])([H])[H]


 21 21  0  0  0  0  0  0  0  0999 V2000
   -4.2060   -5.1756    5.1508 C   0  0  0  0  0  0  0  0  0  0  0  0
   -2.0533   -6.2833    5.8891 N   0  0  0  0  0  0  0  0  0  0  0  0
   -3.2326   -5.5538    6.2072 C   0  0  0  0  0  0  0  0  0  0  0  0
   -3.4426   -5.2266    7.4260 O   0  0  0  0  0  0  0  0  0  0  0  0
   -1.8954   -6.5421    4.8968 H   0  0  0  0  0  0  0  0  0  0  0  0
   -1.0864   -5.6574    8.0624 C   0  0  0  0  0  0  0  0  0  0  0  0
   -1.1068   -6.6536    6.9020 C   0  0  0  0  0  0  0  0  0  0  0  0
   -1.4271   -7.9777    7.5053 C   0  0  0  0  0  0  0  0  0  0  0  0
   -1.4910   -8.1325    8.8654 O   0  0  0  0  0  0  0  0  0  0  0  0
   -1.6334   -8.9343    6.7212 O   0  0  0  0  0  0  0  0  0  0  0  0
   -0.6766   -8.5391    9.3406 H   0  0  0  0  0  0  0  0  0  0  0  0
   -3.8400   -3.7867    4.6653 C   0  0  0  0  0  0  0  0  0  0  0  0
   -2.6659   -4.0286    3.2865 S   0  0  0  0  0  0  0  0  0  0  0  0
   -2.7909   -3.0336    2.3213 H   0  0  0  0  0  0  0  0  0  0  0  0
   -5.6289   -5.2526    5.6239 C   0  0  0  0  0  0  0  0  0  0  0  0
   -6.0368   -6.5512    6.1738 C   0  0  0  0  0  0  0  0  0  0  0  0
   -6.1355   -7.7256    5.4675 C   0  0  0  0  0  0  0  0  0  0  0  0
   -6.5264   -8.9191    6.0737 C   0  0  0  0  0  0  0  0  0  0  0  0
   -6.8319   -8.9710    7.4130 C   0  0  0  0  0  0  0  0  0  0  0  0
   -6.7374   -7.8001    8.1336 C   0  0  0  0  0  0  0  0  0  0  0  0
   -6.3509   -6.6208    7.5344 C   0  0  0  0  0  0  0  0  0  0  0  0
  6  7  1  0  0  0
  7  2  1  0  0  0
  2  3  1  0  0  0
  3  4  2  0  0  0
  3  1  1  0  0  0
  1 12  1  0  0  0
 12 13  1  0  0  0
  1 15  1  0  0  0
 15 16  1  0  0  0
 16 17  2  0  0  0
 17 18  1  0  0  0
 18 19  2  0  0  0
 19 20  1  0  0  0
 20 21  2  0  0  0
  7  8  1  0  0  0
  8  9  1  0  0  0
  8 10  2  0  0  0
 21 16  1  0  0  0
  2  5  1  0  0  0
 13 14  1  0  0  0
  9 11  1  0  0  0
M  END
> <minimizedAffinity>
-2.67512

> <CNNscore>
0.3965574503

> <CNNaffinity>
3.8534026146

> <CNN_VS>
1.5280954838

> <CNNaffinity_variance>
0.2360306084

$$$$
[H]OC(=O)[C@@]([H])(N([H])C(=O)[C@]([H])(C([H])([H])S[H])C([H])([H])c1c([H])c([H])c([H])c([H])c1[H])C([H])([H])[H]


 21 21  0  0  0  0  0  0  0  0999 V2000
  -13.5435   -7.4640    7.9181 C   0  0  0  0  0  0  0  0  0  0  0  0
  -11.1836   -8.2538    7.4567 N   0  0  0  0  0  0  0  0  0  0  0  0
  -12.4256   -8.4187    8.1306 C   0  0  0  0  0  0  0  0  0  0  0  0
  -12.5650   -9.4093    8.9281 O   0  0  0  0  0  0  0  0  0  0  0  0
  -11.0841   -7.4462    6.8128 H   0  0  0  0  0  0  0  0  0  0  0  0
  -10.1210  -10.3177    6.6438 C   0  0  0  0  0  0  0  0  0  0  0  0
  -10.0975   -9.1704    7.6549 C   0  0  0  0  0  0  0  0  0  0  0  0
   -8.7733   -8.5076    7.4907 C   0  0  0  0  0  0  0  0  0  0  0  0
   -8.6886   -7.1808    7.1588 O   0  0  0  0  0  0  0  0  0  0  0  0
   -7.7501   -9.2109    7.6678 O   0  0  0  0  0  0  0  0  0  0  0  0
   -8.5033   -6.9428    6.1772 H   0  0  0  0  0  0  0  0  0  0  0  0
  -14.1514   -7.1599    9.2733 C   0  0  0  0  0  0  0  0  0  0  0  0
  -13.0335   -5.9522   10.0669 S   0  0  0  0  0  0  0  0  0  0  0  0
  -13.7272   -5.0692   10.8893 H   0  0  0  0  0  0  0  0  0  0  0  0
  -14.5633   -7.9783    6.9434 C   0  0  0  0  0  0  0  0  0  0  0  0
  -15.2191   -6.9525    6.1231 C   0  0  0  0  0  0  0  0  0  0  0  0
  -14.5845   -5.9319    5.4572 C   0  0  0  0  0  0  0  0  0  0  0  0
  -15.2879   -5.0016    4.6927 C   0  0  0  0  0  0  0  0  0  0  0  0
  -16.6558   -5.0668    4.5728 C   0  0  0  0  0  0  0  0  0  0  0  0
  -17.3054   -6.0855    5.2359 C   0  0  0  0  0  0  0  0  0  0  0  0
  -16.6100   -7.0049    5.9910 C   0  0  0  0  0  0  0  0  0  0  0  0
  6  7  1  0  0  0
  7  2  1  0  0  0
  2  3  1  0  0  0
  3  4  2  0  0  0
  3  1  1  0  0  0
  1 12  1  0  0  0
 12 13  1  0  0  0
  1 15  1  0  0  0
 15 16  1  0  0  0
 16 17  2  0  0  0
 17 18  1  0  0  0
 18 19  2  0  0  0
 19 20  1  0  0  0
 20 21  2  0  0  0
  7  8  1  0  0  0
  8  9  1  0  0  0
  8 10  2  0  0  0
 21 16  1  0  0  0
  2  5  1  0  0  0
 13 14  1  0  0  0
  9 11  1  0  0  0
M  END
> <minimizedAffinity>
-6.87141

> <CNNscore>
0.3529196084

> <CNNaffinity>
5.2035665512

> <CNN_VS>
1.8364406824

> <CNNaffinity_variance>
0.1027737036

$$$$
[H]OC(=O)[C@@]([H])(N([H])C(=O)[C@]([H])(C([H])([H])S[H])C([H])([H])c1c([H])c([H])c([H])c([H])c1[H])C([H])([H])[H]


 21 21  0  0  0  0  0  0  0  0999 V2000
  -12.8611   -8.2956    8.9170 C   0  0  0  0  0  0  0  0  0  0  0  0
  -14.7143   -7.8132    7.2620 N   0  0  0  0  0  0  0  0  0  0  0  0
  -13.9272   -8.7501    7.9879 C   0  0  0  0  0  0  0  0  0  0  0  0
  -14.1540   -9.9987    7.8263 O   0  0  0  0  0  0  0  0  0  0  0  0
  -14.5198   -6.8037    7.4025 H   0  0  0  0  0  0  0  0  0  0  0  0
  -16.9708   -7.3265    6.4130 C   0  0  0  0  0  0  0  0  0  0  0  0
  -15.7466   -8.2418    6.3621 C   0  0  0  0  0  0  0  0  0  0  0  0
  -15.2878   -8.2327    4.9446 C   0  0  0  0  0  0  0  0  0  0  0  0
  -15.4216   -9.3455    4.1562 O   0  0  0  0  0  0  0  0  0  0  0  0
  -14.7789   -7.1722    4.5096 O   0  0  0  0  0  0  0  0  0  0  0  0
  -14.5954   -9.9402    4.0218 H   0  0  0  0  0  0  0  0  0  0  0  0
  -13.5370   -7.6508   10.1112 C   0  0  0  0  0  0  0  0  0  0  0  0
  -13.0275   -5.8964   10.0913 S   0  0  0  0  0  0  0  0  0  0  0  0
  -14.0258   -5.0631   10.5876 H   0  0  0  0  0  0  0  0  0  0  0  0
  -11.8769   -7.3729    8.2578 C   0  0  0  0  0  0  0  0  0  0  0  0
  -10.5469   -7.9452    8.0153 C   0  0  0  0  0  0  0  0  0  0  0  0
   -9.3482   -7.3211    8.2629 C   0  0  0  0  0  0  0  0  0  0  0  0
   -8.1269   -7.9437    8.0074 C   0  0  0  0  0  0  0  0  0  0  0  0
   -8.0706   -9.2173    7.4931 C   0  0  0  0  0  0  0  0  0  0  0  0
   -9.2657   -9.8553    7.2396 C   0  0  0  0  0  0  0  0  0  0  0  0
  -10.4725   -9.2398    7.4925 C   0  0  0  0  0  0  0  0  0  0  0  0
  6  7  1  0  0  0
  7  2  1  0  0  0
  2  3  1  0  0  0
  3  4  2  0  0  0
  3  1  1  0  0  0
  1 12  1  0  0  0
 12 13  1  0  0  0
  1 15  1  0  0  0
 15 16  1  0  0  0
 16 17  2  0  0  0
 17 18  1  0  0  0
 18 19  2  0  0  0
 19 20  1  0  0  0
 20 21  2  0  0  0
  7  8  1  0  0  0
  8  9  1  0  0  0
  8 10  2  0  0  0
 21 16  1  0  0  0
  2  5  1  0  0  0
 13 14  1  0  0  0
  9 11  1  0  0  0
M  END
> <minimizedAffinity>
-7.05159

> <CNNscore>
0.3351758718

> <CNNaffinity>
5.4860315323

> <CNN_VS>
1.8387854099

> <CNNaffinity_variance>
0.0589814112

$$$$
[H]OC(=O)[C@@]([H])(N([H])C(=O)[C@]([H])(C([H])([H])S[H])C([H])([H])c1c([H])c([H])c([H])c([H])c1[H])C([H])([H])[H]


 21 21  0  0  0  0  0  0  0  0999 V2000
  -13.2537   -7.7444    8.7091 C   0  0  0  0  0  0  0  0  0  0  0  0
  -14.2802   -6.7821    6.6053 N   0  0  0  0  0  0  0  0  0  0  0  0
  -14.4269   -7.4761    7.8385 C   0  0  0  0  0  0  0  0  0  0  0  0
  -15.5935   -7.8682    8.1878 O   0  0  0  0  0  0  0  0  0  0  0  0
  -13.3286   -6.4698    6.3341 H   0  0  0  0  0  0  0  0  0  0  0  0
  -15.1499   -5.3474    4.8066 C   0  0  0  0  0  0  0  0  0  0  0  0
  -15.4070   -6.5178    5.7571 C   0  0  0  0  0  0  0  0  0  0  0  0
  -15.7363   -7.6839    4.8901 C   0  0  0  0  0  0  0  0  0  0  0  0
  -16.5263   -8.7029    5.3542 O   0  0  0  0  0  0  0  0  0  0  0  0
  -15.2630   -7.6914    3.7288 O   0  0  0  0  0  0  0  0  0  0  0  0
  -16.0626   -9.5594    5.6794 H   0  0  0  0  0  0  0  0  0  0  0  0
  -13.6301   -7.3455   10.1226 C   0  0  0  0  0  0  0  0  0  0  0  0
  -13.0294   -5.6337   10.3393 S   0  0  0  0  0  0  0  0  0  0  0  0
  -13.8522   -4.9017   11.1904 H   0  0  0  0  0  0  0  0  0  0  0  0
  -12.0125   -7.0447    8.2355 C   0  0  0  0  0  0  0  0  0  0  0  0
  -10.8708   -7.9211    7.9465 C   0  0  0  0  0  0  0  0  0  0  0  0
  -10.9468   -9.1957    7.4390 C   0  0  0  0  0  0  0  0  0  0  0  0
   -9.8063   -9.9579    7.1882 C   0  0  0  0  0  0  0  0  0  0  0  0
   -8.5489   -9.4625    7.4402 C   0  0  0  0  0  0  0  0  0  0  0  0
   -8.4579   -8.1852    7.9497 C   0  0  0  0  0  0  0  0  0  0  0  0
   -9.5852   -7.4321    8.1973 C   0  0  0  0  0  0  0  0  0  0  0  0
  6  7  1  0  0  0
  7  2  1  0  0  0
  2  3  1  0  0  0
  3  4  2  0  0  0
  3  1  1  0  0  0
  1 12  1  0  0  0
 12 13  1  0  0  0
  1 15  1  0  0  0
 15 16  1  0  0  0
 16 17  2  0  0  0
 17 18  1  0  0  0
 18 19  2  0  0  0
 19 20  1  0  0  0
 20 21  2  0  0  0
  7  8  1  0  0  0
  8  9  1  0  0  0
  8 10  2  0  0  0
 21 16  1  0  0  0
  2  5  1  0  0  0
 13 14  1  0  0  0
  9 11  1  0  0  0
M  END
> <minimizedAffinity>
-7.32529

> <CNNscore>
0.3345333934

> <CNNaffinity>
5.4872655869

> <CNN_VS>
1.8356735706

> <CNNaffinity_variance>
0.2172091007

$$$$
[H]c1nc2c([H])c([H])c([H])c(-c3c([H])nn4c([H])c(-c5c([H])c([H])c(N6C([H])([H])C([H])([H])N(C([H])([H])[H])C([H])([H])C6([H])[H])c([H])c5[H])c([H])nc34)c2c([H])c1[H]


 32 37  0  0  0  0  0  0  0  0999 V2000
  -10.0845   -8.4447    7.7569 C   0  0  0  0  0  0  0  0  0  0  0  0
   -9.1640   -8.3739    8.7998 C   0  0  0  0  0  0  0  0  0  0  0  0
   -9.4460   -7.5893    9.8242 N   0  0  0  0  0  0  0  0  0  0  0  0
  -10.5657   -6.8340    9.9575 C   0  0  0  0  0  0  0  0  0  0  0  0
  -11.0477   -5.9658   10.9158 C   0  0  0  0  0  0  0  0  0  0  0  0
  -12.2580   -5.5111   10.4547 C   0  0  0  0  0  0  0  0  0  0  0  0
  -12.4730   -6.0960    9.2665 N   0  0  0  0  0  0  0  0  0  0  0  0
  -11.4592   -6.8956    8.9565 N   0  0  0  0  0  0  0  0  0  0  0  0
  -11.2283   -7.6863    7.8709 C   0  0  0  0  0  0  0  0  0  0  0  0
  -10.3940   -5.6682   12.1811 C   0  0  0  0  0  0  0  0  0  0  0  0
  -11.1945   -5.1972   13.2386 C   0  0  0  0  0  0  0  0  0  0  0  0
  -10.6054   -4.8672   14.4075 C   0  0  0  0  0  0  0  0  0  0  0  0
   -9.2612   -4.9847   14.5706 C   0  0  0  0  0  0  0  0  0  0  0  0
   -8.4638   -5.4426   13.5535 C   0  0  0  0  0  0  0  0  0  0  0  0
   -7.1246   -5.5746   13.7094 N   0  0  0  0  0  0  0  0  0  0  0  0
   -6.3331   -6.0318   12.7277 C   0  0  0  0  0  0  0  0  0  0  0  0
   -6.8400   -6.3948   11.5021 C   0  0  0  0  0  0  0  0  0  0  0  0
   -8.1995   -6.2742   11.3061 C   0  0  0  0  0  0  0  0  0  0  0  0
   -9.0146   -5.8025   12.3139 C   0  0  0  0  0  0  0  0  0  0  0  0
   -9.2160  -10.9572    4.4203 C   0  0  0  0  0  0  0  0  0  0  0  0
   -8.2181  -10.3594    5.1577 C   0  0  0  0  0  0  0  0  0  0  0  0
   -8.4894   -9.5290    6.2587 C   0  0  0  0  0  0  0  0  0  0  0  0
   -9.7916   -9.2998    6.6187 C   0  0  0  0  0  0  0  0  0  0  0  0
  -10.7732   -9.8983    5.8789 C   0  0  0  0  0  0  0  0  0  0  0  0
  -10.5195  -10.7191    4.7920 C   0  0  0  0  0  0  0  0  0  0  0  0
   -8.3870  -13.5955    0.5290 C   0  0  0  0  0  0  0  0  0  0  0  0
   -7.3318  -13.1457    1.3816 N   0  0  0  0  0  0  0  0  0  0  0  0
   -7.3987  -13.6599    2.7302 C   0  0  0  0  0  0  0  0  0  0  0  0
   -8.6264  -13.2319    3.4611 C   0  0  0  0  0  0  0  0  0  0  0  0
   -8.8611  -11.8053    3.3185 N   0  0  0  0  0  0  0  0  0  0  0  0
   -8.7022  -11.2712    1.9770 C   0  0  0  0  0  0  0  0  0  0  0  0
   -7.3374  -11.7076    1.4723 C   0  0  0  0  0  0  0  0  0  0  0  0
 26 27  1  0  0  0
 27 28  1  0  0  0
 28 29  1  0  0  0
 29 30  1  0  0  0
 30 31  1  0  0  0
 31 32  1  0  0  0
 30 20  1  0  0  0
 20 21  2  0  0  0
 21 22  1  0  0  0
 22 23  2  0  0  0
 23 24  1  0  0  0
 24 25  2  0  0  0
 23  1  1  0  0  0
  1  2  1  0  0  0
  2  3  2  0  0  0
  3  4  1  0  0  0
  4  5  2  0  0  0
  5  6  1  0  0  0
  6  7  2  0  0  0
  7  8  1  0  0  0
  8  9  1  0  0  0
  5 10  1  0  0  0
 10 11  2  0  0  0
 11 12  1  0  0  0
 12 13  2  0  0  0
 13 14  1  0  0  0
 14 15  2  0  0  0
 15 16  1  0  0  0
 16 17  2  0  0  0
 17 18  1  0  0  0
 18 19  2  0  0  0
 32 27  1  0  0  0
 25 20  1  0  0  0
  9  1  2  0  0  0
 19 10  1  0  0  0
  8  4  1  0  0  0
 19 14  1  0  0  0
M  END
> <minimizedAffinity>
30.51538

> <CNNscore>
0.4434981644

> <CNNaffinity>
6.0641875267

> <CNN_VS>
2.6894559860

> <CNNaffinity_variance>
0.9664521217

$$$$
[H]c1nc2c([H])c([H])c([H])c(-c3c([H])nn4c([H])c(-c5c([H])c([H])c(N6C([H])([H])C([H])([H])N(C([H])([H])[H])C([H])([H])C6([H])[H])c([H])c5[H])c([H])nc34)c2c([H])c1[H]


 32 37  0  0  0  0  0  0  0  0999 V2000
  -10.9769   -9.9916    6.4368 C   0  0  0  0  0  0  0  0  0  0  0  0
  -10.4898   -9.6077    7.6839 C   0  0  0  0  0  0  0  0  0  0  0  0
  -11.1191   -8.6392    8.3245 N   0  0  0  0  0  0  0  0  0  0  0  0
  -12.2125   -7.9729    7.8743 C   0  0  0  0  0  0  0  0  0  0  0  0
  -13.0050   -6.9554    8.3656 C   0  0  0  0  0  0  0  0  0  0  0  0
  -13.9706   -6.7230    7.4180 C   0  0  0  0  0  0  0  0  0  0  0  0
  -13.7469   -7.5778    6.4083 N   0  0  0  0  0  0  0  0  0  0  0  0
  -12.6894   -8.3362    6.6724 N   0  0  0  0  0  0  0  0  0  0  0  0
  -12.0859   -9.3288    5.9600 C   0  0  0  0  0  0  0  0  0  0  0  0
  -12.8465   -6.3242    9.6668 C   0  0  0  0  0  0  0  0  0  0  0  0
  -13.9965   -5.8007   10.2867 C   0  0  0  0  0  0  0  0  0  0  0  0
  -13.8691   -5.1666   11.4716 C   0  0  0  0  0  0  0  0  0  0  0  0
  -12.6538   -5.0309   12.0648 C   0  0  0  0  0  0  0  0  0  0  0  0
  -11.5214   -5.5347   11.4781 C   0  0  0  0  0  0  0  0  0  0  0  0
  -10.3070   -5.4152   12.0664 N   0  0  0  0  0  0  0  0  0  0  0  0
   -9.1922   -5.9126   11.5104 C   0  0  0  0  0  0  0  0  0  0  0  0
   -9.2206   -6.5759   10.3063 C   0  0  0  0  0  0  0  0  0  0  0  0
  -10.4394   -6.7172    9.6773 C   0  0  0  0  0  0  0  0  0  0  0  0
  -11.5864   -6.2047   10.2467 C   0  0  0  0  0  0  0  0  0  0  0  0
   -8.9755  -13.1010    4.3094 C   0  0  0  0  0  0  0  0  0  0  0  0
   -9.1881  -11.8601    3.7509 C   0  0  0  0  0  0  0  0  0  0  0  0
   -9.8463  -10.8268    4.4396 C   0  0  0  0  0  0  0  0  0  0  0  0
  -10.2968  -11.0534    5.7138 C   0  0  0  0  0  0  0  0  0  0  0  0
  -10.0803  -12.2890    6.2571 C   0  0  0  0  0  0  0  0  0  0  0  0
   -9.4327  -13.3159    5.5895 C   0  0  0  0  0  0  0  0  0  0  0  0
   -7.0187  -16.4226    1.4936 C   0  0  0  0  0  0  0  0  0  0  0  0
   -6.2279  -15.4766    2.2163 N   0  0  0  0  0  0  0  0  0  0  0  0
   -6.3482  -15.5769    3.6527 C   0  0  0  0  0  0  0  0  0  0  0  0
   -7.7295  -15.3063    4.1460 C   0  0  0  0  0  0  0  0  0  0  0  0
   -8.2814  -14.1016    3.5503 N   0  0  0  0  0  0  0  0  0  0  0  0
   -8.0785  -13.9561    2.1193 C   0  0  0  0  0  0  0  0  0  0  0  0
   -6.5937  -14.1318    1.8502 C   0  0  0  0  0  0  0  0  0  0  0  0
 26 27  1  0  0  0
 27 28  1  0  0  0
 28 29  1  0  0  0
 29 30  1  0  0  0
 30 31  1  0  0  0
 31 32  1  0  0  0
 30 20  1  0  0  0
 20 21  2  0  0  0
 21 22  1  0  0  0
 22 23  2  0  0  0
 23 24  1  0  0  0
 24 25  2  0  0  0
 23  1  1  0  0  0
  1  2  1  0  0  0
  2  3  2  0  0  0
  3  4  1  0  0  0
  4  5  2  0  0  0
  5  6  1  0  0  0
  6  7  2  0  0  0
  7  8  1  0  0  0
  8  9  1  0  0  0
  5 10  1  0  0  0
 10 11  2  0  0  0
 11 12  1  0  0  0
 12 13  2  0  0  0
 13 14  1  0  0  0
 14 15  2  0  0  0
 15 16  1  0  0  0
 16 17  2  0  0  0
 17 18  1  0  0  0
 18 19  2  0  0  0
 32 27  1  0  0  0
 25 20  1  0  0  0
  9  1  2  0  0  0
 19 10  1  0  0  0
  8  4  1  0  0  0
 19 14  1  0  0  0
M  END
> <minimizedAffinity>
30.86201

> <CNNscore>
0.3599891663

> <CNNaffinity>
6.2197093964

> <CNN_VS>
2.2390279770

> <CNNaffinity_variance>
1.5380632877

$$$$
[H]c1nc2c([H])c([H])c([H])c(-c3c([H])nn4c([H])c(-c5c([H])c([H])c(N6C([H])([H])C([H])([H])N(C([H])([H])[H])C([H])([H])C6([H])[H])c([H])c5[H])c([H])nc34)c2c([H])c1[H]


 32 37  0  0  0  0  0  0  0  0999 V2000
  -11.0860   -7.1784    8.1580 C   0  0  0  0  0  0  0  0  0  0  0  0
  -11.8037   -6.1008    7.6444 C   0  0  0  0  0  0  0  0  0  0  0  0
  -12.8162   -6.3582    6.8364 N   0  0  0  0  0  0  0  0  0  0  0  0
  -13.2289   -7.5933    6.4539 C   0  0  0  0  0  0  0  0  0  0  0  0
  -14.2328   -8.0771    5.6396 C   0  0  0  0  0  0  0  0  0  0  0  0
  -14.1238   -9.4453    5.6597 C   0  0  0  0  0  0  0  0  0  0  0  0
  -13.0900   -9.7475    6.4597 N   0  0  0  0  0  0  0  0  0  0  0  0
  -12.5428   -8.6388    6.9441 N   0  0  0  0  0  0  0  0  0  0  0  0
  -11.4874   -8.4413    7.7831 C   0  0  0  0  0  0  0  0  0  0  0  0
  -15.2275   -7.2604    4.9613 C   0  0  0  0  0  0  0  0  0  0  0  0
  -14.8178   -6.0126    4.4551 C   0  0  0  0  0  0  0  0  0  0  0  0
  -15.7326   -5.2144    3.8648 C   0  0  0  0  0  0  0  0  0  0  0  0
  -17.0311   -5.6007    3.7560 C   0  0  0  0  0  0  0  0  0  0  0  0
  -17.4504   -6.8126    4.2414 C   0  0  0  0  0  0  0  0  0  0  0  0
  -18.7398   -7.2123    4.1277 N   0  0  0  0  0  0  0  0  0  0  0  0
  -19.1626   -8.3994    4.5872 C   0  0  0  0  0  0  0  0  0  0  0  0
  -18.3058   -9.2818    5.2020 C   0  0  0  0  0  0  0  0  0  0  0  0
  -16.9849   -8.9096    5.3359 C   0  0  0  0  0  0  0  0  0  0  0  0
  -16.5489   -7.6885    4.8655 C   0  0  0  0  0  0  0  0  0  0  0  0
   -7.7923   -6.4089   10.7578 C   0  0  0  0  0  0  0  0  0  0  0  0
   -7.6190   -6.9796    9.5163 C   0  0  0  0  0  0  0  0  0  0  0  0
   -8.6946   -7.2393    8.6498 C   0  0  0  0  0  0  0  0  0  0  0  0
   -9.9660   -6.9166    9.0465 C   0  0  0  0  0  0  0  0  0  0  0  0
  -10.1253   -6.3512   10.2809 C   0  0  0  0  0  0  0  0  0  0  0  0
   -9.0739   -6.0896   11.1444 C   0  0  0  0  0  0  0  0  0  0  0  0
   -4.1980   -5.2209   13.6665 C   0  0  0  0  0  0  0  0  0  0  0  0
   -4.4773   -6.5786   13.3183 N   0  0  0  0  0  0  0  0  0  0  0  0
   -4.3393   -6.8705   11.9099 C   0  0  0  0  0  0  0  0  0  0  0  0
   -5.2904   -6.1023   11.0556 C   0  0  0  0  0  0  0  0  0  0  0  0
   -6.6437   -6.1593   11.5810 N   0  0  0  0  0  0  0  0  0  0  0  0
   -6.7727   -5.9582   13.0138 C   0  0  0  0  0  0  0  0  0  0  0  0
   -5.8232   -6.9279   13.6966 C   0  0  0  0  0  0  0  0  0  0  0  0
 26 27  1  0  0  0
 27 28  1  0  0  0
 28 29  1  0  0  0
 29 30  1  0  0  0
 30 31  1  0  0  0
 31 32  1  0  0  0
 30 20  1  0  0  0
 20 21  2  0  0  0
 21 22  1  0  0  0
 22 23  2  0  0  0
 23 24  1  0  0  0
 24 25  2  0  0  0
 23  1  1  0  0  0
  1  2  1  0  0  0
  2  3  2  0  0  0
  3  4  1  0  0  0
  4  5  2  0  0  0
  5  6  1  0  0  0
  6  7  2  0  0  0
  7  8  1  0  0  0
  8  9  1  0  0  0
  5 10  1  0  0  0
 10 11  2  0  0  0
 11 12  1  0  0  0
 12 13  2  0  0  0
 13 14  1  0  0  0
 14 15  2  0  0  0
 15 16  1  0  0  0
 16 17  2  0  0  0
 17 18  1  0  0  0
 18 19  2  0  0  0
 32 27  1  0  0  0
 25 20  1  0  0  0
  9  1  2  0  0  0
 19 10  1  0  0  0
  8  4  1  0  0  0
 19 14  1  0  0  0
M  END
> <minimizedAffinity>
12.77898

> <CNNscore>
0.3208686411

> <CNNaffinity>
6.5252580643

> <CNN_VS>
2.0937507153

> <CNNaffinity_variance>
1.2907727957

$$$$
[H]c1nc2c([H])c([H])c([H])c(-c3c([H])nn4c([H])c(-c5c([H])c([H])c(N6C([H])([H])C([H])([H])N(C([H])([H])[H])C([H])([H])C6([H])[H])c([H])c5[H])c([H])nc34)c2c([H])c1[H]


 32 37  0  0  0  0  0  0  0  0999 V2000
   -2.7476   -6.3309    5.9240 C   0  0  0  0  0  0  0  0  0  0  0  0
   -2.7956   -5.1213    6.6129 C   0  0  0  0  0  0  0  0  0  0  0  0
   -2.8305   -4.0059    5.9065 N   0  0  0  0  0  0  0  0  0  0  0  0
   -2.8237   -3.9270    4.5516 C   0  0  0  0  0  0  0  0  0  0  0  0
   -2.8521   -2.8957    3.6349 C   0  0  0  0  0  0  0  0  0  0  0  0
   -2.8214   -3.4791    2.3927 C   0  0  0  0  0  0  0  0  0  0  0  0
   -2.7766   -4.8067    2.5809 N   0  0  0  0  0  0  0  0  0  0  0  0
   -2.7774   -5.0884    3.8786 N   0  0  0  0  0  0  0  0  0  0  0  0
   -2.7398   -6.2747    4.5480 C   0  0  0  0  0  0  0  0  0  0  0  0
   -2.9562   -1.4830    3.9665 C   0  0  0  0  0  0  0  0  0  0  0  0
   -1.9201   -0.6307    3.5406 C   0  0  0  0  0  0  0  0  0  0  0  0
   -1.9682    0.6756    3.8776 C   0  0  0  0  0  0  0  0  0  0  0  0
   -2.9966    1.1697    4.6160 C   0  0  0  0  0  0  0  0  0  0  0  0
   -4.0163    0.3567    5.0398 C   0  0  0  0  0  0  0  0  0  0  0  0
   -5.0519    0.8414    5.7663 N   0  0  0  0  0  0  0  0  0  0  0  0
   -6.0621    0.0610    6.1782 C   0  0  0  0  0  0  0  0  0  0  0  0
   -6.1032   -1.2815    5.8836 C   0  0  0  0  0  0  0  0  0  0  0  0
   -5.0659   -1.8110    5.1455 C   0  0  0  0  0  0  0  0  0  0  0  0
   -4.0255   -1.0103    4.7227 C   0  0  0  0  0  0  0  0  0  0  0  0
   -2.6239   -9.9728    8.1422 C   0  0  0  0  0  0  0  0  0  0  0  0
   -3.2128   -9.8999    6.8994 C   0  0  0  0  0  0  0  0  0  0  0  0
   -3.2614   -8.7070    6.1577 C   0  0  0  0  0  0  0  0  0  0  0  0
   -2.7054   -7.5699    6.6828 C   0  0  0  0  0  0  0  0  0  0  0  0
   -2.1243   -7.6548    7.9173 C   0  0  0  0  0  0  0  0  0  0  0  0
   -2.0693   -8.8240    8.6585 C   0  0  0  0  0  0  0  0  0  0  0  0
   -2.9406  -14.0374   10.6262 C   0  0  0  0  0  0  0  0  0  0  0  0
   -2.3134  -13.9772    9.3433 N   0  0  0  0  0  0  0  0  0  0  0  0
   -1.1456  -13.1278    9.2931 C   0  0  0  0  0  0  0  0  0  0  0  0
   -1.4477  -11.6971    9.5866 C   0  0  0  0  0  0  0  0  0  0  0  0
   -2.5989  -11.2303    8.8332 N   0  0  0  0  0  0  0  0  0  0  0  0
   -3.7408  -12.1278    8.8064 C   0  0  0  0  0  0  0  0  0  0  0  0
   -3.2395  -13.4885    8.3535 C   0  0  0  0  0  0  0  0  0  0  0  0
 26 27  1  0  0  0
 27 28  1  0  0  0
 28 29  1  0  0  0
 29 30  1  0  0  0
 30 31  1  0  0  0
 31 32  1  0  0  0
 30 20  1  0  0  0
 20 21  2  0  0  0
 21 22  1  0  0  0
 22 23  2  0  0  0
 23 24  1  0  0  0
 24 25  2  0  0  0
 23  1  1  0  0  0
  1  2  1  0  0  0
  2  3  2  0  0  0
  3  4  1  0  0  0
  4  5  2  0  0  0
  5  6  1  0  0  0
  6  7  2  0  0  0
  7  8  1  0  0  0
  8  9  1  0  0  0
  5 10  1  0  0  0
 10 11  2  0  0  0
 11 12  1  0  0  0
 12 13  2  0  0  0
 13 14  1  0  0  0
 14 15  2  0  0  0
 15 16  1  0  0  0
 16 17  2  0  0  0
 17 18  1  0  0  0
 18 19  2  0  0  0
 32 27  1  0  0  0
 25 20  1  0  0  0
  9  1  2  0  0  0
 19 10  1  0  0  0
  8  4  1  0  0  0
 19 14  1  0  0  0
M  END
> <minimizedAffinity>
13.84798

> <CNNscore>
0.3167097569

> <CNNaffinity>
5.3516697884

> <CNN_VS>
1.6949260235

> <CNNaffinity_variance>
1.5662895441

$$$$
[H]c1nc2c([H])c([H])c([H])c(-c3c([H])nn4c([H])c(-c5c([H])c([H])c(N6C([H])([H])C([H])([H])N(C([H])([H])[H])C([H])([H])C6([H])[H])c([H])c5[H])c([H])nc34)c2c([H])c1[H]


 32 37  0  0  0  0  0  0  0  0999 V2000
  -10.6469   -7.1897    7.2144 C   0  0  0  0  0  0  0  0  0  0  0  0
  -11.4655   -7.9479    8.0482 C   0  0  0  0  0  0  0  0  0  0  0  0
  -12.7691   -7.9092    7.8401 N   0  0  0  0  0  0  0  0  0  0  0  0
  -13.3953   -7.1887    6.8753 C   0  0  0  0  0  0  0  0  0  0  0  0
  -14.7086   -7.0064    6.4922 C   0  0  0  0  0  0  0  0  0  0  0  0
  -14.6861   -6.1393    5.4283 C   0  0  0  0  0  0  0  0  0  0  0  0
  -13.4013   -5.8275    5.1999 N   0  0  0  0  0  0  0  0  0  0  0  0
  -12.6141   -6.4543    6.0664 N   0  0  0  0  0  0  0  0  0  0  0  0
  -11.2610   -6.4505    6.2280 C   0  0  0  0  0  0  0  0  0  0  0  0
  -15.8555   -7.6724    7.0902 C   0  0  0  0  0  0  0  0  0  0  0  0
  -15.7701   -8.0344    8.4477 C   0  0  0  0  0  0  0  0  0  0  0  0
  -16.8011   -8.6972    9.0135 C   0  0  0  0  0  0  0  0  0  0  0  0
  -17.9086   -9.0141    8.2922 C   0  0  0  0  0  0  0  0  0  0  0  0
  -18.0122   -8.6695    6.9691 C   0  0  0  0  0  0  0  0  0  0  0  0
  -19.1164   -8.9704    6.2442 N   0  0  0  0  0  0  0  0  0  0  0  0
  -19.2371   -8.6300    4.9524 C   0  0  0  0  0  0  0  0  0  0  0  0
  -18.2416   -7.9523    4.2887 C   0  0  0  0  0  0  0  0  0  0  0  0
  -17.1019   -7.6287    4.9942 C   0  0  0  0  0  0  0  0  0  0  0  0
  -16.9754   -7.9796    6.3221 C   0  0  0  0  0  0  0  0  0  0  0  0
   -6.4272   -7.2576    7.8379 C   0  0  0  0  0  0  0  0  0  0  0  0
   -6.9879   -6.6557    6.7333 C   0  0  0  0  0  0  0  0  0  0  0  0
   -8.3759   -6.6263    6.5147 C   0  0  0  0  0  0  0  0  0  0  0  0
   -9.2096   -7.2158    7.4286 C   0  0  0  0  0  0  0  0  0  0  0  0
   -8.6412   -7.8104    8.5206 C   0  0  0  0  0  0  0  0  0  0  0  0
   -7.2751   -7.8462    8.7482 C   0  0  0  0  0  0  0  0  0  0  0  0
   -1.7124   -7.6198    8.4940 C   0  0  0  0  0  0  0  0  0  0  0  0
   -2.2791   -6.7441    7.5169 N   0  0  0  0  0  0  0  0  0  0  0  0
   -3.1127   -5.7004    8.0679 C   0  0  0  0  0  0  0  0  0  0  0  0
   -4.3112   -6.2240    8.7848 C   0  0  0  0  0  0  0  0  0  0  0  0
   -5.0017   -7.2338    8.0011 N   0  0  0  0  0  0  0  0  0  0  0  0
   -4.1541   -8.2303    7.3697 C   0  0  0  0  0  0  0  0  0  0  0  0
   -3.0869   -7.4876    6.5838 C   0  0  0  0  0  0  0  0  0  0  0  0
 26 27  1  0  0  0
 27 28  1  0  0  0
 28 29  1  0  0  0
 29 30  1  0  0  0
 30 31  1  0  0  0
 31 32  1  0  0  0
 30 20  1  0  0  0
 20 21  2  0  0  0
 21 22  1  0  0  0
 22 23  2  0  0  0
 23 24  1  0  0  0
 24 25  2  0  0  0
 23  1  1  0  0  0
  1  2  1  0  0  0
  2  3  2  0  0  0
  3  4  1  0  0  0
  4  5  2  0  0  0
  5  6  1  0  0  0
  6  7  2  0  0  0
  7  8  1  0  0  0
  8  9  1  0  0  0
  5 10  1  0  0  0
 10 11  2  0  0  0
 11 12  1  0  0  0
 12 13  2  0  0  0
 13 14  1  0  0  0
 14 15  2  0  0  0
 15 16  1  0  0  0
 16 17  2  0  0  0
 17 18  1  0  0  0
 18 19  2  0  0  0
 32 27  1  0  0  0
 25 20  1  0  0  0
  9  1  2  0  0  0
 19 10  1  0  0  0
  8  4  1  0  0  0
 19 14  1  0  0  0
M  END
> <minimizedAffinity>
5.43431

> <CNNscore>
0.3153135478

> <CNNaffinity>
6.8056936264

> <CNN_VS>
2.1459274292

> <CNNaffinity_variance>
2.1010003090

$$$$
[H]c1nc2c([H])c([H])c([H])c(-c3c([H])nn4c([H])c(-c5c([H])c([H])c(N6C([H])([H])C([H])([H])N(C([H])([H])[H])C([H])([H])C6([H])[H])c([H])c5[H])c([H])nc34)c2c([H])c1[H]


 32 37  0  0  0  0  0  0  0  0999 V2000
  -10.9573   -9.1865    6.7564 C   0  0  0  0  0  0  0  0  0  0  0  0
  -10.3749   -9.2103    8.0214 C   0  0  0  0  0  0  0  0  0  0  0  0
  -10.8806   -8.4217    8.9524 N   0  0  0  0  0  0  0  0  0  0  0  0
  -11.9306   -7.5774    8.7891 C   0  0  0  0  0  0  0  0  0  0  0  0
  -12.6019   -6.6877    9.6030 C   0  0  0  0  0  0  0  0  0  0  0  0
  -13.5893   -6.1255    8.8328 C   0  0  0  0  0  0  0  0  0  0  0  0
  -13.4954   -6.6707    7.6105 N   0  0  0  0  0  0  0  0  0  0  0  0
  -12.4988   -7.5475    7.5725 N   0  0  0  0  0  0  0  0  0  0  0  0
  -12.0246   -8.3368    6.5680 C   0  0  0  0  0  0  0  0  0  0  0  0
  -12.3211   -6.4668   11.0133 C   0  0  0  0  0  0  0  0  0  0  0  0
  -11.7431   -5.2378   11.3829 C   0  0  0  0  0  0  0  0  0  0  0  0
  -11.4275   -5.0272   12.6784 C   0  0  0  0  0  0  0  0  0  0  0  0
  -11.6605   -5.9805   13.6186 C   0  0  0  0  0  0  0  0  0  0  0  0
  -12.2238   -7.1839   13.2797 C   0  0  0  0  0  0  0  0  0  0  0  0
  -12.4709   -8.1363   14.2108 N   0  0  0  0  0  0  0  0  0  0  0  0
  -13.0317   -9.3136   13.8965 C   0  0  0  0  0  0  0  0  0  0  0  0
  -13.3896   -9.6204   12.6048 C   0  0  0  0  0  0  0  0  0  0  0  0
  -13.1533   -8.6752   11.6292 C   0  0  0  0  0  0  0  0  0  0  0  0
  -12.5751   -7.4648   11.9503 C   0  0  0  0  0  0  0  0  0  0  0  0
   -9.3593  -11.7116    3.7119 C   0  0  0  0  0  0  0  0  0  0  0  0
   -8.8989  -11.7584    5.0090 C   0  0  0  0  0  0  0  0  0  0  0  0
   -9.4154  -10.9322    6.0220 C   0  0  0  0  0  0  0  0  0  0  0  0
  -10.4137  -10.0444    5.7167 C   0  0  0  0  0  0  0  0  0  0  0  0
  -10.8619  -10.0070    4.4258 C   0  0  0  0  0  0  0  0  0  0  0  0
  -10.3618  -10.8158    3.4182 C   0  0  0  0  0  0  0  0  0  0  0  0
   -7.8157  -14.5325    0.1833 C   0  0  0  0  0  0  0  0  0  0  0  0
   -6.9195  -13.9096    1.1060 N   0  0  0  0  0  0  0  0  0  0  0  0
   -7.0977  -14.3247    2.4784 C   0  0  0  0  0  0  0  0  0  0  0  0
   -8.4402  -13.9763    3.0271 C   0  0  0  0  0  0  0  0  0  0  0  0
   -8.7936  -12.5978    2.7351 N   0  0  0  0  0  0  0  0  0  0  0  0
   -8.5273  -12.1526    1.3782 C   0  0  0  0  0  0  0  0  0  0  0  0
   -7.0757  -12.4776    1.0695 C   0  0  0  0  0  0  0  0  0  0  0  0
 26 27  1  0  0  0
 27 28  1  0  0  0
 28 29  1  0  0  0
 29 30  1  0  0  0
 30 31  1  0  0  0
 31 32  1  0  0  0
 30 20  1  0  0  0
 20 21  2  0  0  0
 21 22  1  0  0  0
 22 23  2  0  0  0
 23 24  1  0  0  0
 24 25  2  0  0  0
 23  1  1  0  0  0
  1  2  1  0  0  0
  2  3  2  0  0  0
  3  4  1  0  0  0
  4  5  2  0  0  0
  5  6  1  0  0  0
  6  7  2  0  0  0
  7  8  1  0  0  0
  8  9  1  0  0  0
  5 10  1  0  0  0
 10 11  2  0  0  0
 11 12  1  0  0  0
 12 13  2  0  0  0
 13 14  1  0  0  0
 14 15  2  0  0  0
 15 16  1  0  0  0
 16 17  2  0  0  0
 17 18  1  0  0  0
 18 19  2  0  0  0
 32 27  1  0  0  0
 25 20  1  0  0  0
  9  1  2  0  0  0
 19 10  1  0  0  0
  8  4  1  0  0  0
 19 14  1  0  0  0
M  END
> <minimizedAffinity>
40.49968

> <CNNscore>
0.2813445330

> <CNNaffinity>
6.0485115051

> <CNN_VS>
1.7017155886

> <CNNaffinity_variance>
0.8567899466

$$$$
[H]c1nc2c([H])c([H])c([H])c(-c3c([H])nn4c([H])c(-c5c([H])c([H])c(N6C([H])([H])C([H])([H])N(C([H])([H])[H])C([H])([H])C6([H])[H])c([H])c5[H])c([H])nc34)c2c([H])c1[H]


 32 37  0  0  0  0  0  0  0  0999 V2000
   -8.3139   -6.2566   11.0968 C   0  0  0  0  0  0  0  0  0  0  0  0
   -7.0110   -6.4155   10.6308 C   0  0  0  0  0  0  0  0  0  0  0  0
   -6.0184   -6.1217   11.4511 N   0  0  0  0  0  0  0  0  0  0  0  0
   -6.1514   -5.6724   12.7249 C   0  0  0  0  0  0  0  0  0  0  0  0
   -5.2749   -5.3123   13.7282 C   0  0  0  0  0  0  0  0  0  0  0  0
   -6.0450   -4.9358   14.8004 C   0  0  0  0  0  0  0  0  0  0  0  0
   -7.3280   -5.0726   14.4324 N   0  0  0  0  0  0  0  0  0  0  0  0
   -7.4043   -5.5159   13.1831 N   0  0  0  0  0  0  0  0  0  0  0  0
   -8.4726   -5.8016   12.3869 C   0  0  0  0  0  0  0  0  0  0  0  0
   -3.8247   -5.3911   13.6416 C   0  0  0  0  0  0  0  0  0  0  0  0
   -3.1505   -4.3571   12.9653 C   0  0  0  0  0  0  0  0  0  0  0  0
   -1.8096   -4.4314   12.8283 C   0  0  0  0  0  0  0  0  0  0  0  0
   -1.1126   -5.4838   13.3321 C   0  0  0  0  0  0  0  0  0  0  0  0
   -1.7501   -6.5006   13.9952 C   0  0  0  0  0  0  0  0  0  0  0  0
   -1.0636   -7.5482   14.5114 N   0  0  0  0  0  0  0  0  0  0  0  0
   -1.6717   -8.5445   15.1724 C   0  0  0  0  0  0  0  0  0  0  0  0
   -3.0333   -8.5573   15.3645 C   0  0  0  0  0  0  0  0  0  0  0  0
   -3.7658   -7.5071   14.8530 C   0  0  0  0  0  0  0  0  0  0  0  0
   -3.1423   -6.4829   14.1716 C   0  0  0  0  0  0  0  0  0  0  0  0
  -11.5579   -7.1897    8.4881 C   0  0  0  0  0  0  0  0  0  0  0  0
  -10.3008   -7.7205    8.3014 C   0  0  0  0  0  0  0  0  0  0  0  0
   -9.2229   -7.4215    9.1523 C   0  0  0  0  0  0  0  0  0  0  0  0
   -9.4206   -6.5714   10.2087 C   0  0  0  0  0  0  0  0  0  0  0  0
  -10.6724   -6.0507   10.3834 C   0  0  0  0  0  0  0  0  0  0  0  0
  -11.7434   -6.3373    9.5525 C   0  0  0  0  0  0  0  0  0  0  0  0
  -14.7926   -8.2745    5.1489 C   0  0  0  0  0  0  0  0  0  0  0  0
  -14.6916   -9.0026    6.3745 N   0  0  0  0  0  0  0  0  0  0  0  0
  -14.9558   -8.2145    7.5564 C   0  0  0  0  0  0  0  0  0  0  0  0
  -13.9839   -7.0994    7.7473 C   0  0  0  0  0  0  0  0  0  0  0  0
  -12.6134   -7.5539    7.5867 N   0  0  0  0  0  0  0  0  0  0  0  0
  -12.3667   -8.4233    6.4494 C   0  0  0  0  0  0  0  0  0  0  0  0
  -13.3712   -9.5608    6.5201 C   0  0  0  0  0  0  0  0  0  0  0  0
 26 27  1  0  0  0
 27 28  1  0  0  0
 28 29  1  0  0  0
 29 30  1  0  0  0
 30 31  1  0  0  0
 31 32  1  0  0  0
 30 20  1  0  0  0
 20 21  2  0  0  0
 21 22  1  0  0  0
 22 23  2  0  0  0
 23 24  1  0  0  0
 24 25  2  0  0  0
 23  1  1  0  0  0
  1  2  1  0  0  0
  2  3  2  0  0  0
  3  4  1  0  0  0
  4  5  2  0  0  0
  5  6  1  0  0  0
  6  7  2  0  0  0
  7  8  1  0  0  0
  8  9  1  0  0  0
  5 10  1  0  0  0
 10 11  2  0  0  0
 11 12  1  0  0  0
 12 13  2  0  0  0
 13 14  1  0  0  0
 14 15  2  0  0  0
 15 16  1  0  0  0
 16 17  2  0  0  0
 17 18  1  0  0  0
 18 19  2  0  0  0
 32 27  1  0  0  0
 25 20  1  0  0  0
  9  1  2  0  0  0
 19 10  1  0  0  0
  8  4  1  0  0  0
 19 14  1  0  0  0
M  END
> <minimizedAffinity>
7.57849

> <CNNscore>
0.2575033307

> <CNNaffinity>
6.0762758255

> <CNN_VS>
1.5646612644

> <CNNaffinity_variance>
1.1345241070

$$$$
[H]c1nc2c([H])c([H])c([H])c(-c3c([H])nn4c([H])c(-c5c([H])c([H])c(N6C([H])([H])C([H])([H])N(C([H])([H])[H])C([H])([H])C6([H])[H])c([H])c5[H])c([H])nc34)c2c([H])c1[H]


 32 37  0  0  0  0  0  0  0  0999 V2000
  -11.6049   -7.7060    7.4478 C   0  0  0  0  0  0  0  0  0  0  0  0
  -12.1642   -7.7742    6.1740 C   0  0  0  0  0  0  0  0  0  0  0  0
  -13.4783   -7.8658    6.0774 N   0  0  0  0  0  0  0  0  0  0  0  0
  -14.3476   -7.9002    7.1190 C   0  0  0  0  0  0  0  0  0  0  0  0
  -15.7192   -7.9924    7.2416 C   0  0  0  0  0  0  0  0  0  0  0  0
  -15.9907   -7.9801    8.5871 C   0  0  0  0  0  0  0  0  0  0  0  0
  -14.8151   -7.8838    9.2264 N   0  0  0  0  0  0  0  0  0  0  0  0
  -13.8175   -7.8350    8.3514 N   0  0  0  0  0  0  0  0  0  0  0  0
  -12.4686   -7.7393    8.5199 C   0  0  0  0  0  0  0  0  0  0  0  0
  -16.6585   -8.0311    6.1312 C   0  0  0  0  0  0  0  0  0  0  0  0
  -16.2424   -7.4899    4.9004 C   0  0  0  0  0  0  0  0  0  0  0  0
  -17.1121   -7.4690    3.8681 C   0  0  0  0  0  0  0  0  0  0  0  0
  -18.3717   -7.9607    4.0052 C   0  0  0  0  0  0  0  0  0  0  0  0
  -18.7964   -8.4932    5.1953 C   0  0  0  0  0  0  0  0  0  0  0  0
  -20.0459   -8.9965    5.3391 N   0  0  0  0  0  0  0  0  0  0  0  0
  -20.4718   -9.5310    6.4933 C   0  0  0  0  0  0  0  0  0  0  0  0
  -19.6591   -9.5988    7.6004 C   0  0  0  0  0  0  0  0  0  0  0  0
  -18.3797   -9.0963    7.4919 C   0  0  0  0  0  0  0  0  0  0  0  0
  -17.9407   -8.5447    6.3064 C   0  0  0  0  0  0  0  0  0  0  0  0
   -7.3643   -7.4284    7.8210 C   0  0  0  0  0  0  0  0  0  0  0  0
   -8.0253   -8.6315    7.9326 C   0  0  0  0  0  0  0  0  0  0  0  0
   -9.4216   -8.7378    7.8125 C   0  0  0  0  0  0  0  0  0  0  0  0
  -10.1605   -7.6081    7.5761 C   0  0  0  0  0  0  0  0  0  0  0  0
   -9.4931   -6.4200    7.4678 C   0  0  0  0  0  0  0  0  0  0  0  0
   -8.1176   -6.3014    7.5837 C   0  0  0  0  0  0  0  0  0  0  0  0
   -2.6224   -7.7922    8.2369 C   0  0  0  0  0  0  0  0  0  0  0  0
   -3.2414   -6.7508    7.4788 N   0  0  0  0  0  0  0  0  0  0  0  0
   -4.0741   -5.8639    8.2584 C   0  0  0  0  0  0  0  0  0  0  0  0
   -5.2351   -6.5543    8.8910 C   0  0  0  0  0  0  0  0  0  0  0  0
   -5.9344   -7.4008    7.9397 N   0  0  0  0  0  0  0  0  0  0  0  0
   -5.0916   -8.2246    7.0905 C   0  0  0  0  0  0  0  0  0  0  0  0
   -4.0687   -7.3092    6.4395 C   0  0  0  0  0  0  0  0  0  0  0  0
 26 27  1  0  0  0
 27 28  1  0  0  0
 28 29  1  0  0  0
 29 30  1  0  0  0
 30 31  1  0  0  0
 31 32  1  0  0  0
 30 20  1  0  0  0
 20 21  2  0  0  0
 21 22  1  0  0  0
 22 23  2  0  0  0
 23 24  1  0  0  0
 24 25  2  0  0  0
 23  1  1  0  0  0
  1  2  1  0  0  0
  2  3  2  0  0  0
  3  4  1  0  0  0
  4  5  2  0  0  0
  5  6  1  0  0  0
  6  7  2  0  0  0
  7  8  1  0  0  0
  8  9  1  0  0  0
  5 10  1  0  0  0
 10 11  2  0  0  0
 11 12  1  0  0  0
 12 13  2  0  0  0
 13 14  1  0  0  0
 14 15  2  0  0  0
 15 16  1  0  0  0
 16 17  2  0  0  0
 17 18  1  0  0  0
 18 19  2  0  0  0
 32 27  1  0  0  0
 25 20  1  0  0  0
  9  1  2  0  0  0
 19 10  1  0  0  0
  8  4  1  0  0  0
 19 14  1  0  0  0
M  END
> <minimizedAffinity>
-1.14022

> <CNNscore>
0.2306130528

> <CNNaffinity>
6.6392860413

> <CNN_VS>
1.5311059952

> <CNNaffinity_variance>
0.4301748276

$$$$
[H]c1nc2c([H])c([H])c([H])c(-c3c([H])nn4c([H])c(-c5c([H])c([H])c(N6C([H])([H])C([H])([H])N(C([H])([H])[H])C([H])([H])C6([H])[H])c([H])c5[H])c([H])nc34)c2c([H])c1[H]


 32 37  0  0  0  0  0  0  0  0999 V2000
  -13.1935   -8.4908    7.7147 C   0  0  0  0  0  0  0  0  0  0  0  0
  -13.7724   -9.5506    8.4088 C   0  0  0  0  0  0  0  0  0  0  0  0
  -15.0906   -9.6083    8.4666 N   0  0  0  0  0  0  0  0  0  0  0  0
  -15.9468   -8.7179    7.9044 C   0  0  0  0  0  0  0  0  0  0  0  0
  -17.3197   -8.5895    7.8450 C   0  0  0  0  0  0  0  0  0  0  0  0
  -17.5725   -7.4540    7.1162 C   0  0  0  0  0  0  0  0  0  0  0  0
  -16.3851   -6.9388    6.7632 N   0  0  0  0  0  0  0  0  0  0  0  0
  -15.3978   -7.6924    7.2329 N   0  0  0  0  0  0  0  0  0  0  0  0
  -14.0437   -7.5749    7.1359 C   0  0  0  0  0  0  0  0  0  0  0  0
  -18.2741   -9.5321    8.4080 C   0  0  0  0  0  0  0  0  0  0  0  0
  -17.9814  -10.0895    9.6669 C   0  0  0  0  0  0  0  0  0  0  0  0
  -18.8262  -11.0037   10.1894 C   0  0  0  0  0  0  0  0  0  0  0  0
  -19.9444  -11.3862    9.5183 C   0  0  0  0  0  0  0  0  0  0  0  0
  -20.2484  -10.8545    8.2915 C   0  0  0  0  0  0  0  0  0  0  0  0
  -21.3664  -11.2203    7.6195 N   0  0  0  0  0  0  0  0  0  0  0  0
  -21.6830  -10.7007    6.4240 C   0  0  0  0  0  0  0  0  0  0  0  0
  -20.8863   -9.7622    5.8113 C   0  0  0  0  0  0  0  0  0  0  0  0
  -19.7393   -9.3652    6.4654 C   0  0  0  0  0  0  0  0  0  0  0  0
  -19.4114   -9.8997    7.6938 C   0  0  0  0  0  0  0  0  0  0  0  0
   -8.9398   -8.2389    7.5096 C   0  0  0  0  0  0  0  0  0  0  0  0
   -9.7025   -7.2200    8.0360 C   0  0  0  0  0  0  0  0  0  0  0  0
  -11.1044   -7.2891    8.1094 C   0  0  0  0  0  0  0  0  0  0  0  0
  -11.7443   -8.4071    7.6420 C   0  0  0  0  0  0  0  0  0  0  0  0
  -10.9765   -9.4113    7.1214 C   0  0  0  0  0  0  0  0  0  0  0  0
   -9.5944   -9.3561    7.0436 C   0  0  0  0  0  0  0  0  0  0  0  0
   -4.1729   -8.2110    7.2512 C   0  0  0  0  0  0  0  0  0  0  0  0
   -4.9516   -7.0276    7.0613 N   0  0  0  0  0  0  0  0  0  0  0  0
   -5.7191   -6.6303    8.2192 C   0  0  0  0  0  0  0  0  0  0  0  0
   -6.7383   -7.6417    8.6228 C   0  0  0  0  0  0  0  0  0  0  0  0
   -7.5115   -8.1030    7.4826 N   0  0  0  0  0  0  0  0  0  0  0  0
   -6.7473   -8.4140    6.2870 C   0  0  0  0  0  0  0  0  0  0  0  0
   -5.8805   -7.2062    5.9743 C   0  0  0  0  0  0  0  0  0  0  0  0
 26 27  1  0  0  0
 27 28  1  0  0  0
 28 29  1  0  0  0
 29 30  1  0  0  0
 30 31  1  0  0  0
 31 32  1  0  0  0
 30 20  1  0  0  0
 20 21  2  0  0  0
 21 22  1  0  0  0
 22 23  2  0  0  0
 23 24  1  0  0  0
 24 25  2  0  0  0
 23  1  1  0  0  0
  1  2  1  0  0  0
  2  3  2  0  0  0
  3  4  1  0  0  0
  4  5  2  0  0  0
  5  6  1  0  0  0
  6  7  2  0  0  0
  7  8  1  0  0  0
  8  9  1  0  0  0
  5 10  1  0  0  0
 10 11  2  0  0  0
 11 12  1  0  0  0
 12 13  2  0  0  0
 13 14  1  0  0  0
 14 15  2  0  0  0
 15 16  1  0  0  0
 16 17  2  0  0  0
 17 18  1  0  0  0
 18 19  2  0  0  0
 32 27  1  0  0  0
 25 20  1  0  0  0
  9  1  2  0  0  0
 19 10  1  0  0  0
  8  4  1  0  0  0
 19 14  1  0  0  0
M  END
> <minimizedAffinity>
4.58826

> <CNNscore>
0.2034016997

> <CNNaffinity>
6.5502424240

> <CNN_VS>
1.3323304653

> <CNNaffinity_variance>
0.3488479257

$$$$
[H]c1c([H])c(C(=O)N([H])[H])c([H])c(-c2c([H])c([H])c([H])c([H])c2N([H])S(=O)(=O)c2c([H])c([H])c(OC([H])([H])[H])c([H])c2[H])c1[H]


 30 32  0  0  0  0  0  0  0  0999 V2000
  -13.7832   -8.5283    7.2564 C   0  0  0  0  0  0  0  0  0  0  0  0
  -14.4208   -9.6638    6.8486 C   0  0  0  0  0  0  0  0  0  0  0  0
  -14.0929  -10.8835    7.4387 C   0  0  0  0  0  0  0  0  0  0  0  0
  -13.1337  -10.9256    8.4203 C   0  0  0  0  0  0  0  0  0  0  0  0
  -12.5003   -9.7668    8.8178 C   0  0  0  0  0  0  0  0  0  0  0  0
  -12.8015   -8.5579    8.2576 C   0  0  0  0  0  0  0  0  0  0  0  0
  -12.1024   -7.3554    8.7133 C   0  0  0  0  0  0  0  0  0  0  0  0
  -10.7536   -7.1819    8.4216 C   0  0  0  0  0  0  0  0  0  0  0  0
  -10.0765   -6.0722    8.8436 C   0  0  0  0  0  0  0  0  0  0  0  0
  -10.7197   -5.0744    9.5833 C   0  0  0  0  0  0  0  0  0  0  0  0
  -12.0549   -5.2257    9.8838 C   0  0  0  0  0  0  0  0  0  0  0  0
  -12.7112   -6.3617    9.4412 C   0  0  0  0  0  0  0  0  0  0  0  0
  -12.7587   -4.1960   10.6587 C   0  0  0  0  0  0  0  0  0  0  0  0
  -12.5196   -2.8204   10.4013 N   0  0  0  0  0  0  0  0  0  0  0  0
  -13.5759   -4.4852   11.5536 O   0  0  0  0  0  0  0  0  0  0  0  0
  -11.5374   -2.4826   10.4811 H   0  0  0  0  0  0  0  0  0  0  0  0
  -13.2453   -2.1227   10.1396 H   0  0  0  0  0  0  0  0  0  0  0  0
  -14.0429   -7.2777    6.6893 N   0  0  0  0  0  0  0  0  0  0  0  0
  -14.1015   -6.4582    7.3794 H   0  0  0  0  0  0  0  0  0  0  0  0
  -14.2803   -6.8572    5.0531 S   0  0  0  0  0  0  0  0  0  0  0  0
  -14.2619   -8.0769    4.1569 O   0  0  0  0  0  0  0  0  0  0  0  0
  -13.1537   -5.9523    4.5723 O   0  0  0  0  0  0  0  0  0  0  0  0
  -18.1715   -4.7465    4.2455 C   0  0  0  0  0  0  0  0  0  0  0  0
  -18.1848   -5.9253    4.9554 C   0  0  0  0  0  0  0  0  0  0  0  0
  -16.9774   -6.5691    5.1992 C   0  0  0  0  0  0  0  0  0  0  0  0
  -15.7826   -6.0512    4.7467 C   0  0  0  0  0  0  0  0  0  0  0  0
  -15.7892   -4.8703    4.0380 C   0  0  0  0  0  0  0  0  0  0  0  0
  -16.9740   -4.2443    3.8022 C   0  0  0  0  0  0  0  0  0  0  0  0
  -20.5621   -4.6376    4.5314 C   0  0  0  0  0  0  0  0  0  0  0  0
  -19.3869   -4.0861    3.9927 O   0  0  0  0  0  0  0  0  0  0  0  0
 29 30  1  0  0  0
 30 23  1  0  0  0
 23 24  2  0  0  0
 24 25  1  0  0  0
 25 26  2  0  0  0
 26 27  1  0  0  0
 27 28  2  0  0  0
 26 20  1  0  0  0
 20 21  2  0  0  0
 20 22  2  0  0  0
 20 18  1  0  0  0
 18  1  1  0  0  0
  1  2  2  0  0  0
  2  3  1  0  0  0
  3  4  2  0  0  0
  4  5  1  0  0  0
  5  6  2  0  0  0
  6  7  1  0  0  0
  7  8  2  0  0  0
  8  9  1  0  0  0
  9 10  2  0  0  0
 10 11  1  0  0  0
 11 12  2  0  0  0
 11 13  1  0  0  0
 13 14  1  0  0  0
 13 15  2  0  0  0
 28 23  1  0  0  0
  6  1  1  0  0  0
 12  7  1  0  0  0
 18 19  1  0  0  0
 14 16  1  0  0  0
 14 17  1  0  0  0
M  END
> <minimizedAffinity>
3.67322

> <CNNscore>
0.4715586305

> <CNNaffinity>
6.2088174820

> <CNN_VS>
2.9278213978

> <CNNaffinity_variance>
1.3035110235

$$$$
[H]c1c([H])c(C(=O)N([H])[H])c([H])c(-c2c([H])c([H])c([H])c([H])c2N([H])S(=O)(=O)c2c([H])c([H])c(OC([H])([H])[H])c([H])c2[H])c1[H]


 30 32  0  0  0  0  0  0  0  0999 V2000
   -7.7145   -6.6874    6.8408 C   0  0  0  0  0  0  0  0  0  0  0  0
   -6.8547   -6.5705    5.7877 C   0  0  0  0  0  0  0  0  0  0  0  0
   -7.3200   -6.0610    4.5763 C   0  0  0  0  0  0  0  0  0  0  0  0
   -8.6355   -5.6851    4.4595 C   0  0  0  0  0  0  0  0  0  0  0  0
   -9.4887   -5.8120    5.5356 C   0  0  0  0  0  0  0  0  0  0  0  0
   -9.0603   -6.3075    6.7345 C   0  0  0  0  0  0  0  0  0  0  0  0
  -10.0034   -6.4226    7.8479 C   0  0  0  0  0  0  0  0  0  0  0  0
   -9.9575   -5.5092    8.8958 C   0  0  0  0  0  0  0  0  0  0  0  0
  -10.8212   -5.6008    9.9511 C   0  0  0  0  0  0  0  0  0  0  0  0
  -11.7800   -6.6174   10.0106 C   0  0  0  0  0  0  0  0  0  0  0  0
  -11.8432   -7.5328    8.9839 C   0  0  0  0  0  0  0  0  0  0  0  0
  -10.9535   -7.4116    7.9298 C   0  0  0  0  0  0  0  0  0  0  0  0
  -12.8384   -8.6118    9.0168 C   0  0  0  0  0  0  0  0  0  0  0  0
  -13.9153   -8.5623    9.9407 N   0  0  0  0  0  0  0  0  0  0  0  0
  -12.7764   -9.5921    8.2502 O   0  0  0  0  0  0  0  0  0  0  0  0
  -13.6750   -8.4922   10.9519 H   0  0  0  0  0  0  0  0  0  0  0  0
  -14.9244   -8.5903    9.6899 H   0  0  0  0  0  0  0  0  0  0  0  0
   -7.3222   -7.2149    8.0741 N   0  0  0  0  0  0  0  0  0  0  0  0
   -8.0397   -7.8497    8.5569 H   0  0  0  0  0  0  0  0  0  0  0  0
   -5.8625   -6.9995    8.9306 S   0  0  0  0  0  0  0  0  0  0  0  0
   -5.8327   -7.8287   10.1966 O   0  0  0  0  0  0  0  0  0  0  0  0
   -5.7144   -5.5470    9.3635 O   0  0  0  0  0  0  0  0  0  0  0  0
   -2.2030   -8.1523    6.5794 C   0  0  0  0  0  0  0  0  0  0  0  0
   -2.1308   -7.0899    7.4511 C   0  0  0  0  0  0  0  0  0  0  0  0
   -3.2668   -6.7422    8.1722 C   0  0  0  0  0  0  0  0  0  0  0  0
   -4.4492   -7.4366    8.0295 C   0  0  0  0  0  0  0  0  0  0  0  0
   -4.5023   -8.4971    7.1523 C   0  0  0  0  0  0  0  0  0  0  0  0
   -3.3872   -8.8331    6.4489 C   0  0  0  0  0  0  0  0  0  0  0  0
   -1.1464   -9.6313    4.9967 C   0  0  0  0  0  0  0  0  0  0  0  0
   -1.0600   -8.5134    5.8443 O   0  0  0  0  0  0  0  0  0  0  0  0
 29 30  1  0  0  0
 30 23  1  0  0  0
 23 24  2  0  0  0
 24 25  1  0  0  0
 25 26  2  0  0  0
 26 27  1  0  0  0
 27 28  2  0  0  0
 26 20  1  0  0  0
 20 21  2  0  0  0
 20 22  2  0  0  0
 20 18  1  0  0  0
 18  1  1  0  0  0
  1  2  2  0  0  0
  2  3  1  0  0  0
  3  4  2  0  0  0
  4  5  1  0  0  0
  5  6  2  0  0  0
  6  7  1  0  0  0
  7  8  2  0  0  0
  8  9  1  0  0  0
  9 10  2  0  0  0
 10 11  1  0  0  0
 11 12  2  0  0  0
 11 13  1  0  0  0
 13 14  1  0  0  0
 13 15  2  0  0  0
 28 23  1  0  0  0
  6  1  1  0  0  0
 12  7  1  0  0  0
 18 19  1  0  0  0
 14 16  1  0  0  0
 14 17  1  0  0  0
M  END
> <minimizedAffinity>
2.36282

> <CNNscore>
0.4641642272

> <CNNaffinity>
5.6361875534

> <CNN_VS>
2.6161165237

> <CNNaffinity_variance>
0.7113834620

$$$$
[H]c1c([H])c(C(=O)N([H])[H])c([H])c(-c2c([H])c([H])c([H])c([H])c2N([H])S(=O)(=O)c2c([H])c([H])c(OC([H])([H])[H])c([H])c2[H])c1[H]


 30 32  0  0  0  0  0  0  0  0999 V2000
  -13.4100   -8.4124    7.1579 C   0  0  0  0  0  0  0  0  0  0  0  0
  -14.2677   -8.9168    6.2240 C   0  0  0  0  0  0  0  0  0  0  0  0
  -15.2901   -8.1105    5.7260 C   0  0  0  0  0  0  0  0  0  0  0  0
  -15.4203   -6.8219    6.1820 C   0  0  0  0  0  0  0  0  0  0  0  0
  -14.5437   -6.3312    7.1268 C   0  0  0  0  0  0  0  0  0  0  0  0
  -13.5325   -7.0982    7.6320 C   0  0  0  0  0  0  0  0  0  0  0  0
  -12.6266   -6.5326    8.6330 C   0  0  0  0  0  0  0  0  0  0  0  0
  -11.2592   -6.4814    8.3840 C   0  0  0  0  0  0  0  0  0  0  0  0
  -10.3920   -5.9663    9.3063 C   0  0  0  0  0  0  0  0  0  0  0  0
  -10.8530   -5.4737   10.5315 C   0  0  0  0  0  0  0  0  0  0  0  0
  -12.2030   -5.5147   10.7992 C   0  0  0  0  0  0  0  0  0  0  0  0
  -13.0543   -6.0430    9.8434 C   0  0  0  0  0  0  0  0  0  0  0  0
  -12.7185   -5.0055   12.0762 C   0  0  0  0  0  0  0  0  0  0  0  0
  -14.0247   -4.4540   12.1503 N   0  0  0  0  0  0  0  0  0  0  0  0
  -12.0422   -5.0375   13.1222 O   0  0  0  0  0  0  0  0  0  0  0  0
  -14.2413   -3.6515   11.5223 H   0  0  0  0  0  0  0  0  0  0  0  0
  -14.7827   -4.7861   12.7804 H   0  0  0  0  0  0  0  0  0  0  0  0
  -12.3808   -9.1731    7.7192 N   0  0  0  0  0  0  0  0  0  0  0  0
  -12.3668   -9.2162    8.7911 H   0  0  0  0  0  0  0  0  0  0  0  0
  -11.1366  -10.0502    6.9489 S   0  0  0  0  0  0  0  0  0  0  0  0
  -11.2988  -10.0408    5.4440 O   0  0  0  0  0  0  0  0  0  0  0  0
  -11.1778  -11.5110    7.3775 O   0  0  0  0  0  0  0  0  0  0  0  0
   -7.0142   -8.4491    7.7805 C   0  0  0  0  0  0  0  0  0  0  0  0
   -7.2351   -9.8047    7.8657 C   0  0  0  0  0  0  0  0  0  0  0  0
   -8.5119  -10.2886    7.6070 C   0  0  0  0  0  0  0  0  0  0  0  0
   -9.5468   -9.4422    7.2705 C   0  0  0  0  0  0  0  0  0  0  0  0
   -9.3067   -8.0885    7.1901 C   0  0  0  0  0  0  0  0  0  0  0  0
   -8.0548   -7.6202    7.4444 C   0  0  0  0  0  0  0  0  0  0  0  0
   -4.7789   -7.9937    7.0029 C   0  0  0  0  0  0  0  0  0  0  0  0
   -5.7265   -7.9478    8.0400 O   0  0  0  0  0  0  0  0  0  0  0  0
 29 30  1  0  0  0
 30 23  1  0  0  0
 23 24  2  0  0  0
 24 25  1  0  0  0
 25 26  2  0  0  0
 26 27  1  0  0  0
 27 28  2  0  0  0
 26 20  1  0  0  0
 20 21  2  0  0  0
 20 22  2  0  0  0
 20 18  1  0  0  0
 18  1  1  0  0  0
  1  2  2  0  0  0
  2  3  1  0  0  0
  3  4  2  0  0  0
  4  5  1  0  0  0
  5  6  2  0  0  0
  6  7  1  0  0  0
  7  8  2  0  0  0
  8  9  1  0  0  0
  9 10  2  0  0  0
 10 11  1  0  0  0
 11 12  2  0  0  0
 11 13  1  0  0  0
 13 14  1  0  0  0
 13 15  2  0  0  0
 28 23  1  0  0  0
  6  1  1  0  0  0
 12  7  1  0  0  0
 18 19  1  0  0  0
 14 16  1  0  0  0
 14 17  1  0  0  0
M  END
> <minimizedAffinity>
0.16813

> <CNNscore>
0.4594396949

> <CNNaffinity>
6.1950750351

> <CNN_VS>
2.8462634087

> <CNNaffinity_variance>
0.7151417136

$$$$
[H]c1c([H])c(C(=O)N([H])[H])c([H])c(-c2c([H])c([H])c([H])c([H])c2N([H])S(=O)(=O)c2c([H])c([H])c(OC([H])([H])[H])c([H])c2[H])c1[H]


 30 32  0  0  0  0  0  0  0  0999 V2000
  -16.0709   -6.6769    5.2254 C   0  0  0  0  0  0  0  0  0  0  0  0
  -17.0019   -5.9637    4.5278 C   0  0  0  0  0  0  0  0  0  0  0  0
  -16.5954   -4.8757    3.7568 C   0  0  0  0  0  0  0  0  0  0  0  0
  -15.2655   -4.5367    3.7107 C   0  0  0  0  0  0  0  0  0  0  0  0
  -14.3403   -5.2699    4.4237 C   0  0  0  0  0  0  0  0  0  0  0  0
  -14.7098   -6.3408    5.1870 C   0  0  0  0  0  0  0  0  0  0  0  0
  -13.6910   -7.0885    5.9255 C   0  0  0  0  0  0  0  0  0  0  0  0
  -12.4384   -6.5257    6.1463 C   0  0  0  0  0  0  0  0  0  0  0  0
  -11.4675   -7.2072    6.8252 C   0  0  0  0  0  0  0  0  0  0  0  0
  -11.7032   -8.4941    7.3199 C   0  0  0  0  0  0  0  0  0  0  0  0
  -12.9363   -9.0707    7.1125 C   0  0  0  0  0  0  0  0  0  0  0  0
  -13.8976   -8.3532    6.4209 C   0  0  0  0  0  0  0  0  0  0  0  0
  -13.2150  -10.4202    7.6194 C   0  0  0  0  0  0  0  0  0  0  0  0
  -12.5860  -10.8818    8.8055 N   0  0  0  0  0  0  0  0  0  0  0  0
  -13.9986  -11.1958    7.0389 O   0  0  0  0  0  0  0  0  0  0  0  0
  -11.5445  -10.8805    8.8261 H   0  0  0  0  0  0  0  0  0  0  0  0
  -13.0805  -11.2209    9.6555 H   0  0  0  0  0  0  0  0  0  0  0  0
  -16.4118   -7.7609    6.0390 N   0  0  0  0  0  0  0  0  0  0  0  0
  -16.4336   -8.7172    5.5530 H   0  0  0  0  0  0  0  0  0  0  0  0
  -16.7991   -7.7904    7.7002 S   0  0  0  0  0  0  0  0  0  0  0  0
  -17.3540   -9.1351    8.1184 O   0  0  0  0  0  0  0  0  0  0  0  0
  -17.8809   -6.7635    8.0078 O   0  0  0  0  0  0  0  0  0  0  0  0
  -13.2920   -6.9530   10.3924 C   0  0  0  0  0  0  0  0  0  0  0  0
  -14.0035   -8.1184   10.5637 C   0  0  0  0  0  0  0  0  0  0  0  0
  -15.0849   -8.3672    9.7269 C   0  0  0  0  0  0  0  0  0  0  0  0
  -15.4505   -7.4758    8.7407 C   0  0  0  0  0  0  0  0  0  0  0  0
  -14.7264   -6.3148    8.5843 C   0  0  0  0  0  0  0  0  0  0  0  0
  -13.6687   -6.0763    9.4063 C   0  0  0  0  0  0  0  0  0  0  0  0
  -11.4621   -5.5122   11.0121 C   0  0  0  0  0  0  0  0  0  0  0  0
  -12.1959   -6.6904   11.2330 O   0  0  0  0  0  0  0  0  0  0  0  0
 29 30  1  0  0  0
 30 23  1  0  0  0
 23 24  2  0  0  0
 24 25  1  0  0  0
 25 26  2  0  0  0
 26 27  1  0  0  0
 27 28  2  0  0  0
 26 20  1  0  0  0
 20 21  2  0  0  0
 20 22  2  0  0  0
 20 18  1  0  0  0
 18  1  1  0  0  0
  1  2  2  0  0  0
  2  3  1  0  0  0
  3  4  2  0  0  0
  4  5  1  0  0  0
  5  6  2  0  0  0
  6  7  1  0  0  0
  7  8  2  0  0  0
  8  9  1  0  0  0
  9 10  2  0  0  0
 10 11  1  0  0  0
 11 12  2  0  0  0
 11 13  1  0  0  0
 13 14  1  0  0  0
 13 15  2  0  0  0
 28 23  1  0  0  0
  6  1  1  0  0  0
 12  7  1  0  0  0
 18 19  1  0  0  0
 14 16  1  0  0  0
 14 17  1  0  0  0
M  END
> <minimizedAffinity>
2.89623

> <CNNscore>
0.4587660134

> <CNNaffinity>
6.0748319626

> <CNN_VS>
2.7869265079

> <CNNaffinity_variance>
0.3667579293

$$$$
[H]c1c([H])c(C(=O)N([H])[H])c([H])c(-c2c([H])c([H])c([H])c([H])c2N([H])S(=O)(=O)c2c([H])c([H])c(OC([H])([H])[H])c([H])c2[H])c1[H]


 30 32  0  0  0  0  0  0  0  0999 V2000
  -11.8589   -9.0841    7.6993 C   0  0  0  0  0  0  0  0  0  0  0  0
  -10.5842   -9.5596    7.8047 C   0  0  0  0  0  0  0  0  0  0  0  0
  -10.0493  -10.3223    6.7675 C   0  0  0  0  0  0  0  0  0  0  0  0
  -10.8117  -10.5847    5.6560 C   0  0  0  0  0  0  0  0  0  0  0  0
  -12.0982  -10.0955    5.5692 C   0  0  0  0  0  0  0  0  0  0  0  0
  -12.6480   -9.3452    6.5696 C   0  0  0  0  0  0  0  0  0  0  0  0
  -14.0175   -8.8475    6.4313 C   0  0  0  0  0  0  0  0  0  0  0  0
  -14.8939   -8.9131    7.5092 C   0  0  0  0  0  0  0  0  0  0  0  0
  -16.1801   -8.4633    7.4024 C   0  0  0  0  0  0  0  0  0  0  0  0
  -16.6563   -7.9220    6.2038 C   0  0  0  0  0  0  0  0  0  0  0  0
  -15.8057   -7.8475    5.1236 C   0  0  0  0  0  0  0  0  0  0  0  0
  -14.5091   -8.3121    5.2653 C   0  0  0  0  0  0  0  0  0  0  0  0
  -16.2754   -7.2845    3.8514 C   0  0  0  0  0  0  0  0  0  0  0  0
  -17.3704   -6.3812    3.8310 N   0  0  0  0  0  0  0  0  0  0  0  0
  -15.7410   -7.5729    2.7634 O   0  0  0  0  0  0  0  0  0  0  0  0
  -18.2705   -6.7115    4.2385 H   0  0  0  0  0  0  0  0  0  0  0  0
  -17.3470   -5.4165    3.4425 H   0  0  0  0  0  0  0  0  0  0  0  0
  -12.4666   -8.3369    8.7120 N   0  0  0  0  0  0  0  0  0  0  0  0
  -12.9435   -8.9060    9.4864 H   0  0  0  0  0  0  0  0  0  0  0  0
  -12.5620   -6.6442    8.9022 S   0  0  0  0  0  0  0  0  0  0  0  0
  -13.9789   -6.1430    8.7222 O   0  0  0  0  0  0  0  0  0  0  0  0
  -11.7203   -5.9461    7.8423 O   0  0  0  0  0  0  0  0  0  0  0  0
  -11.2309   -5.1817   12.9443 C   0  0  0  0  0  0  0  0  0  0  0  0
  -10.2802   -5.5440   12.0176 C   0  0  0  0  0  0  0  0  0  0  0  0
  -10.7021   -5.9944   10.7724 C   0  0  0  0  0  0  0  0  0  0  0  0
  -12.0410   -6.0823   10.4557 C   0  0  0  0  0  0  0  0  0  0  0  0
  -12.9779   -5.7151   11.3960 C   0  0  0  0  0  0  0  0  0  0  0  0
  -12.5593   -5.2749   12.6135 C   0  0  0  0  0  0  0  0  0  0  0  0
   -9.7791   -3.7770   14.2587 C   0  0  0  0  0  0  0  0  0  0  0  0
  -10.8160   -4.7245   14.2076 O   0  0  0  0  0  0  0  0  0  0  0  0
 29 30  1  0  0  0
 30 23  1  0  0  0
 23 24  2  0  0  0
 24 25  1  0  0  0
 25 26  2  0  0  0
 26 27  1  0  0  0
 27 28  2  0  0  0
 26 20  1  0  0  0
 20 21  2  0  0  0
 20 22  2  0  0  0
 20 18  1  0  0  0
 18  1  1  0  0  0
  1  2  2  0  0  0
  2  3  1  0  0  0
  3  4  2  0  0  0
  4  5  1  0  0  0
  5  6  2  0  0  0
  6  7  1  0  0  0
  7  8  2  0  0  0
  8  9  1  0  0  0
  9 10  2  0  0  0
 10 11  1  0  0  0
 11 12  2  0  0  0
 11 13  1  0  0  0
 13 14  1  0  0  0
 13 15  2  0  0  0
 28 23  1  0  0  0
  6  1  1  0  0  0
 12  7  1  0  0  0
 18 19  1  0  0  0
 14 16  1  0  0  0
 14 17  1  0  0  0
M  END
> <minimizedAffinity>
3.65696

> <CNNscore>
0.4573154449

> <CNNaffinity>
5.9026918411

> <CNN_VS>
2.6993920803

> <CNNaffinity_variance>
0.3251082301

$$$$
[H]c1c([H])c(C(=O)N([H])[H])c([H])c(-c2c([H])c([H])c([H])c([H])c2N([H])S(=O)(=O)c2c([H])c([H])c(OC([H])([H])[H])c([H])c2[H])c1[H]


 30 32  0  0  0  0  0  0  0  0999 V2000
   -8.2056   -9.6531    5.3109 C   0  0  0  0  0  0  0  0  0  0  0  0
   -8.7265  -10.6180    4.4987 C   0  0  0  0  0  0  0  0  0  0  0  0
   -8.1270  -10.8735    3.2663 C   0  0  0  0  0  0  0  0  0  0  0  0
   -7.0225  -10.1512    2.8869 C   0  0  0  0  0  0  0  0  0  0  0  0
   -6.5119   -9.1797    3.7220 C   0  0  0  0  0  0  0  0  0  0  0  0
   -7.0783   -8.9082    4.9351 C   0  0  0  0  0  0  0  0  0  0  0  0
   -6.4997   -7.8680    5.7869 C   0  0  0  0  0  0  0  0  0  0  0  0
   -5.8181   -6.7993    5.2145 C   0  0  0  0  0  0  0  0  0  0  0  0
   -5.2613   -5.8203    5.9887 C   0  0  0  0  0  0  0  0  0  0  0  0
   -5.3595   -5.8623    7.3833 C   0  0  0  0  0  0  0  0  0  0  0  0
   -6.0298   -6.9115    7.9714 C   0  0  0  0  0  0  0  0  0  0  0  0
   -6.5821   -7.8866    7.1582 C   0  0  0  0  0  0  0  0  0  0  0  0
   -6.1504   -6.9844    9.4330 C   0  0  0  0  0  0  0  0  0  0  0  0
   -7.0524   -7.9038   10.0303 N   0  0  0  0  0  0  0  0  0  0  0  0
   -5.4789   -6.2563   10.1889 O   0  0  0  0  0  0  0  0  0  0  0  0
   -8.0556   -7.8347    9.7583 H   0  0  0  0  0  0  0  0  0  0  0  0
   -6.7929   -8.6406   10.7171 H   0  0  0  0  0  0  0  0  0  0  0  0
   -8.7721   -9.3267    6.5461 N   0  0  0  0  0  0  0  0  0  0  0  0
   -8.1273   -8.8101    7.2306 H   0  0  0  0  0  0  0  0  0  0  0  0
  -10.3464   -9.6277    7.1306 S   0  0  0  0  0  0  0  0  0  0  0  0
  -10.4270  -10.9548    7.8541 O   0  0  0  0  0  0  0  0  0  0  0  0
  -11.3324   -9.7078    5.9727 O   0  0  0  0  0  0  0  0  0  0  0  0
  -11.8243   -6.5067   10.0157 C   0  0  0  0  0  0  0  0  0  0  0  0
  -12.5643   -7.6525    9.8328 C   0  0  0  0  0  0  0  0  0  0  0  0
  -12.0988   -8.6099    8.9394 C   0  0  0  0  0  0  0  0  0  0  0  0
  -10.9224   -8.4314    8.2430 C   0  0  0  0  0  0  0  0  0  0  0  0
  -10.1955   -7.2783    8.4392 C   0  0  0  0  0  0  0  0  0  0  0  0
  -10.6558   -6.3443    9.3150 C   0  0  0  0  0  0  0  0  0  0  0  0
  -13.1183   -4.5139   10.4196 C   0  0  0  0  0  0  0  0  0  0  0  0
  -12.2853   -5.5309   10.9170 O   0  0  0  0  0  0  0  0  0  0  0  0
 29 30  1  0  0  0
 30 23  1  0  0  0
 23 24  2  0  0  0
 24 25  1  0  0  0
 25 26  2  0  0  0
 26 27  1  0  0  0
 27 28  2  0  0  0
 26 20  1  0  0  0
 20 21  2  0  0  0
 20 22  2  0  0  0
 20 18  1  0  0  0
 18  1  1  0  0  0
  1  2  2  0  0  0
  2  3  1  0  0  0
  3  4  2  0  0  0
  4  5  1  0  0  0
  5  6  2  0  0  0
  6  7  1  0  0  0
  7  8  2  0  0  0
  8  9  1  0  0  0
  9 10  2  0  0  0
 10 11  1  0  0  0
 11 12  2  0  0  0
 11 13  1  0  0  0
 13 14  1  0  0  0
 13 15  2  0  0  0
 28 23  1  0  0  0
  6  1  1  0  0  0
 12  7  1  0  0  0
 18 19  1  0  0  0
 14 16  1  0  0  0
 14 17  1  0  0  0
M  END
> <minimizedAffinity>
5.96799

> <CNNscore>
0.4444035590

> <CNNaffinity>
5.6716165543

> <CNN_VS>
2.5204865932

> <CNNaffinity_variance>
0.4964789450

$$$$
[H]c1c([H])c(C(=O)N([H])[H])c([H])c(-c2c([H])c([H])c([H])c([H])c2N([H])S(=O)(=O)c2c([H])c([H])c(OC([H])([H])[H])c([H])c2[H])c1[H]


 30 32  0  0  0  0  0  0  0  0999 V2000
   -7.4928   -9.3543    5.0080 C   0  0  0  0  0  0  0  0  0  0  0  0
   -8.3959   -9.9840    4.2018 C   0  0  0  0  0  0  0  0  0  0  0  0
   -8.0019  -10.4123    2.9350 C   0  0  0  0  0  0  0  0  0  0  0  0
   -6.7125  -10.1943    2.5162 C   0  0  0  0  0  0  0  0  0  0  0  0
   -5.8152   -9.5553    3.3459 C   0  0  0  0  0  0  0  0  0  0  0  0
   -6.1731   -9.1253    4.5921 C   0  0  0  0  0  0  0  0  0  0  0  0
   -5.1849   -8.4525    5.4366 C   0  0  0  0  0  0  0  0  0  0  0  0
   -3.8268   -8.6308    5.1954 C   0  0  0  0  0  0  0  0  0  0  0  0
   -2.8847   -8.0207    5.9753 C   0  0  0  0  0  0  0  0  0  0  0  0
   -3.2572   -7.1965    7.0422 C   0  0  0  0  0  0  0  0  0  0  0  0
   -4.5965   -7.0060    7.2992 C   0  0  0  0  0  0  0  0  0  0  0  0
   -5.5250   -7.6388    6.4901 C   0  0  0  0  0  0  0  0  0  0  0  0
   -5.0199   -6.1466    8.4119 C   0  0  0  0  0  0  0  0  0  0  0  0
   -6.3757   -5.7408    8.5249 N   0  0  0  0  0  0  0  0  0  0  0  0
   -4.2210   -5.7491    9.2814 O   0  0  0  0  0  0  0  0  0  0  0  0
   -6.7904   -5.2283    7.7183 H   0  0  0  0  0  0  0  0  0  0  0  0
   -6.9885   -5.9135    9.3475 H   0  0  0  0  0  0  0  0  0  0  0  0
   -7.8272   -8.8753    6.2776 N   0  0  0  0  0  0  0  0  0  0  0  0
   -7.4980   -7.8785    6.4992 H   0  0  0  0  0  0  0  0  0  0  0  0
   -8.6877   -9.6436    7.5345 S   0  0  0  0  0  0  0  0  0  0  0  0
   -8.1587   -9.2450    8.8955 O   0  0  0  0  0  0  0  0  0  0  0  0
   -8.5279  -11.1549    7.4359 O   0  0  0  0  0  0  0  0  0  0  0  0
  -13.0860   -8.6938    7.5839 C   0  0  0  0  0  0  0  0  0  0  0  0
  -12.6090   -9.6068    6.6714 C   0  0  0  0  0  0  0  0  0  0  0  0
  -11.2490   -9.8928    6.6646 C   0  0  0  0  0  0  0  0  0  0  0  0
  -10.3821   -9.2838    7.5468 C   0  0  0  0  0  0  0  0  0  0  0  0
  -10.8779   -8.3727    8.4528 C   0  0  0  0  0  0  0  0  0  0  0  0
  -12.2101   -8.0965    8.4550 C   0  0  0  0  0  0  0  0  0  0  0  0
  -15.0973   -8.2885    8.8484 C   0  0  0  0  0  0  0  0  0  0  0  0
  -14.4601   -8.3963    7.6002 O   0  0  0  0  0  0  0  0  0  0  0  0
 29 30  1  0  0  0
 30 23  1  0  0  0
 23 24  2  0  0  0
 24 25  1  0  0  0
 25 26  2  0  0  0
 26 27  1  0  0  0
 27 28  2  0  0  0
 26 20  1  0  0  0
 20 21  2  0  0  0
 20 22  2  0  0  0
 20 18  1  0  0  0
 18  1  1  0  0  0
  1  2  2  0  0  0
  2  3  1  0  0  0
  3  4  2  0  0  0
  4  5  1  0  0  0
  5  6  2  0  0  0
  6  7  1  0  0  0
  7  8  2  0  0  0
  8  9  1  0  0  0
  9 10  2  0  0  0
 10 11  1  0  0  0
 11 12  2  0  0  0
 11 13  1  0  0  0
 13 14  1  0  0  0
 13 15  2  0  0  0
 28 23  1  0  0  0
  6  1  1  0  0  0
 12  7  1  0  0  0
 18 19  1  0  0  0
 14 16  1  0  0  0
 14 17  1  0  0  0
M  END
> <minimizedAffinity>
8.38055

> <CNNscore>
0.4308254719

> <CNNaffinity>
5.7264218330

> <CNN_VS>
2.4670884609

> <CNNaffinity_variance>
0.5243916512

$$$$
[H]c1c([H])c(C(=O)N([H])[H])c([H])c(-c2c([H])c([H])c([H])c([H])c2N([H])S(=O)(=O)c2c([H])c([H])c(OC([H])([H])[H])c([H])c2[H])c1[H]


 30 32  0  0  0  0  0  0  0  0999 V2000
   -4.4033   -6.1798    9.0747 C   0  0  0  0  0  0  0  0  0  0  0  0
   -4.8377   -5.3803   10.0917 C   0  0  0  0  0  0  0  0  0  0  0  0
   -3.9051   -4.7313   10.8994 C   0  0  0  0  0  0  0  0  0  0  0  0
   -2.5641   -4.9057   10.6613 C   0  0  0  0  0  0  0  0  0  0  0  0
   -2.1455   -5.7186    9.6288 C   0  0  0  0  0  0  0  0  0  0  0  0
   -3.0367   -6.3665    8.8212 C   0  0  0  0  0  0  0  0  0  0  0  0
   -2.5440   -7.2182    7.7376 C   0  0  0  0  0  0  0  0  0  0  0  0
   -2.3941   -6.6975    6.4566 C   0  0  0  0  0  0  0  0  0  0  0  0
   -1.9445   -7.4747    5.4262 C   0  0  0  0  0  0  0  0  0  0  0  0
   -1.6204   -8.8204    5.6277 C   0  0  0  0  0  0  0  0  0  0  0  0
   -1.7614   -9.3568    6.8880 C   0  0  0  0  0  0  0  0  0  0  0  0
   -2.2194   -8.5421    7.9096 C   0  0  0  0  0  0  0  0  0  0  0  0
   -1.4295  -10.7661    7.1320 C   0  0  0  0  0  0  0  0  0  0  0  0
   -1.1480  -11.6325    6.0431 N   0  0  0  0  0  0  0  0  0  0  0  0
   -1.3835  -11.2451    8.2813 O   0  0  0  0  0  0  0  0  0  0  0  0
   -1.8809  -11.7324    5.3095 H   0  0  0  0  0  0  0  0  0  0  0  0
   -0.2696  -12.1755    5.9183 H   0  0  0  0  0  0  0  0  0  0  0  0
   -5.2821   -6.8810    8.2445 N   0  0  0  0  0  0  0  0  0  0  0  0
   -5.3688   -7.9319    8.4424 H   0  0  0  0  0  0  0  0  0  0  0  0
   -6.2445   -6.3110    6.9563 S   0  0  0  0  0  0  0  0  0  0  0  0
   -5.6147   -6.6158    5.6140 O   0  0  0  0  0  0  0  0  0  0  0  0
   -6.3844   -4.7964    7.0326 O   0  0  0  0  0  0  0  0  0  0  0  0
  -10.3853   -8.0681    6.8324 C   0  0  0  0  0  0  0  0  0  0  0  0
   -9.3888   -8.7500    7.4925 C   0  0  0  0  0  0  0  0  0  0  0  0
   -8.1135   -8.1985    7.5246 C   0  0  0  0  0  0  0  0  0  0  0  0
   -7.8356   -6.9944    6.9134 C   0  0  0  0  0  0  0  0  0  0  0  0
   -8.8458   -6.3264    6.2576 C   0  0  0  0  0  0  0  0  0  0  0  0
  -10.0924   -6.8709    6.2293 C   0  0  0  0  0  0  0  0  0  0  0  0
  -11.8078  -10.0129    6.8847 C   0  0  0  0  0  0  0  0  0  0  0  0
  -11.6795   -8.6163    6.7931 O   0  0  0  0  0  0  0  0  0  0  0  0
 29 30  1  0  0  0
 30 23  1  0  0  0
 23 24  2  0  0  0
 24 25  1  0  0  0
 25 26  2  0  0  0
 26 27  1  0  0  0
 27 28  2  0  0  0
 26 20  1  0  0  0
 20 21  2  0  0  0
 20 22  2  0  0  0
 20 18  1  0  0  0
 18  1  1  0  0  0
  1  2  2  0  0  0
  2  3  1  0  0  0
  3  4  2  0  0  0
  4  5  1  0  0  0
  5  6  2  0  0  0
  6  7  1  0  0  0
  7  8  2  0  0  0
  8  9  1  0  0  0
  9 10  2  0  0  0
 10 11  1  0  0  0
 11 12  2  0  0  0
 11 13  1  0  0  0
 13 14  1  0  0  0
 13 15  2  0  0  0
 28 23  1  0  0  0
  6  1  1  0  0  0
 12  7  1  0  0  0
 18 19  1  0  0  0
 14 16  1  0  0  0
 14 17  1  0  0  0
M  END
> <minimizedAffinity>
1.56510

> <CNNscore>
0.4248870611

> <CNNaffinity>
5.5391325951

> <CNN_VS>
2.3535058498

> <CNNaffinity_variance>
0.8884350657

$$$$
[H]c1c([H])c(C(=O)N([H])[H])c([H])c(-c2c([H])c([H])c([H])c([H])c2N([H])S(=O)(=O)c2c([H])c([H])c(OC([H])([H])[H])c([H])c2[H])c1[H]


 30 32  0  0  0  0  0  0  0  0999 V2000
  -14.0207   -8.5468    7.9137 C   0  0  0  0  0  0  0  0  0  0  0  0
  -14.7289   -9.6724    7.6081 C   0  0  0  0  0  0  0  0  0  0  0  0
  -14.1354  -10.9225    7.7768 C   0  0  0  0  0  0  0  0  0  0  0  0
  -12.8478  -11.0037    8.2469 C   0  0  0  0  0  0  0  0  0  0  0  0
  -12.1487   -9.8541    8.5494 C   0  0  0  0  0  0  0  0  0  0  0  0
  -12.7049   -8.6161    8.3943 C   0  0  0  0  0  0  0  0  0  0  0  0
  -11.9233   -7.4249    8.7294 C   0  0  0  0  0  0  0  0  0  0  0  0
  -10.5974   -7.3251    8.3213 C   0  0  0  0  0  0  0  0  0  0  0  0
   -9.8440   -6.2272    8.6295 C   0  0  0  0  0  0  0  0  0  0  0  0
  -10.3835   -5.1676    9.3661 C   0  0  0  0  0  0  0  0  0  0  0  0
  -11.6942   -5.2453    9.7806 C   0  0  0  0  0  0  0  0  0  0  0  0
  -12.4296   -6.3715    9.4517 C   0  0  0  0  0  0  0  0  0  0  0  0
  -12.2899   -4.1496   10.5555 C   0  0  0  0  0  0  0  0  0  0  0  0
  -11.7059   -2.8558   10.5283 N   0  0  0  0  0  0  0  0  0  0  0  0
  -13.3101   -4.3109   11.2524 O   0  0  0  0  0  0  0  0  0  0  0  0
  -10.7084   -2.7751   10.8176 H   0  0  0  0  0  0  0  0  0  0  0  0
  -12.1930   -1.9821   10.2429 H   0  0  0  0  0  0  0  0  0  0  0  0
  -14.5440   -7.2622    7.7429 N   0  0  0  0  0  0  0  0  0  0  0  0
  -15.0199   -6.8363    8.6050 H   0  0  0  0  0  0  0  0  0  0  0  0
  -14.5370   -6.2636    6.3597 S   0  0  0  0  0  0  0  0  0  0  0  0
  -13.2126   -6.3330    5.6300 O   0  0  0  0  0  0  0  0  0  0  0  0
  -14.7327   -4.8072    6.7596 O   0  0  0  0  0  0  0  0  0  0  0  0
  -17.7055   -7.2914    3.3343 C   0  0  0  0  0  0  0  0  0  0  0  0
  -17.0061   -8.3087    3.9423 C   0  0  0  0  0  0  0  0  0  0  0  0
  -16.0297   -7.9803    4.8751 C   0  0  0  0  0  0  0  0  0  0  0  0
  -15.7550   -6.6680    5.1963 C   0  0  0  0  0  0  0  0  0  0  0  0
  -16.4654   -5.6634    4.5775 C   0  0  0  0  0  0  0  0  0  0  0  0
  -17.4202   -5.9907    3.6651 C   0  0  0  0  0  0  0  0  0  0  0  0
  -18.4617   -7.2687    1.0460 C   0  0  0  0  0  0  0  0  0  0  0  0
  -18.6959   -7.6115    2.3888 O   0  0  0  0  0  0  0  0  0  0  0  0
 29 30  1  0  0  0
 30 23  1  0  0  0
 23 24  2  0  0  0
 24 25  1  0  0  0
 25 26  2  0  0  0
 26 27  1  0  0  0
 27 28  2  0  0  0
 26 20  1  0  0  0
 20 21  2  0  0  0
 20 22  2  0  0  0
 20 18  1  0  0  0
 18  1  1  0  0  0
  1  2  2  0  0  0
  2  3  1  0  0  0
  3  4  2  0  0  0
  4  5  1  0  0  0
  5  6  2  0  0  0
  6  7  1  0  0  0
  7  8  2  0  0  0
  8  9  1  0  0  0
  9 10  2  0  0  0
 10 11  1  0  0  0
 11 12  2  0  0  0
 11 13  1  0  0  0
 13 14  1  0  0  0
 13 15  2  0  0  0
 28 23  1  0  0  0
  6  1  1  0  0  0
 12  7  1  0  0  0
 18 19  1  0  0  0
 14 16  1  0  0  0
 14 17  1  0  0  0
M  END
> <minimizedAffinity>
5.34122

> <CNNscore>
0.4200794101

> <CNNaffinity>
5.9373049736

> <CNN_VS>
2.4941396713

> <CNNaffinity_variance>
0.4347378612

$$$$
[H]c1nc2c(C([H])([H])[H])c(C([H])([H])[H])c(-c3c(C([H])(C([H])([H])[H])C([H])([H])[H])c4c([H])c(C5([H])C([H])([H])C([H])([H])N(C([H])([H])c6nn(C([H])([H])[H])c([H])c6[H])C([H])([H])C5([H])[H])c([H])c([H])c4n3[H])c([H])n2n1


 37 42  0  0  0  0  0  0  0  0999 V2000
  -13.0613   -7.0552   10.0441 C   0  0  0  0  0  0  0  0  0  0  0  0
  -11.8583   -6.4063   10.1722 C   0  0  0  0  0  0  0  0  0  0  0  0
  -11.4229   -6.0649    8.8996 N   0  0  0  0  0  0  0  0  0  0  0  0
  -12.2883   -6.4630    7.9961 C   0  0  0  0  0  0  0  0  0  0  0  0
  -12.2590   -6.3260    6.6088 C   0  0  0  0  0  0  0  0  0  0  0  0
  -13.3090   -6.8347    5.8877 C   0  0  0  0  0  0  0  0  0  0  0  0
  -14.3690   -7.4665    6.4997 C   0  0  0  0  0  0  0  0  0  0  0  0
  -14.3389   -7.5722    7.8839 C   0  0  0  0  0  0  0  0  0  0  0  0
  -13.3129   -7.0772    8.6468 C   0  0  0  0  0  0  0  0  0  0  0  0
  -10.5243   -5.5610    8.6933 H   0  0  0  0  0  0  0  0  0  0  0  0
  -11.0369   -6.0534   11.3062 C   0  0  0  0  0  0  0  0  0  0  0  0
   -9.6892   -6.3040   11.2842 C   0  0  0  0  0  0  0  0  0  0  0  0
   -8.8705   -6.0225   12.3145 N   0  0  0  0  0  0  0  0  0  0  0  0
   -7.5687   -6.1870   12.4823 N   0  0  0  0  0  0  0  0  0  0  0  0
   -7.1935   -5.7525   13.6936 C   0  0  0  0  0  0  0  0  0  0  0  0
   -8.3220   -5.3077   14.2732 N   0  0  0  0  0  0  0  0  0  0  0  0
   -9.3596   -5.4680   13.4354 C   0  0  0  0  0  0  0  0  0  0  0  0
  -10.7009   -5.1845   13.5361 C   0  0  0  0  0  0  0  0  0  0  0  0
  -11.2617   -4.5751   14.7704 C   0  0  0  0  0  0  0  0  0  0  0  0
  -11.5425   -5.4837   12.4548 C   0  0  0  0  0  0  0  0  0  0  0  0
  -12.9677   -5.1680   12.5715 C   0  0  0  0  0  0  0  0  0  0  0  0
  -15.4825   -7.9462    5.6759 C   0  0  0  0  0  0  0  0  0  0  0  0
  -15.1845   -9.2358    4.9197 C   0  0  0  0  0  0  0  0  0  0  0  0
  -16.1607   -9.2138    3.7253 C   0  0  0  0  0  0  0  0  0  0  0  0
  -17.4487   -8.7506    4.0689 N   0  0  0  0  0  0  0  0  0  0  0  0
  -17.7777   -8.7979    5.4566 C   0  0  0  0  0  0  0  0  0  0  0  0
  -16.7914   -8.1014    6.3484 C   0  0  0  0  0  0  0  0  0  0  0  0
  -17.9972   -7.6589    3.3577 C   0  0  0  0  0  0  0  0  0  0  0  0
  -17.3860   -6.3915    3.8293 C   0  0  0  0  0  0  0  0  0  0  0  0
  -18.0224   -5.4295    4.5920 C   0  0  0  0  0  0  0  0  0  0  0  0
  -17.0943   -4.4267    4.7897 C   0  0  0  0  0  0  0  0  0  0  0  0
  -15.9453   -4.7654    4.1740 N   0  0  0  0  0  0  0  0  0  0  0  0
  -14.7648   -3.9350    4.1789 C   0  0  0  0  0  0  0  0  0  0  0  0
  -16.1193   -5.9476    3.5958 N   0  0  0  0  0  0  0  0  0  0  0  0
  -13.3732   -8.9752   11.6575 C   0  0  0  0  0  0  0  0  0  0  0  0
  -13.8677   -7.6997   11.0509 C   0  0  0  0  0  0  0  0  0  0  0  0
  -15.3576   -7.7184   10.8898 C   0  0  0  0  0  0  0  0  0  0  0  0
 35 36  1  0  0  0
 36 37  1  0  0  0
 36  1  1  0  0  0
  1  2  2  0  0  0
  2  3  1  0  0  0
  3  4  1  0  0  0
  4  5  2  0  0  0
  5  6  1  0  0  0
  6  7  2  0  0  0
  7  8  1  0  0  0
  8  9  2  0  0  0
  7 22  1  0  0  0
 22 23  1  0  0  0
 23 24  1  0  0  0
 24 25  1  0  0  0
 25 28  1  0  0  0
 28 29  1  0  0  0
 29 30  1  0  0  0
 30 31  2  0  0  0
 31 32  1  0  0  0
 32 33  1  0  0  0
 32 34  1  0  0  0
 25 26  1  0  0  0
 26 27  1  0  0  0
  2 11  1  0  0  0
 11 12  2  0  0  0
 12 13  1  0  0  0
 13 14  1  0  0  0
 14 15  2  0  0  0
 15 16  1  0  0  0
 16 17  2  0  0  0
 17 18  1  0  0  0
 18 19  1  0  0  0
 18 20  2  0  0  0
 20 21  1  0  0  0
  9  1  1  0  0  0
 27 22  1  0  0  0
 20 11  1  0  0  0
  9  4  1  0  0  0
 34 29  2  0  0  0
 17 13  1  0  0  0
  3 10  1  0  0  0
M  END
> <minimizedAffinity>
11.50762

> <CNNscore>
0.5006250739

> <CNNaffinity>
7.7174901962

> <CNN_VS>
3.8635690212

> <CNNaffinity_variance>
0.5231150389

$$$$
[H]c1nc2c(C([H])([H])[H])c(C([H])([H])[H])c(-c3c(C([H])(C([H])([H])[H])C([H])([H])[H])c4c([H])c(C5([H])C([H])([H])C([H])([H])N(C([H])([H])c6nn(C([H])([H])[H])c([H])c6[H])C([H])([H])C5([H])[H])c([H])c([H])c4n3[H])c([H])n2n1


 37 42  0  0  0  0  0  0  0  0999 V2000
   -8.6351  -10.3804    5.8496 C   0  0  0  0  0  0  0  0  0  0  0  0
   -9.1622  -11.5509    5.3630 C   0  0  0  0  0  0  0  0  0  0  0  0
  -10.4471  -11.6808    5.8706 N   0  0  0  0  0  0  0  0  0  0  0  0
  -10.7429  -10.6580    6.6388 C   0  0  0  0  0  0  0  0  0  0  0  0
  -11.9144  -10.3765    7.3406 C   0  0  0  0  0  0  0  0  0  0  0  0
  -11.9647   -9.2187    8.0745 C   0  0  0  0  0  0  0  0  0  0  0  0
  -10.8982   -8.3489    8.1286 C   0  0  0  0  0  0  0  0  0  0  0  0
   -9.7596   -8.6862    7.4088 C   0  0  0  0  0  0  0  0  0  0  0  0
   -9.6636   -9.8303    6.6595 C   0  0  0  0  0  0  0  0  0  0  0  0
  -11.0883  -12.4881    5.6679 H   0  0  0  0  0  0  0  0  0  0  0  0
   -8.6506  -12.5833    4.4927 C   0  0  0  0  0  0  0  0  0  0  0  0
   -8.3839  -13.8328    4.9901 C   0  0  0  0  0  0  0  0  0  0  0  0
   -7.8844  -14.8329    4.2408 N   0  0  0  0  0  0  0  0  0  0  0  0
   -7.5648  -16.0832    4.5314 N   0  0  0  0  0  0  0  0  0  0  0  0
   -7.0956  -16.7120    3.4445 C   0  0  0  0  0  0  0  0  0  0  0  0
   -7.1388  -15.7958    2.4617 N   0  0  0  0  0  0  0  0  0  0  0  0
   -7.6221  -14.6368    2.9386 C   0  0  0  0  0  0  0  0  0  0  0  0
   -7.8631  -13.4118    2.3633 C   0  0  0  0  0  0  0  0  0  0  0  0
   -7.5748  -13.1741    0.9247 C   0  0  0  0  0  0  0  0  0  0  0  0
   -8.3833  -12.3785    3.1563 C   0  0  0  0  0  0  0  0  0  0  0  0
   -8.6443  -11.0813    2.5289 C   0  0  0  0  0  0  0  0  0  0  0  0
  -11.0330   -7.1054    8.8931 C   0  0  0  0  0  0  0  0  0  0  0  0
  -10.1508   -7.0414   10.1346 C   0  0  0  0  0  0  0  0  0  0  0  0
  -10.8602   -6.0282   11.0567 C   0  0  0  0  0  0  0  0  0  0  0  0
  -11.3729   -4.9108   10.3639 N   0  0  0  0  0  0  0  0  0  0  0  0
  -10.8099   -4.6645    9.0761 C   0  0  0  0  0  0  0  0  0  0  0  0
  -10.8631   -5.8404    8.1445 C   0  0  0  0  0  0  0  0  0  0  0  0
  -12.7453   -4.5962   10.4904 C   0  0  0  0  0  0  0  0  0  0  0  0
  -13.5697   -5.7525   10.0593 C   0  0  0  0  0  0  0  0  0  0  0  0
  -13.9673   -6.8001   10.8695 C   0  0  0  0  0  0  0  0  0  0  0  0
  -14.7016   -7.6463   10.0626 C   0  0  0  0  0  0  0  0  0  0  0  0
  -14.7475   -7.1345    8.8177 N   0  0  0  0  0  0  0  0  0  0  0  0
  -15.4347   -7.7714    7.7200 C   0  0  0  0  0  0  0  0  0  0  0  0
  -14.0669   -5.9947    8.8143 N   0  0  0  0  0  0  0  0  0  0  0  0
   -6.5816   -9.3833    6.9338 C   0  0  0  0  0  0  0  0  0  0  0  0
   -7.3039   -9.8447    5.7071 C   0  0  0  0  0  0  0  0  0  0  0  0
   -6.9932   -8.9666    4.5331 C   0  0  0  0  0  0  0  0  0  0  0  0
 35 36  1  0  0  0
 36 37  1  0  0  0
 36  1  1  0  0  0
  1  2  2  0  0  0
  2  3  1  0  0  0
  3  4  1  0  0  0
  4  5  2  0  0  0
  5  6  1  0  0  0
  6  7  2  0  0  0
  7  8  1  0  0  0
  8  9  2  0  0  0
  7 22  1  0  0  0
 22 23  1  0  0  0
 23 24  1  0  0  0
 24 25  1  0  0  0
 25 28  1  0  0  0
 28 29  1  0  0  0
 29 30  1  0  0  0
 30 31  2  0  0  0
 31 32  1  0  0  0
 32 33  1  0  0  0
 32 34  1  0  0  0
 25 26  1  0  0  0
 26 27  1  0  0  0
  2 11  1  0  0  0
 11 12  2  0  0  0
 12 13  1  0  0  0
 13 14  1  0  0  0
 14 15  2  0  0  0
 15 16  1  0  0  0
 16 17  2  0  0  0
 17 18  1  0  0  0
 18 19  1  0  0  0
 18 20  2  0  0  0
 20 21  1  0  0  0
  9  1  1  0  0  0
 27 22  1  0  0  0
 20 11  1  0  0  0
  9  4  1  0  0  0
 34 29  2  0  0  0
 17 13  1  0  0  0
  3 10  1  0  0  0
M  END
> <minimizedAffinity>
16.87508

> <CNNscore>
0.4413315952

> <CNNaffinity>
7.2433385849

> <CNN_VS>
3.1967141628

> <CNNaffinity_variance>
0.7645410299

$$$$
[H]c1nc2c(C([H])([H])[H])c(C([H])([H])[H])c(-c3c(C([H])(C([H])([H])[H])C([H])([H])[H])c4c([H])c(C5([H])C([H])([H])C([H])([H])N(C([H])([H])c6nn(C([H])([H])[H])c([H])c6[H])C([H])([H])C5([H])[H])c([H])c([H])c4n3[H])c([H])n2n1


 37 42  0  0  0  0  0  0  0  0999 V2000
   -9.1302   -9.9616    6.3944 C   0  0  0  0  0  0  0  0  0  0  0  0
   -9.6411  -10.7984    5.4334 C   0  0  0  0  0  0  0  0  0  0  0  0
  -11.0246  -10.7662    5.5349 N   0  0  0  0  0  0  0  0  0  0  0  0
  -11.3955   -9.9568    6.4999 C   0  0  0  0  0  0  0  0  0  0  0  0
  -12.6742   -9.6204    6.9425 C   0  0  0  0  0  0  0  0  0  0  0  0
  -12.7846   -8.7318    7.9816 C   0  0  0  0  0  0  0  0  0  0  0  0
  -11.6752   -8.1792    8.5826 C   0  0  0  0  0  0  0  0  0  0  0  0
  -10.4298   -8.5552    8.0970 C   0  0  0  0  0  0  0  0  0  0  0  0
  -10.2698   -9.4372    7.0596 C   0  0  0  0  0  0  0  0  0  0  0  0
  -11.6791  -11.3165    4.9245 H   0  0  0  0  0  0  0  0  0  0  0  0
   -9.0371  -11.6378    4.4256 C   0  0  0  0  0  0  0  0  0  0  0  0
   -8.6663  -11.1049    3.2180 C   0  0  0  0  0  0  0  0  0  0  0  0
   -8.1206  -11.8341    2.2273 N   0  0  0  0  0  0  0  0  0  0  0  0
   -7.7054  -11.5098    1.0138 N   0  0  0  0  0  0  0  0  0  0  0  0
   -7.2299  -12.5892    0.3770 C   0  0  0  0  0  0  0  0  0  0  0  0
   -7.3666  -13.6019    1.2504 N   0  0  0  0  0  0  0  0  0  0  0  0
   -7.9127  -13.1505    2.3916 C   0  0  0  0  0  0  0  0  0  0  0  0
   -8.2563  -13.7607    3.5745 C   0  0  0  0  0  0  0  0  0  0  0  0
   -8.0381  -15.2174    3.7734 C   0  0  0  0  0  0  0  0  0  0  0  0
   -8.8245  -12.9885    4.5981 C   0  0  0  0  0  0  0  0  0  0  0  0
   -9.1773  -13.6491    5.8566 C   0  0  0  0  0  0  0  0  0  0  0  0
  -11.8625   -7.1999    9.6570 C   0  0  0  0  0  0  0  0  0  0  0  0
  -11.2389   -5.8384    9.3716 C   0  0  0  0  0  0  0  0  0  0  0  0
  -11.0098   -5.2219   10.7670 C   0  0  0  0  0  0  0  0  0  0  0  0
  -12.0766   -5.4574   11.6604 N   0  0  0  0  0  0  0  0  0  0  0  0
  -13.3233   -5.8098   11.0624 C   0  0  0  0  0  0  0  0  0  0  0  0
  -13.2489   -6.9797   10.1249 C   0  0  0  0  0  0  0  0  0  0  0  0
  -11.8074   -6.0797   12.9008 C   0  0  0  0  0  0  0  0  0  0  0  0
  -10.6439   -5.4269   13.5508 C   0  0  0  0  0  0  0  0  0  0  0  0
  -10.7030   -4.3145   14.3700 C   0  0  0  0  0  0  0  0  0  0  0  0
   -9.4004   -4.0466   14.7407 C   0  0  0  0  0  0  0  0  0  0  0  0
   -8.5867   -4.9564   14.1715 N   0  0  0  0  0  0  0  0  0  0  0  0
   -7.1544   -4.9652   14.3492 C   0  0  0  0  0  0  0  0  0  0  0  0
   -9.3337   -5.7878   13.4552 N   0  0  0  0  0  0  0  0  0  0  0  0
   -7.3509   -9.9790    8.1889 C   0  0  0  0  0  0  0  0  0  0  0  0
   -7.7582   -9.7270    6.7712 C   0  0  0  0  0  0  0  0  0  0  0  0
   -7.0389   -8.5411    6.2036 C   0  0  0  0  0  0  0  0  0  0  0  0
 35 36  1  0  0  0
 36 37  1  0  0  0
 36  1  1  0  0  0
  1  2  2  0  0  0
  2  3  1  0  0  0
  3  4  1  0  0  0
  4  5  2  0  0  0
  5  6  1  0  0  0
  6  7  2  0  0  0
  7  8  1  0  0  0
  8  9  2  0  0  0
  7 22  1  0  0  0
 22 23  1  0  0  0
 23 24  1  0  0  0
 24 25  1  0  0  0
 25 28  1  0  0  0
 28 29  1  0  0  0
 29 30  1  0  0  0
 30 31  2  0  0  0
 31 32  1  0  0  0
 32 33  1  0  0  0
 32 34  1  0  0  0
 25 26  1  0  0  0
 26 27  1  0  0  0
  2 11  1  0  0  0
 11 12  2  0  0  0
 12 13  1  0  0  0
 13 14  1  0  0  0
 14 15  2  0  0  0
 15 16  1  0  0  0
 16 17  2  0  0  0
 17 18  1  0  0  0
 18 19  1  0  0  0
 18 20  2  0  0  0
 20 21  1  0  0  0
  9  1  1  0  0  0
 27 22  1  0  0  0
 20 11  1  0  0  0
  9  4  1  0  0  0
 34 29  2  0  0  0
 17 13  1  0  0  0
  3 10  1  0  0  0
M  END
> <minimizedAffinity>
13.54796

> <CNNscore>
0.4233916700

> <CNNaffinity>
7.0481061935

> <CNN_VS>
2.9841094017

> <CNNaffinity_variance>
0.2866494060

$$$$
[H]c1nc2c(C([H])([H])[H])c(C([H])([H])[H])c(-c3c(C([H])(C([H])([H])[H])C([H])([H])[H])c4c([H])c(C5([H])C([H])([H])C([H])([H])N(C([H])([H])c6nn(C([H])([H])[H])c([H])c6[H])C([H])([H])C5([H])[H])c([H])c([H])c4n3[H])c([H])n2n1


 37 42  0  0  0  0  0  0  0  0999 V2000
  -11.8018   -8.5825    7.1320 C   0  0  0  0  0  0  0  0  0  0  0  0
  -10.9196   -7.6989    7.7026 C   0  0  0  0  0  0  0  0  0  0  0  0
  -11.6192   -6.5413    8.0123 N   0  0  0  0  0  0  0  0  0  0  0  0
  -12.8806   -6.6613    7.6685 C   0  0  0  0  0  0  0  0  0  0  0  0
  -13.9330   -5.7561    7.8001 C   0  0  0  0  0  0  0  0  0  0  0  0
  -15.1735   -6.1398    7.3582 C   0  0  0  0  0  0  0  0  0  0  0  0
  -15.3909   -7.3788    6.7972 C   0  0  0  0  0  0  0  0  0  0  0  0
  -14.3023   -8.2345    6.6931 C   0  0  0  0  0  0  0  0  0  0  0  0
  -13.0450   -7.8965    7.1229 C   0  0  0  0  0  0  0  0  0  0  0  0
  -11.1937   -5.6898    8.4570 H   0  0  0  0  0  0  0  0  0  0  0  0
   -9.5089   -7.7607    8.0047 C   0  0  0  0  0  0  0  0  0  0  0  0
   -9.0185   -7.1486    9.1292 C   0  0  0  0  0  0  0  0  0  0  0  0
   -7.7135   -7.1473    9.4576 N   0  0  0  0  0  0  0  0  0  0  0  0
   -7.0575   -6.6220   10.4793 N   0  0  0  0  0  0  0  0  0  0  0  0
   -5.7464   -6.8822   10.3784 C   0  0  0  0  0  0  0  0  0  0  0  0
   -5.6152   -7.5956    9.2466 N   0  0  0  0  0  0  0  0  0  0  0  0
   -6.8173   -7.7654    8.6717 C   0  0  0  0  0  0  0  0  0  0  0  0
   -7.2290   -8.4040    7.5261 C   0  0  0  0  0  0  0  0  0  0  0  0
   -6.2514   -9.0897    6.6410 C   0  0  0  0  0  0  0  0  0  0  0  0
   -8.5921   -8.3969    7.1958 C   0  0  0  0  0  0  0  0  0  0  0  0
   -9.0186   -9.0889    5.9777 C   0  0  0  0  0  0  0  0  0  0  0  0
  -16.7499   -7.7454    6.3881 C   0  0  0  0  0  0  0  0  0  0  0  0
  -17.8424   -7.1875    7.2931 C   0  0  0  0  0  0  0  0  0  0  0  0
  -19.0380   -8.1391    7.0816 C   0  0  0  0  0  0  0  0  0  0  0  0
  -19.2131   -8.5204    5.7342 N   0  0  0  0  0  0  0  0  0  0  0  0
  -18.5930   -7.6784    4.7633 C   0  0  0  0  0  0  0  0  0  0  0  0
  -17.1250   -7.4573    4.9860 C   0  0  0  0  0  0  0  0  0  0  0  0
  -19.2392   -9.8957    5.4086 C   0  0  0  0  0  0  0  0  0  0  0  0
  -19.9094  -10.6578    6.4913 C   0  0  0  0  0  0  0  0  0  0  0  0
  -20.0330  -10.2441    7.8050 C   0  0  0  0  0  0  0  0  0  0  0  0
  -20.7097  -11.2543    8.4589 C   0  0  0  0  0  0  0  0  0  0  0  0
  -20.9847  -12.2377    7.5807 N   0  0  0  0  0  0  0  0  0  0  0  0
  -21.6836  -13.4495    7.9355 C   0  0  0  0  0  0  0  0  0  0  0  0
  -20.5038  -11.8800    6.3962 N   0  0  0  0  0  0  0  0  0  0  0  0
  -12.0438  -10.1358    5.1532 C   0  0  0  0  0  0  0  0  0  0  0  0
  -11.5538   -9.8751    6.5430 C   0  0  0  0  0  0  0  0  0  0  0  0
  -11.6717  -11.1005    7.3977 C   0  0  0  0  0  0  0  0  0  0  0  0
 35 36  1  0  0  0
 36 37  1  0  0  0
 36  1  1  0  0  0
  1  2  2  0  0  0
  2  3  1  0  0  0
  3  4  1  0  0  0
  4  5  2  0  0  0
  5  6  1  0  0  0
  6  7  2  0  0  0
  7  8  1  0  0  0
  8  9  2  0  0  0
  7 22  1  0  0  0
 22 23  1  0  0  0
 23 24  1  0  0  0
 24 25  1  0  0  0
 25 28  1  0  0  0
 28 29  1  0  0  0
 29 30  1  0  0  0
 30 31  2  0  0  0
 31 32  1  0  0  0
 32 33  1  0  0  0
 32 34  1  0  0  0
 25 26  1  0  0  0
 26 27  1  0  0  0
  2 11  1  0  0  0
 11 12  2  0  0  0
 12 13  1  0  0  0
 13 14  1  0  0  0
 14 15  2  0  0  0
 15 16  1  0  0  0
 16 17  2  0  0  0
 17 18  1  0  0  0
 18 19  1  0  0  0
 18 20  2  0  0  0
 20 21  1  0  0  0
  9  1  1  0  0  0
 27 22  1  0  0  0
 20 11  1  0  0  0
  9  4  1  0  0  0
 34 29  2  0  0  0
 17 13  1  0  0  0
  3 10  1  0  0  0
M  END
> <minimizedAffinity>
12.42473

> <CNNscore>
0.4147426784

> <CNNaffinity>
7.3477921486

> <CNN_VS>
3.0474429131

> <CNNaffinity_variance>
1.2002838850

$$$$
[H]c1nc2c(C([H])([H])[H])c(C([H])([H])[H])c(-c3c(C([H])(C([H])([H])[H])C([H])([H])[H])c4c([H])c(C5([H])C([H])([H])C([H])([H])N(C([H])([H])c6nn(C([H])([H])[H])c([H])c6[H])C([H])([H])C5([H])[H])c([H])c([H])c4n3[H])c([H])n2n1


 37 42  0  0  0  0  0  0  0  0999 V2000
   -9.1072  -10.3420    6.5259 C   0  0  0  0  0  0  0  0  0  0  0  0
   -9.6202  -11.2826    5.6676 C   0  0  0  0  0  0  0  0  0  0  0  0
  -11.0036  -11.2372    5.7663 N   0  0  0  0  0  0  0  0  0  0  0  0
  -11.3723  -10.3221    6.6326 C   0  0  0  0  0  0  0  0  0  0  0  0
  -12.6501   -9.9355    7.0351 C   0  0  0  0  0  0  0  0  0  0  0  0
  -12.7581   -8.9336    7.9657 C   0  0  0  0  0  0  0  0  0  0  0  0
  -11.6474   -8.3173    8.4982 C   0  0  0  0  0  0  0  0  0  0  0  0
  -10.4031   -8.7480    8.0576 C   0  0  0  0  0  0  0  0  0  0  0  0
  -10.2453   -9.7433    7.1279 C   0  0  0  0  0  0  0  0  0  0  0  0
  -11.6595  -11.8530    5.2236 H   0  0  0  0  0  0  0  0  0  0  0  0
   -9.0185  -12.2328    4.7620 C   0  0  0  0  0  0  0  0  0  0  0  0
   -8.7797  -13.5188    5.1728 C   0  0  0  0  0  0  0  0  0  0  0  0
   -8.2013  -14.4473    4.3889 N   0  0  0  0  0  0  0  0  0  0  0  0
   -7.8913  -15.7160    4.5993 N   0  0  0  0  0  0  0  0  0  0  0  0
   -7.3181  -16.2455    3.5093 C   0  0  0  0  0  0  0  0  0  0  0  0
   -7.2863  -15.2481    2.6086 N   0  0  0  0  0  0  0  0  0  0  0  0
   -7.8265  -14.1377    3.1372 C   0  0  0  0  0  0  0  0  0  0  0  0
   -8.0324  -12.8692    2.6493 C   0  0  0  0  0  0  0  0  0  0  0  0
   -7.6202  -12.5063    1.2682 C   0  0  0  0  0  0  0  0  0  0  0  0
   -8.6358  -11.9116    3.4775 C   0  0  0  0  0  0  0  0  0  0  0  0
   -8.8580  -10.5667    2.9424 C   0  0  0  0  0  0  0  0  0  0  0  0
  -11.8322   -7.2210    9.4536 C   0  0  0  0  0  0  0  0  0  0  0  0
  -10.9596   -6.0022    9.1762 C   0  0  0  0  0  0  0  0  0  0  0  0
  -10.8458   -5.2938   10.5419 C   0  0  0  0  0  0  0  0  0  0  0  0
  -12.0586   -5.2795   11.2632 N   0  0  0  0  0  0  0  0  0  0  0  0
  -13.2418   -5.4984   10.4962 C   0  0  0  0  0  0  0  0  0  0  0  0
  -13.2187   -6.7520    9.6708 C   0  0  0  0  0  0  0  0  0  0  0  0
  -12.0840   -5.8112   12.5727 C   0  0  0  0  0  0  0  0  0  0  0  0
  -11.1155   -5.0846   13.4310 C   0  0  0  0  0  0  0  0  0  0  0  0
   -9.8772   -5.5596   13.8222 C   0  0  0  0  0  0  0  0  0  0  0  0
   -9.3243   -4.5719   14.6126 C   0  0  0  0  0  0  0  0  0  0  0  0
  -10.1890   -3.5428   14.6971 N   0  0  0  0  0  0  0  0  0  0  0  0
   -9.9257   -2.3417   15.4528 C   0  0  0  0  0  0  0  0  0  0  0  0
  -11.2674   -3.8500   13.9864 N   0  0  0  0  0  0  0  0  0  0  0  0
   -7.3272  -10.1494    8.3095 C   0  0  0  0  0  0  0  0  0  0  0  0
   -7.7345  -10.0674    6.8718 C   0  0  0  0  0  0  0  0  0  0  0  0
   -7.0124   -8.9597    6.1665 C   0  0  0  0  0  0  0  0  0  0  0  0
 35 36  1  0  0  0
 36 37  1  0  0  0
 36  1  1  0  0  0
  1  2  2  0  0  0
  2  3  1  0  0  0
  3  4  1  0  0  0
  4  5  2  0  0  0
  5  6  1  0  0  0
  6  7  2  0  0  0
  7  8  1  0  0  0
  8  9  2  0  0  0
  7 22  1  0  0  0
 22 23  1  0  0  0
 23 24  1  0  0  0
 24 25  1  0  0  0
 25 28  1  0  0  0
 28 29  1  0  0  0
 29 30  1  0  0  0
 30 31  2  0  0  0
 31 32  1  0  0  0
 32 33  1  0  0  0
 32 34  1  0  0  0
 25 26  1  0  0  0
 26 27  1  0  0  0
  2 11  1  0  0  0
 11 12  2  0  0  0
 12 13  1  0  0  0
 13 14  1  0  0  0
 14 15  2  0  0  0
 15 16  1  0  0  0
 16 17  2  0  0  0
 17 18  1  0  0  0
 18 19  1  0  0  0
 18 20  2  0  0  0
 20 21  1  0  0  0
  9  1  1  0  0  0
 27 22  1  0  0  0
 20 11  1  0  0  0
  9  4  1  0  0  0
 34 29  2  0  0  0
 17 13  1  0  0  0
  3 10  1  0  0  0
M  END
> <minimizedAffinity>
15.87944

> <CNNscore>
0.4138588309

> <CNNaffinity>
7.0890321732

> <CNN_VS>
2.9338586330

> <CNNaffinity_variance>
0.3713775277

$$$$
[H]c1nc2c(C([H])([H])[H])c(C([H])([H])[H])c(-c3c(C([H])(C([H])([H])[H])C([H])([H])[H])c4c([H])c(C5([H])C([H])([H])C([H])([H])N(C([H])([H])c6nn(C([H])([H])[H])c([H])c6[H])C([H])([H])C5([H])[H])c([H])c([H])c4n3[H])c([H])n2n1


 37 42  0  0  0  0  0  0  0  0999 V2000
  -13.2366   -7.2785    8.6058 C   0  0  0  0  0  0  0  0  0  0  0  0
  -12.5456   -6.2392    9.1775 C   0  0  0  0  0  0  0  0  0  0  0  0
  -12.9239   -5.0715    8.5303 N   0  0  0  0  0  0  0  0  0  0  0  0
  -13.8090   -5.3305    7.5958 C   0  0  0  0  0  0  0  0  0  0  0  0
  -14.4587   -4.4659    6.7157 C   0  0  0  0  0  0  0  0  0  0  0  0
  -15.3561   -5.0030    5.8281 C   0  0  0  0  0  0  0  0  0  0  0  0
  -15.6190   -6.3545    5.7928 C   0  0  0  0  0  0  0  0  0  0  0  0
  -14.9390   -7.1629    6.6940 C   0  0  0  0  0  0  0  0  0  0  0  0
  -14.0355   -6.6718    7.6009 C   0  0  0  0  0  0  0  0  0  0  0  0
  -12.5492   -4.1167    8.7580 H   0  0  0  0  0  0  0  0  0  0  0  0
  -11.5726   -6.1606   10.2415 C   0  0  0  0  0  0  0  0  0  0  0  0
  -11.9625   -5.7988   11.5051 C   0  0  0  0  0  0  0  0  0  0  0  0
  -11.1051   -5.6833   12.5360 N   0  0  0  0  0  0  0  0  0  0  0  0
  -11.2838   -5.3517   13.8041 N   0  0  0  0  0  0  0  0  0  0  0  0
  -10.1164   -5.3710   14.4627 C   0  0  0  0  0  0  0  0  0  0  0  0
   -9.2012   -5.7317   13.5465 N   0  0  0  0  0  0  0  0  0  0  0  0
   -9.7966   -5.9268   12.3583 C   0  0  0  0  0  0  0  0  0  0  0  0
   -9.3255   -6.2960   11.1208 C   0  0  0  0  0  0  0  0  0  0  0  0
   -7.8800   -6.5650   10.9035 C   0  0  0  0  0  0  0  0  0  0  0  0
  -10.2303   -6.4119   10.0554 C   0  0  0  0  0  0  0  0  0  0  0  0
   -9.7169   -6.8152    8.7446 C   0  0  0  0  0  0  0  0  0  0  0  0
  -16.6238   -6.8590    4.8523 C   0  0  0  0  0  0  0  0  0  0  0  0
  -17.7937   -5.9084    4.6250 C   0  0  0  0  0  0  0  0  0  0  0  0
  -18.9435   -6.8222    4.1530 C   0  0  0  0  0  0  0  0  0  0  0  0
  -18.5228   -7.8250    3.2536 N   0  0  0  0  0  0  0  0  0  0  0  0
  -17.2768   -7.5911    2.5987 C   0  0  0  0  0  0  0  0  0  0  0  0
  -16.1342   -7.3074    3.5300 C   0  0  0  0  0  0  0  0  0  0  0  0
  -18.7977   -9.1779    3.5575 C   0  0  0  0  0  0  0  0  0  0  0  0
  -19.1907   -9.3049    4.9830 C   0  0  0  0  0  0  0  0  0  0  0  0
  -18.6330   -8.6008    6.0342 C   0  0  0  0  0  0  0  0  0  0  0  0
  -19.2857   -9.0351    7.1706 C   0  0  0  0  0  0  0  0  0  0  0  0
  -20.1992   -9.9621    6.8241 N   0  0  0  0  0  0  0  0  0  0  0  0
  -21.0577  -10.6279    7.7742 C   0  0  0  0  0  0  0  0  0  0  0  0
  -20.1433  -10.1253    5.5078 N   0  0  0  0  0  0  0  0  0  0  0  0
  -14.0036   -9.6259    8.0686 C   0  0  0  0  0  0  0  0  0  0  0  0
  -13.1240   -8.6963    8.8442 C   0  0  0  0  0  0  0  0  0  0  0  0
  -12.9210   -9.1860   10.2460 C   0  0  0  0  0  0  0  0  0  0  0  0
 35 36  1  0  0  0
 36 37  1  0  0  0
 36  1  1  0  0  0
  1  2  2  0  0  0
  2  3  1  0  0  0
  3  4  1  0  0  0
  4  5  2  0  0  0
  5  6  1  0  0  0
  6  7  2  0  0  0
  7  8  1  0  0  0
  8  9  2  0  0  0
  7 22  1  0  0  0
 22 23  1  0  0  0
 23 24  1  0  0  0
 24 25  1  0  0  0
 25 28  1  0  0  0
 28 29  1  0  0  0
 29 30  1  0  0  0
 30 31  2  0  0  0
 31 32  1  0  0  0
 32 33  1  0  0  0
 32 34  1  0  0  0
 25 26  1  0  0  0
 26 27  1  0  0  0
  2 11  1  0  0  0
 11 12  2  0  0  0
 12 13  1  0  0  0
 13 14  1  0  0  0
 14 15  2  0  0  0
 15 16  1  0  0  0
 16 17  2  0  0  0
 17 18  1  0  0  0
 18 19  1  0  0  0
 18 20  2  0  0  0
 20 21  1  0  0  0
  9  1  1  0  0  0
 27 22  1  0  0  0
 20 11  1  0  0  0
  9  4  1  0  0  0
 34 29  2  0  0  0
 17 13  1  0  0  0
  3 10  1  0  0  0
M  END
> <minimizedAffinity>
21.57693

> <CNNscore>
0.4133117199

> <CNNaffinity>
7.3823294640

> <CNN_VS>
3.0512032509

> <CNNaffinity_variance>
0.9517681003

$$$$
[H]c1nc2c(C([H])([H])[H])c(C([H])([H])[H])c(-c3c(C([H])(C([H])([H])[H])C([H])([H])[H])c4c([H])c(C5([H])C([H])([H])C([H])([H])N(C([H])([H])c6nn(C([H])([H])[H])c([H])c6[H])C([H])([H])C5([H])[H])c([H])c([H])c4n3[H])c([H])n2n1


 37 42  0  0  0  0  0  0  0  0999 V2000
   -9.7253   -7.3065    7.4962 C   0  0  0  0  0  0  0  0  0  0  0  0
  -10.6927   -8.2729    7.6189 C   0  0  0  0  0  0  0  0  0  0  0  0
  -10.0591   -9.5073    7.6381 N   0  0  0  0  0  0  0  0  0  0  0  0
   -8.7586   -9.3575    7.5373 C   0  0  0  0  0  0  0  0  0  0  0  0
   -7.7469  -10.3169    7.5219 C   0  0  0  0  0  0  0  0  0  0  0  0
   -6.4497   -9.8851    7.4109 C   0  0  0  0  0  0  0  0  0  0  0  0
   -6.1377   -8.5470    7.3154 C   0  0  0  0  0  0  0  0  0  0  0  0
   -7.1899   -7.6411    7.3353 C   0  0  0  0  0  0  0  0  0  0  0  0
   -8.5014   -8.0248    7.4472 C   0  0  0  0  0  0  0  0  0  0  0  0
  -10.5555  -10.4297    7.7193 H   0  0  0  0  0  0  0  0  0  0  0  0
  -12.1326   -8.2286    7.7175 C   0  0  0  0  0  0  0  0  0  0  0  0
  -12.9035   -8.3498    6.5902 C   0  0  0  0  0  0  0  0  0  0  0  0
  -14.2480   -8.2939    6.6076 N   0  0  0  0  0  0  0  0  0  0  0  0
  -15.1512   -8.3866    5.6455 N   0  0  0  0  0  0  0  0  0  0  0  0
  -16.3874   -8.2678    6.1498 C   0  0  0  0  0  0  0  0  0  0  0  0
  -16.2134   -8.0982    7.4720 N   0  0  0  0  0  0  0  0  0  0  0  0
  -14.9028   -8.1127    7.7659 C   0  0  0  0  0  0  0  0  0  0  0  0
  -14.2020   -7.9834    8.9414 C   0  0  0  0  0  0  0  0  0  0  0  0
  -14.9088   -7.7775   10.2326 C   0  0  0  0  0  0  0  0  0  0  0  0
  -12.8012   -8.0431    8.9083 C   0  0  0  0  0  0  0  0  0  0  0  0
  -12.0672   -7.9135   10.1689 C   0  0  0  0  0  0  0  0  0  0  0  0
   -4.7287   -8.1487    7.2467 C   0  0  0  0  0  0  0  0  0  0  0  0
   -4.3447   -7.0527    8.2342 C   0  0  0  0  0  0  0  0  0  0  0  0
   -3.1000   -6.3912    7.6073 C   0  0  0  0  0  0  0  0  0  0  0  0
   -2.2058   -7.3207    7.0345 N   0  0  0  0  0  0  0  0  0  0  0  0
   -2.3380   -8.6691    7.4823 C   0  0  0  0  0  0  0  0  0  0  0  0
   -3.7240   -9.2301    7.3490 C   0  0  0  0  0  0  0  0  0  0  0  0
   -1.8367   -7.1709    5.6781 C   0  0  0  0  0  0  0  0  0  0  0  0
   -1.9551   -5.7469    5.2775 C   0  0  0  0  0  0  0  0  0  0  0  0
   -1.0675   -4.7422    5.6163 C   0  0  0  0  0  0  0  0  0  0  0  0
   -1.5655   -3.5876    5.0461 C   0  0  0  0  0  0  0  0  0  0  0  0
   -2.7051   -3.8790    4.3902 N   0  0  0  0  0  0  0  0  0  0  0  0
   -3.4892   -2.8963    3.6814 C   0  0  0  0  0  0  0  0  0  0  0  0
   -2.9407   -5.1781    4.5284 N   0  0  0  0  0  0  0  0  0  0  0  0
   -9.0234   -5.1953    6.2976 C   0  0  0  0  0  0  0  0  0  0  0  0
   -9.8683   -5.8819    7.3243 C   0  0  0  0  0  0  0  0  0  0  0  0
  -10.0613   -5.0174    8.5332 C   0  0  0  0  0  0  0  0  0  0  0  0
 35 36  1  0  0  0
 36 37  1  0  0  0
 36  1  1  0  0  0
  1  2  2  0  0  0
  2  3  1  0  0  0
  3  4  1  0  0  0
  4  5  2  0  0  0
  5  6  1  0  0  0
  6  7  2  0  0  0
  7  8  1  0  0  0
  8  9  2  0  0  0
  7 22  1  0  0  0
 22 23  1  0  0  0
 23 24  1  0  0  0
 24 25  1  0  0  0
 25 28  1  0  0  0
 28 29  1  0  0  0
 29 30  1  0  0  0
 30 31  2  0  0  0
 31 32  1  0  0  0
 32 33  1  0  0  0
 32 34  1  0  0  0
 25 26  1  0  0  0
 26 27  1  0  0  0
  2 11  1  0  0  0
 11 12  2  0  0  0
 12 13  1  0  0  0
 13 14  1  0  0  0
 14 15  2  0  0  0
 15 16  1  0  0  0
 16 17  2  0  0  0
 17 18  1  0  0  0
 18 19  1  0  0  0
 18 20  2  0  0  0
 20 21  1  0  0  0
  9  1  1  0  0  0
 27 22  1  0  0  0
 20 11  1  0  0  0
  9  4  1  0  0  0
 34 29  2  0  0  0
 17 13  1  0  0  0
  3 10  1  0  0  0
M  END
> <minimizedAffinity>
-1.01345

> <CNNscore>
0.3382026851

> <CNNaffinity>
7.1890878677

> <CNN_VS>
2.4313688278

> <CNNaffinity_variance>
0.5850747824

$$$$
[H]c1nc2c(C([H])([H])[H])c(C([H])([H])[H])c(-c3c(C([H])(C([H])([H])[H])C([H])([H])[H])c4c([H])c(C5([H])C([H])([H])C([H])([H])N(C([H])([H])c6nn(C([H])([H])[H])c([H])c6[H])C([H])([H])C5([H])[H])c([H])c([H])c4n3[H])c([H])n2n1


 37 42  0  0  0  0  0  0  0  0999 V2000
   -9.5260  -10.1913    6.0454 C   0  0  0  0  0  0  0  0  0  0  0  0
   -9.8737  -10.9927    4.9863 C   0  0  0  0  0  0  0  0  0  0  0  0
  -11.2547  -10.9505    4.8579 N   0  0  0  0  0  0  0  0  0  0  0  0
  -11.7773  -10.1683    5.7738 C   0  0  0  0  0  0  0  0  0  0  0  0
  -13.1104   -9.8338    6.0088 C   0  0  0  0  0  0  0  0  0  0  0  0
  -13.3881   -8.9772    7.0434 C   0  0  0  0  0  0  0  0  0  0  0  0
  -12.3917   -8.4542    7.8378 C   0  0  0  0  0  0  0  0  0  0  0  0
  -11.0846   -8.8266    7.5536 C   0  0  0  0  0  0  0  0  0  0  0  0
  -10.7581   -9.6772    6.5290 C   0  0  0  0  0  0  0  0  0  0  0  0
  -11.8009  -11.4753    4.1298 H   0  0  0  0  0  0  0  0  0  0  0  0
   -9.1142  -11.8058    4.0660 C   0  0  0  0  0  0  0  0  0  0  0  0
   -8.7117  -11.2887    2.8617 C   0  0  0  0  0  0  0  0  0  0  0  0
   -8.0226  -11.9978    1.9488 N   0  0  0  0  0  0  0  0  0  0  0  0
   -7.5542  -11.6836    0.7522 N   0  0  0  0  0  0  0  0  0  0  0  0
   -6.9250  -12.7329    0.2046 C   0  0  0  0  0  0  0  0  0  0  0  0
   -7.0214  -13.7162    1.1162 N   0  0  0  0  0  0  0  0  0  0  0  0
   -7.6936  -13.2766    2.1929 C   0  0  0  0  0  0  0  0  0  0  0  0
   -8.0594  -13.8687    3.3783 C   0  0  0  0  0  0  0  0  0  0  0  0
   -7.7085  -15.2844    3.6646 C   0  0  0  0  0  0  0  0  0  0  0  0
   -8.7778  -13.1179    4.3203 C   0  0  0  0  0  0  0  0  0  0  0  0
   -9.1530  -13.7577    5.5830 C   0  0  0  0  0  0  0  0  0  0  0  0
  -12.7508   -7.5072    8.8975 C   0  0  0  0  0  0  0  0  0  0  0  0
  -13.9560   -6.6341    8.5674 C   0  0  0  0  0  0  0  0  0  0  0  0
  -13.7790   -5.3853    9.4556 C   0  0  0  0  0  0  0  0  0  0  0  0
  -13.3257   -5.6888   10.7571 N   0  0  0  0  0  0  0  0  0  0  0  0
  -13.5177   -7.0365   11.1848 C   0  0  0  0  0  0  0  0  0  0  0  0
  -12.9476   -8.0664   10.2532 C   0  0  0  0  0  0  0  0  0  0  0  0
  -12.1494   -5.0678   11.2357 C   0  0  0  0  0  0  0  0  0  0  0  0
  -10.9788   -5.5310   10.4497 C   0  0  0  0  0  0  0  0  0  0  0  0
   -9.9238   -6.2749   10.9454 C   0  0  0  0  0  0  0  0  0  0  0  0
   -9.0652   -6.4710    9.8822 C   0  0  0  0  0  0  0  0  0  0  0  0
   -9.5768   -5.8725    8.7895 N   0  0  0  0  0  0  0  0  0  0  0  0
   -8.9284   -5.8807    7.5001 C   0  0  0  0  0  0  0  0  0  0  0  0
  -10.7285   -5.3065    9.1296 N   0  0  0  0  0  0  0  0  0  0  0  0
   -8.1226  -10.0528    8.1426 C   0  0  0  0  0  0  0  0  0  0  0  0
   -8.2347   -9.9815    6.6520 C   0  0  0  0  0  0  0  0  0  0  0  0
   -7.3276   -8.9291    6.0903 C   0  0  0  0  0  0  0  0  0  0  0  0
 35 36  1  0  0  0
 36 37  1  0  0  0
 36  1  1  0  0  0
  1  2  2  0  0  0
  2  3  1  0  0  0
  3  4  1  0  0  0
  4  5  2  0  0  0
  5  6  1  0  0  0
  6  7  2  0  0  0
  7  8  1  0  0  0
  8  9  2  0  0  0
  7 22  1  0  0  0
 22 23  1  0  0  0
 23 24  1  0  0  0
 24 25  1  0  0  0
 25 28  1  0  0  0
 28 29  1  0  0  0
 29 30  1  0  0  0
 30 31  2  0  0  0
 31 32  1  0  0  0
 32 33  1  0  0  0
 32 34  1  0  0  0
 25 26  1  0  0  0
 26 27  1  0  0  0
  2 11  1  0  0  0
 11 12  2  0  0  0
 12 13  1  0  0  0
 13 14  1  0  0  0
 14 15  2  0  0  0
 15 16  1  0  0  0
 16 17  2  0  0  0
 17 18  1  0  0  0
 18 19  1  0  0  0
 18 20  2  0  0  0
 20 21  1  0  0  0
  9  1  1  0  0  0
 27 22  1  0  0  0
 20 11  1  0  0  0
  9  4  1  0  0  0
 34 29  2  0  0  0
 17 13  1  0  0  0
  3 10  1  0  0  0
M  END
> <minimizedAffinity>
19.13446

> <CNNscore>
0.3249097168

> <CNNaffinity>
7.1289138794

> <CNN_VS>
2.3162534237

> <CNNaffinity_variance>
0.3250884116

$$$$
[H]c1nc2c(C([H])([H])[H])c(C([H])([H])[H])c(-c3c(C([H])(C([H])([H])[H])C([H])([H])[H])c4c([H])c(C5([H])C([H])([H])C([H])([H])N(C([H])([H])c6nn(C([H])([H])[H])c([H])c6[H])C([H])([H])C5([H])[H])c([H])c([H])c4n3[H])c([H])n2n1


 37 42  0  0  0  0  0  0  0  0999 V2000
  -11.2576   -6.8082    8.4398 C   0  0  0  0  0  0  0  0  0  0  0  0
  -12.1148   -7.5919    7.7080 C   0  0  0  0  0  0  0  0  0  0  0  0
  -11.3484   -8.4040    6.8842 N   0  0  0  0  0  0  0  0  0  0  0  0
  -10.0699   -8.1682    7.0678 C   0  0  0  0  0  0  0  0  0  0  0  0
   -8.9574   -8.7526    6.4636 C   0  0  0  0  0  0  0  0  0  0  0  0
   -7.7133   -8.3204    6.8469 C   0  0  0  0  0  0  0  0  0  0  0  0
   -7.5495   -7.3381    7.7984 C   0  0  0  0  0  0  0  0  0  0  0  0
   -8.6963   -6.7948    8.3620 C   0  0  0  0  0  0  0  0  0  0  0  0
   -9.9601   -7.1962    8.0130 C   0  0  0  0  0  0  0  0  0  0  0  0
  -11.7412   -9.1056    6.2079 H   0  0  0  0  0  0  0  0  0  0  0  0
  -13.5534   -7.7026    7.6500 C   0  0  0  0  0  0  0  0  0  0  0  0
  -14.2255   -8.4372    8.5925 C   0  0  0  0  0  0  0  0  0  0  0  0
  -15.5612   -8.6008    8.5841 N   0  0  0  0  0  0  0  0  0  0  0  0
  -16.3782   -9.2603    9.3890 N   0  0  0  0  0  0  0  0  0  0  0  0
  -17.6466   -9.1367    8.9734 C   0  0  0  0  0  0  0  0  0  0  0  0
  -17.5830   -8.3681    7.8723 N   0  0  0  0  0  0  0  0  0  0  0  0
  -16.3066   -8.0321    7.6229 C   0  0  0  0  0  0  0  0  0  0  0  0
  -15.7082   -7.2784    6.6413 C   0  0  0  0  0  0  0  0  0  0  0  0
  -16.5159   -6.6448    5.5664 C   0  0  0  0  0  0  0  0  0  0  0  0
  -14.3152   -7.1167    6.6622 C   0  0  0  0  0  0  0  0  0  0  0  0
  -13.6913   -6.3036    5.6162 C   0  0  0  0  0  0  0  0  0  0  0  0
   -6.1922   -6.9545    8.1977 C   0  0  0  0  0  0  0  0  0  0  0  0
   -5.9687   -6.9432    9.7056 C   0  0  0  0  0  0  0  0  0  0  0  0
   -4.7841   -5.9763    9.9100 C   0  0  0  0  0  0  0  0  0  0  0  0
   -3.7717   -6.1247    8.9380 N   0  0  0  0  0  0  0  0  0  0  0  0
   -3.7684   -7.3615    8.2263 C   0  0  0  0  0  0  0  0  0  0  0  0
   -5.0773   -7.7017    7.5749 C   0  0  0  0  0  0  0  0  0  0  0  0
   -3.3734   -4.9965    8.1851 C   0  0  0  0  0  0  0  0  0  0  0  0
   -2.8112   -3.9609    9.0873 C   0  0  0  0  0  0  0  0  0  0  0  0
   -2.8672   -2.5958    8.8740 C   0  0  0  0  0  0  0  0  0  0  0  0
   -2.2186   -2.0172    9.9467 C   0  0  0  0  0  0  0  0  0  0  0  0
   -1.7881   -2.9886   10.7744 N   0  0  0  0  0  0  0  0  0  0  0  0
   -1.0649   -2.7305   11.9965 C   0  0  0  0  0  0  0  0  0  0  0  0
   -2.1442   -4.1587   10.2585 N   0  0  0  0  0  0  0  0  0  0  0  0
  -10.8742   -5.7195   10.6880 C   0  0  0  0  0  0  0  0  0  0  0  0
  -11.5522   -5.7327    9.3540 C   0  0  0  0  0  0  0  0  0  0  0  0
  -12.9596   -5.2280    9.4567 C   0  0  0  0  0  0  0  0  0  0  0  0
 35 36  1  0  0  0
 36 37  1  0  0  0
 36  1  1  0  0  0
  1  2  2  0  0  0
  2  3  1  0  0  0
  3  4  1  0  0  0
  4  5  2  0  0  0
  5  6  1  0  0  0
  6  7  2  0  0  0
  7  8  1  0  0  0
  8  9  2  0  0  0
  7 22  1  0  0  0
 22 23  1  0  0  0
 23 24  1  0  0  0
 24 25  1  0  0  0
 25 28  1  0  0  0
 28 29  1  0  0  0
 29 30  1  0  0  0
 30 31  2  0  0  0
 31 32  1  0  0  0
 32 33  1  0  0  0
 32 34  1  0  0  0
 25 26  1  0  0  0
 26 27  1  0  0  0
  2 11  1  0  0  0
 11 12  2  0  0  0
 12 13  1  0  0  0
 13 14  1  0  0  0
 14 15  2  0  0  0
 15 16  1  0  0  0
 16 17  2  0  0  0
 17 18  1  0  0  0
 18 19  1  0  0  0
 18 20  2  0  0  0
 20 21  1  0  0  0
  9  1  1  0  0  0
 27 22  1  0  0  0
 20 11  1  0  0  0
  9  4  1  0  0  0
 34 29  2  0  0  0
 17 13  1  0  0  0
  3 10  1  0  0  0
M  END
> <minimizedAffinity>
0.23750

> <CNNscore>
0.2805260122

> <CNNaffinity>
7.1991729736

> <CNN_VS>
2.0195553303

> <CNNaffinity_variance>
0.4014231563

$$$$
[H]c1c([H])c([H])c(S(=O)(=O)N(C([H])([H])C([H])([H])[H])C([H])([H])[C@]23c4nnc(-c5c(F)c([H])c([H])c([H])c5F)c([H])c4[C@]([H])(C([H])([H])C2([H])[H])C3(C([H])([H])[H])C([H])([H])[H])c([H])c1[H]


 34 38  0  0  0  0  0  0  0  0999 V2000
   -8.3285   -8.6156    6.8045 C   0  0  0  0  0  0  0  0  0  0  0  0
   -8.7082   -9.0886    5.4324 C   0  0  0  0  0  0  0  0  0  0  0  0
   -8.7646  -10.6058    5.5378 C   0  0  0  0  0  0  0  0  0  0  0  0
   -8.4463  -10.8661    6.9769 C   0  0  0  0  0  0  0  0  0  0  0  0
   -7.0150  -10.4865    7.1476 C   0  0  0  0  0  0  0  0  0  0  0  0
   -5.9093  -11.2757    7.3647 C   0  0  0  0  0  0  0  0  0  0  0  0
   -4.6929  -10.6375    7.4747 C   0  0  0  0  0  0  0  0  0  0  0  0
   -4.6560   -9.2915    7.3648 N   0  0  0  0  0  0  0  0  0  0  0  0
   -5.7296   -8.5650    7.1577 N   0  0  0  0  0  0  0  0  0  0  0  0
   -6.9455   -9.1087    7.0398 C   0  0  0  0  0  0  0  0  0  0  0  0
   -9.0853   -9.6707    7.6515 C   0  0  0  0  0  0  0  0  0  0  0  0
  -10.5354   -9.6735    7.4004 C   0  0  0  0  0  0  0  0  0  0  0  0
   -8.6811   -9.5413    9.0895 C   0  0  0  0  0  0  0  0  0  0  0  0
   -3.4541  -11.3628    7.7043 C   0  0  0  0  0  0  0  0  0  0  0  0
   -2.2379  -10.9369    7.1722 C   0  0  0  0  0  0  0  0  0  0  0  0
   -2.1823   -9.8154    6.4142 F   0  0  0  0  0  0  0  0  0  0  0  0
   -1.0618  -11.6252    7.3898 C   0  0  0  0  0  0  0  0  0  0  0  0
   -1.0974  -12.7752    8.1625 C   0  0  0  0  0  0  0  0  0  0  0  0
   -2.3031  -13.1908    8.6855 C   0  0  0  0  0  0  0  0  0  0  0  0
   -3.4872  -12.5153    8.4780 C   0  0  0  0  0  0  0  0  0  0  0  0
   -4.6599  -12.9746    9.0232 F   0  0  0  0  0  0  0  0  0  0  0  0
   -8.6638   -7.2581    7.1817 C   0  0  0  0  0  0  0  0  0  0  0  0
   -9.8506   -6.8444    7.7364 N   0  0  0  0  0  0  0  0  0  0  0  0
   -9.8933   -5.8144    9.0704 S   0  0  0  0  0  0  0  0  0  0  0  0
   -8.8826   -6.1446   10.1024 O   0  0  0  0  0  0  0  0  0  0  0  0
   -9.6842   -4.4047    8.6291 O   0  0  0  0  0  0  0  0  0  0  0  0
  -11.4457   -5.8595    9.9060 C   0  0  0  0  0  0  0  0  0  0  0  0
  -12.5762   -5.7614    9.1365 C   0  0  0  0  0  0  0  0  0  0  0  0
  -13.8439   -5.7845    9.6762 C   0  0  0  0  0  0  0  0  0  0  0  0
  -13.9281   -5.9131   11.0479 C   0  0  0  0  0  0  0  0  0  0  0  0
  -12.8016   -6.0131   11.8362 C   0  0  0  0  0  0  0  0  0  0  0  0
  -11.5543   -5.9860   11.2612 C   0  0  0  0  0  0  0  0  0  0  0  0
  -11.9970   -8.0065    8.0118 C   0  0  0  0  0  0  0  0  0  0  0  0
  -11.1027   -7.1400    7.1537 C   0  0  0  0  0  0  0  0  0  0  0  0
 33 34  1  0  0  0
 34 23  1  0  0  0
 23 22  1  0  0  0
  1 22  1  0  0  0
  1  2  1  0  0  0
  2  3  1  0  0  0
  3  4  1  0  0  0
  4  5  1  0  0  0
  5  6  2  0  0  0
  6  7  1  0  0  0
  7  8  2  0  0  0
  8  9  1  0  0  0
  9 10  2  0  0  0
  7 14  1  0  0  0
 14 15  2  0  0  0
 15 16  1  0  0  0
 15 17  1  0  0  0
 17 18  2  0  0  0
 18 19  1  0  0  0
 19 20  2  0  0  0
 20 21  1  0  0  0
  4 11  1  0  0  0
 11 12  1  0  0  0
 11 13  1  0  0  0
 23 24  1  0  0  0
 24 25  2  0  0  0
 24 26  2  0  0  0
 24 27  1  0  0  0
 27 28  2  0  0  0
 28 29  1  0  0  0
 29 30  2  0  0  0
 30 31  1  0  0  0
 31 32  2  0  0  0
 10  1  1  0  0  0
 20 14  1  0  0  0
 32 27  1  0  0  0
 11  1  1  0  0  0
 10  5  1  0  0  0
M  END
> <minimizedAffinity>
22.55073

> <CNNscore>
0.4022101462

> <CNNaffinity>
6.1950721741

> <CNN_VS>
2.4917209148

> <CNNaffinity_variance>
0.6465321779

$$$$
[H]c1c([H])c([H])c(S(=O)(=O)N(C([H])([H])C([H])([H])[H])C([H])([H])[C@]23c4nnc(-c5c(F)c([H])c([H])c([H])c5F)c([H])c4[C@]([H])(C([H])([H])C2([H])[H])C3(C([H])([H])[H])C([H])([H])[H])c([H])c1[H]


 34 38  0  0  0  0  0  0  0  0999 V2000
  -12.7133   -8.0926    7.2428 C   0  0  0  0  0  0  0  0  0  0  0  0
  -11.7278   -7.5163    6.2695 C   0  0  0  0  0  0  0  0  0  0  0  0
  -10.3678   -7.6993    6.9276 C   0  0  0  0  0  0  0  0  0  0  0  0
  -10.6935   -8.4003    8.2092 C   0  0  0  0  0  0  0  0  0  0  0  0
  -11.4298   -7.4033    9.0375 C   0  0  0  0  0  0  0  0  0  0  0  0
  -11.0411   -6.7396   10.1780 C   0  0  0  0  0  0  0  0  0  0  0  0
  -11.9425   -5.8547   10.7289 C   0  0  0  0  0  0  0  0  0  0  0  0
  -13.1405   -5.6919   10.1259 N   0  0  0  0  0  0  0  0  0  0  0  0
  -13.4830   -6.3407    9.0372 N   0  0  0  0  0  0  0  0  0  0  0  0
  -12.6650   -7.2155    8.4427 C   0  0  0  0  0  0  0  0  0  0  0  0
  -11.8638   -9.2664    7.7941 C   0  0  0  0  0  0  0  0  0  0  0  0
  -11.4393  -10.2078    6.7455 C   0  0  0  0  0  0  0  0  0  0  0  0
  -12.5643   -9.8829    8.9676 C   0  0  0  0  0  0  0  0  0  0  0  0
  -11.6472   -5.0947   11.9324 C   0  0  0  0  0  0  0  0  0  0  0  0
  -11.5791   -3.7023   11.9300 C   0  0  0  0  0  0  0  0  0  0  0  0
  -11.7907   -3.0126   10.7833 F   0  0  0  0  0  0  0  0  0  0  0  0
  -11.2986   -2.9805   13.0723 C   0  0  0  0  0  0  0  0  0  0  0  0
  -11.0788   -3.6673   14.2559 C   0  0  0  0  0  0  0  0  0  0  0  0
  -11.1476   -5.0439   14.2513 C   0  0  0  0  0  0  0  0  0  0  0  0
  -11.4266   -5.7805   13.1194 C   0  0  0  0  0  0  0  0  0  0  0  0
  -11.4826   -7.1508   13.1723 F   0  0  0  0  0  0  0  0  0  0  0  0
  -14.0009   -8.5276    6.7422 C   0  0  0  0  0  0  0  0  0  0  0  0
  -15.2252   -8.2020    7.2735 N   0  0  0  0  0  0  0  0  0  0  0  0
  -16.1043   -6.8729    6.7232 S   0  0  0  0  0  0  0  0  0  0  0  0
  -17.2460   -6.5182    7.5987 O   0  0  0  0  0  0  0  0  0  0  0  0
  -15.2074   -5.6869    6.6020 O   0  0  0  0  0  0  0  0  0  0  0  0
  -16.8058   -7.1438    5.1280 C   0  0  0  0  0  0  0  0  0  0  0  0
  -17.5457   -8.2846    4.9527 C   0  0  0  0  0  0  0  0  0  0  0  0
  -18.1422   -8.6036    3.7522 C   0  0  0  0  0  0  0  0  0  0  0  0
  -17.9597   -7.7100    2.7161 C   0  0  0  0  0  0  0  0  0  0  0  0
  -17.2189   -6.5583    2.8754 C   0  0  0  0  0  0  0  0  0  0  0  0
  -16.6393   -6.2747    4.0881 C   0  0  0  0  0  0  0  0  0  0  0  0
  -15.7509   -8.5627    9.6456 C   0  0  0  0  0  0  0  0  0  0  0  0
  -15.8866   -9.0245    8.2120 C   0  0  0  0  0  0  0  0  0  0  0  0
 33 34  1  0  0  0
 34 23  1  0  0  0
 23 22  1  0  0  0
  1 22  1  0  0  0
  1  2  1  0  0  0
  2  3  1  0  0  0
  3  4  1  0  0  0
  4  5  1  0  0  0
  5  6  2  0  0  0
  6  7  1  0  0  0
  7  8  2  0  0  0
  8  9  1  0  0  0
  9 10  2  0  0  0
  7 14  1  0  0  0
 14 15  2  0  0  0
 15 16  1  0  0  0
 15 17  1  0  0  0
 17 18  2  0  0  0
 18 19  1  0  0  0
 19 20  2  0  0  0
 20 21  1  0  0  0
  4 11  1  0  0  0
 11 12  1  0  0  0
 11 13  1  0  0  0
 23 24  1  0  0  0
 24 25  2  0  0  0
 24 26  2  0  0  0
 24 27  1  0  0  0
 27 28  2  0  0  0
 28 29  1  0  0  0
 29 30  2  0  0  0
 30 31  1  0  0  0
 31 32  2  0  0  0
 10  1  1  0  0  0
 20 14  1  0  0  0
 32 27  1  0  0  0
 11  1  1  0  0  0
 10  5  1  0  0  0
M  END
> <minimizedAffinity>
10.98043

> <CNNscore>
0.3859218955

> <CNNaffinity>
7.0375847816

> <CNN_VS>
2.7159581184

> <CNNaffinity_variance>
0.3997796178

$$$$
[H]c1c([H])c([H])c(S(=O)(=O)N(C([H])([H])C([H])([H])[H])C([H])([H])[C@]23c4nnc(-c5c(F)c([H])c([H])c([H])c5F)c([H])c4[C@]([H])(C([H])([H])C2([H])[H])C3(C([H])([H])[H])C([H])([H])[H])c([H])c1[H]


 34 38  0  0  0  0  0  0  0  0999 V2000
  -13.6931   -8.6175    7.0669 C   0  0  0  0  0  0  0  0  0  0  0  0
  -12.4760   -8.5740    6.1909 C   0  0  0  0  0  0  0  0  0  0  0  0
  -11.3508   -9.1355    7.0481 C   0  0  0  0  0  0  0  0  0  0  0  0
  -12.0343   -9.4860    8.3326 C   0  0  0  0  0  0  0  0  0  0  0  0
  -12.4232   -8.1860    8.9496 C   0  0  0  0  0  0  0  0  0  0  0  0
  -11.9266   -7.5510   10.0642 C   0  0  0  0  0  0  0  0  0  0  0  0
  -12.4831   -6.3346   10.3954 C   0  0  0  0  0  0  0  0  0  0  0  0
  -13.4715   -5.8418    9.6172 N   0  0  0  0  0  0  0  0  0  0  0  0
  -13.9247   -6.4722    8.5587 N   0  0  0  0  0  0  0  0  0  0  0  0
  -13.4374   -7.6557    8.1718 C   0  0  0  0  0  0  0  0  0  0  0  0
  -13.3971   -9.9270    7.8423 C   0  0  0  0  0  0  0  0  0  0  0  0
  -13.2545  -11.0955    6.9591 C   0  0  0  0  0  0  0  0  0  0  0  0
  -14.3851  -10.0810    8.9594 C   0  0  0  0  0  0  0  0  0  0  0  0
  -12.0431   -5.5685   11.5499 C   0  0  0  0  0  0  0  0  0  0  0  0
  -11.7918   -6.1676   12.7833 C   0  0  0  0  0  0  0  0  0  0  0  0
  -11.9554   -7.5037   12.9367 F   0  0  0  0  0  0  0  0  0  0  0  0
  -11.3741   -5.4407   13.8794 C   0  0  0  0  0  0  0  0  0  0  0  0
  -11.2008   -4.0724   13.7433 C   0  0  0  0  0  0  0  0  0  0  0  0
  -11.4510   -3.4863   12.5211 C   0  0  0  0  0  0  0  0  0  0  0  0
  -11.8688   -4.1975   11.4160 C   0  0  0  0  0  0  0  0  0  0  0  0
  -12.1036   -3.5620   10.2224 F   0  0  0  0  0  0  0  0  0  0  0  0
  -14.9960   -8.6304    6.4344 C   0  0  0  0  0  0  0  0  0  0  0  0
  -15.7996   -7.5371    6.2196 N   0  0  0  0  0  0  0  0  0  0  0  0
  -15.4884   -6.4392    4.9787 S   0  0  0  0  0  0  0  0  0  0  0  0
  -14.6158   -5.3150    5.3917 O   0  0  0  0  0  0  0  0  0  0  0  0
  -14.8507   -7.1425    3.8278 O   0  0  0  0  0  0  0  0  0  0  0  0
  -16.9590   -5.6865    4.3615 C   0  0  0  0  0  0  0  0  0  0  0  0
  -18.1546   -6.2389    4.7423 C   0  0  0  0  0  0  0  0  0  0  0  0
  -19.3685   -5.7382    4.3243 C   0  0  0  0  0  0  0  0  0  0  0  0
  -19.3282   -4.6381    3.4917 C   0  0  0  0  0  0  0  0  0  0  0  0
  -18.1347   -4.0704    3.0993 C   0  0  0  0  0  0  0  0  0  0  0  0
  -16.9445   -4.5982    3.5371 C   0  0  0  0  0  0  0  0  0  0  0  0
  -17.1777   -8.2318    8.1305 C   0  0  0  0  0  0  0  0  0  0  0  0
  -17.0042   -7.3316    6.9279 C   0  0  0  0  0  0  0  0  0  0  0  0
 33 34  1  0  0  0
 34 23  1  0  0  0
 23 22  1  0  0  0
  1 22  1  0  0  0
  1  2  1  0  0  0
  2  3  1  0  0  0
  3  4  1  0  0  0
  4  5  1  0  0  0
  5  6  2  0  0  0
  6  7  1  0  0  0
  7  8  2  0  0  0
  8  9  1  0  0  0
  9 10  2  0  0  0
  7 14  1  0  0  0
 14 15  2  0  0  0
 15 16  1  0  0  0
 15 17  1  0  0  0
 17 18  2  0  0  0
 18 19  1  0  0  0
 19 20  2  0  0  0
 20 21  1  0  0  0
  4 11  1  0  0  0
 11 12  1  0  0  0
 11 13  1  0  0  0
 23 24  1  0  0  0
 24 25  2  0  0  0
 24 26  2  0  0  0
 24 27  1  0  0  0
 27 28  2  0  0  0
 28 29  1  0  0  0
 29 30  2  0  0  0
 30 31  1  0  0  0
 31 32  2  0  0  0
 10  1  1  0  0  0
 20 14  1  0  0  0
 32 27  1  0  0  0
 11  1  1  0  0  0
 10  5  1  0  0  0
M  END
> <minimizedAffinity>
11.35557

> <CNNscore>
0.3841446638

> <CNNaffinity>
7.0083413124

> <CNN_VS>
2.6922168732

> <CNNaffinity_variance>
0.3561201990

$$$$
[H]c1c([H])c([H])c(S(=O)(=O)N(C([H])([H])C([H])([H])[H])C([H])([H])[C@]23c4nnc(-c5c(F)c([H])c([H])c([H])c5F)c([H])c4[C@]([H])(C([H])([H])C2([H])[H])C3(C([H])([H])[H])C([H])([H])[H])c([H])c1[H]


 34 38  0  0  0  0  0  0  0  0999 V2000
  -14.5456   -7.8905    5.0587 C   0  0  0  0  0  0  0  0  0  0  0  0
  -13.8012   -9.1805    4.8792 C   0  0  0  0  0  0  0  0  0  0  0  0
  -14.2049  -10.0397    6.0687 C   0  0  0  0  0  0  0  0  0  0  0  0
  -15.1774   -9.1749    6.8078 C   0  0  0  0  0  0  0  0  0  0  0  0
  -14.3745   -8.0462    7.3587 C   0  0  0  0  0  0  0  0  0  0  0  0
  -14.0257   -7.7588    8.6580 C   0  0  0  0  0  0  0  0  0  0  0  0
  -13.2564   -6.6351    8.8688 C   0  0  0  0  0  0  0  0  0  0  0  0
  -12.8935   -5.8898    7.8020 N   0  0  0  0  0  0  0  0  0  0  0  0
  -13.2425   -6.1900    6.5726 N   0  0  0  0  0  0  0  0  0  0  0  0
  -13.9876   -7.2626    6.2858 C   0  0  0  0  0  0  0  0  0  0  0  0
  -15.8585   -8.4421    5.6715 C   0  0  0  0  0  0  0  0  0  0  0  0
  -16.5389   -9.4074    4.7933 C   0  0  0  0  0  0  0  0  0  0  0  0
  -16.7044   -7.3011    6.1517 C   0  0  0  0  0  0  0  0  0  0  0  0
  -12.8249   -6.2280   10.1960 C   0  0  0  0  0  0  0  0  0  0  0  0
  -12.8964   -4.9029   10.6231 C   0  0  0  0  0  0  0  0  0  0  0  0
  -13.3791   -3.9459    9.7944 F   0  0  0  0  0  0  0  0  0  0  0  0
  -12.4869   -4.5160   11.8828 C   0  0  0  0  0  0  0  0  0  0  0  0
  -11.9898   -5.4799   12.7458 C   0  0  0  0  0  0  0  0  0  0  0  0
  -11.9218   -6.7881   12.3173 C   0  0  0  0  0  0  0  0  0  0  0  0
  -12.3265   -7.1918   11.0624 C   0  0  0  0  0  0  0  0  0  0  0  0
  -12.2363   -8.5091   10.6879 F   0  0  0  0  0  0  0  0  0  0  0  0
  -14.7824   -7.0646    3.8927 C   0  0  0  0  0  0  0  0  0  0  0  0
  -14.4175   -5.7480    3.7488 N   0  0  0  0  0  0  0  0  0  0  0  0
  -15.4264   -4.4904    4.2413 S   0  0  0  0  0  0  0  0  0  0  0  0
  -15.1569   -4.0251    5.6221 O   0  0  0  0  0  0  0  0  0  0  0  0
  -15.2855   -3.3333    3.3101 O   0  0  0  0  0  0  0  0  0  0  0  0
  -17.1293   -4.9487    4.2270 C   0  0  0  0  0  0  0  0  0  0  0  0
  -17.4675   -6.0872    3.5422 C   0  0  0  0  0  0  0  0  0  0  0  0
  -18.7647   -6.5449    3.4606 C   0  0  0  0  0  0  0  0  0  0  0  0
  -19.7252   -5.7950    4.1089 C   0  0  0  0  0  0  0  0  0  0  0  0
  -19.4023   -4.6479    4.8020 C   0  0  0  0  0  0  0  0  0  0  0  0
  -18.0971   -4.2234    4.8607 C   0  0  0  0  0  0  0  0  0  0  0  0
  -12.7227   -3.9702    3.7346 C   0  0  0  0  0  0  0  0  0  0  0  0
  -13.1322   -5.3621    3.3084 C   0  0  0  0  0  0  0  0  0  0  0  0
 33 34  1  0  0  0
 34 23  1  0  0  0
 23 22  1  0  0  0
  1 22  1  0  0  0
  1  2  1  0  0  0
  2  3  1  0  0  0
  3  4  1  0  0  0
  4  5  1  0  0  0
  5  6  2  0  0  0
  6  7  1  0  0  0
  7  8  2  0  0  0
  8  9  1  0  0  0
  9 10  2  0  0  0
  7 14  1  0  0  0
 14 15  2  0  0  0
 15 16  1  0  0  0
 15 17  1  0  0  0
 17 18  2  0  0  0
 18 19  1  0  0  0
 19 20  2  0  0  0
 20 21  1  0  0  0
  4 11  1  0  0  0
 11 12  1  0  0  0
 11 13  1  0  0  0
 23 24  1  0  0  0
 24 25  2  0  0  0
 24 26  2  0  0  0
 24 27  1  0  0  0
 27 28  2  0  0  0
 28 29  1  0  0  0
 29 30  2  0  0  0
 30 31  1  0  0  0
 31 32  2  0  0  0
 10  1  1  0  0  0
 20 14  1  0  0  0
 32 27  1  0  0  0
 11  1  1  0  0  0
 10  5  1  0  0  0
M  END
> <minimizedAffinity>
11.17120

> <CNNscore>
0.3298190236

> <CNNaffinity>
7.0914869308

> <CNN_VS>
2.3389072418

> <CNNaffinity_variance>
0.8931228518

$$$$
[H]c1c([H])c([H])c(S(=O)(=O)N(C([H])([H])C([H])([H])[H])C([H])([H])[C@]23c4nnc(-c5c(F)c([H])c([H])c([H])c5F)c([H])c4[C@]([H])(C([H])([H])C2([H])[H])C3(C([H])([H])[H])C([H])([H])[H])c([H])c1[H]


 34 38  0  0  0  0  0  0  0  0999 V2000
  -15.2294   -6.8369    6.1935 C   0  0  0  0  0  0  0  0  0  0  0  0
  -14.4256   -7.9072    5.5160 C   0  0  0  0  0  0  0  0  0  0  0  0
  -14.4666   -9.0950    6.4665 C   0  0  0  0  0  0  0  0  0  0  0  0
  -15.3246   -8.6095    7.5925 C   0  0  0  0  0  0  0  0  0  0  0  0
  -14.5291   -7.5512    8.2775 C   0  0  0  0  0  0  0  0  0  0  0  0
  -13.9247   -7.5579    9.5132 C   0  0  0  0  0  0  0  0  0  0  0  0
  -13.2380   -6.4220    9.8837 C   0  0  0  0  0  0  0  0  0  0  0  0
  -13.1981   -5.3807    9.0238 N   0  0  0  0  0  0  0  0  0  0  0  0
  -13.7856   -5.4043    7.8502 N   0  0  0  0  0  0  0  0  0  0  0  0
  -14.4708   -6.4681    7.4182 C   0  0  0  0  0  0  0  0  0  0  0  0
  -16.3114   -7.7224    6.8634 C   0  0  0  0  0  0  0  0  0  0  0  0
  -17.0777   -8.5218    5.8940 C   0  0  0  0  0  0  0  0  0  0  0  0
  -17.1314   -6.8874    7.8005 C   0  0  0  0  0  0  0  0  0  0  0  0
  -12.5585   -6.3089   11.1639 C   0  0  0  0  0  0  0  0  0  0  0  0
  -11.7514   -5.2169   11.4792 C   0  0  0  0  0  0  0  0  0  0  0  0
  -11.5787   -4.2168   10.5817 F   0  0  0  0  0  0  0  0  0  0  0  0
  -11.1062   -5.1092   12.6942 C   0  0  0  0  0  0  0  0  0  0  0  0
  -11.2698   -6.1219   13.6262 C   0  0  0  0  0  0  0  0  0  0  0  0
  -12.0691   -7.1989   13.3081 C   0  0  0  0  0  0  0  0  0  0  0  0
  -12.7208   -7.3223   12.0992 C   0  0  0  0  0  0  0  0  0  0  0  0
  -13.5049   -8.4173   11.8353 F   0  0  0  0  0  0  0  0  0  0  0  0
  -15.8009   -5.7853    5.3780 C   0  0  0  0  0  0  0  0  0  0  0  0
  -17.0681   -5.7739    4.8476 N   0  0  0  0  0  0  0  0  0  0  0  0
  -17.4539   -6.6446    3.4565 S   0  0  0  0  0  0  0  0  0  0  0  0
  -18.7897   -7.2834    3.5127 O   0  0  0  0  0  0  0  0  0  0  0  0
  -17.4021   -5.7468    2.2661 O   0  0  0  0  0  0  0  0  0  0  0  0
  -16.3199   -7.9599    3.1498 C   0  0  0  0  0  0  0  0  0  0  0  0
  -16.7690   -9.2381    3.3598 C   0  0  0  0  0  0  0  0  0  0  0  0
  -15.9750  -10.3455    3.1543 C   0  0  0  0  0  0  0  0  0  0  0  0
  -14.6863  -10.1084    2.7204 C   0  0  0  0  0  0  0  0  0  0  0  0
  -14.2189   -8.8297    2.5042 C   0  0  0  0  0  0  0  0  0  0  0  0
  -15.0408   -7.7504    2.7203 C   0  0  0  0  0  0  0  0  0  0  0  0
  -19.0160   -4.3000    4.5887 C   0  0  0  0  0  0  0  0  0  0  0  0
  -18.1555   -5.1491    5.4973 C   0  0  0  0  0  0  0  0  0  0  0  0
 33 34  1  0  0  0
 34 23  1  0  0  0
 23 22  1  0  0  0
  1 22  1  0  0  0
  1  2  1  0  0  0
  2  3  1  0  0  0
  3  4  1  0  0  0
  4  5  1  0  0  0
  5  6  2  0  0  0
  6  7  1  0  0  0
  7  8  2  0  0  0
  8  9  1  0  0  0
  9 10  2  0  0  0
  7 14  1  0  0  0
 14 15  2  0  0  0
 15 16  1  0  0  0
 15 17  1  0  0  0
 17 18  2  0  0  0
 18 19  1  0  0  0
 19 20  2  0  0  0
 20 21  1  0  0  0
  4 11  1  0  0  0
 11 12  1  0  0  0
 11 13  1  0  0  0
 23 24  1  0  0  0
 24 25  2  0  0  0
 24 26  2  0  0  0
 24 27  1  0  0  0
 27 28  2  0  0  0
 28 29  1  0  0  0
 29 30  2  0  0  0
 30 31  1  0  0  0
 31 32  2  0  0  0
 10  1  1  0  0  0
 20 14  1  0  0  0
 32 27  1  0  0  0
 11  1  1  0  0  0
 10  5  1  0  0  0
M  END
> <minimizedAffinity>
11.93032

> <CNNscore>
0.3278560340

> <CNNaffinity>
7.1208176613

> <CNN_VS>
2.3346030712

> <CNNaffinity_variance>
0.6824482083

$$$$
[H]c1c([H])c([H])c(S(=O)(=O)N(C([H])([H])C([H])([H])[H])C([H])([H])[C@]23c4nnc(-c5c(F)c([H])c([H])c([H])c5F)c([H])c4[C@]([H])(C([H])([H])C2([H])[H])C3(C([H])([H])[H])C([H])([H])[H])c([H])c1[H]


 34 38  0  0  0  0  0  0  0  0999 V2000
   -7.8198   -8.1620    7.2860 C   0  0  0  0  0  0  0  0  0  0  0  0
   -7.6426   -8.3363    5.8065 C   0  0  0  0  0  0  0  0  0  0  0  0
   -6.2686   -8.9702    5.6441 C   0  0  0  0  0  0  0  0  0  0  0  0
   -5.7940   -9.1368    7.0536 C   0  0  0  0  0  0  0  0  0  0  0  0
   -5.5614   -7.7564    7.5659 C   0  0  0  0  0  0  0  0  0  0  0  0
   -4.3848   -7.1086    7.8633 C   0  0  0  0  0  0  0  0  0  0  0  0
   -4.4786   -5.8110    8.3174 C   0  0  0  0  0  0  0  0  0  0  0  0
   -5.7042   -5.2564    8.4432 N   0  0  0  0  0  0  0  0  0  0  0  0
   -6.8100   -5.9008    8.1513 N   0  0  0  0  0  0  0  0  0  0  0  0
   -6.8029   -7.1614    7.7054 C   0  0  0  0  0  0  0  0  0  0  0  0
   -7.0890   -9.4378    7.7778 C   0  0  0  0  0  0  0  0  0  0  0  0
   -7.6801  -10.6767    7.2471 C   0  0  0  0  0  0  0  0  0  0  0  0
   -6.9372   -9.3839    9.2684 C   0  0  0  0  0  0  0  0  0  0  0  0
   -3.3068   -5.0235    8.6640 C   0  0  0  0  0  0  0  0  0  0  0  0
   -2.4526   -4.5017    7.6936 C   0  0  0  0  0  0  0  0  0  0  0  0
   -2.7004   -4.7213    6.3799 F   0  0  0  0  0  0  0  0  0  0  0  0
   -1.3401   -3.7543    8.0221 C   0  0  0  0  0  0  0  0  0  0  0  0
   -1.0689   -3.5184    9.3607 C   0  0  0  0  0  0  0  0  0  0  0  0
   -1.9175   -4.0371   10.3151 C   0  0  0  0  0  0  0  0  0  0  0  0
   -3.0330   -4.7858   10.0043 C   0  0  0  0  0  0  0  0  0  0  0  0
   -3.8439   -5.2784   10.9960 F   0  0  0  0  0  0  0  0  0  0  0  0
   -9.1659   -8.0575    7.8103 C   0  0  0  0  0  0  0  0  0  0  0  0
  -10.1206   -7.1552    7.4084 N   0  0  0  0  0  0  0  0  0  0  0  0
  -11.7578   -7.5557    7.3706 S   0  0  0  0  0  0  0  0  0  0  0  0
  -12.5251   -6.8030    6.3506 O   0  0  0  0  0  0  0  0  0  0  0  0
  -11.9164   -9.0157    7.1081 O   0  0  0  0  0  0  0  0  0  0  0  0
  -12.5671   -7.2246    8.9021 C   0  0  0  0  0  0  0  0  0  0  0  0
  -13.3109   -8.2371    9.4510 C   0  0  0  0  0  0  0  0  0  0  0  0
  -13.9880   -8.0966   10.6430 C   0  0  0  0  0  0  0  0  0  0  0  0
  -13.8833   -6.8720   11.2712 C   0  0  0  0  0  0  0  0  0  0  0  0
  -13.1396   -5.8435   10.7330 C   0  0  0  0  0  0  0  0  0  0  0  0
  -12.4785   -6.0218    9.5422 C   0  0  0  0  0  0  0  0  0  0  0  0
   -9.3743   -5.5471    5.7083 C   0  0  0  0  0  0  0  0  0  0  0  0
   -9.8167   -5.8039    7.1313 C   0  0  0  0  0  0  0  0  0  0  0  0
 33 34  1  0  0  0
 34 23  1  0  0  0
 23 22  1  0  0  0
  1 22  1  0  0  0
  1  2  1  0  0  0
  2  3  1  0  0  0
  3  4  1  0  0  0
  4  5  1  0  0  0
  5  6  2  0  0  0
  6  7  1  0  0  0
  7  8  2  0  0  0
  8  9  1  0  0  0
  9 10  2  0  0  0
  7 14  1  0  0  0
 14 15  2  0  0  0
 15 16  1  0  0  0
 15 17  1  0  0  0
 17 18  2  0  0  0
 18 19  1  0  0  0
 19 20  2  0  0  0
 20 21  1  0  0  0
  4 11  1  0  0  0
 11 12  1  0  0  0
 11 13  1  0  0  0
 23 24  1  0  0  0
 24 25  2  0  0  0
 24 26  2  0  0  0
 24 27  1  0  0  0
 27 28  2  0  0  0
 28 29  1  0  0  0
 29 30  2  0  0  0
 30 31  1  0  0  0
 31 32  2  0  0  0
 10  1  1  0  0  0
 20 14  1  0  0  0
 32 27  1  0  0  0
 11  1  1  0  0  0
 10  5  1  0  0  0
M  END
> <minimizedAffinity>
2.20181

> <CNNscore>
0.3204984069

> <CNNaffinity>
6.4795708656

> <CNN_VS>
2.0766921043

> <CNNaffinity_variance>
0.6457155943

$$$$
[H]c1c([H])c([H])c(S(=O)(=O)N(C([H])([H])C([H])([H])[H])C([H])([H])[C@]23c4nnc(-c5c(F)c([H])c([H])c([H])c5F)c([H])c4[C@]([H])(C([H])([H])C2([H])[H])C3(C([H])([H])[H])C([H])([H])[H])c([H])c1[H]


 34 38  0  0  0  0  0  0  0  0999 V2000
  -15.1169   -8.5400    7.1917 C   0  0  0  0  0  0  0  0  0  0  0  0
  -15.5082   -9.4179    8.3436 C   0  0  0  0  0  0  0  0  0  0  0  0
  -14.9018   -8.7541    9.5715 C   0  0  0  0  0  0  0  0  0  0  0  0
  -14.2448   -7.5296    9.0156 C   0  0  0  0  0  0  0  0  0  0  0  0
  -13.1007   -8.0229    8.1972 C   0  0  0  0  0  0  0  0  0  0  0  0
  -11.7468   -7.9360    8.4245 C   0  0  0  0  0  0  0  0  0  0  0  0
  -10.9135   -8.5006    7.4832 C   0  0  0  0  0  0  0  0  0  0  0  0
  -11.4663   -9.0990    6.4054 N   0  0  0  0  0  0  0  0  0  0  0  0
  -12.7636   -9.1658    6.2161 N   0  0  0  0  0  0  0  0  0  0  0  0
  -13.6374   -8.6426    7.0824 C   0  0  0  0  0  0  0  0  0  0  0  0
  -15.1905   -7.1592    7.8928 C   0  0  0  0  0  0  0  0  0  0  0  0
  -16.5242   -6.8660    8.4413 C   0  0  0  0  0  0  0  0  0  0  0  0
  -14.6210   -6.1080    6.9881 C   0  0  0  0  0  0  0  0  0  0  0  0
   -9.4658   -8.4729    7.6122 C   0  0  0  0  0  0  0  0  0  0  0  0
   -8.6901   -9.6250    7.4922 C   0  0  0  0  0  0  0  0  0  0  0  0
   -9.2799  -10.8200    7.2481 F   0  0  0  0  0  0  0  0  0  0  0  0
   -7.3158   -9.5991    7.6147 C   0  0  0  0  0  0  0  0  0  0  0  0
   -6.6931   -8.3864    7.8648 C   0  0  0  0  0  0  0  0  0  0  0  0
   -7.4659   -7.2511    7.9823 C   0  0  0  0  0  0  0  0  0  0  0  0
   -8.8396   -7.2591    7.8627 C   0  0  0  0  0  0  0  0  0  0  0  0
   -9.5600   -6.0978    7.9891 F   0  0  0  0  0  0  0  0  0  0  0  0
  -15.9156   -8.5919    5.9846 C   0  0  0  0  0  0  0  0  0  0  0  0
  -15.4463   -8.8337    4.7163 N   0  0  0  0  0  0  0  0  0  0  0  0
  -15.7955   -7.8005    3.4307 S   0  0  0  0  0  0  0  0  0  0  0  0
  -14.7953   -7.8595    2.3390 O   0  0  0  0  0  0  0  0  0  0  0  0
  -17.1381   -8.1272    2.8682 O   0  0  0  0  0  0  0  0  0  0  0  0
  -15.8499   -6.1080    3.9232 C   0  0  0  0  0  0  0  0  0  0  0  0
  -14.6908   -5.3842    3.8125 C   0  0  0  0  0  0  0  0  0  0  0  0
  -14.6110   -4.0547    4.1662 C   0  0  0  0  0  0  0  0  0  0  0  0
  -15.7678   -3.4733    4.6447 C   0  0  0  0  0  0  0  0  0  0  0  0
  -16.9416   -4.1866    4.7623 C   0  0  0  0  0  0  0  0  0  0  0  0
  -16.9817   -5.5109    4.3994 C   0  0  0  0  0  0  0  0  0  0  0  0
  -13.3313   -9.4470    3.6283 C   0  0  0  0  0  0  0  0  0  0  0  0
  -14.5386   -9.8774    4.4308 C   0  0  0  0  0  0  0  0  0  0  0  0
 33 34  1  0  0  0
 34 23  1  0  0  0
 23 22  1  0  0  0
  1 22  1  0  0  0
  1  2  1  0  0  0
  2  3  1  0  0  0
  3  4  1  0  0  0
  4  5  1  0  0  0
  5  6  2  0  0  0
  6  7  1  0  0  0
  7  8  2  0  0  0
  8  9  1  0  0  0
  9 10  2  0  0  0
  7 14  1  0  0  0
 14 15  2  0  0  0
 15 16  1  0  0  0
 15 17  1  0  0  0
 17 18  2  0  0  0
 18 19  1  0  0  0
 19 20  2  0  0  0
 20 21  1  0  0  0
  4 11  1  0  0  0
 11 12  1  0  0  0
 11 13  1  0  0  0
 23 24  1  0  0  0
 24 25  2  0  0  0
 24 26  2  0  0  0
 24 27  1  0  0  0
 27 28  2  0  0  0
 28 29  1  0  0  0
 29 30  2  0  0  0
 30 31  1  0  0  0
 31 32  2  0  0  0
 10  1  1  0  0  0
 20 14  1  0  0  0
 32 27  1  0  0  0
 11  1  1  0  0  0
 10  5  1  0  0  0
M  END
> <minimizedAffinity>
1.15545

> <CNNscore>
0.3097455502

> <CNNaffinity>
7.4086256027

> <CNN_VS>
2.2947888374

> <CNNaffinity_variance>
0.1372203827

$$$$
[H]c1c([H])c([H])c(S(=O)(=O)N(C([H])([H])C([H])([H])[H])C([H])([H])[C@]23c4nnc(-c5c(F)c([H])c([H])c([H])c5F)c([H])c4[C@]([H])(C([H])([H])C2([H])[H])C3(C([H])([H])[H])C([H])([H])[H])c([H])c1[H]


 34 38  0  0  0  0  0  0  0  0999 V2000
  -13.5659   -7.7386    7.0652 C   0  0  0  0  0  0  0  0  0  0  0  0
  -12.5167   -7.3407    6.0695 C   0  0  0  0  0  0  0  0  0  0  0  0
  -11.2213   -7.9395    6.5982 C   0  0  0  0  0  0  0  0  0  0  0  0
  -11.6522   -8.6613    7.8364 C   0  0  0  0  0  0  0  0  0  0  0  0
  -12.0492   -7.5991    8.8041 C   0  0  0  0  0  0  0  0  0  0  0  0
  -11.4358   -7.1825    9.9627 C   0  0  0  0  0  0  0  0  0  0  0  0
  -12.0366   -6.1559   10.6585 C   0  0  0  0  0  0  0  0  0  0  0  0
  -13.1785   -5.6244   10.1697 N   0  0  0  0  0  0  0  0  0  0  0  0
  -13.7406   -6.0440    9.0600 N   0  0  0  0  0  0  0  0  0  0  0  0
  -13.2197   -7.0348    8.3286 C   0  0  0  0  0  0  0  0  0  0  0  0
  -13.0322   -9.1442    7.4432 C   0  0  0  0  0  0  0  0  0  0  0  0
  -12.9324  -10.0488    6.2867 C   0  0  0  0  0  0  0  0  0  0  0  0
  -13.8070   -9.6759    8.6114 C   0  0  0  0  0  0  0  0  0  0  0  0
  -11.4839   -5.6291   11.8955 C   0  0  0  0  0  0  0  0  0  0  0  0
  -12.2755   -4.9814   12.8428 C   0  0  0  0  0  0  0  0  0  0  0  0
  -13.6039   -4.8251   12.6273 F   0  0  0  0  0  0  0  0  0  0  0  0
  -11.7512   -4.4812   14.0172 C   0  0  0  0  0  0  0  0  0  0  0  0
  -10.3942   -4.6307   14.2566 C   0  0  0  0  0  0  0  0  0  0  0  0
   -9.6173   -5.2721   13.3159 C   0  0  0  0  0  0  0  0  0  0  0  0
  -10.1248   -5.7777   12.1376 C   0  0  0  0  0  0  0  0  0  0  0  0
   -9.3045   -6.4078   11.2356 F   0  0  0  0  0  0  0  0  0  0  0  0
  -14.9481   -7.7682    6.6337 C   0  0  0  0  0  0  0  0  0  0  0  0
  -15.5134   -6.9566    5.6803 N   0  0  0  0  0  0  0  0  0  0  0  0
  -16.7122   -7.5184    4.6366 S   0  0  0  0  0  0  0  0  0  0  0  0
  -17.3444   -6.4455    3.8335 O   0  0  0  0  0  0  0  0  0  0  0  0
  -16.1400   -8.5370    3.7089 O   0  0  0  0  0  0  0  0  0  0  0  0
  -18.0386   -8.3021    5.4950 C   0  0  0  0  0  0  0  0  0  0  0  0
  -18.0990   -8.1255    6.8532 C   0  0  0  0  0  0  0  0  0  0  0  0
  -19.0883   -8.6882    7.6302 C   0  0  0  0  0  0  0  0  0  0  0  0
  -20.0318   -9.4500    6.9709 C   0  0  0  0  0  0  0  0  0  0  0  0
  -19.9858   -9.6376    5.6059 C   0  0  0  0  0  0  0  0  0  0  0  0
  -18.9835   -9.0601    4.8650 C   0  0  0  0  0  0  0  0  0  0  0  0
  -14.4800   -5.1700    4.3486 C   0  0  0  0  0  0  0  0  0  0  0  0
  -15.2306   -5.5753    5.5972 C   0  0  0  0  0  0  0  0  0  0  0  0
 33 34  1  0  0  0
 34 23  1  0  0  0
 23 22  1  0  0  0
  1 22  1  0  0  0
  1  2  1  0  0  0
  2  3  1  0  0  0
  3  4  1  0  0  0
  4  5  1  0  0  0
  5  6  2  0  0  0
  6  7  1  0  0  0
  7  8  2  0  0  0
  8  9  1  0  0  0
  9 10  2  0  0  0
  7 14  1  0  0  0
 14 15  2  0  0  0
 15 16  1  0  0  0
 15 17  1  0  0  0
 17 18  2  0  0  0
 18 19  1  0  0  0
 19 20  2  0  0  0
 20 21  1  0  0  0
  4 11  1  0  0  0
 11 12  1  0  0  0
 11 13  1  0  0  0
 23 24  1  0  0  0
 24 25  2  0  0  0
 24 26  2  0  0  0
 24 27  1  0  0  0
 27 28  2  0  0  0
 28 29  1  0  0  0
 29 30  2  0  0  0
 30 31  1  0  0  0
 31 32  2  0  0  0
 10  1  1  0  0  0
 20 14  1  0  0  0
 32 27  1  0  0  0
 11  1  1  0  0  0
 10  5  1  0  0  0
M  END
> <minimizedAffinity>
7.09293

> <CNNscore>
0.2515856624

> <CNNaffinity>
6.8956060410

> <CNN_VS>
1.7348356247

> <CNNaffinity_variance>
0.3124175072

$$$$
[H]c1c([H])c([H])c(S(=O)(=O)N(C([H])([H])C([H])([H])[H])C([H])([H])[C@]23c4nnc(-c5c(F)c([H])c([H])c([H])c5F)c([H])c4[C@]([H])(C([H])([H])C2([H])[H])C3(C([H])([H])[H])C([H])([H])[H])c([H])c1[H]


 34 38  0  0  0  0  0  0  0  0999 V2000
  -16.8820   -6.2637    4.9193 C   0  0  0  0  0  0  0  0  0  0  0  0
  -17.7803   -5.1606    5.3957 C   0  0  0  0  0  0  0  0  0  0  0  0
  -16.8859   -3.9326    5.4861 C   0  0  0  0  0  0  0  0  0  0  0  0
  -15.5568   -4.4354    5.0165 C   0  0  0  0  0  0  0  0  0  0  0  0
  -15.0861   -5.3760    6.0727 C   0  0  0  0  0  0  0  0  0  0  0  0
  -14.0616   -5.2463    6.9815 C   0  0  0  0  0  0  0  0  0  0  0  0
  -13.8618   -6.2912    7.8575 C   0  0  0  0  0  0  0  0  0  0  0  0
  -14.6725   -7.3689    7.7749 N   0  0  0  0  0  0  0  0  0  0  0  0
  -15.6426   -7.4635    6.8956 N   0  0  0  0  0  0  0  0  0  0  0  0
  -15.9001   -6.4934    6.0122 C   0  0  0  0  0  0  0  0  0  0  0  0
  -15.9670   -5.4490    3.9693 C   0  0  0  0  0  0  0  0  0  0  0  0
  -16.7125   -4.7783    2.8921 C   0  0  0  0  0  0  0  0  0  0  0  0
  -14.8208   -6.3058    3.5222 C   0  0  0  0  0  0  0  0  0  0  0  0
  -12.8118   -6.2711    8.8626 C   0  0  0  0  0  0  0  0  0  0  0  0
  -11.4978   -6.6313    8.5672 C   0  0  0  0  0  0  0  0  0  0  0  0
  -11.1635   -7.0157    7.3118 F   0  0  0  0  0  0  0  0  0  0  0  0
  -10.5008   -6.6124    9.5210 C   0  0  0  0  0  0  0  0  0  0  0  0
  -10.8222   -6.2223   10.8115 C   0  0  0  0  0  0  0  0  0  0  0  0
  -12.1232   -5.8675   11.0970 C   0  0  0  0  0  0  0  0  0  0  0  0
  -13.1314   -5.8806   10.1562 C   0  0  0  0  0  0  0  0  0  0  0  0
  -14.4105   -5.5173   10.4959 F   0  0  0  0  0  0  0  0  0  0  0  0
  -17.4837   -7.4066    4.2640 C   0  0  0  0  0  0  0  0  0  0  0  0
  -17.2047   -8.7260    4.5257 N   0  0  0  0  0  0  0  0  0  0  0  0
  -15.8005   -9.4644    3.9554 S   0  0  0  0  0  0  0  0  0  0  0  0
  -16.0287  -10.8238    3.4117 O   0  0  0  0  0  0  0  0  0  0  0  0
  -15.1805   -8.6213    2.8921 O   0  0  0  0  0  0  0  0  0  0  0  0
  -14.5850   -9.6642    5.2175 C   0  0  0  0  0  0  0  0  0  0  0  0
  -13.3176   -9.2184    4.9449 C   0  0  0  0  0  0  0  0  0  0  0  0
  -12.2853   -9.3204    5.8521 C   0  0  0  0  0  0  0  0  0  0  0  0
  -12.5875   -9.9005    7.0675 C   0  0  0  0  0  0  0  0  0  0  0  0
  -13.8566  -10.3540    7.3578 C   0  0  0  0  0  0  0  0  0  0  0  0
  -14.8599  -10.2347    6.4271 C   0  0  0  0  0  0  0  0  0  0  0  0
  -19.4562   -9.1141    5.4277 C   0  0  0  0  0  0  0  0  0  0  0  0
  -17.9972   -9.5103    5.3927 C   0  0  0  0  0  0  0  0  0  0  0  0
 33 34  1  0  0  0
 34 23  1  0  0  0
 23 22  1  0  0  0
  1 22  1  0  0  0
  1  2  1  0  0  0
  2  3  1  0  0  0
  3  4  1  0  0  0
  4  5  1  0  0  0
  5  6  2  0  0  0
  6  7  1  0  0  0
  7  8  2  0  0  0
  8  9  1  0  0  0
  9 10  2  0  0  0
  7 14  1  0  0  0
 14 15  2  0  0  0
 15 16  1  0  0  0
 15 17  1  0  0  0
 17 18  2  0  0  0
 18 19  1  0  0  0
 19 20  2  0  0  0
 20 21  1  0  0  0
  4 11  1  0  0  0
 11 12  1  0  0  0
 11 13  1  0  0  0
 23 24  1  0  0  0
 24 25  2  0  0  0
 24 26  2  0  0  0
 24 27  1  0  0  0
 27 28  2  0  0  0
 28 29  1  0  0  0
 29 30  2  0  0  0
 30 31  1  0  0  0
 31 32  2  0  0  0
 10  1  1  0  0  0
 20 14  1  0  0  0
 32 27  1  0  0  0
 11  1  1  0  0  0
 10  5  1  0  0  0
M  END
> <minimizedAffinity>
4.66050

> <CNNscore>
0.2157288194

> <CNNaffinity>
6.9198951721

> <CNN_VS>
1.4928208590

> <CNNaffinity_variance>
0.4499806762

$$$$
[H]c1nc(N([H])c2c([H])c([H])c(C(F)(F)F)c([H])c2OC([H])(C([H])([H])[H])C([H])([H])[H])nc(N([H])c2c([H])c([H])c([H])c([H])c2S(=O)(=O)C([H])(C([H])([H])[H])C([H])([H])[H])c1Cl


 37 39  0  0  0  0  0  0  0  0999 V2000
   -7.2393   -7.8287    8.2972 C   0  0  0  0  0  0  0  0  0  0  0  0
   -6.9804   -9.0323    7.8036 N   0  0  0  0  0  0  0  0  0  0  0  0
   -7.9283   -9.8538    7.3273 C   0  0  0  0  0  0  0  0  0  0  0  0
   -9.2560   -9.4820    7.3214 C   0  0  0  0  0  0  0  0  0  0  0  0
  -10.5089  -10.5250    6.7054 Cl  0  0  0  0  0  0  0  0  0  0  0  0
   -9.5590   -8.2171    7.8321 C   0  0  0  0  0  0  0  0  0  0  0  0
   -8.5744   -7.4713    8.2853 N   0  0  0  0  0  0  0  0  0  0  0  0
   -6.3321   -6.8351    8.7055 N   0  0  0  0  0  0  0  0  0  0  0  0
   -6.4070   -6.4905    9.7276 H   0  0  0  0  0  0  0  0  0  0  0  0
   -4.3395   -5.4505    8.5982 C   0  0  0  0  0  0  0  0  0  0  0  0
   -3.4771   -4.7264    7.8261 C   0  0  0  0  0  0  0  0  0  0  0  0
   -3.4715   -4.6830    6.4478 C   0  0  0  0  0  0  0  0  0  0  0  0
   -4.4332   -5.4502    5.8265 C   0  0  0  0  0  0  0  0  0  0  0  0
   -5.3347   -6.2005    6.5672 C   0  0  0  0  0  0  0  0  0  0  0  0
   -5.3342   -6.2342    7.9286 C   0  0  0  0  0  0  0  0  0  0  0  0
   -2.5046   -3.8452    5.6650 C   0  0  0  0  0  0  0  0  0  0  0  0
   -2.9053   -3.9873    4.3253 F   0  0  0  0  0  0  0  0  0  0  0  0
   -2.4778   -2.5380    6.0613 F   0  0  0  0  0  0  0  0  0  0  0  0
   -1.2512   -4.4334    5.7193 F   0  0  0  0  0  0  0  0  0  0  0  0
   -4.3681   -5.5291    9.9413 O   0  0  0  0  0  0  0  0  0  0  0  0
   -2.8752   -4.3961   11.4742 C   0  0  0  0  0  0  0  0  0  0  0  0
   -4.3521   -4.6635   10.9955 C   0  0  0  0  0  0  0  0  0  0  0  0
   -5.1052   -5.1291   12.2044 C   0  0  0  0  0  0  0  0  0  0  0  0
  -10.8972   -7.7515    7.7111 N   0  0  0  0  0  0  0  0  0  0  0  0
  -11.3926   -8.0162    6.8272 H   0  0  0  0  0  0  0  0  0  0  0  0
  -11.6151   -6.9770    8.6406 C   0  0  0  0  0  0  0  0  0  0  0  0
  -11.0498   -6.0956    9.5599 C   0  0  0  0  0  0  0  0  0  0  0  0
  -11.7920   -5.3451   10.4493 C   0  0  0  0  0  0  0  0  0  0  0  0
  -13.1584   -5.4717   10.4319 C   0  0  0  0  0  0  0  0  0  0  0  0
  -13.7468   -6.3581    9.5148 C   0  0  0  0  0  0  0  0  0  0  0  0
  -13.0036   -7.0919    8.6420 C   0  0  0  0  0  0  0  0  0  0  0  0
  -13.8119   -8.1635    7.5244 S   0  0  0  0  0  0  0  0  0  0  0  0
  -15.2621   -8.3737    7.9641 O   0  0  0  0  0  0  0  0  0  0  0  0
  -13.1597   -9.4920    7.4437 O   0  0  0  0  0  0  0  0  0  0  0  0
  -13.9115   -7.4852    5.8787 C   0  0  0  0  0  0  0  0  0  0  0  0
  -14.8589   -6.3229    5.8510 C   0  0  0  0  0  0  0  0  0  0  0  0
  -14.5982   -8.5737    5.0093 C   0  0  0  0  0  0  0  0  0  0  0  0
 21 22  1  0  0  0
 22 23  1  0  0  0
 22 20  1  0  0  0
 20 10  1  0  0  0
 10 11  2  0  0  0
 11 12  1  0  0  0
 12 13  2  0  0  0
 13 14  1  0  0  0
 14 15  2  0  0  0
 15  8  1  0  0  0
  8  1  1  0  0  0
  1  2  2  0  0  0
  2  3  1  0  0  0
  3  4  2  0  0  0
  4  5  1  0  0  0
  4  6  1  0  0  0
  6 24  1  0  0  0
 24 26  1  0  0  0
 26 27  2  0  0  0
 27 28  1  0  0  0
 28 29  2  0  0  0
 29 30  1  0  0  0
 30 31  2  0  0  0
 31 32  1  0  0  0
 32 33  2  0  0  0
 32 34  2  0  0  0
 32 35  1  0  0  0
 35 36  1  0  0  0
 35 37  1  0  0  0
  6  7  2  0  0  0
 12 16  1  0  0  0
 16 17  1  0  0  0
 16 18  1  0  0  0
 16 19  1  0  0  0
 15 10  1  0  0  0
  7  1  1  0  0  0
 31 26  1  0  0  0
  8  9  1  0  0  0
 24 25  1  0  0  0
M  END
> <minimizedAffinity>
-8.71166

> <CNNscore>
0.4695031941

> <CNNaffinity>
7.4257478714

> <CNN_VS>
3.4864122868

> <CNNaffinity_variance>
0.2533321679

$$$$
[H]c1nc(N([H])c2c([H])c([H])c(C(F)(F)F)c([H])c2OC([H])(C([H])([H])[H])C([H])([H])[H])nc(N([H])c2c([H])c([H])c([H])c([H])c2S(=O)(=O)C([H])(C([H])([H])[H])C([H])([H])[H])c1Cl


 37 39  0  0  0  0  0  0  0  0999 V2000
  -13.8523   -7.2822    8.5264 C   0  0  0  0  0  0  0  0  0  0  0  0
  -13.9821   -6.4932    9.5846 N   0  0  0  0  0  0  0  0  0  0  0  0
  -12.9425   -6.0606   10.3142 C   0  0  0  0  0  0  0  0  0  0  0  0
  -11.6499   -6.4184    9.9947 C   0  0  0  0  0  0  0  0  0  0  0  0
  -10.2793   -5.8691   10.9203 Cl  0  0  0  0  0  0  0  0  0  0  0  0
  -11.4815   -7.2466    8.8819 C   0  0  0  0  0  0  0  0  0  0  0  0
  -12.5510   -7.6327    8.2199 N   0  0  0  0  0  0  0  0  0  0  0  0
  -14.8399   -7.6963    7.6154 N   0  0  0  0  0  0  0  0  0  0  0  0
  -15.1589   -8.7279    7.6709 H   0  0  0  0  0  0  0  0  0  0  0  0
  -16.7395   -7.3392    6.1446 C   0  0  0  0  0  0  0  0  0  0  0  0
  -17.2581   -6.6778    5.0687 C   0  0  0  0  0  0  0  0  0  0  0  0
  -16.6620   -5.6261    4.4051 C   0  0  0  0  0  0  0  0  0  0  0  0
  -15.4364   -5.2326    4.8976 C   0  0  0  0  0  0  0  0  0  0  0  0
  -14.8659   -5.8755    5.9865 C   0  0  0  0  0  0  0  0  0  0  0  0
  -15.4613   -6.9156    6.6332 C   0  0  0  0  0  0  0  0  0  0  0  0
  -17.2832   -4.9603    3.2133 C   0  0  0  0  0  0  0  0  0  0  0  0
  -18.6211   -4.7359    3.5811 F   0  0  0  0  0  0  0  0  0  0  0  0
  -16.6475   -3.8084    2.8451 F   0  0  0  0  0  0  0  0  0  0  0  0
  -17.3550   -5.8728    2.1731 F   0  0  0  0  0  0  0  0  0  0  0  0
  -17.2952   -8.3581    6.8257 O   0  0  0  0  0  0  0  0  0  0  0  0
  -19.1051   -9.0891    5.3929 C   0  0  0  0  0  0  0  0  0  0  0  0
  -18.4882   -9.0197    6.8408 C   0  0  0  0  0  0  0  0  0  0  0  0
  -19.5391   -8.4038    7.7135 C   0  0  0  0  0  0  0  0  0  0  0  0
  -10.1553   -7.5176    8.4462 N   0  0  0  0  0  0  0  0  0  0  0  0
   -9.4285   -6.8246    8.7431 H   0  0  0  0  0  0  0  0  0  0  0  0
   -9.7230   -8.6033    7.6628 C   0  0  0  0  0  0  0  0  0  0  0  0
  -10.5077   -9.6962    7.3004 C   0  0  0  0  0  0  0  0  0  0  0  0
  -10.0473  -10.7375    6.5201 C   0  0  0  0  0  0  0  0  0  0  0  0
   -8.7490  -10.6994    6.0771 C   0  0  0  0  0  0  0  0  0  0  0  0
   -7.9411   -9.6075    6.4350 C   0  0  0  0  0  0  0  0  0  0  0  0
   -8.4075   -8.5862    7.2044 C   0  0  0  0  0  0  0  0  0  0  0  0
   -7.3428   -7.2582    7.5960 S   0  0  0  0  0  0  0  0  0  0  0  0
   -6.8193   -7.4169    9.0248 O   0  0  0  0  0  0  0  0  0  0  0  0
   -8.0203   -5.9435    7.4990 O   0  0  0  0  0  0  0  0  0  0  0  0
   -5.8904   -7.2196    6.5630 C   0  0  0  0  0  0  0  0  0  0  0  0
   -4.8742   -8.2061    7.0564 C   0  0  0  0  0  0  0  0  0  0  0  0
   -5.2367   -5.8304    6.7974 C   0  0  0  0  0  0  0  0  0  0  0  0
 21 22  1  0  0  0
 22 23  1  0  0  0
 22 20  1  0  0  0
 20 10  1  0  0  0
 10 11  2  0  0  0
 11 12  1  0  0  0
 12 13  2  0  0  0
 13 14  1  0  0  0
 14 15  2  0  0  0
 15  8  1  0  0  0
  8  1  1  0  0  0
  1  2  2  0  0  0
  2  3  1  0  0  0
  3  4  2  0  0  0
  4  5  1  0  0  0
  4  6  1  0  0  0
  6 24  1  0  0  0
 24 26  1  0  0  0
 26 27  2  0  0  0
 27 28  1  0  0  0
 28 29  2  0  0  0
 29 30  1  0  0  0
 30 31  2  0  0  0
 31 32  1  0  0  0
 32 33  2  0  0  0
 32 34  2  0  0  0
 32 35  1  0  0  0
 35 36  1  0  0  0
 35 37  1  0  0  0
  6  7  2  0  0  0
 12 16  1  0  0  0
 16 17  1  0  0  0
 16 18  1  0  0  0
 16 19  1  0  0  0
 15 10  1  0  0  0
  7  1  1  0  0  0
 31 26  1  0  0  0
  8  9  1  0  0  0
 24 25  1  0  0  0
M  END
> <minimizedAffinity>
-2.26941

> <CNNscore>
0.2580835223

> <CNNaffinity>
7.4717354774

> <CNN_VS>
1.9283318520

> <CNNaffinity_variance>
0.7823826075

$$$$
[H]c1nc(N([H])c2c([H])c([H])c(C(F)(F)F)c([H])c2OC([H])(C([H])([H])[H])C([H])([H])[H])nc(N([H])c2c([H])c([H])c([H])c([H])c2S(=O)(=O)C([H])(C([H])([H])[H])C([H])([H])[H])c1Cl


 37 39  0  0  0  0  0  0  0  0999 V2000
   -6.7334   -7.0487    7.6156 C   0  0  0  0  0  0  0  0  0  0  0  0
   -6.3466   -8.2902    7.3546 N   0  0  0  0  0  0  0  0  0  0  0  0
   -7.2026   -9.3094    7.1852 C   0  0  0  0  0  0  0  0  0  0  0  0
   -8.5652   -9.1173    7.2720 C   0  0  0  0  0  0  0  0  0  0  0  0
   -9.7017  -10.4200    7.0525 Cl  0  0  0  0  0  0  0  0  0  0  0  0
   -9.0030   -7.8182    7.5425 C   0  0  0  0  0  0  0  0  0  0  0  0
   -8.1017   -6.8728    7.7005 N   0  0  0  0  0  0  0  0  0  0  0  0
   -5.9499   -5.8835    7.6883 N   0  0  0  0  0  0  0  0  0  0  0  0
   -6.0711   -5.1589    6.8950 H   0  0  0  0  0  0  0  0  0  0  0  0
   -3.6718   -5.2832    8.2788 C   0  0  0  0  0  0  0  0  0  0  0  0
   -2.7341   -5.1364    9.2602 C   0  0  0  0  0  0  0  0  0  0  0  0
   -2.9673   -5.2205   10.6168 C   0  0  0  0  0  0  0  0  0  0  0  0
   -4.2724   -5.4750   10.9793 C   0  0  0  0  0  0  0  0  0  0  0  0
   -5.2606   -5.6357   10.0192 C   0  0  0  0  0  0  0  0  0  0  0  0
   -5.0195   -5.5540    8.6813 C   0  0  0  0  0  0  0  0  0  0  0  0
   -1.8804   -5.0692   11.6392 C   0  0  0  0  0  0  0  0  0  0  0  0
   -1.0640   -6.2006   11.4690 F   0  0  0  0  0  0  0  0  0  0  0  0
   -1.1804   -3.9025   11.5154 F   0  0  0  0  0  0  0  0  0  0  0  0
   -2.4264   -5.2192   12.9037 F   0  0  0  0  0  0  0  0  0  0  0  0
   -3.4864   -5.1950    6.9488 O   0  0  0  0  0  0  0  0  0  0  0  0
   -2.8953   -5.0707    4.6041 C   0  0  0  0  0  0  0  0  0  0  0  0
   -2.6171   -5.6947    6.0237 C   0  0  0  0  0  0  0  0  0  0  0  0
   -2.6733   -7.1813    5.8449 C   0  0  0  0  0  0  0  0  0  0  0  0
  -10.4012   -7.5626    7.4995 N   0  0  0  0  0  0  0  0  0  0  0  0
  -10.8887   -7.8480    6.6177 H   0  0  0  0  0  0  0  0  0  0  0  0
  -11.1880   -6.9685    8.5031 C   0  0  0  0  0  0  0  0  0  0  0  0
  -10.7177   -6.0963    9.4827 C   0  0  0  0  0  0  0  0  0  0  0  0
  -11.5265   -5.5260   10.4448 C   0  0  0  0  0  0  0  0  0  0  0  0
  -12.8642   -5.8324   10.4411 C   0  0  0  0  0  0  0  0  0  0  0  0
  -13.3567   -6.7127    9.4637 C   0  0  0  0  0  0  0  0  0  0  0  0
  -12.5485   -7.2678    8.5195 C   0  0  0  0  0  0  0  0  0  0  0  0
  -13.2402   -8.3443    7.3307 S   0  0  0  0  0  0  0  0  0  0  0  0
  -14.5113   -8.9868    7.8898 O   0  0  0  0  0  0  0  0  0  0  0  0
  -12.3094   -9.4306    6.9429 O   0  0  0  0  0  0  0  0  0  0  0  0
  -13.7543   -7.4901    5.8527 C   0  0  0  0  0  0  0  0  0  0  0  0
  -14.8065   -6.4725    6.1788 C   0  0  0  0  0  0  0  0  0  0  0  0
  -14.4857   -8.5474    4.9813 C   0  0  0  0  0  0  0  0  0  0  0  0
 21 22  1  0  0  0
 22 23  1  0  0  0
 22 20  1  0  0  0
 20 10  1  0  0  0
 10 11  2  0  0  0
 11 12  1  0  0  0
 12 13  2  0  0  0
 13 14  1  0  0  0
 14 15  2  0  0  0
 15  8  1  0  0  0
  8  1  1  0  0  0
  1  2  2  0  0  0
  2  3  1  0  0  0
  3  4  2  0  0  0
  4  5  1  0  0  0
  4  6  1  0  0  0
  6 24  1  0  0  0
 24 26  1  0  0  0
 26 27  2  0  0  0
 27 28  1  0  0  0
 28 29  2  0  0  0
 29 30  1  0  0  0
 30 31  2  0  0  0
 31 32  1  0  0  0
 32 33  2  0  0  0
 32 34  2  0  0  0
 32 35  1  0  0  0
 35 36  1  0  0  0
 35 37  1  0  0  0
  6  7  2  0  0  0
 12 16  1  0  0  0
 16 17  1  0  0  0
 16 18  1  0  0  0
 16 19  1  0  0  0
 15 10  1  0  0  0
  7  1  1  0  0  0
 31 26  1  0  0  0
  8  9  1  0  0  0
 24 25  1  0  0  0
M  END
> <minimizedAffinity>
-7.07828

> <CNNscore>
0.1897814572

> <CNNaffinity>
7.0457458496

> <CNN_VS>
1.3371518850

> <CNNaffinity_variance>
0.1117041260

$$$$
[H]c1nc(N([H])c2c([H])c([H])c(C(F)(F)F)c([H])c2OC([H])(C([H])([H])[H])C([H])([H])[H])nc(N([H])c2c([H])c([H])c([H])c([H])c2S(=O)(=O)C([H])(C([H])([H])[H])C([H])([H])[H])c1Cl


 37 39  0  0  0  0  0  0  0  0999 V2000
   -6.9210   -7.2108    7.0118 C   0  0  0  0  0  0  0  0  0  0  0  0
   -6.5758   -8.4907    6.9677 N   0  0  0  0  0  0  0  0  0  0  0  0
   -7.4598   -9.4965    7.0529 C   0  0  0  0  0  0  0  0  0  0  0  0
   -8.8091   -9.2493    7.1913 C   0  0  0  0  0  0  0  0  0  0  0  0
   -9.9814  -10.5342    7.3000 Cl  0  0  0  0  0  0  0  0  0  0  0  0
   -9.2034   -7.9096    7.2371 C   0  0  0  0  0  0  0  0  0  0  0  0
   -8.2765   -6.9797    7.1518 N   0  0  0  0  0  0  0  0  0  0  0  0
   -6.1136   -6.0778    6.8089 N   0  0  0  0  0  0  0  0  0  0  0  0
   -6.2347   -5.5485    5.8739 H   0  0  0  0  0  0  0  0  0  0  0  0
   -4.0421   -4.8518    7.1323 C   0  0  0  0  0  0  0  0  0  0  0  0
   -3.0298   -4.4983    7.9775 C   0  0  0  0  0  0  0  0  0  0  0  0
   -2.9848   -4.7528    9.3321 C   0  0  0  0  0  0  0  0  0  0  0  0
   -4.0737   -5.4235    9.8458 C   0  0  0  0  0  0  0  0  0  0  0  0
   -5.1257   -5.8073    9.0271 C   0  0  0  0  0  0  0  0  0  0  0  0
   -5.1593   -5.5541    7.6895 C   0  0  0  0  0  0  0  0  0  0  0  0
   -1.8262   -4.3522   10.1963 C   0  0  0  0  0  0  0  0  0  0  0  0
   -2.4020   -3.6551   11.2724 F   0  0  0  0  0  0  0  0  0  0  0  0
   -1.0696   -5.4114   10.6112 F   0  0  0  0  0  0  0  0  0  0  0  0
   -1.0720   -3.4016    9.5275 F   0  0  0  0  0  0  0  0  0  0  0  0
   -4.1285   -4.6101    5.8113 O   0  0  0  0  0  0  0  0  0  0  0  0
   -2.0874   -5.5565    4.9163 C   0  0  0  0  0  0  0  0  0  0  0  0
   -3.2756   -4.5356    4.7491 C   0  0  0  0  0  0  0  0  0  0  0  0
   -2.6458   -3.1922    4.5400 C   0  0  0  0  0  0  0  0  0  0  0  0
  -10.5964   -7.6235    7.2385 N   0  0  0  0  0  0  0  0  0  0  0  0
  -11.1080   -7.8497    6.3532 H   0  0  0  0  0  0  0  0  0  0  0  0
  -11.3494   -7.0698    8.2900 C   0  0  0  0  0  0  0  0  0  0  0  0
  -10.8401   -6.2637    9.3061 C   0  0  0  0  0  0  0  0  0  0  0  0
  -11.6165   -5.7309   10.3153 C   0  0  0  0  0  0  0  0  0  0  0  0
  -12.9605   -6.0083   10.3232 C   0  0  0  0  0  0  0  0  0  0  0  0
  -13.4920   -6.8222    9.3093 C   0  0  0  0  0  0  0  0  0  0  0  0
  -12.7156   -7.3407    8.3189 C   0  0  0  0  0  0  0  0  0  0  0  0
  -13.4549   -8.3345    7.0873 S   0  0  0  0  0  0  0  0  0  0  0  0
  -14.6448   -9.0933    7.6782 O   0  0  0  0  0  0  0  0  0  0  0  0
  -12.5119   -9.3283    6.5220 O   0  0  0  0  0  0  0  0  0  0  0  0
  -14.1282   -7.3720    5.7462 C   0  0  0  0  0  0  0  0  0  0  0  0
  -15.4180   -6.7299    6.1623 C   0  0  0  0  0  0  0  0  0  0  0  0
  -14.5332   -8.3939    4.6489 C   0  0  0  0  0  0  0  0  0  0  0  0
 21 22  1  0  0  0
 22 23  1  0  0  0
 22 20  1  0  0  0
 20 10  1  0  0  0
 10 11  2  0  0  0
 11 12  1  0  0  0
 12 13  2  0  0  0
 13 14  1  0  0  0
 14 15  2  0  0  0
 15  8  1  0  0  0
  8  1  1  0  0  0
  1  2  2  0  0  0
  2  3  1  0  0  0
  3  4  2  0  0  0
  4  5  1  0  0  0
  4  6  1  0  0  0
  6 24  1  0  0  0
 24 26  1  0  0  0
 26 27  2  0  0  0
 27 28  1  0  0  0
 28 29  2  0  0  0
 29 30  1  0  0  0
 30 31  2  0  0  0
 31 32  1  0  0  0
 32 33  2  0  0  0
 32 34  2  0  0  0
 32 35  1  0  0  0
 35 36  1  0  0  0
 35 37  1  0  0  0
  6  7  2  0  0  0
 12 16  1  0  0  0
 16 17  1  0  0  0
 16 18  1  0  0  0
 16 19  1  0  0  0
 15 10  1  0  0  0
  7  1  1  0  0  0
 31 26  1  0  0  0
  8  9  1  0  0  0
 24 25  1  0  0  0
M  END
> <minimizedAffinity>
-7.27793

> <CNNscore>
0.1782101691

> <CNNaffinity>
7.0920462608

> <CNN_VS>
1.2638747692

> <CNNaffinity_variance>
0.1066970676

$$$$
[H]c1nc(N([H])c2c([H])c([H])c(C(F)(F)F)c([H])c2OC([H])(C([H])([H])[H])C([H])([H])[H])nc(N([H])c2c([H])c([H])c([H])c([H])c2S(=O)(=O)C([H])(C([H])([H])[H])C([H])([H])[H])c1Cl


 37 39  0  0  0  0  0  0  0  0999 V2000
  -14.0890   -7.7747    8.7423 C   0  0  0  0  0  0  0  0  0  0  0  0
  -14.2569   -6.9329    9.7533 N   0  0  0  0  0  0  0  0  0  0  0  0
  -13.2404   -6.3255   10.3842 C   0  0  0  0  0  0  0  0  0  0  0  0
  -11.9331   -6.5458   10.0052 C   0  0  0  0  0  0  0  0  0  0  0  0
  -10.5924   -5.7685   10.8021 Cl  0  0  0  0  0  0  0  0  0  0  0  0
  -11.7251   -7.4258    8.9398 C   0  0  0  0  0  0  0  0  0  0  0  0
  -12.7733   -7.9858    8.3751 N   0  0  0  0  0  0  0  0  0  0  0  0
  -15.0666   -8.3707    7.9263 N   0  0  0  0  0  0  0  0  0  0  0  0
  -15.1570   -9.4471    7.9729 H   0  0  0  0  0  0  0  0  0  0  0  0
  -15.4271   -7.2684    5.7922 C   0  0  0  0  0  0  0  0  0  0  0  0
  -16.2349   -6.4842    5.0198 C   0  0  0  0  0  0  0  0  0  0  0  0
  -17.5164   -6.0870    5.3387 C   0  0  0  0  0  0  0  0  0  0  0  0
  -17.9933   -6.5397    6.5499 C   0  0  0  0  0  0  0  0  0  0  0  0
  -17.2095   -7.3360    7.3720 C   0  0  0  0  0  0  0  0  0  0  0  0
  -15.9435   -7.7203    7.0495 C   0  0  0  0  0  0  0  0  0  0  0  0
  -18.3390   -5.2043    4.4477 C   0  0  0  0  0  0  0  0  0  0  0  0
  -17.4454   -4.7532    3.4610 F   0  0  0  0  0  0  0  0  0  0  0  0
  -19.4245   -5.8379    3.9123 F   0  0  0  0  0  0  0  0  0  0  0  0
  -18.6933   -4.0619    5.1471 F   0  0  0  0  0  0  0  0  0  0  0  0
  -14.1797   -7.6874    5.5104 O   0  0  0  0  0  0  0  0  0  0  0  0
  -14.5310   -9.0863    3.5656 C   0  0  0  0  0  0  0  0  0  0  0  0
  -13.5982   -8.6713    4.7654 C   0  0  0  0  0  0  0  0  0  0  0  0
  -13.2951   -9.9329    5.5147 C   0  0  0  0  0  0  0  0  0  0  0  0
  -10.4022   -7.5644    8.4372 N   0  0  0  0  0  0  0  0  0  0  0  0
   -9.7521   -6.7694    8.6423 H   0  0  0  0  0  0  0  0  0  0  0  0
   -9.8825   -8.6424    7.6975 C   0  0  0  0  0  0  0  0  0  0  0  0
  -10.5870   -9.7934    7.3505 C   0  0  0  0  0  0  0  0  0  0  0  0
  -10.0421  -10.8251    6.6131 C   0  0  0  0  0  0  0  0  0  0  0  0
   -8.7381  -10.7167    6.1994 C   0  0  0  0  0  0  0  0  0  0  0  0
   -8.0102   -9.5654    6.5425 C   0  0  0  0  0  0  0  0  0  0  0  0
   -8.5596   -8.5542    7.2694 C   0  0  0  0  0  0  0  0  0  0  0  0
   -7.5914   -7.1499    7.6449 S   0  0  0  0  0  0  0  0  0  0  0  0
   -7.0871   -7.2379    9.0867 O   0  0  0  0  0  0  0  0  0  0  0  0
   -8.3508   -5.8853    7.5008 O   0  0  0  0  0  0  0  0  0  0  0  0
   -6.1243   -7.0425    6.6378 C   0  0  0  0  0  0  0  0  0  0  0  0
   -5.1877   -6.0099    7.1906 C   0  0  0  0  0  0  0  0  0  0  0  0
   -6.5856   -6.4647    5.2719 C   0  0  0  0  0  0  0  0  0  0  0  0
 21 22  1  0  0  0
 22 23  1  0  0  0
 22 20  1  0  0  0
 20 10  1  0  0  0
 10 11  2  0  0  0
 11 12  1  0  0  0
 12 13  2  0  0  0
 13 14  1  0  0  0
 14 15  2  0  0  0
 15  8  1  0  0  0
  8  1  1  0  0  0
  1  2  2  0  0  0
  2  3  1  0  0  0
  3  4  2  0  0  0
  4  5  1  0  0  0
  4  6  1  0  0  0
  6 24  1  0  0  0
 24 26  1  0  0  0
 26 27  2  0  0  0
 27 28  1  0  0  0
 28 29  2  0  0  0
 29 30  1  0  0  0
 30 31  2  0  0  0
 31 32  1  0  0  0
 32 33  2  0  0  0
 32 34  2  0  0  0
 32 35  1  0  0  0
 35 36  1  0  0  0
 35 37  1  0  0  0
  6  7  2  0  0  0
 12 16  1  0  0  0
 16 17  1  0  0  0
 16 18  1  0  0  0
 16 19  1  0  0  0
 15 10  1  0  0  0
  7  1  1  0  0  0
 31 26  1  0  0  0
  8  9  1  0  0  0
 24 25  1  0  0  0
M  END
> <minimizedAffinity>
-5.23281

> <CNNscore>
0.1773221195

> <CNNaffinity>
7.3517789841

> <CNN_VS>
1.3036329746

> <CNNaffinity_variance>
0.1248346195

$$$$
[H]c1nc(N([H])c2c([H])c([H])c(C(F)(F)F)c([H])c2OC([H])(C([H])([H])[H])C([H])([H])[H])nc(N([H])c2c([H])c([H])c([H])c([H])c2S(=O)(=O)C([H])(C([H])([H])[H])C([H])([H])[H])c1Cl


 37 39  0  0  0  0  0  0  0  0999 V2000
  -13.2205   -8.0663    6.3251 C   0  0  0  0  0  0  0  0  0  0  0  0
  -13.0885   -6.9022    6.9470 N   0  0  0  0  0  0  0  0  0  0  0  0
  -13.7507   -5.7930    6.5846 C   0  0  0  0  0  0  0  0  0  0  0  0
  -14.6291   -5.8028    5.5219 C   0  0  0  0  0  0  0  0  0  0  0  0
  -15.5068   -4.3797    5.0305 Cl  0  0  0  0  0  0  0  0  0  0  0  0
  -14.7917   -7.0167    4.8493 C   0  0  0  0  0  0  0  0  0  0  0  0
  -14.1034   -8.0594    5.2617 N   0  0  0  0  0  0  0  0  0  0  0  0
  -12.6849   -9.3164    6.6820 N   0  0  0  0  0  0  0  0  0  0  0  0
  -13.3557  -10.1640    6.6578 H   0  0  0  0  0  0  0  0  0  0  0  0
  -10.8678   -8.9489    8.2510 C   0  0  0  0  0  0  0  0  0  0  0  0
   -9.5369   -9.0782    8.5269 C   0  0  0  0  0  0  0  0  0  0  0  0
   -8.6213   -9.7791    7.7704 C   0  0  0  0  0  0  0  0  0  0  0  0
   -9.1276  -10.3916    6.6444 C   0  0  0  0  0  0  0  0  0  0  0  0
  -10.4720  -10.2865    6.3192 C   0  0  0  0  0  0  0  0  0  0  0  0
  -11.3679   -9.5890    7.0712 C   0  0  0  0  0  0  0  0  0  0  0  0
   -7.1662   -9.8599    8.1249 C   0  0  0  0  0  0  0  0  0  0  0  0
   -6.4887   -9.4280    6.9716 F   0  0  0  0  0  0  0  0  0  0  0  0
   -6.8362   -9.1215    9.2260 F   0  0  0  0  0  0  0  0  0  0  0  0
   -6.8085  -11.1914    8.2624 F   0  0  0  0  0  0  0  0  0  0  0  0
  -11.7928   -8.2866    8.9697 O   0  0  0  0  0  0  0  0  0  0  0  0
  -13.2911   -6.7583   10.1020 C   0  0  0  0  0  0  0  0  0  0  0  0
  -11.8164   -7.2616    9.8697 C   0  0  0  0  0  0  0  0  0  0  0  0
  -11.0212   -6.0556    9.4719 C   0  0  0  0  0  0  0  0  0  0  0  0
  -15.7919   -7.0924    3.8413 N   0  0  0  0  0  0  0  0  0  0  0  0
  -15.6037   -7.7683    3.0638 H   0  0  0  0  0  0  0  0  0  0  0  0
  -16.9909   -6.3593    3.7767 C   0  0  0  0  0  0  0  0  0  0  0  0
  -17.1598   -5.1519    3.1019 C   0  0  0  0  0  0  0  0  0  0  0  0
  -18.3581   -4.4687    3.0543 C   0  0  0  0  0  0  0  0  0  0  0  0
  -19.4422   -5.0018    3.7054 C   0  0  0  0  0  0  0  0  0  0  0  0
  -19.2907   -6.2165    4.3943 C   0  0  0  0  0  0  0  0  0  0  0  0
  -18.1036   -6.8811    4.4328 C   0  0  0  0  0  0  0  0  0  0  0  0
  -18.0000   -8.3928    5.3017 S   0  0  0  0  0  0  0  0  0  0  0  0
  -16.7900   -9.1908    4.8120 O   0  0  0  0  0  0  0  0  0  0  0  0
  -19.2077   -9.2326    5.1200 O   0  0  0  0  0  0  0  0  0  0  0  0
  -17.7353   -8.1594    7.0492 C   0  0  0  0  0  0  0  0  0  0  0  0
  -17.7597   -6.6988    7.3890 C   0  0  0  0  0  0  0  0  0  0  0  0
  -16.2721   -8.6028    7.3222 C   0  0  0  0  0  0  0  0  0  0  0  0
 21 22  1  0  0  0
 22 23  1  0  0  0
 22 20  1  0  0  0
 20 10  1  0  0  0
 10 11  2  0  0  0
 11 12  1  0  0  0
 12 13  2  0  0  0
 13 14  1  0  0  0
 14 15  2  0  0  0
 15  8  1  0  0  0
  8  1  1  0  0  0
  1  2  2  0  0  0
  2  3  1  0  0  0
  3  4  2  0  0  0
  4  5  1  0  0  0
  4  6  1  0  0  0
  6 24  1  0  0  0
 24 26  1  0  0  0
 26 27  2  0  0  0
 27 28  1  0  0  0
 28 29  2  0  0  0
 29 30  1  0  0  0
 30 31  2  0  0  0
 31 32  1  0  0  0
 32 33  2  0  0  0
 32 34  2  0  0  0
 32 35  1  0  0  0
 35 36  1  0  0  0
 35 37  1  0  0  0
  6  7  2  0  0  0
 12 16  1  0  0  0
 16 17  1  0  0  0
 16 18  1  0  0  0
 16 19  1  0  0  0
 15 10  1  0  0  0
  7  1  1  0  0  0
 31 26  1  0  0  0
  8  9  1  0  0  0
 24 25  1  0  0  0
M  END
> <minimizedAffinity>
-0.55636

> <CNNscore>
0.1645264328

> <CNNaffinity>
6.8899474144

> <CNN_VS>
1.1335784197

> <CNNaffinity_variance>
0.1541036367

$$$$
[H]c1nc(N([H])c2c([H])c([H])c(C(F)(F)F)c([H])c2OC([H])(C([H])([H])[H])C([H])([H])[H])nc(N([H])c2c([H])c([H])c([H])c([H])c2S(=O)(=O)C([H])(C([H])([H])[H])C([H])([H])[H])c1Cl


 37 39  0  0  0  0  0  0  0  0999 V2000
  -13.7963   -8.0776    6.7381 C   0  0  0  0  0  0  0  0  0  0  0  0
  -13.2457   -7.0367    6.1277 N   0  0  0  0  0  0  0  0  0  0  0  0
  -13.9527   -5.9956    5.6624 C   0  0  0  0  0  0  0  0  0  0  0  0
  -15.3238   -5.9475    5.7991 C   0  0  0  0  0  0  0  0  0  0  0  0
  -16.2686   -4.6071    5.2093 Cl  0  0  0  0  0  0  0  0  0  0  0  0
  -15.9319   -7.0291    6.4417 C   0  0  0  0  0  0  0  0  0  0  0  0
  -15.1710   -8.0149    6.8662 N   0  0  0  0  0  0  0  0  0  0  0  0
  -13.1600   -9.1577    7.3749 N   0  0  0  0  0  0  0  0  0  0  0  0
  -13.7956   -9.9229    7.7984 H   0  0  0  0  0  0  0  0  0  0  0  0
  -11.0745   -8.4996    8.4316 C   0  0  0  0  0  0  0  0  0  0  0  0
   -9.7114   -8.5775    8.4434 C   0  0  0  0  0  0  0  0  0  0  0  0
   -8.9451   -9.4145    7.6599 C   0  0  0  0  0  0  0  0  0  0  0  0
   -9.6485  -10.2316    6.8014 C   0  0  0  0  0  0  0  0  0  0  0  0
  -11.0341  -10.1869    6.7497 C   0  0  0  0  0  0  0  0  0  0  0  0
  -11.7819   -9.3542    7.5255 C   0  0  0  0  0  0  0  0  0  0  0  0
   -7.4463   -9.4300    7.7120 C   0  0  0  0  0  0  0  0  0  0  0  0
   -7.1135  -10.7196    8.1611 F   0  0  0  0  0  0  0  0  0  0  0  0
   -6.8606   -9.1319    6.5142 F   0  0  0  0  0  0  0  0  0  0  0  0
   -7.0213   -8.5863    8.7256 F   0  0  0  0  0  0  0  0  0  0  0  0
  -11.8564   -7.7077    9.1882 O   0  0  0  0  0  0  0  0  0  0  0  0
  -11.0927   -5.7381   10.3715 C   0  0  0  0  0  0  0  0  0  0  0  0
  -12.0899   -6.3710    9.3289 C   0  0  0  0  0  0  0  0  0  0  0  0
  -13.4674   -6.0185    9.8014 C   0  0  0  0  0  0  0  0  0  0  0  0
  -17.3236   -6.9430    6.7209 N   0  0  0  0  0  0  0  0  0  0  0  0
  -17.6650   -6.0084    7.0474 H   0  0  0  0  0  0  0  0  0  0  0  0
  -18.2778   -7.9709    6.6110 C   0  0  0  0  0  0  0  0  0  0  0  0
  -18.8897   -8.6180    7.6827 C   0  0  0  0  0  0  0  0  0  0  0  0
  -19.8306   -9.6164    7.5313 C   0  0  0  0  0  0  0  0  0  0  0  0
  -20.1838   -9.9960    6.2607 C   0  0  0  0  0  0  0  0  0  0  0  0
  -19.5752   -9.3579    5.1674 C   0  0  0  0  0  0  0  0  0  0  0  0
  -18.6493   -8.3737    5.3301 C   0  0  0  0  0  0  0  0  0  0  0  0
  -17.9472   -7.6212    3.9189 S   0  0  0  0  0  0  0  0  0  0  0  0
  -18.0959   -6.1014    4.0133 O   0  0  0  0  0  0  0  0  0  0  0  0
  -18.5913   -8.0680    2.6611 O   0  0  0  0  0  0  0  0  0  0  0  0
  -16.1939   -7.9164    3.7884 C   0  0  0  0  0  0  0  0  0  0  0  0
  -15.6458   -7.2606    2.5560 C   0  0  0  0  0  0  0  0  0  0  0  0
  -16.0358   -9.4393    3.5274 C   0  0  0  0  0  0  0  0  0  0  0  0
 21 22  1  0  0  0
 22 23  1  0  0  0
 22 20  1  0  0  0
 20 10  1  0  0  0
 10 11  2  0  0  0
 11 12  1  0  0  0
 12 13  2  0  0  0
 13 14  1  0  0  0
 14 15  2  0  0  0
 15  8  1  0  0  0
  8  1  1  0  0  0
  1  2  2  0  0  0
  2  3  1  0  0  0
  3  4  2  0  0  0
  4  5  1  0  0  0
  4  6  1  0  0  0
  6 24  1  0  0  0
 24 26  1  0  0  0
 26 27  2  0  0  0
 27 28  1  0  0  0
 28 29  2  0  0  0
 29 30  1  0  0  0
 30 31  2  0  0  0
 31 32  1  0  0  0
 32 33  2  0  0  0
 32 34  2  0  0  0
 32 35  1  0  0  0
 35 36  1  0  0  0
 35 37  1  0  0  0
  6  7  2  0  0  0
 12 16  1  0  0  0
 16 17  1  0  0  0
 16 18  1  0  0  0
 16 19  1  0  0  0
 15 10  1  0  0  0
  7  1  1  0  0  0
 31 26  1  0  0  0
  8  9  1  0  0  0
 24 25  1  0  0  0
M  END
> <minimizedAffinity>
-2.45796

> <CNNscore>
0.1615551561

> <CNNaffinity>
7.3233041763

> <CNN_VS>
1.1831175089

> <CNNaffinity_variance>
0.2872694135

$$$$
[H]c1nc(N([H])c2c([H])c([H])c(C(F)(F)F)c([H])c2OC([H])(C([H])([H])[H])C([H])([H])[H])nc(N([H])c2c([H])c([H])c([H])c([H])c2S(=O)(=O)C([H])(C([H])([H])[H])C([H])([H])[H])c1Cl


 37 39  0  0  0  0  0  0  0  0999 V2000
   -8.0946   -7.6395    8.0236 C   0  0  0  0  0  0  0  0  0  0  0  0
   -7.9341   -8.8998    7.6428 N   0  0  0  0  0  0  0  0  0  0  0  0
   -8.9524   -9.6993    7.2902 C   0  0  0  0  0  0  0  0  0  0  0  0
  -10.2534   -9.2429    7.3012 C   0  0  0  0  0  0  0  0  0  0  0  0
  -11.5959  -10.2557    6.8443 Cl  0  0  0  0  0  0  0  0  0  0  0  0
  -10.4533   -7.9171    7.6947 C   0  0  0  0  0  0  0  0  0  0  0  0
   -9.4042   -7.1975    8.0305 N   0  0  0  0  0  0  0  0  0  0  0  0
   -7.1096   -6.6731    8.2931 N   0  0  0  0  0  0  0  0  0  0  0  0
   -7.1871   -6.1397    9.2304 H   0  0  0  0  0  0  0  0  0  0  0  0
   -4.9149   -5.6549    8.0805 C   0  0  0  0  0  0  0  0  0  0  0  0
   -3.9485   -5.1566    7.2547 C   0  0  0  0  0  0  0  0  0  0  0  0
   -3.9440   -5.2382    5.8781 C   0  0  0  0  0  0  0  0  0  0  0  0
   -5.0238   -5.8871    5.3192 C   0  0  0  0  0  0  0  0  0  0  0  0
   -6.0333   -6.4075    6.1158 C   0  0  0  0  0  0  0  0  0  0  0  0
   -6.0302   -6.3188    7.4747 C   0  0  0  0  0  0  0  0  0  0  0  0
   -2.8557   -4.6467    5.0324 C   0  0  0  0  0  0  0  0  0  0  0  0
   -2.0168   -3.9767    5.9395 F   0  0  0  0  0  0  0  0  0  0  0  0
   -2.1807   -5.5758    4.2924 F   0  0  0  0  0  0  0  0  0  0  0  0
   -3.3926   -3.6412    4.2447 F   0  0  0  0  0  0  0  0  0  0  0  0
   -4.9480   -5.6071    9.4250 O   0  0  0  0  0  0  0  0  0  0  0  0
   -4.9221   -5.2190   11.8148 C   0  0  0  0  0  0  0  0  0  0  0  0
   -4.1906   -5.0746   10.4270 C   0  0  0  0  0  0  0  0  0  0  0  0
   -3.8737   -3.6184   10.2713 C   0  0  0  0  0  0  0  0  0  0  0  0
  -11.7644   -7.3780    7.5823 N   0  0  0  0  0  0  0  0  0  0  0  0
  -11.9377   -6.7747    6.7441 H   0  0  0  0  0  0  0  0  0  0  0  0
  -12.8388   -7.5635    8.4714 C   0  0  0  0  0  0  0  0  0  0  0  0
  -12.7283   -7.6615    9.8569 C   0  0  0  0  0  0  0  0  0  0  0  0
  -13.8108   -7.8331   10.6958 C   0  0  0  0  0  0  0  0  0  0  0  0
  -15.0633   -7.9135   10.1405 C   0  0  0  0  0  0  0  0  0  0  0  0
  -15.1947   -7.8204    8.7451 C   0  0  0  0  0  0  0  0  0  0  0  0
  -14.1190   -7.6502    7.9287 C   0  0  0  0  0  0  0  0  0  0  0  0
  -14.3675   -7.5317    6.2039 S   0  0  0  0  0  0  0  0  0  0  0  0
  -13.8541   -8.7991    5.5176 O   0  0  0  0  0  0  0  0  0  0  0  0
  -13.6629   -6.3708    5.6101 O   0  0  0  0  0  0  0  0  0  0  0  0
  -16.0929   -7.4252    5.7681 C   0  0  0  0  0  0  0  0  0  0  0  0
  -16.4559   -8.5187    4.8080 C   0  0  0  0  0  0  0  0  0  0  0  0
  -16.2460   -6.1149    4.9486 C   0  0  0  0  0  0  0  0  0  0  0  0
 21 22  1  0  0  0
 22 23  1  0  0  0
 22 20  1  0  0  0
 20 10  1  0  0  0
 10 11  2  0  0  0
 11 12  1  0  0  0
 12 13  2  0  0  0
 13 14  1  0  0  0
 14 15  2  0  0  0
 15  8  1  0  0  0
  8  1  1  0  0  0
  1  2  2  0  0  0
  2  3  1  0  0  0
  3  4  2  0  0  0
  4  5  1  0  0  0
  4  6  1  0  0  0
  6 24  1  0  0  0
 24 26  1  0  0  0
 26 27  2  0  0  0
 27 28  1  0  0  0
 28 29  2  0  0  0
 29 30  1  0  0  0
 30 31  2  0  0  0
 31 32  1  0  0  0
 32 33  2  0  0  0
 32 34  2  0  0  0
 32 35  1  0  0  0
 35 36  1  0  0  0
 35 37  1  0  0  0
  6  7  2  0  0  0
 12 16  1  0  0  0
 16 17  1  0  0  0
 16 18  1  0  0  0
 16 19  1  0  0  0
 15 10  1  0  0  0
  7  1  1  0  0  0
 31 26  1  0  0  0
  8  9  1  0  0  0
 24 25  1  0  0  0
M  END
> <minimizedAffinity>
-7.10972

> <CNNscore>
0.1581441015

> <CNNaffinity>
7.1100554466

> <CNN_VS>
1.1244133711

> <CNNaffinity_variance>
0.2466725558

$$$$
[H]c1nc(N([H])c2c([H])c([H])c(C(F)(F)F)c([H])c2OC([H])(C([H])([H])[H])C([H])([H])[H])nc(N([H])c2c([H])c([H])c([H])c([H])c2S(=O)(=O)C([H])(C([H])([H])[H])C([H])([H])[H])c1Cl


 37 39  0  0  0  0  0  0  0  0999 V2000
  -13.1966   -9.3923    7.1512 C   0  0  0  0  0  0  0  0  0  0  0  0
  -12.7340  -10.0753    6.1126 N   0  0  0  0  0  0  0  0  0  0  0  0
  -13.1995   -9.9236    4.8634 C   0  0  0  0  0  0  0  0  0  0  0  0
  -14.2070   -9.0251    4.5828 C   0  0  0  0  0  0  0  0  0  0  0  0
  -14.8292   -8.8026    2.9703 Cl  0  0  0  0  0  0  0  0  0  0  0  0
  -14.7120   -8.2880    5.6572 C   0  0  0  0  0  0  0  0  0  0  0  0
  -14.2065   -8.4969    6.8538 N   0  0  0  0  0  0  0  0  0  0  0  0
  -12.7123   -9.3692    8.4710 N   0  0  0  0  0  0  0  0  0  0  0  0
  -12.4744  -10.3214    8.9246 H   0  0  0  0  0  0  0  0  0  0  0  0
  -11.2403   -7.5718    9.1792 C   0  0  0  0  0  0  0  0  0  0  0  0
  -10.9770   -6.5840   10.0842 C   0  0  0  0  0  0  0  0  0  0  0  0
  -11.8249   -6.1625   11.0868 C   0  0  0  0  0  0  0  0  0  0  0  0
  -13.0366   -6.8160   11.1521 C   0  0  0  0  0  0  0  0  0  0  0  0
  -13.3494   -7.8290   10.2575 C   0  0  0  0  0  0  0  0  0  0  0  0
  -12.5036   -8.2403    9.2726 C   0  0  0  0  0  0  0  0  0  0  0  0
  -11.4582   -5.0826   12.0608 C   0  0  0  0  0  0  0  0  0  0  0  0
  -10.1579   -5.4053   12.4857 F   0  0  0  0  0  0  0  0  0  0  0  0
  -11.5320   -3.8266   11.5284 F   0  0  0  0  0  0  0  0  0  0  0  0
  -12.2402   -5.2152   13.1969 F   0  0  0  0  0  0  0  0  0  0  0  0
  -10.4464   -8.0011    8.1810 O   0  0  0  0  0  0  0  0  0  0  0  0
   -8.0376   -8.1515    8.3749 C   0  0  0  0  0  0  0  0  0  0  0  0
   -9.2855   -7.6049    7.5839 C   0  0  0  0  0  0  0  0  0  0  0  0
   -9.1015   -6.1210    7.4871 C   0  0  0  0  0  0  0  0  0  0  0  0
  -15.6508   -7.2574    5.3768 N   0  0  0  0  0  0  0  0  0  0  0  0
  -16.6484   -7.4754    5.6092 H   0  0  0  0  0  0  0  0  0  0  0  0
  -15.3841   -5.9926    4.8215 C   0  0  0  0  0  0  0  0  0  0  0  0
  -14.1161   -5.4935    4.5301 C   0  0  0  0  0  0  0  0  0  0  0  0
  -13.8980   -4.2489    3.9748 C   0  0  0  0  0  0  0  0  0  0  0  0
  -14.9837   -3.4575    3.6948 C   0  0  0  0  0  0  0  0  0  0  0  0
  -16.2699   -3.9417    3.9848 C   0  0  0  0  0  0  0  0  0  0  0  0
  -16.4717   -5.1717    4.5316 C   0  0  0  0  0  0  0  0  0  0  0  0
  -18.1036   -5.7057    4.8515 S   0  0  0  0  0  0  0  0  0  0  0  0
  -19.0862   -4.5665    4.5731 O   0  0  0  0  0  0  0  0  0  0  0  0
  -18.2907   -6.1400    6.2562 O   0  0  0  0  0  0  0  0  0  0  0  0
  -18.6091   -7.0373    3.7794 C   0  0  0  0  0  0  0  0  0  0  0  0
  -18.3353   -8.3612    4.4288 C   0  0  0  0  0  0  0  0  0  0  0  0
  -17.6488   -6.9911    2.5596 C   0  0  0  0  0  0  0  0  0  0  0  0
 21 22  1  0  0  0
 22 23  1  0  0  0
 22 20  1  0  0  0
 20 10  1  0  0  0
 10 11  2  0  0  0
 11 12  1  0  0  0
 12 13  2  0  0  0
 13 14  1  0  0  0
 14 15  2  0  0  0
 15  8  1  0  0  0
  8  1  1  0  0  0
  1  2  2  0  0  0
  2  3  1  0  0  0
  3  4  2  0  0  0
  4  5  1  0  0  0
  4  6  1  0  0  0
  6 24  1  0  0  0
 24 26  1  0  0  0
 26 27  2  0  0  0
 27 28  1  0  0  0
 28 29  2  0  0  0
 29 30  1  0  0  0
 30 31  2  0  0  0
 31 32  1  0  0  0
 32 33  2  0  0  0
 32 34  2  0  0  0
 32 35  1  0  0  0
 35 36  1  0  0  0
 35 37  1  0  0  0
  6  7  2  0  0  0
 12 16  1  0  0  0
 16 17  1  0  0  0
 16 18  1  0  0  0
 16 19  1  0  0  0
 15 10  1  0  0  0
  7  1  1  0  0  0
 31 26  1  0  0  0
  8  9  1  0  0  0
 24 25  1  0  0  0
M  END
> <minimizedAffinity>
-0.89143

> <CNNscore>
0.1531640887

> <CNNaffinity>
7.2633261681

> <CNN_VS>
1.1124807596

> <CNNaffinity_variance>
0.1922641993

$$$$
[H]O[C@]([H])(C([H])([H])N([H])C(=O)c1c(C([H])([H])[H])c(/C([H])=C2\C(=O)N([H])c3c([H])c([H])c(F)c([H])c32)n([H])c1C([H])([H])[H])C([H])([H])N1C([H])([H])C([H])([H])OC([H])([H])C1([H])[H]


 36 39  0  0  0  0  0  0  0  0999 V2000
  -13.7920  -10.0167    5.8215 C   0  0  0  0  0  0  0  0  0  0  0  0
  -14.1390   -8.6182    5.4238 C   0  0  0  0  0  0  0  0  0  0  0  0
  -15.1443   -8.2182    4.6521 N   0  0  0  0  0  0  0  0  0  0  0  0
  -15.1308   -6.9014    4.5166 C   0  0  0  0  0  0  0  0  0  0  0  0
  -14.0318   -6.4086    5.2564 C   0  0  0  0  0  0  0  0  0  0  0  0
  -13.6833   -4.9665    5.3792 C   0  0  0  0  0  0  0  0  0  0  0  0
  -13.4211   -7.4669    5.8150 C   0  0  0  0  0  0  0  0  0  0  0  0
  -15.8320   -8.9069    4.2126 H   0  0  0  0  0  0  0  0  0  0  0  0
  -16.0174   -6.0004    3.8045 C   0  0  0  0  0  0  0  0  0  0  0  0
  -17.1433   -5.5045    4.2701 C   0  0  0  0  0  0  0  0  0  0  0  0
  -17.7392   -5.7331    5.5730 C   0  0  0  0  0  0  0  0  0  0  0  0
  -17.2682   -6.4435    6.5178 O   0  0  0  0  0  0  0  0  0  0  0  0
  -18.9602   -4.9991    5.5885 N   0  0  0  0  0  0  0  0  0  0  0  0
  -19.1591   -4.3117    4.3409 C   0  0  0  0  0  0  0  0  0  0  0  0
  -20.1623   -3.4886    3.8717 C   0  0  0  0  0  0  0  0  0  0  0  0
  -20.0990   -2.9544    2.6117 C   0  0  0  0  0  0  0  0  0  0  0  0
  -19.0190   -3.2418    1.7999 C   0  0  0  0  0  0  0  0  0  0  0  0
  -18.9631   -2.7054    0.5447 F   0  0  0  0  0  0  0  0  0  0  0  0
  -18.0256   -4.0651    2.2832 C   0  0  0  0  0  0  0  0  0  0  0  0
  -18.0735   -4.6101    3.5460 C   0  0  0  0  0  0  0  0  0  0  0  0
  -19.6092   -4.9657    6.3825 H   0  0  0  0  0  0  0  0  0  0  0  0
  -12.2599   -7.5068    6.7079 C   0  0  0  0  0  0  0  0  0  0  0  0
  -12.4727   -7.0890    7.9013 O   0  0  0  0  0  0  0  0  0  0  0  0
  -10.9840   -7.9496    6.3867 N   0  0  0  0  0  0  0  0  0  0  0  0
  -10.8462   -8.3139    5.3768 H   0  0  0  0  0  0  0  0  0  0  0  0
   -9.8104   -8.0254    7.2032 C   0  0  0  0  0  0  0  0  0  0  0  0
   -9.9894   -8.7400    8.4926 C   0  0  0  0  0  0  0  0  0  0  0  0
   -9.1199   -8.3613    9.4894 O   0  0  0  0  0  0  0  0  0  0  0  0
   -8.4536   -9.0417    9.7408 H   0  0  0  0  0  0  0  0  0  0  0  0
  -11.4391   -8.5386    8.9365 C   0  0  0  0  0  0  0  0  0  0  0  0
  -11.5735   -7.5399    9.9330 N   0  0  0  0  0  0  0  0  0  0  0  0
  -10.7895   -6.3925    9.7765 C   0  0  0  0  0  0  0  0  0  0  0  0
  -11.3194   -5.1181   10.3303 C   0  0  0  0  0  0  0  0  0  0  0  0
  -12.3284   -5.2518   11.2480 O   0  0  0  0  0  0  0  0  0  0  0  0
  -13.3458   -5.9938   10.6036 C   0  0  0  0  0  0  0  0  0  0  0  0
  -12.8283   -7.4148   10.5672 C   0  0  0  0  0  0  0  0  0  0  0  0
  1  2  1  0  0  0
  2  3  1  0  0  0
  3  4  1  0  0  0
  4  9  1  0  0  0
  9 10  2  0  0  0
 10 11  1  0  0  0
 11 12  2  0  0  0
 11 13  1  0  0  0
 13 14  1  0  0  0
 14 15  2  0  0  0
 15 16  1  0  0  0
 16 17  2  0  0  0
 17 18  1  0  0  0
 17 19  1  0  0  0
 19 20  2  0  0  0
  4  5  2  0  0  0
  5  6  1  0  0  0
  5  7  1  0  0  0
  7 22  1  0  0  0
 22 23  2  0  0  0
 22 24  1  0  0  0
 24 26  1  0  0  0
 26 27  1  0  0  0
 27 28  1  0  0  0
 27 30  1  0  0  0
 30 31  1  0  0  0
 31 32  1  0  0  0
 32 33  1  0  0  0
 33 34  1  0  0  0
 34 35  1  0  0  0
 35 36  1  0  0  0
  7  2  2  0  0  0
 36 31  1  0  0  0
 20 10  1  0  0  0
 20 14  1  0  0  0
  3  8  1  0  0  0
 13 21  1  0  0  0
 24 25  1  0  0  0
 28 29  1  0  0  0
M  END
> <minimizedAffinity>
21.24372

> <CNNscore>
0.4088841379

> <CNNaffinity>
6.8661394119

> <CNN_VS>
2.8074555397

> <CNNaffinity_variance>
0.8386538625

$$$$
[H]O[C@]([H])(C([H])([H])N([H])C(=O)c1c(C([H])([H])[H])c(/C([H])=C2\C(=O)N([H])c3c([H])c([H])c(F)c([H])c32)n([H])c1C([H])([H])[H])C([H])([H])N1C([H])([H])C([H])([H])OC([H])([H])C1([H])[H]


 36 39  0  0  0  0  0  0  0  0999 V2000
  -12.0994   -6.2346    9.3157 C   0  0  0  0  0  0  0  0  0  0  0  0
  -10.8878   -6.9533    8.8158 C   0  0  0  0  0  0  0  0  0  0  0  0
   -9.6154   -6.5973    8.9572 N   0  0  0  0  0  0  0  0  0  0  0  0
   -8.8183   -7.4796    8.3750 C   0  0  0  0  0  0  0  0  0  0  0  0
   -9.6362   -8.4853    7.8115 C   0  0  0  0  0  0  0  0  0  0  0  0
   -9.1185   -9.6775    7.0857 C   0  0  0  0  0  0  0  0  0  0  0  0
  -10.9112   -8.1604    8.0833 C   0  0  0  0  0  0  0  0  0  0  0  0
   -9.3287   -5.7033    9.4661 H   0  0  0  0  0  0  0  0  0  0  0  0
   -7.3725   -7.5486    8.2757 C   0  0  0  0  0  0  0  0  0  0  0  0
   -6.6441   -7.0333    7.3091 C   0  0  0  0  0  0  0  0  0  0  0  0
   -7.1069   -6.2898    6.1524 C   0  0  0  0  0  0  0  0  0  0  0  0
   -8.3084   -5.9801    5.8700 O   0  0  0  0  0  0  0  0  0  0  0  0
   -5.9452   -5.9694    5.3923 N   0  0  0  0  0  0  0  0  0  0  0  0
   -4.7613   -6.4829    6.0273 C   0  0  0  0  0  0  0  0  0  0  0  0
   -3.4227   -6.4370    5.6957 C   0  0  0  0  0  0  0  0  0  0  0  0
   -2.4807   -7.0232    6.4995 C   0  0  0  0  0  0  0  0  0  0  0  0
   -2.8737   -7.6682    7.6561 C   0  0  0  0  0  0  0  0  0  0  0  0
   -1.9286   -8.2504    8.4524 F   0  0  0  0  0  0  0  0  0  0  0  0
   -4.2139   -7.7050    7.9732 C   0  0  0  0  0  0  0  0  0  0  0  0
   -5.1729   -7.1216    7.1770 C   0  0  0  0  0  0  0  0  0  0  0  0
   -5.9528   -5.4434    4.5113 H   0  0  0  0  0  0  0  0  0  0  0  0
  -12.1445   -8.8837    7.7623 C   0  0  0  0  0  0  0  0  0  0  0  0
  -12.5563   -9.6922    8.6681 O   0  0  0  0  0  0  0  0  0  0  0  0
  -12.8903   -8.7709    6.5967 N   0  0  0  0  0  0  0  0  0  0  0  0
  -12.5240   -8.0643    5.8632 H   0  0  0  0  0  0  0  0  0  0  0  0
  -14.1014   -9.4343    6.2190 C   0  0  0  0  0  0  0  0  0  0  0  0
  -14.9657   -8.6740    5.2808 C   0  0  0  0  0  0  0  0  0  0  0  0
  -15.5952   -9.4386    4.3257 O   0  0  0  0  0  0  0  0  0  0  0  0
  -15.2741   -9.3008    3.4047 H   0  0  0  0  0  0  0  0  0  0  0  0
  -15.9898   -7.9034    6.1154 C   0  0  0  0  0  0  0  0  0  0  0  0
  -16.1414   -6.5592    5.6928 N   0  0  0  0  0  0  0  0  0  0  0  0
  -14.9653   -5.8573    5.4103 C   0  0  0  0  0  0  0  0  0  0  0  0
  -15.0391   -4.7752    4.3929 C   0  0  0  0  0  0  0  0  0  0  0  0
  -16.3014   -4.3264    4.1041 O   0  0  0  0  0  0  0  0  0  0  0  0
  -17.0363   -5.4645    3.6972 C   0  0  0  0  0  0  0  0  0  0  0  0
  -17.3102   -6.2285    4.9738 C   0  0  0  0  0  0  0  0  0  0  0  0
  1  2  1  0  0  0
  2  3  1  0  0  0
  3  4  1  0  0  0
  4  9  1  0  0  0
  9 10  2  0  0  0
 10 11  1  0  0  0
 11 12  2  0  0  0
 11 13  1  0  0  0
 13 14  1  0  0  0
 14 15  2  0  0  0
 15 16  1  0  0  0
 16 17  2  0  0  0
 17 18  1  0  0  0
 17 19  1  0  0  0
 19 20  2  0  0  0
  4  5  2  0  0  0
  5  6  1  0  0  0
  5  7  1  0  0  0
  7 22  1  0  0  0
 22 23  2  0  0  0
 22 24  1  0  0  0
 24 26  1  0  0  0
 26 27  1  0  0  0
 27 28  1  0  0  0
 27 30  1  0  0  0
 30 31  1  0  0  0
 31 32  1  0  0  0
 32 33  1  0  0  0
 33 34  1  0  0  0
 34 35  1  0  0  0
 35 36  1  0  0  0
  7  2  2  0  0  0
 36 31  1  0  0  0
 20 10  1  0  0  0
 20 14  1  0  0  0
  3  8  1  0  0  0
 13 21  1  0  0  0
 24 25  1  0  0  0
 28 29  1  0  0  0
M  END
> <minimizedAffinity>
-8.92650

> <CNNscore>
0.4003348351

> <CNNaffinity>
6.9834342003

> <CNN_VS>
2.7957119942

> <CNNaffinity_variance>
0.0074220812

$$$$
[H]O[C@]([H])(C([H])([H])N([H])C(=O)c1c(C([H])([H])[H])c(/C([H])=C2\C(=O)N([H])c3c([H])c([H])c(F)c([H])c32)n([H])c1C([H])([H])[H])C([H])([H])N1C([H])([H])C([H])([H])OC([H])([H])C1([H])[H]


 36 39  0  0  0  0  0  0  0  0999 V2000
  -14.0338   -6.4849   10.8528 C   0  0  0  0  0  0  0  0  0  0  0  0
  -13.9812   -6.7382    9.3805 C   0  0  0  0  0  0  0  0  0  0  0  0
  -14.9980   -6.9857    8.5615 N   0  0  0  0  0  0  0  0  0  0  0  0
  -14.5646   -7.1655    7.3235 C   0  0  0  0  0  0  0  0  0  0  0  0
  -13.1583   -7.0248    7.3403 C   0  0  0  0  0  0  0  0  0  0  0  0
  -12.2909   -7.1315    6.1351 C   0  0  0  0  0  0  0  0  0  0  0  0
  -12.7994   -6.7616    8.6080 C   0  0  0  0  0  0  0  0  0  0  0  0
  -16.0069   -7.0376    8.9077 H   0  0  0  0  0  0  0  0  0  0  0  0
  -15.2747   -7.4340    6.0872 C   0  0  0  0  0  0  0  0  0  0  0  0
  -15.7531   -6.5262    5.2642 C   0  0  0  0  0  0  0  0  0  0  0  0
  -15.6765   -5.0834    5.3966 C   0  0  0  0  0  0  0  0  0  0  0  0
  -15.1106   -4.4277    6.3288 O   0  0  0  0  0  0  0  0  0  0  0  0
  -16.3597   -4.5417    4.2698 N   0  0  0  0  0  0  0  0  0  0  0  0
  -16.8663   -5.5908    3.4265 C   0  0  0  0  0  0  0  0  0  0  0  0
  -17.5797   -5.5843    2.2453 C   0  0  0  0  0  0  0  0  0  0  0  0
  -17.9423   -6.7581    1.6388 C   0  0  0  0  0  0  0  0  0  0  0  0
  -17.5905   -7.9633    2.2148 C   0  0  0  0  0  0  0  0  0  0  0  0
  -17.9556   -9.1294    1.6041 F   0  0  0  0  0  0  0  0  0  0  0  0
  -16.8780   -7.9527    3.3941 C   0  0  0  0  0  0  0  0  0  0  0  0
  -16.5060   -6.7831    4.0165 C   0  0  0  0  0  0  0  0  0  0  0  0
  -16.4745   -3.5389    4.0856 H   0  0  0  0  0  0  0  0  0  0  0  0
  -11.4699   -6.4913    9.1617 C   0  0  0  0  0  0  0  0  0  0  0  0
  -10.8573   -5.4882    8.6493 O   0  0  0  0  0  0  0  0  0  0  0  0
  -10.8328   -7.2031   10.1690 N   0  0  0  0  0  0  0  0  0  0  0  0
  -11.3878   -8.0305   10.5920 H   0  0  0  0  0  0  0  0  0  0  0  0
   -9.5471   -6.9940   10.7631 C   0  0  0  0  0  0  0  0  0  0  0  0
   -8.4103   -6.9807    9.8077 C   0  0  0  0  0  0  0  0  0  0  0  0
   -7.3699   -7.8195   10.1350 O   0  0  0  0  0  0  0  0  0  0  0  0
   -6.5391   -7.3654   10.4064 H   0  0  0  0  0  0  0  0  0  0  0  0
   -8.9641   -7.3232    8.4238 C   0  0  0  0  0  0  0  0  0  0  0  0
   -8.1581   -6.8220    7.3714 N   0  0  0  0  0  0  0  0  0  0  0  0
   -7.1377   -7.6611    6.9128 C   0  0  0  0  0  0  0  0  0  0  0  0
   -6.7266   -7.5277    5.4899 C   0  0  0  0  0  0  0  0  0  0  0  0
   -7.1162   -6.3676    4.8728 O   0  0  0  0  0  0  0  0  0  0  0  0
   -8.5230   -6.3074    5.0085 C   0  0  0  0  0  0  0  0  0  0  0  0
   -8.7593   -5.9327    6.4549 C   0  0  0  0  0  0  0  0  0  0  0  0
  1  2  1  0  0  0
  2  3  1  0  0  0
  3  4  1  0  0  0
  4  9  1  0  0  0
  9 10  2  0  0  0
 10 11  1  0  0  0
 11 12  2  0  0  0
 11 13  1  0  0  0
 13 14  1  0  0  0
 14 15  2  0  0  0
 15 16  1  0  0  0
 16 17  2  0  0  0
 17 18  1  0  0  0
 17 19  1  0  0  0
 19 20  2  0  0  0
  4  5  2  0  0  0
  5  6  1  0  0  0
  5  7  1  0  0  0
  7 22  1  0  0  0
 22 23  2  0  0  0
 22 24  1  0  0  0
 24 26  1  0  0  0
 26 27  1  0  0  0
 27 28  1  0  0  0
 27 30  1  0  0  0
 30 31  1  0  0  0
 31 32  1  0  0  0
 32 33  1  0  0  0
 33 34  1  0  0  0
 34 35  1  0  0  0
 35 36  1  0  0  0
  7  2  2  0  0  0
 36 31  1  0  0  0
 20 10  1  0  0  0
 20 14  1  0  0  0
  3  8  1  0  0  0
 13 21  1  0  0  0
 24 25  1  0  0  0
 28 29  1  0  0  0
M  END
> <minimizedAffinity>
14.01933

> <CNNscore>
0.3943176866

> <CNNaffinity>
6.8754987717

> <CNN_VS>
2.7111308575

> <CNNaffinity_variance>
1.5435127020

$$$$
[H]O[C@]([H])(C([H])([H])N([H])C(=O)c1c(C([H])([H])[H])c(/C([H])=C2\C(=O)N([H])c3c([H])c([H])c(F)c([H])c32)n([H])c1C([H])([H])[H])C([H])([H])N1C([H])([H])C([H])([H])OC([H])([H])C1([H])[H]


 36 39  0  0  0  0  0  0  0  0999 V2000
   -9.7584   -9.9458    7.3066 C   0  0  0  0  0  0  0  0  0  0  0  0
  -10.7729   -8.8495    7.3647 C   0  0  0  0  0  0  0  0  0  0  0  0
  -11.9277   -8.7751    6.7114 N   0  0  0  0  0  0  0  0  0  0  0  0
  -12.5592   -7.6505    7.0101 C   0  0  0  0  0  0  0  0  0  0  0  0
  -11.7519   -6.9397    7.9271 C   0  0  0  0  0  0  0  0  0  0  0  0
  -12.1216   -5.6289    8.5283 C   0  0  0  0  0  0  0  0  0  0  0  0
  -10.6514   -7.6789    8.1451 C   0  0  0  0  0  0  0  0  0  0  0  0
  -12.2490   -9.5380    6.0366 H   0  0  0  0  0  0  0  0  0  0  0  0
  -13.8427   -7.1271    6.5814 C   0  0  0  0  0  0  0  0  0  0  0  0
  -14.6470   -7.6894    5.7056 C   0  0  0  0  0  0  0  0  0  0  0  0
  -14.4441   -8.9350    4.9897 C   0  0  0  0  0  0  0  0  0  0  0  0
  -13.4539   -9.7272    5.0942 O   0  0  0  0  0  0  0  0  0  0  0  0
  -15.5794   -9.0999    4.1448 N   0  0  0  0  0  0  0  0  0  0  0  0
  -16.4961   -8.0026    4.3006 C   0  0  0  0  0  0  0  0  0  0  0  0
  -17.7119   -7.7050    3.7199 C   0  0  0  0  0  0  0  0  0  0  0  0
  -18.3905   -6.5642    4.0594 C   0  0  0  0  0  0  0  0  0  0  0  0
  -17.8530   -5.7006    4.9938 C   0  0  0  0  0  0  0  0  0  0  0  0
  -18.5355   -4.5652    5.3271 F   0  0  0  0  0  0  0  0  0  0  0  0
  -16.6383   -6.0122    5.5645 C   0  0  0  0  0  0  0  0  0  0  0  0
  -15.9436   -7.1536    5.2349 C   0  0  0  0  0  0  0  0  0  0  0  0
  -15.7230   -9.8941    3.5113 H   0  0  0  0  0  0  0  0  0  0  0  0
   -9.5186   -7.4203    9.0379 C   0  0  0  0  0  0  0  0  0  0  0  0
   -9.8111   -6.8242   10.1347 O   0  0  0  0  0  0  0  0  0  0  0  0
   -8.1916   -7.7586    8.8100 N   0  0  0  0  0  0  0  0  0  0  0  0
   -7.9847   -8.2786    7.8835 H   0  0  0  0  0  0  0  0  0  0  0  0
   -7.0401   -7.5473    9.6342 C   0  0  0  0  0  0  0  0  0  0  0  0
   -5.9490   -6.7664    8.9977 C   0  0  0  0  0  0  0  0  0  0  0  0
   -4.8179   -7.4904    8.6989 O   0  0  0  0  0  0  0  0  0  0  0  0
   -4.0266   -7.2685    9.2418 H   0  0  0  0  0  0  0  0  0  0  0  0
   -6.5202   -6.1143    7.7377 C   0  0  0  0  0  0  0  0  0  0  0  0
   -6.2544   -6.8632    6.5643 N   0  0  0  0  0  0  0  0  0  0  0  0
   -6.4919   -8.2395    6.6351 C   0  0  0  0  0  0  0  0  0  0  0  0
   -6.8732   -8.9360    5.3777 C   0  0  0  0  0  0  0  0  0  0  0  0
   -6.5996   -8.2521    4.2219 O   0  0  0  0  0  0  0  0  0  0  0  0
   -7.2606   -7.0071    4.3398 C   0  0  0  0  0  0  0  0  0  0  0  0
   -6.4270   -6.2147    5.3225 C   0  0  0  0  0  0  0  0  0  0  0  0
  1  2  1  0  0  0
  2  3  1  0  0  0
  3  4  1  0  0  0
  4  9  1  0  0  0
  9 10  2  0  0  0
 10 11  1  0  0  0
 11 12  2  0  0  0
 11 13  1  0  0  0
 13 14  1  0  0  0
 14 15  2  0  0  0
 15 16  1  0  0  0
 16 17  2  0  0  0
 17 18  1  0  0  0
 17 19  1  0  0  0
 19 20  2  0  0  0
  4  5  2  0  0  0
  5  6  1  0  0  0
  5  7  1  0  0  0
  7 22  1  0  0  0
 22 23  2  0  0  0
 22 24  1  0  0  0
 24 26  1  0  0  0
 26 27  1  0  0  0
 27 28  1  0  0  0
 27 30  1  0  0  0
 30 31  1  0  0  0
 31 32  1  0  0  0
 32 33  1  0  0  0
 33 34  1  0  0  0
 34 35  1  0  0  0
 35 36  1  0  0  0
  7  2  2  0  0  0
 36 31  1  0  0  0
 20 10  1  0  0  0
 20 14  1  0  0  0
  3  8  1  0  0  0
 13 21  1  0  0  0
 24 25  1  0  0  0
 28 29  1  0  0  0
M  END
> <minimizedAffinity>
-2.13125

> <CNNscore>
0.3642770350

> <CNNaffinity>
6.9530472755

> <CNN_VS>
2.5328354836

> <CNNaffinity_variance>
0.6391835213

$$$$
[H]O[C@]([H])(C([H])([H])N([H])C(=O)c1c(C([H])([H])[H])c(/C([H])=C2\C(=O)N([H])c3c([H])c([H])c(F)c([H])c32)n([H])c1C([H])([H])[H])C([H])([H])N1C([H])([H])C([H])([H])OC([H])([H])C1([H])[H]


 36 39  0  0  0  0  0  0  0  0999 V2000
  -10.7093   -5.9936    9.0646 C   0  0  0  0  0  0  0  0  0  0  0  0
   -9.8011   -6.9710    8.3906 C   0  0  0  0  0  0  0  0  0  0  0  0
   -8.5047   -6.8322    8.1335 N   0  0  0  0  0  0  0  0  0  0  0  0
   -8.0356   -7.9057    7.5167 C   0  0  0  0  0  0  0  0  0  0  0  0
   -9.1102   -8.8105    7.3607 C   0  0  0  0  0  0  0  0  0  0  0  0
   -8.9896  -10.1544    6.7316 C   0  0  0  0  0  0  0  0  0  0  0  0
  -10.1977   -8.2340    7.8993 C   0  0  0  0  0  0  0  0  0  0  0  0
   -7.9649   -5.9486    8.3950 H   0  0  0  0  0  0  0  0  0  0  0  0
   -6.7018   -8.2418    7.0554 C   0  0  0  0  0  0  0  0  0  0  0  0
   -5.5803   -7.7231    7.5063 C   0  0  0  0  0  0  0  0  0  0  0  0
   -5.4225   -6.7253    8.5479 C   0  0  0  0  0  0  0  0  0  0  0  0
   -6.3451   -6.1810    9.2347 O   0  0  0  0  0  0  0  0  0  0  0  0
   -4.0238   -6.4760    8.6539 N   0  0  0  0  0  0  0  0  0  0  0  0
   -3.2885   -7.2817    7.7165 C   0  0  0  0  0  0  0  0  0  0  0  0
   -1.9429   -7.4038    7.4360 C   0  0  0  0  0  0  0  0  0  0  0  0
   -1.5041   -8.2695    6.4691 C   0  0  0  0  0  0  0  0  0  0  0  0
   -2.4177   -9.0300    5.7656 C   0  0  0  0  0  0  0  0  0  0  0  0
   -1.9724   -9.8909    4.8029 F   0  0  0  0  0  0  0  0  0  0  0  0
   -3.7576   -8.8966    6.0577 C   0  0  0  0  0  0  0  0  0  0  0  0
   -4.2153   -8.0319    7.0255 C   0  0  0  0  0  0  0  0  0  0  0  0
   -3.5992   -5.8114    9.3103 H   0  0  0  0  0  0  0  0  0  0  0  0
  -11.5585   -8.7601    8.0359 C   0  0  0  0  0  0  0  0  0  0  0  0
  -11.8905   -9.1177    9.2215 O   0  0  0  0  0  0  0  0  0  0  0  0
  -12.4979   -8.8979    7.0230 N   0  0  0  0  0  0  0  0  0  0  0  0
  -12.1900   -8.5671    6.0394 H   0  0  0  0  0  0  0  0  0  0  0  0
  -13.8402   -9.3923    7.0825 C   0  0  0  0  0  0  0  0  0  0  0  0
  -14.8663   -8.3780    7.4340 C   0  0  0  0  0  0  0  0  0  0  0  0
  -14.7729   -7.8799    8.7131 O   0  0  0  0  0  0  0  0  0  0  0  0
  -15.5032   -8.1468    9.3177 H   0  0  0  0  0  0  0  0  0  0  0  0
  -14.7719   -7.2483    6.4073 C   0  0  0  0  0  0  0  0  0  0  0  0
  -16.0033   -6.9988    5.7519 N   0  0  0  0  0  0  0  0  0  0  0  0
  -15.9272   -6.4455    4.4699 C   0  0  0  0  0  0  0  0  0  0  0  0
  -17.0247   -6.7641    3.5183 C   0  0  0  0  0  0  0  0  0  0  0  0
  -18.1712   -7.2538    4.0875 O   0  0  0  0  0  0  0  0  0  0  0  0
  -17.7830   -8.3969    4.8247 C   0  0  0  0  0  0  0  0  0  0  0  0
  -17.0875   -7.8513    6.0523 C   0  0  0  0  0  0  0  0  0  0  0  0
  1  2  1  0  0  0
  2  3  1  0  0  0
  3  4  1  0  0  0
  4  9  1  0  0  0
  9 10  2  0  0  0
 10 11  1  0  0  0
 11 12  2  0  0  0
 11 13  1  0  0  0
 13 14  1  0  0  0
 14 15  2  0  0  0
 15 16  1  0  0  0
 16 17  2  0  0  0
 17 18  1  0  0  0
 17 19  1  0  0  0
 19 20  2  0  0  0
  4  5  2  0  0  0
  5  6  1  0  0  0
  5  7  1  0  0  0
  7 22  1  0  0  0
 22 23  2  0  0  0
 22 24  1  0  0  0
 24 26  1  0  0  0
 26 27  1  0  0  0
 27 28  1  0  0  0
 27 30  1  0  0  0
 30 31  1  0  0  0
 31 32  1  0  0  0
 32 33  1  0  0  0
 33 34  1  0  0  0
 34 35  1  0  0  0
 35 36  1  0  0  0
  7  2  2  0  0  0
 36 31  1  0  0  0
 20 10  1  0  0  0
 20 14  1  0  0  0
  3  8  1  0  0  0
 13 21  1  0  0  0
 24 25  1  0  0  0
 28 29  1  0  0  0
M  END
> <minimizedAffinity>
-7.43170

> <CNNscore>
0.3125903308

> <CNNaffinity>
6.6536703110

> <CNN_VS>
2.0798730850

> <CNNaffinity_variance>
0.0386788696

$$$$
[H]O[C@]([H])(C([H])([H])N([H])C(=O)c1c(C([H])([H])[H])c(/C([H])=C2\C(=O)N([H])c3c([H])c([H])c(F)c([H])c32)n([H])c1C([H])([H])[H])C([H])([H])N1C([H])([H])C([H])([H])OC([H])([H])C1([H])[H]


 36 39  0  0  0  0  0  0  0  0999 V2000
  -12.6869  -11.3458    6.1807 C   0  0  0  0  0  0  0  0  0  0  0  0
  -12.0511  -10.0849    6.6709 C   0  0  0  0  0  0  0  0  0  0  0  0
  -12.6242   -9.0953    7.3478 N   0  0  0  0  0  0  0  0  0  0  0  0
  -11.7464   -8.1382    7.6047 C   0  0  0  0  0  0  0  0  0  0  0  0
  -10.5082   -8.5367    7.0514 C   0  0  0  0  0  0  0  0  0  0  0  0
   -9.2531   -7.7418    7.1467 C   0  0  0  0  0  0  0  0  0  0  0  0
  -10.6966   -9.7361    6.4762 C   0  0  0  0  0  0  0  0  0  0  0  0
  -13.6594   -9.1113    7.6101 H   0  0  0  0  0  0  0  0  0  0  0  0
  -11.8755   -6.8847    8.3236 C   0  0  0  0  0  0  0  0  0  0  0  0
  -12.5408   -6.7077    9.4444 C   0  0  0  0  0  0  0  0  0  0  0  0
  -13.2744   -7.7022   10.2046 C   0  0  0  0  0  0  0  0  0  0  0  0
  -13.3920   -8.9403    9.9354 O   0  0  0  0  0  0  0  0  0  0  0  0
  -13.8373   -7.0175   11.3200 N   0  0  0  0  0  0  0  0  0  0  0  0
  -13.4855   -5.6232   11.2945 C   0  0  0  0  0  0  0  0  0  0  0  0
  -13.7763   -4.5657   12.1318 C   0  0  0  0  0  0  0  0  0  0  0  0
  -13.3001   -3.3090   11.8655 C   0  0  0  0  0  0  0  0  0  0  0  0
  -12.5193   -3.0959   10.7462 C   0  0  0  0  0  0  0  0  0  0  0  0
  -12.0482   -1.8401   10.4873 F   0  0  0  0  0  0  0  0  0  0  0  0
  -12.2378   -4.1622    9.9203 C   0  0  0  0  0  0  0  0  0  0  0  0
  -12.7081   -5.4306   10.1729 C   0  0  0  0  0  0  0  0  0  0  0  0
  -14.4154   -7.4597   12.0432 H   0  0  0  0  0  0  0  0  0  0  0  0
   -9.7307  -10.6052    5.7986 C   0  0  0  0  0  0  0  0  0  0  0  0
   -9.2584  -11.5596    6.5126 O   0  0  0  0  0  0  0  0  0  0  0  0
   -9.2962  -10.4931    4.4848 N   0  0  0  0  0  0  0  0  0  0  0  0
   -9.7313   -9.6884    3.9061 H   0  0  0  0  0  0  0  0  0  0  0  0
   -8.3679  -11.3043    3.7569 C   0  0  0  0  0  0  0  0  0  0  0  0
   -7.7303  -10.6365    2.5938 C   0  0  0  0  0  0  0  0  0  0  0  0
   -7.0942   -9.4516    2.8844 O   0  0  0  0  0  0  0  0  0  0  0  0
   -7.5258   -8.6466    2.5156 H   0  0  0  0  0  0  0  0  0  0  0  0
   -6.7541  -11.6324    1.9657 C   0  0  0  0  0  0  0  0  0  0  0  0
   -7.3768  -12.4928    1.0275 N   0  0  0  0  0  0  0  0  0  0  0  0
   -7.1183  -13.8601    1.1670 C   0  0  0  0  0  0  0  0  0  0  0  0
   -8.1713  -14.8076    0.7142 C   0  0  0  0  0  0  0  0  0  0  0  0
   -9.1189  -14.2762   -0.1212 O   0  0  0  0  0  0  0  0  0  0  0  0
   -9.6799  -13.1791    0.5735 C   0  0  0  0  0  0  0  0  0  0  0  0
   -8.6267  -12.0953    0.5059 C   0  0  0  0  0  0  0  0  0  0  0  0
  1  2  1  0  0  0
  2  3  1  0  0  0
  3  4  1  0  0  0
  4  9  1  0  0  0
  9 10  2  0  0  0
 10 11  1  0  0  0
 11 12  2  0  0  0
 11 13  1  0  0  0
 13 14  1  0  0  0
 14 15  2  0  0  0
 15 16  1  0  0  0
 16 17  2  0  0  0
 17 18  1  0  0  0
 17 19  1  0  0  0
 19 20  2  0  0  0
  4  5  2  0  0  0
  5  6  1  0  0  0
  5  7  1  0  0  0
  7 22  1  0  0  0
 22 23  2  0  0  0
 22 24  1  0  0  0
 24 26  1  0  0  0
 26 27  1  0  0  0
 27 28  1  0  0  0
 27 30  1  0  0  0
 30 31  1  0  0  0
 31 32  1  0  0  0
 32 33  1  0  0  0
 33 34  1  0  0  0
 34 35  1  0  0  0
 35 36  1  0  0  0
  7  2  2  0  0  0
 36 31  1  0  0  0
 20 10  1  0  0  0
 20 14  1  0  0  0
  3  8  1  0  0  0
 13 21  1  0  0  0
 24 25  1  0  0  0
 28 29  1  0  0  0
M  END
> <minimizedAffinity>
26.73135

> <CNNscore>
0.2919324040

> <CNNaffinity>
6.2208418846

> <CNN_VS>
1.8160653114

> <CNNaffinity_variance>
1.8429530859

$$$$
[H]O[C@]([H])(C([H])([H])N([H])C(=O)c1c(C([H])([H])[H])c(/C([H])=C2\C(=O)N([H])c3c([H])c([H])c(F)c([H])c32)n([H])c1C([H])([H])[H])C([H])([H])N1C([H])([H])C([H])([H])OC([H])([H])C1([H])[H]


 36 39  0  0  0  0  0  0  0  0999 V2000
  -14.1169  -11.5629    5.6809 C   0  0  0  0  0  0  0  0  0  0  0  0
  -14.3069  -10.1211    6.0264 C   0  0  0  0  0  0  0  0  0  0  0  0
  -15.3525   -9.3495    5.7486 N   0  0  0  0  0  0  0  0  0  0  0  0
  -15.1605   -8.1229    6.2083 C   0  0  0  0  0  0  0  0  0  0  0  0
  -13.8923   -8.0958    6.8317 C   0  0  0  0  0  0  0  0  0  0  0  0
  -13.3119   -6.8983    7.4991 C   0  0  0  0  0  0  0  0  0  0  0  0
  -13.3668   -9.3272    6.7192 C   0  0  0  0  0  0  0  0  0  0  0  0
  -16.2005   -9.7137    5.2111 H   0  0  0  0  0  0  0  0  0  0  0  0
  -16.0042   -6.9431    6.1775 C   0  0  0  0  0  0  0  0  0  0  0  0
  -16.9087   -6.6700    5.2623 C   0  0  0  0  0  0  0  0  0  0  0  0
  -17.2668   -7.4693    4.1056 C   0  0  0  0  0  0  0  0  0  0  0  0
  -16.7827   -8.5984    3.7740 O   0  0  0  0  0  0  0  0  0  0  0  0
  -18.2751   -6.7397    3.4122 N   0  0  0  0  0  0  0  0  0  0  0  0
  -18.5700   -5.5056    4.0894 C   0  0  0  0  0  0  0  0  0  0  0  0
  -19.4498   -4.4761    3.8247 C   0  0  0  0  0  0  0  0  0  0  0  0
  -19.5294   -3.3906    4.6567 C   0  0  0  0  0  0  0  0  0  0  0  0
  -18.7204   -3.3240    5.7743 C   0  0  0  0  0  0  0  0  0  0  0  0
  -18.8055   -2.2383    6.5991 F   0  0  0  0  0  0  0  0  0  0  0  0
  -17.8474   -4.3601    6.0247 C   0  0  0  0  0  0  0  0  0  0  0  0
  -17.7547   -5.4575    5.1995 C   0  0  0  0  0  0  0  0  0  0  0  0
  -18.7290   -7.0529    2.5470 H   0  0  0  0  0  0  0  0  0  0  0  0
  -12.0940   -9.8458    7.2277 C   0  0  0  0  0  0  0  0  0  0  0  0
  -11.9968   -9.9009    8.5050 O   0  0  0  0  0  0  0  0  0  0  0  0
  -11.0138  -10.2761    6.4694 N   0  0  0  0  0  0  0  0  0  0  0  0
  -11.1390  -10.2343    5.3950 H   0  0  0  0  0  0  0  0  0  0  0  0
   -9.7503  -10.7994    6.8931 C   0  0  0  0  0  0  0  0  0  0  0  0
   -9.1790  -10.1545    8.1027 C   0  0  0  0  0  0  0  0  0  0  0  0
   -7.8461  -10.4154    8.3222 O   0  0  0  0  0  0  0  0  0  0  0  0
   -7.6566  -10.9812    9.1059 H   0  0  0  0  0  0  0  0  0  0  0  0
   -9.4212   -8.6491    7.9832 C   0  0  0  0  0  0  0  0  0  0  0  0
   -8.3508   -7.9703    7.3495 N   0  0  0  0  0  0  0  0  0  0  0  0
   -7.8578   -8.5430    6.1728 C   0  0  0  0  0  0  0  0  0  0  0  0
   -7.2662   -7.6291    5.1598 C   0  0  0  0  0  0  0  0  0  0  0  0
   -6.9272   -6.3835    5.6201 O   0  0  0  0  0  0  0  0  0  0  0  0
   -8.1084   -5.8384    6.1757 C   0  0  0  0  0  0  0  0  0  0  0  0
   -8.2938   -6.5668    7.4885 C   0  0  0  0  0  0  0  0  0  0  0  0
  1  2  1  0  0  0
  2  3  1  0  0  0
  3  4  1  0  0  0
  4  9  1  0  0  0
  9 10  2  0  0  0
 10 11  1  0  0  0
 11 12  2  0  0  0
 11 13  1  0  0  0
 13 14  1  0  0  0
 14 15  2  0  0  0
 15 16  1  0  0  0
 16 17  2  0  0  0
 17 18  1  0  0  0
 17 19  1  0  0  0
 19 20  2  0  0  0
  4  5  2  0  0  0
  5  6  1  0  0  0
  5  7  1  0  0  0
  7 22  1  0  0  0
 22 23  2  0  0  0
 22 24  1  0  0  0
 24 26  1  0  0  0
 26 27  1  0  0  0
 27 28  1  0  0  0
 27 30  1  0  0  0
 30 31  1  0  0  0
 31 32  1  0  0  0
 32 33  1  0  0  0
 33 34  1  0  0  0
 34 35  1  0  0  0
 35 36  1  0  0  0
  7  2  2  0  0  0
 36 31  1  0  0  0
 20 10  1  0  0  0
 20 14  1  0  0  0
  3  8  1  0  0  0
 13 21  1  0  0  0
 24 25  1  0  0  0
 28 29  1  0  0  0
M  END
> <minimizedAffinity>
8.30840

> <CNNscore>
0.2839505672

> <CNNaffinity>
6.8993310928

> <CNN_VS>
1.9590690136

> <CNNaffinity_variance>
1.9888763428

$$$$
[H]O[C@]([H])(C([H])([H])N([H])C(=O)c1c(C([H])([H])[H])c(/C([H])=C2\C(=O)N([H])c3c([H])c([H])c(F)c([H])c32)n([H])c1C([H])([H])[H])C([H])([H])N1C([H])([H])C([H])([H])OC([H])([H])C1([H])[H]


 36 39  0  0  0  0  0  0  0  0999 V2000
  -11.9731   -5.9103   10.2289 C   0  0  0  0  0  0  0  0  0  0  0  0
  -10.9879   -6.3369    9.1888 C   0  0  0  0  0  0  0  0  0  0  0  0
   -9.8413   -5.7483    8.8651 N   0  0  0  0  0  0  0  0  0  0  0  0
   -9.2376   -6.4105    7.8905 C   0  0  0  0  0  0  0  0  0  0  0  0
  -10.0556   -7.5135    7.5551 C   0  0  0  0  0  0  0  0  0  0  0  0
   -9.7159   -8.5232    6.5153 C   0  0  0  0  0  0  0  0  0  0  0  0
  -11.1339   -7.4675    8.3553 C   0  0  0  0  0  0  0  0  0  0  0  0
   -9.5057   -4.8553    9.3451 H   0  0  0  0  0  0  0  0  0  0  0  0
   -7.9726   -6.1854    7.2169 C   0  0  0  0  0  0  0  0  0  0  0  0
   -6.8471   -6.8193    7.4657 C   0  0  0  0  0  0  0  0  0  0  0  0
   -6.6193   -7.8683    8.4418 C   0  0  0  0  0  0  0  0  0  0  0  0
   -7.4772   -8.3850    9.2268 O   0  0  0  0  0  0  0  0  0  0  0  0
   -5.2397   -8.2109    8.3458 N   0  0  0  0  0  0  0  0  0  0  0  0
   -4.5845   -7.4163    7.3418 C   0  0  0  0  0  0  0  0  0  0  0  0
   -3.2847   -7.3705    6.8810 C   0  0  0  0  0  0  0  0  0  0  0  0
   -2.9225   -6.4964    5.8902 C   0  0  0  0  0  0  0  0  0  0  0  0
   -3.8682   -5.6502    5.3446 C   0  0  0  0  0  0  0  0  0  0  0  0
   -3.4994   -4.7814    4.3570 F   0  0  0  0  0  0  0  0  0  0  0  0
   -5.1617   -5.7084    5.8155 C   0  0  0  0  0  0  0  0  0  0  0  0
   -5.5423   -6.5802    6.8100 C   0  0  0  0  0  0  0  0  0  0  0  0
   -4.7769   -8.9274    8.9159 H   0  0  0  0  0  0  0  0  0  0  0  0
  -12.2654   -8.3942    8.4462 C   0  0  0  0  0  0  0  0  0  0  0  0
  -12.2062   -9.2371    9.4105 O   0  0  0  0  0  0  0  0  0  0  0  0
  -13.3696   -8.4367    7.6058 N   0  0  0  0  0  0  0  0  0  0  0  0
  -13.3956   -7.6975    6.8156 H   0  0  0  0  0  0  0  0  0  0  0  0
  -14.5096   -9.3021    7.6379 C   0  0  0  0  0  0  0  0  0  0  0  0
  -15.8215   -8.6141    7.5333 C   0  0  0  0  0  0  0  0  0  0  0  0
  -16.5182   -8.5143    8.7155 O   0  0  0  0  0  0  0  0  0  0  0  0
  -17.3359   -9.0614    8.7638 H   0  0  0  0  0  0  0  0  0  0  0  0
  -15.5715   -7.2283    6.9362 C   0  0  0  0  0  0  0  0  0  0  0  0
  -15.9263   -7.1496    5.5664 N   0  0  0  0  0  0  0  0  0  0  0  0
  -17.0567   -7.8721    5.1719 C   0  0  0  0  0  0  0  0  0  0  0  0
  -17.8390   -7.3484    4.0206 C   0  0  0  0  0  0  0  0  0  0  0  0
  -17.1864   -6.4345    3.2350 O   0  0  0  0  0  0  0  0  0  0  0  0
  -16.7868   -5.3903    4.1015 C   0  0  0  0  0  0  0  0  0  0  0  0
  -15.6190   -5.9552    4.8798 C   0  0  0  0  0  0  0  0  0  0  0  0
  1  2  1  0  0  0
  2  3  1  0  0  0
  3  4  1  0  0  0
  4  9  1  0  0  0
  9 10  2  0  0  0
 10 11  1  0  0  0
 11 12  2  0  0  0
 11 13  1  0  0  0
 13 14  1  0  0  0
 14 15  2  0  0  0
 15 16  1  0  0  0
 16 17  2  0  0  0
 17 18  1  0  0  0
 17 19  1  0  0  0
 19 20  2  0  0  0
  4  5  2  0  0  0
  5  6  1  0  0  0
  5  7  1  0  0  0
  7 22  1  0  0  0
 22 23  2  0  0  0
 22 24  1  0  0  0
 24 26  1  0  0  0
 26 27  1  0  0  0
 27 28  1  0  0  0
 27 30  1  0  0  0
 30 31  1  0  0  0
 31 32  1  0  0  0
 32 33  1  0  0  0
 33 34  1  0  0  0
 34 35  1  0  0  0
 35 36  1  0  0  0
  7  2  2  0  0  0
 36 31  1  0  0  0
 20 10  1  0  0  0
 20 14  1  0  0  0
  3  8  1  0  0  0
 13 21  1  0  0  0
 24 25  1  0  0  0
 28 29  1  0  0  0
M  END
> <minimizedAffinity>
-6.62521

> <CNNscore>
0.2787941098

> <CNNaffinity>
6.6243219376

> <CNN_VS>
1.8468219042

> <CNNaffinity_variance>
0.0433832780

$$$$
[H]O[C@]([H])(C([H])([H])N([H])C(=O)c1c(C([H])([H])[H])c(/C([H])=C2\C(=O)N([H])c3c([H])c([H])c(F)c([H])c32)n([H])c1C([H])([H])[H])C([H])([H])N1C([H])([H])C([H])([H])OC([H])([H])C1([H])[H]


 36 39  0  0  0  0  0  0  0  0999 V2000
   -7.4504  -10.3144    8.2463 C   0  0  0  0  0  0  0  0  0  0  0  0
   -8.3830   -9.1789    7.9719 C   0  0  0  0  0  0  0  0  0  0  0  0
   -9.6056   -9.2379    7.4547 N   0  0  0  0  0  0  0  0  0  0  0  0
  -10.1266   -8.0251    7.3532 C   0  0  0  0  0  0  0  0  0  0  0  0
   -9.1682   -7.1080    7.8414 C   0  0  0  0  0  0  0  0  0  0  0  0
   -9.3803   -5.6366    7.9202 C   0  0  0  0  0  0  0  0  0  0  0  0
   -8.0941   -7.8195    8.2223 C   0  0  0  0  0  0  0  0  0  0  0  0
  -10.0549  -10.1616    7.1622 H   0  0  0  0  0  0  0  0  0  0  0  0
  -11.4215   -7.5728    6.8803 C   0  0  0  0  0  0  0  0  0  0  0  0
  -12.5878   -7.9571    7.3518 C   0  0  0  0  0  0  0  0  0  0  0  0
  -12.8413   -8.8930    8.4312 C   0  0  0  0  0  0  0  0  0  0  0  0
  -11.9756   -9.5017    9.1377 O   0  0  0  0  0  0  0  0  0  0  0  0
  -14.2576   -8.9944    8.5479 N   0  0  0  0  0  0  0  0  0  0  0  0
  -14.9116   -8.1545    7.5806 C   0  0  0  0  0  0  0  0  0  0  0  0
  -16.2390   -7.9069    7.2967 C   0  0  0  0  0  0  0  0  0  0  0  0
  -16.5921   -7.0387    6.2975 C   0  0  0  0  0  0  0  0  0  0  0  0
  -15.6092   -6.4026    5.5644 C   0  0  0  0  0  0  0  0  0  0  0  0
  -15.9692   -5.5383    4.5696 F   0  0  0  0  0  0  0  0  0  0  0  0
  -14.2885   -6.6604    5.8604 C   0  0  0  0  0  0  0  0  0  0  0  0
  -13.9165   -7.5295    6.8605 C   0  0  0  0  0  0  0  0  0  0  0  0
  -14.7445   -9.5867    9.2297 H   0  0  0  0  0  0  0  0  0  0  0  0
   -6.8429   -7.3613    8.8322 C   0  0  0  0  0  0  0  0  0  0  0  0
   -5.8325   -7.3211    8.0440 O   0  0  0  0  0  0  0  0  0  0  0  0
   -6.6598   -6.9723   10.1522 N   0  0  0  0  0  0  0  0  0  0  0  0
   -7.5388   -6.9997   10.7834 H   0  0  0  0  0  0  0  0  0  0  0  0
   -5.4773   -6.5083   10.8126 C   0  0  0  0  0  0  0  0  0  0  0  0
   -5.7151   -5.7785   12.0838 C   0  0  0  0  0  0  0  0  0  0  0  0
   -5.9812   -6.5801   13.1699 O   0  0  0  0  0  0  0  0  0  0  0  0
   -6.9040   -6.5265   13.5102 H   0  0  0  0  0  0  0  0  0  0  0  0
   -4.4919   -4.8996   12.3493 C   0  0  0  0  0  0  0  0  0  0  0  0
   -3.5602   -5.5076   13.2271 N   0  0  0  0  0  0  0  0  0  0  0  0
   -2.3079   -5.8202   12.6890 C   0  0  0  0  0  0  0  0  0  0  0  0
   -1.1433   -5.8184   13.6139 C   0  0  0  0  0  0  0  0  0  0  0  0
   -1.4532   -5.8752   14.9477 O   0  0  0  0  0  0  0  0  0  0  0  0
   -2.3081   -4.7760   15.1965 C   0  0  0  0  0  0  0  0  0  0  0  0
   -3.6386   -5.1734   14.5963 C   0  0  0  0  0  0  0  0  0  0  0  0
  1  2  1  0  0  0
  2  3  1  0  0  0
  3  4  1  0  0  0
  4  9  1  0  0  0
  9 10  2  0  0  0
 10 11  1  0  0  0
 11 12  2  0  0  0
 11 13  1  0  0  0
 13 14  1  0  0  0
 14 15  2  0  0  0
 15 16  1  0  0  0
 16 17  2  0  0  0
 17 18  1  0  0  0
 17 19  1  0  0  0
 19 20  2  0  0  0
  4  5  2  0  0  0
  5  6  1  0  0  0
  5  7  1  0  0  0
  7 22  1  0  0  0
 22 23  2  0  0  0
 22 24  1  0  0  0
 24 26  1  0  0  0
 26 27  1  0  0  0
 27 28  1  0  0  0
 27 30  1  0  0  0
 30 31  1  0  0  0
 31 32  1  0  0  0
 32 33  1  0  0  0
 33 34  1  0  0  0
 34 35  1  0  0  0
 35 36  1  0  0  0
  7  2  2  0  0  0
 36 31  1  0  0  0
 20 10  1  0  0  0
 20 14  1  0  0  0
  3  8  1  0  0  0
 13 21  1  0  0  0
 24 25  1  0  0  0
 28 29  1  0  0  0
M  END
> <minimizedAffinity>
-5.00230

> <CNNscore>
0.2441373914

> <CNNaffinity>
6.0445203781

> <CNN_VS>
1.4756934643

> <CNNaffinity_variance>
0.1898938715

$$$$
[H]c1c([H])c(C(=O)N([H])c2sc(N([H])c3c([H])c([H])c4c([H])c([H])c([H])c([H])c4c3[H])nc2C(=O)N([H])[H])c([H])c([H])c1Cl


 33 36  0  0  0  0  0  0  0  0999 V2000
  -11.3760   -6.3963    9.8065 C   0  0  0  0  0  0  0  0  0  0  0  0
  -10.8971   -6.2779   11.0202 N   0  0  0  0  0  0  0  0  0  0  0  0
  -11.5871   -5.7735   11.9958 C   0  0  0  0  0  0  0  0  0  0  0  0
  -13.0639   -5.4074   11.2122 S   0  0  0  0  0  0  0  0  0  0  0  0
  -12.6441   -5.9789    9.5844 C   0  0  0  0  0  0  0  0  0  0  0  0
  -10.4956   -8.0585    8.0981 N   0  0  0  0  0  0  0  0  0  0  0  0
  -10.4266   -6.7448    8.6974 C   0  0  0  0  0  0  0  0  0  0  0  0
   -9.5650   -6.0085    8.2240 O   0  0  0  0  0  0  0  0  0  0  0  0
   -9.6691   -8.6692    8.1643 H   0  0  0  0  0  0  0  0  0  0  0  0
  -11.3536   -8.3759    7.6155 H   0  0  0  0  0  0  0  0  0  0  0  0
  -13.6133   -6.0940    8.5703 N   0  0  0  0  0  0  0  0  0  0  0  0
  -13.9900   -7.1949    7.8415 C   0  0  0  0  0  0  0  0  0  0  0  0
  -13.5456   -8.3538    7.9880 O   0  0  0  0  0  0  0  0  0  0  0  0
  -14.1221   -5.1733    8.3498 H   0  0  0  0  0  0  0  0  0  0  0  0
  -15.0174   -7.1019    6.7536 C   0  0  0  0  0  0  0  0  0  0  0  0
  -16.1333   -7.9098    6.7497 C   0  0  0  0  0  0  0  0  0  0  0  0
  -17.0856   -7.8441    5.7553 C   0  0  0  0  0  0  0  0  0  0  0  0
  -16.9031   -6.9353    4.7371 C   0  0  0  0  0  0  0  0  0  0  0  0
  -18.1136   -6.8555    3.4792 Cl  0  0  0  0  0  0  0  0  0  0  0  0
  -15.8051   -6.1192    4.7131 C   0  0  0  0  0  0  0  0  0  0  0  0
  -14.8717   -6.2164    5.7304 C   0  0  0  0  0  0  0  0  0  0  0  0
  -11.2563   -5.5550   13.3798 N   0  0  0  0  0  0  0  0  0  0  0  0
  -11.9084   -6.0649   14.0459 H   0  0  0  0  0  0  0  0  0  0  0  0
  -10.2219   -4.7812   13.8872 C   0  0  0  0  0  0  0  0  0  0  0  0
   -8.8814   -5.1188   13.8962 C   0  0  0  0  0  0  0  0  0  0  0  0
   -7.9092   -4.2694   14.4379 C   0  0  0  0  0  0  0  0  0  0  0  0
   -8.2559   -3.0604   14.9840 C   0  0  0  0  0  0  0  0  0  0  0  0
   -7.2746   -2.2489   15.5083 C   0  0  0  0  0  0  0  0  0  0  0  0
   -7.6502   -1.0459   16.0478 C   0  0  0  0  0  0  0  0  0  0  0  0
   -8.9738   -0.6655   16.0618 C   0  0  0  0  0  0  0  0  0  0  0  0
   -9.9346   -1.4970   15.5303 C   0  0  0  0  0  0  0  0  0  0  0  0
   -9.5981   -2.7203   14.9758 C   0  0  0  0  0  0  0  0  0  0  0  0
  -10.5609   -3.5364   14.4517 C   0  0  0  0  0  0  0  0  0  0  0  0
  6  7  1  0  0  0
  7  8  2  0  0  0
  7  1  1  0  0  0
  1  2  1  0  0  0
  2  3  2  0  0  0
  3 22  1  0  0  0
 22 24  1  0  0  0
 24 25  2  0  0  0
 25 26  1  0  0  0
 26 27  2  0  0  0
 27 28  1  0  0  0
 28 29  2  0  0  0
 29 30  1  0  0  0
 30 31  2  0  0  0
 31 32  1  0  0  0
 32 33  2  0  0  0
  3  4  1  0  0  0
  4  5  1  0  0  0
  5 11  1  0  0  0
 11 12  1  0  0  0
 12 13  2  0  0  0
 12 15  1  0  0  0
 15 16  2  0  0  0
 16 17  1  0  0  0
 17 18  2  0  0  0
 18 19  1  0  0  0
 18 20  1  0  0  0
 20 21  2  0  0  0
  5  1  2  0  0  0
 21 15  1  0  0  0
 33 24  1  0  0  0
 32 27  1  0  0  0
  6  9  1  0  0  0
  6 10  1  0  0  0
 22 23  1  0  0  0
 11 14  1  0  0  0
M  END
> <minimizedAffinity>
0.42273

> <CNNscore>
0.5337231755

> <CNNaffinity>
6.3101663589

> <CNN_VS>
3.3678820133

> <CNNaffinity_variance>
0.1594016999

$$$$
[H]c1c([H])c(C(=O)N([H])c2sc(N([H])c3c([H])c([H])c4c([H])c([H])c([H])c([H])c4c3[H])nc2C(=O)N([H])[H])c([H])c([H])c1Cl


 33 36  0  0  0  0  0  0  0  0999 V2000
  -10.9463   -8.3956    7.5372 C   0  0  0  0  0  0  0  0  0  0  0  0
  -10.0148   -9.3144    7.4702 N   0  0  0  0  0  0  0  0  0  0  0  0
  -10.1847  -10.4348    6.8393 C   0  0  0  0  0  0  0  0  0  0  0  0
  -11.7832  -10.2551    6.2547 S   0  0  0  0  0  0  0  0  0  0  0  0
  -12.1206   -8.6398    6.9103 C   0  0  0  0  0  0  0  0  0  0  0  0
   -9.6592   -6.3394    8.2936 N   0  0  0  0  0  0  0  0  0  0  0  0
  -10.7565   -7.2580    8.4978 C   0  0  0  0  0  0  0  0  0  0  0  0
  -11.4580   -7.0114    9.4754 O   0  0  0  0  0  0  0  0  0  0  0  0
   -8.9404   -6.2667    9.0275 H   0  0  0  0  0  0  0  0  0  0  0  0
   -9.5984   -5.7703    7.4321 H   0  0  0  0  0  0  0  0  0  0  0  0
  -13.2684   -7.9167    6.5354 N   0  0  0  0  0  0  0  0  0  0  0  0
  -14.2663   -8.2549    5.6552 C   0  0  0  0  0  0  0  0  0  0  0  0
  -14.3561   -9.3358    5.0342 O   0  0  0  0  0  0  0  0  0  0  0  0
  -13.3580   -6.9624    7.0216 H   0  0  0  0  0  0  0  0  0  0  0  0
  -15.3918   -7.3140    5.3456 C   0  0  0  0  0  0  0  0  0  0  0  0
  -16.6724   -7.7738    5.1294 C   0  0  0  0  0  0  0  0  0  0  0  0
  -17.7189   -6.9257    4.8371 C   0  0  0  0  0  0  0  0  0  0  0  0
  -17.4619   -5.5751    4.7618 C   0  0  0  0  0  0  0  0  0  0  0  0
  -18.7922   -4.5041    4.3914 Cl  0  0  0  0  0  0  0  0  0  0  0  0
  -16.2006   -5.0879    4.9713 C   0  0  0  0  0  0  0  0  0  0  0  0
  -15.1768   -5.9727    5.2623 C   0  0  0  0  0  0  0  0  0  0  0  0
   -9.3072  -11.5600    6.6480 N   0  0  0  0  0  0  0  0  0  0  0  0
   -8.8481  -11.8838    7.5498 H   0  0  0  0  0  0  0  0  0  0  0  0
   -9.0261  -12.2170    5.4583 C   0  0  0  0  0  0  0  0  0  0  0  0
   -9.0040  -13.5864    5.2700 C   0  0  0  0  0  0  0  0  0  0  0  0
   -8.7030  -14.1565    4.0272 C   0  0  0  0  0  0  0  0  0  0  0  0
   -8.4168  -13.3687    2.9420 C   0  0  0  0  0  0  0  0  0  0  0  0
   -8.1251  -13.9619    1.7339 C   0  0  0  0  0  0  0  0  0  0  0  0
   -7.8428  -13.1498    0.6662 C   0  0  0  0  0  0  0  0  0  0  0  0
   -7.8525  -11.7795    0.8045 C   0  0  0  0  0  0  0  0  0  0  0  0
   -8.1479  -11.2131    2.0247 C   0  0  0  0  0  0  0  0  0  0  0  0
   -8.4386  -11.9969    3.1284 C   0  0  0  0  0  0  0  0  0  0  0  0
   -8.7301  -11.4226    4.3338 C   0  0  0  0  0  0  0  0  0  0  0  0
  6  7  1  0  0  0
  7  8  2  0  0  0
  7  1  1  0  0  0
  1  2  1  0  0  0
  2  3  2  0  0  0
  3 22  1  0  0  0
 22 24  1  0  0  0
 24 25  2  0  0  0
 25 26  1  0  0  0
 26 27  2  0  0  0
 27 28  1  0  0  0
 28 29  2  0  0  0
 29 30  1  0  0  0
 30 31  2  0  0  0
 31 32  1  0  0  0
 32 33  2  0  0  0
  3  4  1  0  0  0
  4  5  1  0  0  0
  5 11  1  0  0  0
 11 12  1  0  0  0
 12 13  2  0  0  0
 12 15  1  0  0  0
 15 16  2  0  0  0
 16 17  1  0  0  0
 17 18  2  0  0  0
 18 19  1  0  0  0
 18 20  1  0  0  0
 20 21  2  0  0  0
  5  1  2  0  0  0
 21 15  1  0  0  0
 33 24  1  0  0  0
 32 27  1  0  0  0
  6  9  1  0  0  0
  6 10  1  0  0  0
 22 23  1  0  0  0
 11 14  1  0  0  0
M  END
> <minimizedAffinity>
3.33025

> <CNNscore>
0.3899810016

> <CNNaffinity>
6.3687429428

> <CNN_VS>
2.4836888313

> <CNNaffinity_variance>
0.3808721602

$$$$
[H]c1c([H])c(C(=O)N([H])c2sc(N([H])c3c([H])c([H])c4c([H])c([H])c([H])c([H])c4c3[H])nc2C(=O)N([H])[H])c([H])c([H])c1Cl


 33 36  0  0  0  0  0  0  0  0999 V2000
   -8.6570   -9.5031    6.1839 C   0  0  0  0  0  0  0  0  0  0  0  0
   -9.9175   -9.8486    6.2728 N   0  0  0  0  0  0  0  0  0  0  0  0
  -10.5835   -9.7767    7.3834 C   0  0  0  0  0  0  0  0  0  0  0  0
   -9.3926   -9.1722    8.4537 S   0  0  0  0  0  0  0  0  0  0  0  0
   -8.0465   -9.0478    7.3026 C   0  0  0  0  0  0  0  0  0  0  0  0
   -8.4726  -10.8371    4.0291 N   0  0  0  0  0  0  0  0  0  0  0  0
   -7.9064   -9.8633    4.9350 C   0  0  0  0  0  0  0  0  0  0  0  0
   -6.8228   -9.4037    4.5837 O   0  0  0  0  0  0  0  0  0  0  0  0
   -7.9472  -11.7056    3.8555 H   0  0  0  0  0  0  0  0  0  0  0  0
   -9.3822  -10.6651    3.5678 H   0  0  0  0  0  0  0  0  0  0  0  0
   -6.8472   -8.3920    7.6384 N   0  0  0  0  0  0  0  0  0  0  0  0
   -6.5537   -7.0508    7.6364 C   0  0  0  0  0  0  0  0  0  0  0  0
   -7.3529   -6.1295    7.3632 O   0  0  0  0  0  0  0  0  0  0  0  0
   -6.0581   -9.0573    7.9380 H   0  0  0  0  0  0  0  0  0  0  0  0
   -5.1838   -6.5467    7.9786 C   0  0  0  0  0  0  0  0  0  0  0  0
   -4.9847   -5.2600    8.4290 C   0  0  0  0  0  0  0  0  0  0  0  0
   -3.7328   -4.7759    8.7425 C   0  0  0  0  0  0  0  0  0  0  0  0
   -2.6529   -5.6176    8.5960 C   0  0  0  0  0  0  0  0  0  0  0  0
   -1.0680   -4.9991    8.9952 Cl  0  0  0  0  0  0  0  0  0  0  0  0
   -2.8185   -6.9007    8.1507 C   0  0  0  0  0  0  0  0  0  0  0  0
   -4.0923   -7.3487    7.8464 C   0  0  0  0  0  0  0  0  0  0  0  0
  -11.9512  -10.1018    7.6938 N   0  0  0  0  0  0  0  0  0  0  0  0
  -12.0467  -11.0083    8.2397 H   0  0  0  0  0  0  0  0  0  0  0  0
  -13.0866   -9.3767    7.3599 C   0  0  0  0  0  0  0  0  0  0  0  0
  -13.8279   -8.5846    8.2167 C   0  0  0  0  0  0  0  0  0  0  0  0
  -14.9660   -7.8931    7.7847 C   0  0  0  0  0  0  0  0  0  0  0  0
  -15.3897   -7.9780    6.4834 C   0  0  0  0  0  0  0  0  0  0  0  0
  -16.5133   -7.2849    6.0914 C   0  0  0  0  0  0  0  0  0  0  0  0
  -16.9138   -7.3883    4.7844 C   0  0  0  0  0  0  0  0  0  0  0  0
  -16.2076   -8.1654    3.8932 C   0  0  0  0  0  0  0  0  0  0  0  0
  -15.0871   -8.8478    4.3126 C   0  0  0  0  0  0  0  0  0  0  0  0
  -14.6485   -8.7708    5.6236 C   0  0  0  0  0  0  0  0  0  0  0  0
  -13.5352   -9.4530    6.0272 C   0  0  0  0  0  0  0  0  0  0  0  0
  6  7  1  0  0  0
  7  8  2  0  0  0
  7  1  1  0  0  0
  1  2  1  0  0  0
  2  3  2  0  0  0
  3 22  1  0  0  0
 22 24  1  0  0  0
 24 25  2  0  0  0
 25 26  1  0  0  0
 26 27  2  0  0  0
 27 28  1  0  0  0
 28 29  2  0  0  0
 29 30  1  0  0  0
 30 31  2  0  0  0
 31 32  1  0  0  0
 32 33  2  0  0  0
  3  4  1  0  0  0
  4  5  1  0  0  0
  5 11  1  0  0  0
 11 12  1  0  0  0
 12 13  2  0  0  0
 12 15  1  0  0  0
 15 16  2  0  0  0
 16 17  1  0  0  0
 17 18  2  0  0  0
 18 19  1  0  0  0
 18 20  1  0  0  0
 20 21  2  0  0  0
  5  1  2  0  0  0
 21 15  1  0  0  0
 33 24  1  0  0  0
 32 27  1  0  0  0
  6  9  1  0  0  0
  6 10  1  0  0  0
 22 23  1  0  0  0
 11 14  1  0  0  0
M  END
> <minimizedAffinity>
-1.10053

> <CNNscore>
0.3783303797

> <CNNaffinity>
6.3120064735

> <CNN_VS>
2.3880238533

> <CNNaffinity_variance>
0.5471391678

$$$$
[H]c1c([H])c(C(=O)N([H])c2sc(N([H])c3c([H])c([H])c4c([H])c([H])c([H])c([H])c4c3[H])nc2C(=O)N([H])[H])c([H])c([H])c1Cl


 33 36  0  0  0  0  0  0  0  0999 V2000
  -10.0531   -8.6592    7.8500 C   0  0  0  0  0  0  0  0  0  0  0  0
  -11.3546   -8.6846    7.9975 N   0  0  0  0  0  0  0  0  0  0  0  0
  -12.0127   -7.7137    8.5511 C   0  0  0  0  0  0  0  0  0  0  0  0
  -10.7508   -6.6202    8.9265 S   0  0  0  0  0  0  0  0  0  0  0  0
   -9.3889   -7.5654    8.2905 C   0  0  0  0  0  0  0  0  0  0  0  0
  -10.0138  -10.8215    6.5160 N   0  0  0  0  0  0  0  0  0  0  0  0
   -9.3580   -9.9251    7.4412 C   0  0  0  0  0  0  0  0  0  0  0  0
   -8.2504  -10.2974    7.8199 O   0  0  0  0  0  0  0  0  0  0  0  0
  -10.2347  -11.7755    6.8344 H   0  0  0  0  0  0  0  0  0  0  0  0
  -10.2545  -10.5115    5.5591 H   0  0  0  0  0  0  0  0  0  0  0  0
   -8.1013   -7.0110    8.1649 N   0  0  0  0  0  0  0  0  0  0  0  0
   -7.2582   -6.9941    7.0814 C   0  0  0  0  0  0  0  0  0  0  0  0
   -7.5170   -7.4539    5.9485 O   0  0  0  0  0  0  0  0  0  0  0  0
   -7.7445   -6.5353    9.0603 H   0  0  0  0  0  0  0  0  0  0  0  0
   -5.8869   -6.3937    7.1634 C   0  0  0  0  0  0  0  0  0  0  0  0
   -5.2080   -5.9984    6.0316 C   0  0  0  0  0  0  0  0  0  0  0  0
   -3.9444   -5.4506    6.0855 C   0  0  0  0  0  0  0  0  0  0  0  0
   -3.3518   -5.2986    7.3191 C   0  0  0  0  0  0  0  0  0  0  0  0
   -1.7499   -4.6032    7.3820 Cl  0  0  0  0  0  0  0  0  0  0  0  0
   -4.0005   -5.6818    8.4612 C   0  0  0  0  0  0  0  0  0  0  0  0
   -5.2686   -6.2280    8.3644 C   0  0  0  0  0  0  0  0  0  0  0  0
  -13.4191   -7.5443    8.8080 N   0  0  0  0  0  0  0  0  0  0  0  0
  -13.6580   -7.5853    9.8424 H   0  0  0  0  0  0  0  0  0  0  0  0
  -14.4281   -7.3454    7.8760 C   0  0  0  0  0  0  0  0  0  0  0  0
  -15.6263   -8.0323    7.8143 C   0  0  0  0  0  0  0  0  0  0  0  0
  -16.5832   -7.7614    6.8289 C   0  0  0  0  0  0  0  0  0  0  0  0
  -16.3636   -6.7955    5.8808 C   0  0  0  0  0  0  0  0  0  0  0  0
  -17.3258   -6.5543    4.9256 C   0  0  0  0  0  0  0  0  0  0  0  0
  -17.0793   -5.5829    3.9903 C   0  0  0  0  0  0  0  0  0  0  0  0
  -15.9001   -4.8716    4.0108 C   0  0  0  0  0  0  0  0  0  0  0  0
  -14.9550   -5.1338    4.9779 C   0  0  0  0  0  0  0  0  0  0  0  0
  -15.1642   -6.1063    5.9410 C   0  0  0  0  0  0  0  0  0  0  0  0
  -14.2185   -6.3569    6.8952 C   0  0  0  0  0  0  0  0  0  0  0  0
  6  7  1  0  0  0
  7  8  2  0  0  0
  7  1  1  0  0  0
  1  2  1  0  0  0
  2  3  2  0  0  0
  3 22  1  0  0  0
 22 24  1  0  0  0
 24 25  2  0  0  0
 25 26  1  0  0  0
 26 27  2  0  0  0
 27 28  1  0  0  0
 28 29  2  0  0  0
 29 30  1  0  0  0
 30 31  2  0  0  0
 31 32  1  0  0  0
 32 33  2  0  0  0
  3  4  1  0  0  0
  4  5  1  0  0  0
  5 11  1  0  0  0
 11 12  1  0  0  0
 12 13  2  0  0  0
 12 15  1  0  0  0
 15 16  2  0  0  0
 16 17  1  0  0  0
 17 18  2  0  0  0
 18 19  1  0  0  0
 18 20  1  0  0  0
 20 21  2  0  0  0
  5  1  2  0  0  0
 21 15  1  0  0  0
 33 24  1  0  0  0
 32 27  1  0  0  0
  6  9  1  0  0  0
  6 10  1  0  0  0
 22 23  1  0  0  0
 11 14  1  0  0  0
M  END
> <minimizedAffinity>
-9.93405

> <CNNscore>
0.3667146266

> <CNNaffinity>
6.8040680885

> <CNN_VS>
2.4951512814

> <CNNaffinity_variance>
0.1018171757

$$$$
[H]c1c([H])c(C(=O)N([H])c2sc(N([H])c3c([H])c([H])c4c([H])c([H])c([H])c([H])c4c3[H])nc2C(=O)N([H])[H])c([H])c([H])c1Cl


 33 36  0  0  0  0  0  0  0  0999 V2000
  -10.1070   -8.7424    7.6320 C   0  0  0  0  0  0  0  0  0  0  0  0
  -11.4159   -8.7715    7.5839 N   0  0  0  0  0  0  0  0  0  0  0  0
  -12.1508   -7.7856    7.9964 C   0  0  0  0  0  0  0  0  0  0  0  0
  -10.9608   -6.6703    8.5155 S   0  0  0  0  0  0  0  0  0  0  0  0
   -9.5177   -7.6286    8.1259 C   0  0  0  0  0  0  0  0  0  0  0  0
   -9.9415  -11.0196    6.5170 N   0  0  0  0  0  0  0  0  0  0  0  0
   -9.3567  -10.0175    7.3791 C   0  0  0  0  0  0  0  0  0  0  0  0
   -8.2580  -10.3146    7.8408 O   0  0  0  0  0  0  0  0  0  0  0  0
  -10.1494  -11.9458    6.9163 H   0  0  0  0  0  0  0  0  0  0  0  0
  -10.1457  -10.8108    5.5248 H   0  0  0  0  0  0  0  0  0  0  0  0
   -8.2266   -7.0702    8.1739 N   0  0  0  0  0  0  0  0  0  0  0  0
   -7.2960   -6.9318    7.1740 C   0  0  0  0  0  0  0  0  0  0  0  0
   -7.4571   -7.2551    5.9775 O   0  0  0  0  0  0  0  0  0  0  0  0
   -7.9481   -6.7040    9.1452 H   0  0  0  0  0  0  0  0  0  0  0  0
   -5.9390   -6.3524    7.4397 C   0  0  0  0  0  0  0  0  0  0  0  0
   -5.4504   -6.2284    8.7219 C   0  0  0  0  0  0  0  0  0  0  0  0
   -4.2086   -5.6924    8.9872 C   0  0  0  0  0  0  0  0  0  0  0  0
   -3.4402   -5.2705    7.9254 C   0  0  0  0  0  0  0  0  0  0  0  0
   -1.8664   -4.5922    8.2671 Cl  0  0  0  0  0  0  0  0  0  0  0  0
   -3.8979   -5.3803    6.6406 C   0  0  0  0  0  0  0  0  0  0  0  0
   -5.1508   -5.9241    6.4163 C   0  0  0  0  0  0  0  0  0  0  0  0
  -13.5800   -7.6166    8.0335 N   0  0  0  0  0  0  0  0  0  0  0  0
  -14.0022   -7.8738    8.9740 H   0  0  0  0  0  0  0  0  0  0  0  0
  -14.4034   -7.1746    7.0074 C   0  0  0  0  0  0  0  0  0  0  0  0
  -14.2280   -6.0244    6.2609 C   0  0  0  0  0  0  0  0  0  0  0  0
  -15.1200   -5.6595    5.2454 C   0  0  0  0  0  0  0  0  0  0  0  0
  -16.2100   -6.4380    4.9524 C   0  0  0  0  0  0  0  0  0  0  0  0
  -17.0676   -6.0501    3.9472 C   0  0  0  0  0  0  0  0  0  0  0  0
  -18.1490   -6.8478    3.6761 C   0  0  0  0  0  0  0  0  0  0  0  0
  -18.3659   -8.0037    4.3927 C   0  0  0  0  0  0  0  0  0  0  0  0
  -17.4918   -8.3677    5.3928 C   0  0  0  0  0  0  0  0  0  0  0  0
  -16.3874   -7.5907    5.6988 C   0  0  0  0  0  0  0  0  0  0  0  0
  -15.5275   -7.9628    6.6937 C   0  0  0  0  0  0  0  0  0  0  0  0
  6  7  1  0  0  0
  7  8  2  0  0  0
  7  1  1  0  0  0
  1  2  1  0  0  0
  2  3  2  0  0  0
  3 22  1  0  0  0
 22 24  1  0  0  0
 24 25  2  0  0  0
 25 26  1  0  0  0
 26 27  2  0  0  0
 27 28  1  0  0  0
 28 29  2  0  0  0
 29 30  1  0  0  0
 30 31  2  0  0  0
 31 32  1  0  0  0
 32 33  2  0  0  0
  3  4  1  0  0  0
  4  5  1  0  0  0
  5 11  1  0  0  0
 11 12  1  0  0  0
 12 13  2  0  0  0
 12 15  1  0  0  0
 15 16  2  0  0  0
 16 17  1  0  0  0
 17 18  2  0  0  0
 18 19  1  0  0  0
 18 20  1  0  0  0
 20 21  2  0  0  0
  5  1  2  0  0  0
 21 15  1  0  0  0
 33 24  1  0  0  0
 32 27  1  0  0  0
  6  9  1  0  0  0
  6 10  1  0  0  0
 22 23  1  0  0  0
 11 14  1  0  0  0
M  END
> <minimizedAffinity>
-9.21492

> <CNNscore>
0.3264691532

> <CNNaffinity>
6.7762823105

> <CNN_VS>
2.2122471333

> <CNNaffinity_variance>
0.1781474650

$$$$
[H]c1c([H])c(C(=O)N([H])c2sc(N([H])c3c([H])c([H])c4c([H])c([H])c([H])c([H])c4c3[H])nc2C(=O)N([H])[H])c([H])c([H])c1Cl


 33 36  0  0  0  0  0  0  0  0999 V2000
  -11.5286   -7.4190    8.7785 C   0  0  0  0  0  0  0  0  0  0  0  0
  -12.7726   -7.7739    8.5715 N   0  0  0  0  0  0  0  0  0  0  0  0
  -13.1220   -8.5539    7.5960 C   0  0  0  0  0  0  0  0  0  0  0  0
  -11.6119   -8.8632    6.8522 S   0  0  0  0  0  0  0  0  0  0  0  0
  -10.5855   -7.9024    7.9366 C   0  0  0  0  0  0  0  0  0  0  0  0
  -10.4216   -5.2073    9.3611 N   0  0  0  0  0  0  0  0  0  0  0  0
  -11.2565   -6.3175    9.7611 C   0  0  0  0  0  0  0  0  0  0  0  0
  -11.6819   -6.2523   10.9115 O   0  0  0  0  0  0  0  0  0  0  0  0
   -9.5452   -5.0450    9.8769 H   0  0  0  0  0  0  0  0  0  0  0  0
  -10.6983   -4.5924    8.5768 H   0  0  0  0  0  0  0  0  0  0  0  0
   -9.1812   -7.9803    7.8839 N   0  0  0  0  0  0  0  0  0  0  0  0
   -8.2748   -7.0901    7.3632 C   0  0  0  0  0  0  0  0  0  0  0  0
   -8.5497   -5.9806    6.8579 O   0  0  0  0  0  0  0  0  0  0  0  0
   -8.7796   -8.8761    8.3215 H   0  0  0  0  0  0  0  0  0  0  0  0
   -6.8044   -7.3823    7.3540 C   0  0  0  0  0  0  0  0  0  0  0  0
   -5.9320   -6.6985    8.1722 C   0  0  0  0  0  0  0  0  0  0  0  0
   -4.5764   -6.9478    8.1737 C   0  0  0  0  0  0  0  0  0  0  0  0
   -4.0907   -7.9161    7.3238 C   0  0  0  0  0  0  0  0  0  0  0  0
   -2.3714   -8.2288    7.3300 Cl  0  0  0  0  0  0  0  0  0  0  0  0
   -4.9319   -8.6123    6.4992 C   0  0  0  0  0  0  0  0  0  0  0  0
   -6.2869   -8.3318    6.5276 C   0  0  0  0  0  0  0  0  0  0  0  0
  -14.4105   -9.0570    7.1967 N   0  0  0  0  0  0  0  0  0  0  0  0
  -14.7385   -9.8727    7.7932 H   0  0  0  0  0  0  0  0  0  0  0  0
  -15.2113   -8.5961    6.1610 C   0  0  0  0  0  0  0  0  0  0  0  0
  -15.3695   -9.1956    4.9255 C   0  0  0  0  0  0  0  0  0  0  0  0
  -16.2000   -8.6488    3.9399 C   0  0  0  0  0  0  0  0  0  0  0  0
  -16.8929   -7.4877    4.1677 C   0  0  0  0  0  0  0  0  0  0  0  0
  -17.7012   -6.9769    3.1767 C   0  0  0  0  0  0  0  0  0  0  0  0
  -18.3819   -5.8148    3.4323 C   0  0  0  0  0  0  0  0  0  0  0  0
  -18.2565   -5.1807    4.6484 C   0  0  0  0  0  0  0  0  0  0  0  0
  -17.4409   -5.7140    5.6218 C   0  0  0  0  0  0  0  0  0  0  0  0
  -16.7359   -6.8857    5.4048 C   0  0  0  0  0  0  0  0  0  0  0  0
  -15.9298   -7.4046    6.3787 C   0  0  0  0  0  0  0  0  0  0  0  0
  6  7  1  0  0  0
  7  8  2  0  0  0
  7  1  1  0  0  0
  1  2  1  0  0  0
  2  3  2  0  0  0
  3 22  1  0  0  0
 22 24  1  0  0  0
 24 25  2  0  0  0
 25 26  1  0  0  0
 26 27  2  0  0  0
 27 28  1  0  0  0
 28 29  2  0  0  0
 29 30  1  0  0  0
 30 31  2  0  0  0
 31 32  1  0  0  0
 32 33  2  0  0  0
  3  4  1  0  0  0
  4  5  1  0  0  0
  5 11  1  0  0  0
 11 12  1  0  0  0
 12 13  2  0  0  0
 12 15  1  0  0  0
 15 16  2  0  0  0
 16 17  1  0  0  0
 17 18  2  0  0  0
 18 19  1  0  0  0
 18 20  1  0  0  0
 20 21  2  0  0  0
  5  1  2  0  0  0
 21 15  1  0  0  0
 33 24  1  0  0  0
 32 27  1  0  0  0
  6  9  1  0  0  0
  6 10  1  0  0  0
 22 23  1  0  0  0
 11 14  1  0  0  0
M  END
> <minimizedAffinity>
-8.28805

> <CNNscore>
0.3085743189

> <CNNaffinity>
6.7502722740

> <CNN_VS>
2.0829606056

> <CNNaffinity_variance>
0.2417951524

$$$$
[H]c1c([H])c(C(=O)N([H])c2sc(N([H])c3c([H])c([H])c4c([H])c([H])c([H])c([H])c4c3[H])nc2C(=O)N([H])[H])c([H])c([H])c1Cl


 33 36  0  0  0  0  0  0  0  0999 V2000
  -11.2469   -6.6017    9.1068 C   0  0  0  0  0  0  0  0  0  0  0  0
   -9.9575   -6.6667    9.3296 N   0  0  0  0  0  0  0  0  0  0  0  0
   -9.1574   -7.3732    8.5928 C   0  0  0  0  0  0  0  0  0  0  0  0
  -10.2466   -8.0401    7.4535 S   0  0  0  0  0  0  0  0  0  0  0  0
  -11.7424   -7.2984    8.0576 C   0  0  0  0  0  0  0  0  0  0  0  0
  -11.5945   -5.7886   11.4889 N   0  0  0  0  0  0  0  0  0  0  0  0
  -12.1201   -5.9769   10.1556 C   0  0  0  0  0  0  0  0  0  0  0  0
  -13.2762   -5.5923    9.9998 O   0  0  0  0  0  0  0  0  0  0  0  0
  -12.0603   -6.2717   12.2699 H   0  0  0  0  0  0  0  0  0  0  0  0
  -10.7715   -5.1839   11.6532 H   0  0  0  0  0  0  0  0  0  0  0  0
  -12.9449   -7.3648    7.3292 N   0  0  0  0  0  0  0  0  0  0  0  0
  -13.5228   -8.4341    6.6908 C   0  0  0  0  0  0  0  0  0  0  0  0
  -13.0812   -9.6033    6.6804 O   0  0  0  0  0  0  0  0  0  0  0  0
  -13.4732   -6.4302    7.2777 H   0  0  0  0  0  0  0  0  0  0  0  0
  -14.7961   -8.2891    5.9127 C   0  0  0  0  0  0  0  0  0  0  0  0
  -14.8617   -8.6185    4.5765 C   0  0  0  0  0  0  0  0  0  0  0  0
  -16.0208   -8.4860    3.8424 C   0  0  0  0  0  0  0  0  0  0  0  0
  -17.1442   -8.0072    4.4784 C   0  0  0  0  0  0  0  0  0  0  0  0
  -18.6112   -7.8416    3.5434 Cl  0  0  0  0  0  0  0  0  0  0  0  0
  -17.1105   -7.6714    5.8044 C   0  0  0  0  0  0  0  0  0  0  0  0
  -15.9268   -7.8189    6.5064 C   0  0  0  0  0  0  0  0  0  0  0  0
   -7.7344   -7.5798    8.6639 N   0  0  0  0  0  0  0  0  0  0  0  0
   -7.4471   -8.2005    9.4769 H   0  0  0  0  0  0  0  0  0  0  0  0
   -6.7648   -7.0673    7.8133 C   0  0  0  0  0  0  0  0  0  0  0  0
   -6.8690   -6.9442    6.4403 C   0  0  0  0  0  0  0  0  0  0  0  0
   -5.8293   -6.4170    5.6648 C   0  0  0  0  0  0  0  0  0  0  0  0
   -4.6594   -5.9998    6.2457 C   0  0  0  0  0  0  0  0  0  0  0  0
   -3.6569   -5.4859    5.4538 C   0  0  0  0  0  0  0  0  0  0  0  0
   -2.4982   -5.0768    6.0616 C   0  0  0  0  0  0  0  0  0  0  0  0
   -2.3475   -5.1795    7.4267 C   0  0  0  0  0  0  0  0  0  0  0  0
   -3.3669   -5.6973    8.1947 C   0  0  0  0  0  0  0  0  0  0  0  0
   -4.5532   -6.1222    7.6209 C   0  0  0  0  0  0  0  0  0  0  0  0
   -5.5571   -6.6343    8.3939 C   0  0  0  0  0  0  0  0  0  0  0  0
  6  7  1  0  0  0
  7  8  2  0  0  0
  7  1  1  0  0  0
  1  2  1  0  0  0
  2  3  2  0  0  0
  3 22  1  0  0  0
 22 24  1  0  0  0
 24 25  2  0  0  0
 25 26  1  0  0  0
 26 27  2  0  0  0
 27 28  1  0  0  0
 28 29  2  0  0  0
 29 30  1  0  0  0
 30 31  2  0  0  0
 31 32  1  0  0  0
 32 33  2  0  0  0
  3  4  1  0  0  0
  4  5  1  0  0  0
  5 11  1  0  0  0
 11 12  1  0  0  0
 12 13  2  0  0  0
 12 15  1  0  0  0
 15 16  2  0  0  0
 16 17  1  0  0  0
 17 18  2  0  0  0
 18 19  1  0  0  0
 18 20  1  0  0  0
 20 21  2  0  0  0
  5  1  2  0  0  0
 21 15  1  0  0  0
 33 24  1  0  0  0
 32 27  1  0  0  0
  6  9  1  0  0  0
  6 10  1  0  0  0
 22 23  1  0  0  0
 11 14  1  0  0  0
M  END
> <minimizedAffinity>
-8.04153

> <CNNscore>
0.2282256186

> <CNNaffinity>
6.4472274780

> <CNN_VS>
1.4714224339

> <CNNaffinity_variance>
0.0830214769

$$$$
[H]c1c([H])c(C(=O)N([H])c2sc(N([H])c3c([H])c([H])c4c([H])c([H])c([H])c([H])c4c3[H])nc2C(=O)N([H])[H])c([H])c([H])c1Cl


 33 36  0  0  0  0  0  0  0  0999 V2000
   -5.1710   -7.6292    6.6749 C   0  0  0  0  0  0  0  0  0  0  0  0
   -6.0969   -8.4478    7.1095 N   0  0  0  0  0  0  0  0  0  0  0  0
   -7.3634   -8.1989    6.9820 C   0  0  0  0  0  0  0  0  0  0  0  0
   -7.3323   -6.6862    6.1819 S   0  0  0  0  0  0  0  0  0  0  0  0
   -5.5716   -6.4896    6.0643 C   0  0  0  0  0  0  0  0  0  0  0  0
   -3.1520   -7.0088    8.0874 N   0  0  0  0  0  0  0  0  0  0  0  0
   -3.7509   -7.8727    7.0951 C   0  0  0  0  0  0  0  0  0  0  0  0
   -3.0132   -8.7598    6.6736 O   0  0  0  0  0  0  0  0  0  0  0  0
   -2.3267   -6.4550    7.8180 H   0  0  0  0  0  0  0  0  0  0  0  0
   -3.5433   -6.9490    9.0430 H   0  0  0  0  0  0  0  0  0  0  0  0
   -4.9938   -5.4700    5.2849 N   0  0  0  0  0  0  0  0  0  0  0  0
   -4.1316   -4.4679    5.6557 C   0  0  0  0  0  0  0  0  0  0  0  0
   -3.6522   -4.3035    6.7982 O   0  0  0  0  0  0  0  0  0  0  0  0
   -5.2828   -5.4983    4.2501 H   0  0  0  0  0  0  0  0  0  0  0  0
   -3.6649   -3.4322    4.6773 C   0  0  0  0  0  0  0  0  0  0  0  0
   -4.1610   -2.1471    4.7017 C   0  0  0  0  0  0  0  0  0  0  0  0
   -3.7497   -1.1827    3.8069 C   0  0  0  0  0  0  0  0  0  0  0  0
   -2.8103   -1.5288    2.8616 C   0  0  0  0  0  0  0  0  0  0  0  0
   -2.2918   -0.3024    1.7299 Cl  0  0  0  0  0  0  0  0  0  0  0  0
   -2.2988   -2.7969    2.8119 C   0  0  0  0  0  0  0  0  0  0  0  0
   -2.7381   -3.7365    3.7283 C   0  0  0  0  0  0  0  0  0  0  0  0
   -8.5243   -8.9499    7.3832 N   0  0  0  0  0  0  0  0  0  0  0  0
   -8.3735  -10.0005    7.3356 H   0  0  0  0  0  0  0  0  0  0  0  0
   -9.7496   -8.4488    7.8003 C   0  0  0  0  0  0  0  0  0  0  0  0
   -9.9524   -7.2788    8.5080 C   0  0  0  0  0  0  0  0  0  0  0  0
  -11.2323   -6.8583    8.8892 C   0  0  0  0  0  0  0  0  0  0  0  0
  -12.3409   -7.5996    8.5706 C   0  0  0  0  0  0  0  0  0  0  0  0
  -13.5852   -7.1573    8.9608 C   0  0  0  0  0  0  0  0  0  0  0  0
  -14.6758   -7.9187    8.6285 C   0  0  0  0  0  0  0  0  0  0  0  0
  -14.5241   -9.0923    7.9239 C   0  0  0  0  0  0  0  0  0  0  0  0
  -13.2675   -9.5109    7.5462 C   0  0  0  0  0  0  0  0  0  0  0  0
  -12.1399   -8.7719    7.8615 C   0  0  0  0  0  0  0  0  0  0  0  0
  -10.8984   -9.1981    7.4811 C   0  0  0  0  0  0  0  0  0  0  0  0
  6  7  1  0  0  0
  7  8  2  0  0  0
  7  1  1  0  0  0
  1  2  1  0  0  0
  2  3  2  0  0  0
  3 22  1  0  0  0
 22 24  1  0  0  0
 24 25  2  0  0  0
 25 26  1  0  0  0
 26 27  2  0  0  0
 27 28  1  0  0  0
 28 29  2  0  0  0
 29 30  1  0  0  0
 30 31  2  0  0  0
 31 32  1  0  0  0
 32 33  2  0  0  0
  3  4  1  0  0  0
  4  5  1  0  0  0
  5 11  1  0  0  0
 11 12  1  0  0  0
 12 13  2  0  0  0
 12 15  1  0  0  0
 15 16  2  0  0  0
 16 17  1  0  0  0
 17 18  2  0  0  0
 18 19  1  0  0  0
 18 20  1  0  0  0
 20 21  2  0  0  0
  5  1  2  0  0  0
 21 15  1  0  0  0
 33 24  1  0  0  0
 32 27  1  0  0  0
  6  9  1  0  0  0
  6 10  1  0  0  0
 22 23  1  0  0  0
 11 14  1  0  0  0
M  END
> <minimizedAffinity>
-8.33808

> <CNNscore>
0.1909210235

> <CNNaffinity>
5.5814919472

> <CNN_VS>
1.0656241179

> <CNNaffinity_variance>
0.2143150866

$$$$
[H]c1c([H])c(C(=O)N([H])c2sc(N([H])c3c([H])c([H])c4c([H])c([H])c([H])c([H])c4c3[H])nc2C(=O)N([H])[H])c([H])c([H])c1Cl


 33 36  0  0  0  0  0  0  0  0999 V2000
   -4.2553   -7.2540    6.3235 C   0  0  0  0  0  0  0  0  0  0  0  0
   -4.9334   -8.2521    6.8338 N   0  0  0  0  0  0  0  0  0  0  0  0
   -6.2187   -8.2081    7.0020 C   0  0  0  0  0  0  0  0  0  0  0  0
   -6.5845   -6.6452    6.4080 S   0  0  0  0  0  0  0  0  0  0  0  0
   -4.9415   -6.1469    5.9558 C   0  0  0  0  0  0  0  0  0  0  0  0
   -1.9793   -6.4572    5.5227 N   0  0  0  0  0  0  0  0  0  0  0  0
   -2.7573   -7.2937    6.4084 C   0  0  0  0  0  0  0  0  0  0  0  0
   -2.0940   -7.9843    7.1777 O   0  0  0  0  0  0  0  0  0  0  0  0
   -1.3369   -6.9134    4.8596 H   0  0  0  0  0  0  0  0  0  0  0  0
   -2.0664   -5.4270    5.5549 H   0  0  0  0  0  0  0  0  0  0  0  0
   -4.7048   -4.9784    5.2077 N   0  0  0  0  0  0  0  0  0  0  0  0
   -4.0147   -3.8431    5.5539 C   0  0  0  0  0  0  0  0  0  0  0  0
   -3.4100   -3.6571    6.6317 O   0  0  0  0  0  0  0  0  0  0  0  0
   -5.1360   -4.9986    4.2234 H   0  0  0  0  0  0  0  0  0  0  0  0
   -3.9190   -2.6694    4.6260 C   0  0  0  0  0  0  0  0  0  0  0  0
   -3.3829   -2.7950    3.3632 C   0  0  0  0  0  0  0  0  0  0  0  0
   -3.2801   -1.7270    2.4980 C   0  0  0  0  0  0  0  0  0  0  0  0
   -3.7327   -0.4980    2.9230 C   0  0  0  0  0  0  0  0  0  0  0  0
   -3.6006    0.8529    1.8223 Cl  0  0  0  0  0  0  0  0  0  0  0  0
   -4.2700   -0.3413    4.1716 C   0  0  0  0  0  0  0  0  0  0  0  0
   -4.3552   -1.4389    5.0104 C   0  0  0  0  0  0  0  0  0  0  0  0
   -7.1405   -9.1760    7.5367 N   0  0  0  0  0  0  0  0  0  0  0  0
   -6.6568  -10.0459    7.9083 H   0  0  0  0  0  0  0  0  0  0  0  0
   -8.5233   -9.0763    7.6029 C   0  0  0  0  0  0  0  0  0  0  0  0
   -9.4305   -9.9894    7.0986 C   0  0  0  0  0  0  0  0  0  0  0  0
  -10.8126   -9.7968    7.2109 C   0  0  0  0  0  0  0  0  0  0  0  0
  -11.3203   -8.6844    7.8314 C   0  0  0  0  0  0  0  0  0  0  0  0
  -12.6851   -8.5258    7.9248 C   0  0  0  0  0  0  0  0  0  0  0  0
  -13.1644   -7.4041    8.5504 C   0  0  0  0  0  0  0  0  0  0  0  0
  -12.2998   -6.4659    9.0689 C   0  0  0  0  0  0  0  0  0  0  0  0
  -10.9391   -6.6501    8.9614 C   0  0  0  0  0  0  0  0  0  0  0  0
  -10.4133   -7.7687    8.3374 C   0  0  0  0  0  0  0  0  0  0  0  0
   -9.0612   -7.9398    8.2370 C   0  0  0  0  0  0  0  0  0  0  0  0
  6  7  1  0  0  0
  7  8  2  0  0  0
  7  1  1  0  0  0
  1  2  1  0  0  0
  2  3  2  0  0  0
  3 22  1  0  0  0
 22 24  1  0  0  0
 24 25  2  0  0  0
 25 26  1  0  0  0
 26 27  2  0  0  0
 27 28  1  0  0  0
 28 29  2  0  0  0
 29 30  1  0  0  0
 30 31  2  0  0  0
 31 32  1  0  0  0
 32 33  2  0  0  0
  3  4  1  0  0  0
  4  5  1  0  0  0
  5 11  1  0  0  0
 11 12  1  0  0  0
 12 13  2  0  0  0
 12 15  1  0  0  0
 15 16  2  0  0  0
 16 17  1  0  0  0
 17 18  2  0  0  0
 18 19  1  0  0  0
 18 20  1  0  0  0
 20 21  2  0  0  0
  5  1  2  0  0  0
 21 15  1  0  0  0
 33 24  1  0  0  0
 32 27  1  0  0  0
  6  9  1  0  0  0
  6 10  1  0  0  0
 22 23  1  0  0  0
 11 14  1  0  0  0
M  END
> <minimizedAffinity>
-8.22236

> <CNNscore>
0.1901807040

> <CNNaffinity>
5.6725401878

> <CNN_VS>
1.0788077116

> <CNNaffinity_variance>
0.1022927165

$$$$
[H]c1c([H])c([H])c(C([H])([H])[C@@]2([H])C(=O)N([H])[C@@]([H])(C([H])([H])c3c([H])c([H])c([H])c([H])c3[H])C(=O)N([H])[C@]([H])(C([H])([H])c3c([H])c([H])c([H])c([H])c3[H])C(=O)N([H])[C@@]([H])(C([H])([H])C([H])([H])C([H])([H])C([H])([H])N([H])[H])C(=O)N([H])[C@@]([H])(C([H])(C([H])([H])[H])C([H])([H])[H])C(=O)N2[H])c([H])c1[H]


 56 59  0  0  0  0  0  0  0  0999 V2000
   -9.7762  -10.4875    6.9581 C   0  0  0  0  0  0  0  0  0  0  0  0
  -11.0500  -10.7136    6.2981 N   0  0  0  0  0  0  0  0  0  0  0  0
  -12.3066  -10.1479    6.6569 C   0  0  0  0  0  0  0  0  0  0  0  0
  -13.0478   -9.8090    5.6701 O   0  0  0  0  0  0  0  0  0  0  0  0
  -12.8189   -9.9192    7.9930 C   0  0  0  0  0  0  0  0  0  0  0  0
  -12.9918   -8.5325    8.3798 N   0  0  0  0  0  0  0  0  0  0  0  0
  -13.0589   -7.3485    7.6454 C   0  0  0  0  0  0  0  0  0  0  0  0
  -14.1801   -6.6918    7.6948 O   0  0  0  0  0  0  0  0  0  0  0  0
  -12.0325   -6.7087    6.8076 C   0  0  0  0  0  0  0  0  0  0  0  0
  -11.4186   -5.5796    7.5485 N   0  0  0  0  0  0  0  0  0  0  0  0
  -10.1405   -5.5708    8.1217 C   0  0  0  0  0  0  0  0  0  0  0  0
   -9.4032   -4.5915    7.8306 O   0  0  0  0  0  0  0  0  0  0  0  0
   -9.5887   -6.5966    9.0296 C   0  0  0  0  0  0  0  0  0  0  0  0
   -8.1727   -6.6937    9.0748 N   0  0  0  0  0  0  0  0  0  0  0  0
   -7.2807   -7.6802    8.6467 C   0  0  0  0  0  0  0  0  0  0  0  0
   -6.5112   -8.2096    9.5447 O   0  0  0  0  0  0  0  0  0  0  0  0
   -7.0410   -8.2522    7.3047 C   0  0  0  0  0  0  0  0  0  0  0  0
   -8.2091   -8.4522    6.4889 N   0  0  0  0  0  0  0  0  0  0  0  0
   -8.9708   -9.5299    6.1327 C   0  0  0  0  0  0  0  0  0  0  0  0
   -9.0460   -9.8185    4.8665 O   0  0  0  0  0  0  0  0  0  0  0  0
  -11.0381  -11.3561    5.4736 H   0  0  0  0  0  0  0  0  0  0  0  0
  -13.1025   -8.4052    9.4440 H   0  0  0  0  0  0  0  0  0  0  0  0
  -12.0747   -4.7375    7.6124 H   0  0  0  0  0  0  0  0  0  0  0  0
   -7.7101   -5.8340    9.5334 H   0  0  0  0  0  0  0  0  0  0  0  0
   -8.5408   -7.5033    6.0649 H   0  0  0  0  0  0  0  0  0  0  0  0
   -9.1607  -12.6991    5.8414 C   0  0  0  0  0  0  0  0  0  0  0  0
   -9.1464  -11.8496    7.0325 C   0  0  0  0  0  0  0  0  0  0  0  0
   -7.7394  -11.7030    7.5277 C   0  0  0  0  0  0  0  0  0  0  0  0
  -14.0205  -10.7149    8.4619 C   0  0  0  0  0  0  0  0  0  0  0  0
  -15.3597  -10.2208    8.1886 C   0  0  0  0  0  0  0  0  0  0  0  0
  -15.8907   -8.9959    8.8070 C   0  0  0  0  0  0  0  0  0  0  0  0
  -16.6032   -8.0309    7.9148 C   0  0  0  0  0  0  0  0  0  0  0  0
  -18.0115   -8.1363    7.8368 N   0  0  0  0  0  0  0  0  0  0  0  0
  -18.5353   -7.3376    8.2671 H   0  0  0  0  0  0  0  0  0  0  0  0
  -18.3768   -8.4150    6.8935 H   0  0  0  0  0  0  0  0  0  0  0  0
  -12.4726   -6.2619    5.4564 C   0  0  0  0  0  0  0  0  0  0  0  0
  -13.8791   -6.2511    5.1160 C   0  0  0  0  0  0  0  0  0  0  0  0
  -14.6384   -5.0862    5.0706 C   0  0  0  0  0  0  0  0  0  0  0  0
  -15.9654   -5.0863    4.6974 C   0  0  0  0  0  0  0  0  0  0  0  0
  -16.5959   -6.2604    4.3497 C   0  0  0  0  0  0  0  0  0  0  0  0
  -15.8681   -7.4271    4.3853 C   0  0  0  0  0  0  0  0  0  0  0  0
  -14.5480   -7.3962    4.7614 C   0  0  0  0  0  0  0  0  0  0  0  0
  -10.0904   -6.1544   10.4222 C   0  0  0  0  0  0  0  0  0  0  0  0
  -11.5374   -6.1550   10.5523 C   0  0  0  0  0  0  0  0  0  0  0  0
  -12.3322   -5.0342   10.4716 C   0  0  0  0  0  0  0  0  0  0  0  0
  -13.7001   -5.1073   10.6162 C   0  0  0  0  0  0  0  0  0  0  0  0
  -14.3160   -6.3159   10.8473 C   0  0  0  0  0  0  0  0  0  0  0  0
  -13.5557   -7.4443   10.9325 C   0  0  0  0  0  0  0  0  0  0  0  0
  -12.1830   -7.3660   10.7869 C   0  0  0  0  0  0  0  0  0  0  0  0
   -6.0374   -7.4455    6.5105 C   0  0  0  0  0  0  0  0  0  0  0  0
   -4.6976   -7.3745    7.0468 C   0  0  0  0  0  0  0  0  0  0  0  0
   -3.8294   -8.4154    6.7790 C   0  0  0  0  0  0  0  0  0  0  0  0
   -2.5421   -8.4206    7.2640 C   0  0  0  0  0  0  0  0  0  0  0  0
   -2.0569   -7.3937    8.0366 C   0  0  0  0  0  0  0  0  0  0  0  0
   -2.9013   -6.3350    8.3234 C   0  0  0  0  0  0  0  0  0  0  0  0
   -4.1994   -6.3475    7.8241 C   0  0  0  0  0  0  0  0  0  0  0  0
 26 27  1  0  0  0
 27 28  1  0  0  0
 27  1  1  0  0  0
  1  2  1  0  0  0
  2  3  1  0  0  0
  3  4  2  0  0  0
  3  5  1  0  0  0
  5 29  1  0  0  0
 29 30  1  0  0  0
 30 31  1  0  0  0
 31 32  1  0  0  0
 32 33  1  0  0  0
  5  6  1  0  0  0
  6  7  1  0  0  0
  7  8  2  0  0  0
  7  9  1  0  0  0
  9 36  1  0  0  0
 36 37  1  0  0  0
 37 38  2  0  0  0
 38 39  1  0  0  0
 39 40  2  0  0  0
 40 41  1  0  0  0
 41 42  2  0  0  0
  9 10  1  0  0  0
 10 11  1  0  0  0
 11 12  2  0  0  0
 11 13  1  0  0  0
 13 43  1  0  0  0
 43 44  1  0  0  0
 44 45  2  0  0  0
 45 46  1  0  0  0
 46 47  2  0  0  0
 47 48  1  0  0  0
 48 49  2  0  0  0
 13 14  1  0  0  0
 14 15  1  0  0  0
 15 16  2  0  0  0
 15 17  1  0  0  0
 17 50  1  0  0  0
 50 51  1  0  0  0
 51 52  2  0  0  0
 52 53  1  0  0  0
 53 54  2  0  0  0
 54 55  1  0  0  0
 55 56  2  0  0  0
 17 18  1  0  0  0
 18 19  1  0  0  0
 19 20  2  0  0  0
 19  1  1  0  0  0
 42 37  1  0  0  0
 49 44  1  0  0  0
 56 51  1  0  0  0
  2 21  1  0  0  0
 33 34  1  0  0  0
 33 35  1  0  0  0
  6 22  1  0  0  0
 10 23  1  0  0  0
 14 24  1  0  0  0
 18 25  1  0  0  0
M  END
> <minimizedAffinity>
15.87425

> <CNNscore>
0.4543251395

> <CNNaffinity>
7.2163558006

> <CNN_VS>
3.2785718441

> <CNNaffinity_variance>
0.5455737710

$$$$
[H]c1c([H])c([H])c(C([H])([H])[C@@]2([H])C(=O)N([H])[C@@]([H])(C([H])([H])c3c([H])c([H])c([H])c([H])c3[H])C(=O)N([H])[C@]([H])(C([H])([H])c3c([H])c([H])c([H])c([H])c3[H])C(=O)N([H])[C@@]([H])(C([H])([H])C([H])([H])C([H])([H])C([H])([H])N([H])[H])C(=O)N([H])[C@@]([H])(C([H])(C([H])([H])[H])C([H])([H])[H])C(=O)N2[H])c([H])c1[H]


 56 59  0  0  0  0  0  0  0  0999 V2000
   -6.2547   -9.1814    6.9857 C   0  0  0  0  0  0  0  0  0  0  0  0
   -5.0788   -9.7917    7.5806 N   0  0  0  0  0  0  0  0  0  0  0  0
   -3.7198   -9.5014    7.2700 C   0  0  0  0  0  0  0  0  0  0  0  0
   -2.9278   -9.4840    8.2752 O   0  0  0  0  0  0  0  0  0  0  0  0
   -3.1554   -9.2272    5.9637 C   0  0  0  0  0  0  0  0  0  0  0  0
   -2.6503   -7.8838    5.7578 N   0  0  0  0  0  0  0  0  0  0  0  0
   -2.3067   -6.8585    6.6390 C   0  0  0  0  0  0  0  0  0  0  0  0
   -1.0601   -6.4892    6.6499 O   0  0  0  0  0  0  0  0  0  0  0  0
   -3.1565   -6.1081    7.5768 C   0  0  0  0  0  0  0  0  0  0  0  0
   -3.4738   -4.7769    7.0045 N   0  0  0  0  0  0  0  0  0  0  0  0
   -4.7070   -4.3859    6.4671 C   0  0  0  0  0  0  0  0  0  0  0  0
   -5.1894   -3.3059    6.9008 O   0  0  0  0  0  0  0  0  0  0  0  0
   -5.4812   -5.1198    5.4458 C   0  0  0  0  0  0  0  0  0  0  0  0
   -6.8784   -4.8677    5.4212 N   0  0  0  0  0  0  0  0  0  0  0  0
   -7.9856   -5.6592    5.7370 C   0  0  0  0  0  0  0  0  0  0  0  0
   -8.8517   -5.8649    4.7956 O   0  0  0  0  0  0  0  0  0  0  0  0
   -8.3681   -6.3297    6.9980 C   0  0  0  0  0  0  0  0  0  0  0  0
   -7.2900   -6.9103    7.7533 N   0  0  0  0  0  0  0  0  0  0  0  0
   -6.8133   -8.1766    7.9476 C   0  0  0  0  0  0  0  0  0  0  0  0
   -6.8214   -8.6401    9.1631 O   0  0  0  0  0  0  0  0  0  0  0  0
   -5.2526  -10.5160    8.3141 H   0  0  0  0  0  0  0  0  0  0  0  0
   -2.5025   -7.6469    4.7170 H   0  0  0  0  0  0  0  0  0  0  0  0
   -2.6337   -4.1158    7.0361 H   0  0  0  0  0  0  0  0  0  0  0  0
   -7.1163   -3.8691    5.0898 H   0  0  0  0  0  0  0  0  0  0  0  0
   -6.7434   -6.1335    8.2899 H   0  0  0  0  0  0  0  0  0  0  0  0
   -7.6429  -11.1218    7.8938 C   0  0  0  0  0  0  0  0  0  0  0  0
   -7.1932  -10.3305    6.7483 C   0  0  0  0  0  0  0  0  0  0  0  0
   -8.3826   -9.8309    5.9853 C   0  0  0  0  0  0  0  0  0  0  0  0
   -2.1765  -10.2184    5.3670 C   0  0  0  0  0  0  0  0  0  0  0  0
   -1.1807  -10.8458    6.2198 C   0  0  0  0  0  0  0  0  0  0  0  0
   -1.0601  -12.3063    6.3497 C   0  0  0  0  0  0  0  0  0  0  0  0
   -1.0731  -12.8750    7.7323 C   0  0  0  0  0  0  0  0  0  0  0  0
   -2.2066  -12.6068    8.5345 N   0  0  0  0  0  0  0  0  0  0  0  0
   -2.8083  -13.4404    8.7357 H   0  0  0  0  0  0  0  0  0  0  0  0
   -2.0129  -12.0180    9.3810 H   0  0  0  0  0  0  0  0  0  0  0  0
   -2.6341   -5.9630    8.9644 C   0  0  0  0  0  0  0  0  0  0  0  0
   -2.4993   -4.6498    9.5573 C   0  0  0  0  0  0  0  0  0  0  0  0
   -3.2924   -4.2102   10.6124 C   0  0  0  0  0  0  0  0  0  0  0  0
   -3.1195   -2.9746   11.1985 C   0  0  0  0  0  0  0  0  0  0  0  0
   -2.1376   -2.1181   10.7522 C   0  0  0  0  0  0  0  0  0  0  0  0
   -1.3384   -2.5280    9.7102 C   0  0  0  0  0  0  0  0  0  0  0  0
   -1.5344   -3.7642    9.1460 C   0  0  0  0  0  0  0  0  0  0  0  0
   -4.8751   -4.6302    4.1119 C   0  0  0  0  0  0  0  0  0  0  0  0
   -3.9697   -3.5034    4.2569 C   0  0  0  0  0  0  0  0  0  0  0  0
   -4.3639   -2.1878    4.3486 C   0  0  0  0  0  0  0  0  0  0  0  0
   -3.4478   -1.1667    4.4735 C   0  0  0  0  0  0  0  0  0  0  0  0
   -2.0991   -1.4370    4.5109 C   0  0  0  0  0  0  0  0  0  0  0  0
   -1.6772   -2.7304    4.4223 C   0  0  0  0  0  0  0  0  0  0  0  0
   -2.6005   -3.7519    4.2968 C   0  0  0  0  0  0  0  0  0  0  0  0
   -9.1551   -5.4186    7.9138 C   0  0  0  0  0  0  0  0  0  0  0  0
  -10.2839   -6.0084    8.5964 C   0  0  0  0  0  0  0  0  0  0  0  0
  -10.6835   -7.2776    8.2242 C   0  0  0  0  0  0  0  0  0  0  0  0
  -11.7551   -7.8983    8.8232 C   0  0  0  0  0  0  0  0  0  0  0  0
  -12.4792   -7.2889    9.8187 C   0  0  0  0  0  0  0  0  0  0  0  0
  -12.1048   -6.0167   10.2154 C   0  0  0  0  0  0  0  0  0  0  0  0
  -11.0186   -5.4053    9.5981 C   0  0  0  0  0  0  0  0  0  0  0  0
 26 27  1  0  0  0
 27 28  1  0  0  0
 27  1  1  0  0  0
  1  2  1  0  0  0
  2  3  1  0  0  0
  3  4  2  0  0  0
  3  5  1  0  0  0
  5 29  1  0  0  0
 29 30  1  0  0  0
 30 31  1  0  0  0
 31 32  1  0  0  0
 32 33  1  0  0  0
  5  6  1  0  0  0
  6  7  1  0  0  0
  7  8  2  0  0  0
  7  9  1  0  0  0
  9 36  1  0  0  0
 36 37  1  0  0  0
 37 38  2  0  0  0
 38 39  1  0  0  0
 39 40  2  0  0  0
 40 41  1  0  0  0
 41 42  2  0  0  0
  9 10  1  0  0  0
 10 11  1  0  0  0
 11 12  2  0  0  0
 11 13  1  0  0  0
 13 43  1  0  0  0
 43 44  1  0  0  0
 44 45  2  0  0  0
 45 46  1  0  0  0
 46 47  2  0  0  0
 47 48  1  0  0  0
 48 49  2  0  0  0
 13 14  1  0  0  0
 14 15  1  0  0  0
 15 16  2  0  0  0
 15 17  1  0  0  0
 17 50  1  0  0  0
 50 51  1  0  0  0
 51 52  2  0  0  0
 52 53  1  0  0  0
 53 54  2  0  0  0
 54 55  1  0  0  0
 55 56  2  0  0  0
 17 18  1  0  0  0
 18 19  1  0  0  0
 19 20  2  0  0  0
 19  1  1  0  0  0
 42 37  1  0  0  0
 49 44  1  0  0  0
 56 51  1  0  0  0
  2 21  1  0  0  0
 33 34  1  0  0  0
 33 35  1  0  0  0
  6 22  1  0  0  0
 10 23  1  0  0  0
 14 24  1  0  0  0
 18 25  1  0  0  0
M  END
> <minimizedAffinity>
9.67230

> <CNNscore>
0.4533997774

> <CNNaffinity>
6.4993591309

> <CNN_VS>
2.9468080997

> <CNNaffinity_variance>
0.3407256007

$$$$
[H]c1c([H])c([H])c(C([H])([H])[C@@]2([H])C(=O)N([H])[C@@]([H])(C([H])([H])c3c([H])c([H])c([H])c([H])c3[H])C(=O)N([H])[C@]([H])(C([H])([H])c3c([H])c([H])c([H])c([H])c3[H])C(=O)N([H])[C@@]([H])(C([H])([H])C([H])([H])C([H])([H])C([H])([H])N([H])[H])C(=O)N([H])[C@@]([H])(C([H])(C([H])([H])[H])C([H])([H])[H])C(=O)N2[H])c([H])c1[H]


 56 59  0  0  0  0  0  0  0  0999 V2000
  -11.1198   -9.8099    6.2762 C   0  0  0  0  0  0  0  0  0  0  0  0
  -10.3787   -9.6962    7.5200 N   0  0  0  0  0  0  0  0  0  0  0  0
  -10.0004   -8.4914    8.1782 C   0  0  0  0  0  0  0  0  0  0  0  0
  -10.0886   -8.5225    9.4546 O   0  0  0  0  0  0  0  0  0  0  0  0
   -9.5393   -7.2618    7.5653 C   0  0  0  0  0  0  0  0  0  0  0  0
  -10.4156   -6.1147    7.7022 N   0  0  0  0  0  0  0  0  0  0  0  0
  -11.4833   -5.8385    8.5563 C   0  0  0  0  0  0  0  0  0  0  0  0
  -11.3330   -4.8423    9.3782 O   0  0  0  0  0  0  0  0  0  0  0  0
  -12.7866   -6.5116    8.6712 C   0  0  0  0  0  0  0  0  0  0  0  0
  -13.8262   -5.7023    7.9896 N   0  0  0  0  0  0  0  0  0  0  0  0
  -14.4235   -6.0001    6.7580 C   0  0  0  0  0  0  0  0  0  0  0  0
  -15.6829   -5.9841    6.7282 O   0  0  0  0  0  0  0  0  0  0  0  0
  -13.7135   -6.3253    5.5045 C   0  0  0  0  0  0  0  0  0  0  0  0
  -14.4436   -7.0849    4.5525 N   0  0  0  0  0  0  0  0  0  0  0  0
  -14.3032   -8.3927    4.0813 C   0  0  0  0  0  0  0  0  0  0  0  0
  -14.1063   -8.5437    2.8096 O   0  0  0  0  0  0  0  0  0  0  0  0
  -14.3423   -9.6877    4.7935 C   0  0  0  0  0  0  0  0  0  0  0  0
  -13.7226   -9.7101    6.0917 N   0  0  0  0  0  0  0  0  0  0  0  0
  -12.5388  -10.1738    6.5938 C   0  0  0  0  0  0  0  0  0  0  0  0
  -12.5964  -11.0921    7.5133 O   0  0  0  0  0  0  0  0  0  0  0  0
  -10.0990  -10.5936    7.9774 H   0  0  0  0  0  0  0  0  0  0  0  0
  -10.1773   -5.3211    7.0134 H   0  0  0  0  0  0  0  0  0  0  0  0
  -14.0842   -4.8275    8.5483 H   0  0  0  0  0  0  0  0  0  0  0  0
  -15.2596   -6.5317    4.1147 H   0  0  0  0  0  0  0  0  0  0  0  0
  -14.3757   -9.2430    6.8302 H   0  0  0  0  0  0  0  0  0  0  0  0
   -9.5060  -10.5113    4.4266 C   0  0  0  0  0  0  0  0  0  0  0  0
  -10.4078  -10.8915    5.5141 C   0  0  0  0  0  0  0  0  0  0  0  0
   -9.6786  -11.7666    6.4883 C   0  0  0  0  0  0  0  0  0  0  0  0
   -8.1087   -6.8196    7.7990 C   0  0  0  0  0  0  0  0  0  0  0  0
   -7.0457   -7.3594    6.9677 C   0  0  0  0  0  0  0  0  0  0  0  0
   -6.7809   -8.8028    6.8636 C   0  0  0  0  0  0  0  0  0  0  0  0
   -6.7140   -9.5813    8.1382 C   0  0  0  0  0  0  0  0  0  0  0  0
   -7.4591  -10.7814    8.2064 N   0  0  0  0  0  0  0  0  0  0  0  0
   -6.8814  -11.6548    8.2390 H   0  0  0  0  0  0  0  0  0  0  0  0
   -8.2400  -10.7713    8.9071 H   0  0  0  0  0  0  0  0  0  0  0  0
  -13.2258   -6.8610   10.0511 C   0  0  0  0  0  0  0  0  0  0  0  0
  -12.6826   -6.1509   11.1892 C   0  0  0  0  0  0  0  0  0  0  0  0
  -13.2524   -4.9886   11.6989 C   0  0  0  0  0  0  0  0  0  0  0  0
  -12.7515   -4.3506   12.8135 C   0  0  0  0  0  0  0  0  0  0  0  0
  -11.6507   -4.8513   13.4727 C   0  0  0  0  0  0  0  0  0  0  0  0
  -11.0679   -6.0001   12.9900 C   0  0  0  0  0  0  0  0  0  0  0  0
  -11.5887   -6.6135   11.8776 C   0  0  0  0  0  0  0  0  0  0  0  0
  -13.4097   -4.9402    4.8915 C   0  0  0  0  0  0  0  0  0  0  0  0
  -14.5387   -4.3448    4.1976 C   0  0  0  0  0  0  0  0  0  0  0  0
  -14.5287   -3.1017    3.6067 C   0  0  0  0  0  0  0  0  0  0  0  0
  -15.6420   -2.5942    2.9740 C   0  0  0  0  0  0  0  0  0  0  0  0
  -16.8070   -3.3240    2.9144 C   0  0  0  0  0  0  0  0  0  0  0  0
  -16.8483   -4.5590    3.4905 C   0  0  0  0  0  0  0  0  0  0  0  0
  -15.7283   -5.0642    4.1246 C   0  0  0  0  0  0  0  0  0  0  0  0
  -15.7506  -10.2235    4.9284 C   0  0  0  0  0  0  0  0  0  0  0  0
  -16.8221   -9.2642    4.7884 C   0  0  0  0  0  0  0  0  0  0  0  0
  -17.1695   -8.8521    3.5162 C   0  0  0  0  0  0  0  0  0  0  0  0
  -18.1730   -7.9347    3.3068 C   0  0  0  0  0  0  0  0  0  0  0  0
  -18.8778   -7.3842    4.3493 C   0  0  0  0  0  0  0  0  0  0  0  0
  -18.5547   -7.7760    5.6370 C   0  0  0  0  0  0  0  0  0  0  0  0
  -17.5372   -8.7046    5.8288 C   0  0  0  0  0  0  0  0  0  0  0  0
 26 27  1  0  0  0
 27 28  1  0  0  0
 27  1  1  0  0  0
  1  2  1  0  0  0
  2  3  1  0  0  0
  3  4  2  0  0  0
  3  5  1  0  0  0
  5 29  1  0  0  0
 29 30  1  0  0  0
 30 31  1  0  0  0
 31 32  1  0  0  0
 32 33  1  0  0  0
  5  6  1  0  0  0
  6  7  1  0  0  0
  7  8  2  0  0  0
  7  9  1  0  0  0
  9 36  1  0  0  0
 36 37  1  0  0  0
 37 38  2  0  0  0
 38 39  1  0  0  0
 39 40  2  0  0  0
 40 41  1  0  0  0
 41 42  2  0  0  0
  9 10  1  0  0  0
 10 11  1  0  0  0
 11 12  2  0  0  0
 11 13  1  0  0  0
 13 43  1  0  0  0
 43 44  1  0  0  0
 44 45  2  0  0  0
 45 46  1  0  0  0
 46 47  2  0  0  0
 47 48  1  0  0  0
 48 49  2  0  0  0
 13 14  1  0  0  0
 14 15  1  0  0  0
 15 16  2  0  0  0
 15 17  1  0  0  0
 17 50  1  0  0  0
 50 51  1  0  0  0
 51 52  2  0  0  0
 52 53  1  0  0  0
 53 54  2  0  0  0
 54 55  1  0  0  0
 55 56  2  0  0  0
 17 18  1  0  0  0
 18 19  1  0  0  0
 19 20  2  0  0  0
 19  1  1  0  0  0
 42 37  1  0  0  0
 49 44  1  0  0  0
 56 51  1  0  0  0
  2 21  1  0  0  0
 33 34  1  0  0  0
 33 35  1  0  0  0
  6 22  1  0  0  0
 10 23  1  0  0  0
 14 24  1  0  0  0
 18 25  1  0  0  0
M  END
> <minimizedAffinity>
18.11818

> <CNNscore>
0.4297971129

> <CNNaffinity>
7.4577126503

> <CNN_VS>
3.2053034306

> <CNNaffinity_variance>
0.6236940622

$$$$
[H]c1c([H])c([H])c(C([H])([H])[C@@]2([H])C(=O)N([H])[C@@]([H])(C([H])([H])c3c([H])c([H])c([H])c([H])c3[H])C(=O)N([H])[C@]([H])(C([H])([H])c3c([H])c([H])c([H])c([H])c3[H])C(=O)N([H])[C@@]([H])(C([H])([H])C([H])([H])C([H])([H])C([H])([H])N([H])[H])C(=O)N([H])[C@@]([H])(C([H])(C([H])([H])[H])C([H])([H])[H])C(=O)N2[H])c([H])c1[H]


 56 59  0  0  0  0  0  0  0  0999 V2000
  -10.1820   -6.2030    5.7070 C   0  0  0  0  0  0  0  0  0  0  0  0
  -11.5013   -5.9138    6.2412 N   0  0  0  0  0  0  0  0  0  0  0  0
  -12.6121   -6.8033    6.2931 C   0  0  0  0  0  0  0  0  0  0  0  0
  -13.3149   -6.7280    7.3601 O   0  0  0  0  0  0  0  0  0  0  0  0
  -13.0173   -7.7642    5.2869 C   0  0  0  0  0  0  0  0  0  0  0  0
  -12.9081   -9.1610    5.6601 N   0  0  0  0  0  0  0  0  0  0  0  0
  -12.7790   -9.8021    6.8922 C   0  0  0  0  0  0  0  0  0  0  0  0
  -13.7522  -10.5874    7.2483 O   0  0  0  0  0  0  0  0  0  0  0  0
  -11.6846   -9.7306    7.8730 C   0  0  0  0  0  0  0  0  0  0  0  0
  -10.8381  -10.9439    7.7630 N   0  0  0  0  0  0  0  0  0  0  0  0
   -9.5594  -11.0053    7.1943 C   0  0  0  0  0  0  0  0  0  0  0  0
   -8.6621  -11.5490    7.8917 O   0  0  0  0  0  0  0  0  0  0  0  0
   -9.1760  -10.4960    5.8621 C   0  0  0  0  0  0  0  0  0  0  0  0
   -7.8036  -10.1763    5.6872 N   0  0  0  0  0  0  0  0  0  0  0  0
   -7.1330   -8.9640    5.5062 C   0  0  0  0  0  0  0  0  0  0  0  0
   -6.4422   -8.8286    4.4184 O   0  0  0  0  0  0  0  0  0  0  0  0
   -7.0607   -7.7606    6.3620 C   0  0  0  0  0  0  0  0  0  0  0  0
   -8.2775   -7.3954    7.0372 N   0  0  0  0  0  0  0  0  0  0  0  0
   -9.2436   -6.4467    6.8502 C   0  0  0  0  0  0  0  0  0  0  0  0
   -9.4233   -5.5786    7.8022 O   0  0  0  0  0  0  0  0  0  0  0  0
  -11.6448   -4.9538    6.6292 H   0  0  0  0  0  0  0  0  0  0  0  0
  -12.9496   -9.8254    4.8128 H   0  0  0  0  0  0  0  0  0  0  0  0
  -11.3194  -11.8074    8.1710 H   0  0  0  0  0  0  0  0  0  0  0  0
   -7.1681  -11.0479    5.6948 H   0  0  0  0  0  0  0  0  0  0  0  0
   -8.4400   -8.0433    7.8997 H   0  0  0  0  0  0  0  0  0  0  0  0
   -8.4887   -4.8908    4.3185 C   0  0  0  0  0  0  0  0  0  0  0  0
   -9.8197   -4.9754    4.9202 C   0  0  0  0  0  0  0  0  0  0  0  0
  -10.8621   -4.7541    3.8662 C   0  0  0  0  0  0  0  0  0  0  0  0
  -14.3280   -7.5503    4.5568 C   0  0  0  0  0  0  0  0  0  0  0  0
  -14.8601   -6.2051    4.4163 C   0  0  0  0  0  0  0  0  0  0  0  0
  -16.2859   -5.8964    4.6064 C   0  0  0  0  0  0  0  0  0  0  0  0
  -17.2268   -6.3046    3.5187 C   0  0  0  0  0  0  0  0  0  0  0  0
  -17.8965   -7.5413    3.6690 N   0  0  0  0  0  0  0  0  0  0  0  0
  -18.9282   -7.4639    3.8336 H   0  0  0  0  0  0  0  0  0  0  0  0
  -17.6412   -8.2657    2.9543 H   0  0  0  0  0  0  0  0  0  0  0  0
  -12.0861   -9.5073    9.2900 C   0  0  0  0  0  0  0  0  0  0  0  0
  -12.3401   -8.1664    9.7715 C   0  0  0  0  0  0  0  0  0  0  0  0
  -11.3767   -7.1628    9.7610 C   0  0  0  0  0  0  0  0  0  0  0  0
  -11.6480   -5.8772   10.1780 C   0  0  0  0  0  0  0  0  0  0  0  0
  -12.9048   -5.5361   10.6265 C   0  0  0  0  0  0  0  0  0  0  0  0
  -13.8767   -6.5094   10.6468 C   0  0  0  0  0  0  0  0  0  0  0  0
  -13.5770   -7.7814   10.2257 C   0  0  0  0  0  0  0  0  0  0  0  0
   -9.5280  -11.6636    4.9137 C   0  0  0  0  0  0  0  0  0  0  0  0
   -8.7906  -11.6461    3.6622 C   0  0  0  0  0  0  0  0  0  0  0  0
   -8.2806  -10.5137    3.0685 C   0  0  0  0  0  0  0  0  0  0  0  0
   -7.5999  -10.5699    1.8724 C   0  0  0  0  0  0  0  0  0  0  0  0
   -7.4086  -11.7724    1.2316 C   0  0  0  0  0  0  0  0  0  0  0  0
   -7.9019  -12.9119    1.7945 C   0  0  0  0  0  0  0  0  0  0  0  0
   -8.5848  -12.8506    2.9951 C   0  0  0  0  0  0  0  0  0  0  0  0
   -5.9552   -7.8562    7.3903 C   0  0  0  0  0  0  0  0  0  0  0  0
   -4.6590   -7.3567    6.9925 C   0  0  0  0  0  0  0  0  0  0  0  0
   -3.6521   -8.2708    6.7486 C   0  0  0  0  0  0  0  0  0  0  0  0
   -2.3907   -7.8682    6.3754 C   0  0  0  0  0  0  0  0  0  0  0  0
   -2.0703   -6.5408    6.2269 C   0  0  0  0  0  0  0  0  0  0  0  0
   -3.0567   -5.5989    6.4635 C   0  0  0  0  0  0  0  0  0  0  0  0
   -4.3260   -6.0252    6.8399 C   0  0  0  0  0  0  0  0  0  0  0  0
 26 27  1  0  0  0
 27 28  1  0  0  0
 27  1  1  0  0  0
  1  2  1  0  0  0
  2  3  1  0  0  0
  3  4  2  0  0  0
  3  5  1  0  0  0
  5 29  1  0  0  0
 29 30  1  0  0  0
 30 31  1  0  0  0
 31 32  1  0  0  0
 32 33  1  0  0  0
  5  6  1  0  0  0
  6  7  1  0  0  0
  7  8  2  0  0  0
  7  9  1  0  0  0
  9 36  1  0  0  0
 36 37  1  0  0  0
 37 38  2  0  0  0
 38 39  1  0  0  0
 39 40  2  0  0  0
 40 41  1  0  0  0
 41 42  2  0  0  0
  9 10  1  0  0  0
 10 11  1  0  0  0
 11 12  2  0  0  0
 11 13  1  0  0  0
 13 43  1  0  0  0
 43 44  1  0  0  0
 44 45  2  0  0  0
 45 46  1  0  0  0
 46 47  2  0  0  0
 47 48  1  0  0  0
 48 49  2  0  0  0
 13 14  1  0  0  0
 14 15  1  0  0  0
 15 16  2  0  0  0
 15 17  1  0  0  0
 17 50  1  0  0  0
 50 51  1  0  0  0
 51 52  2  0  0  0
 52 53  1  0  0  0
 53 54  2  0  0  0
 54 55  1  0  0  0
 55 56  2  0  0  0
 17 18  1  0  0  0
 18 19  1  0  0  0
 19 20  2  0  0  0
 19  1  1  0  0  0
 42 37  1  0  0  0
 49 44  1  0  0  0
 56 51  1  0  0  0
  2 21  1  0  0  0
 33 34  1  0  0  0
 33 35  1  0  0  0
  6 22  1  0  0  0
 10 23  1  0  0  0
 14 24  1  0  0  0
 18 25  1  0  0  0
M  END
> <minimizedAffinity>
22.61939

> <CNNscore>
0.4065095484

> <CNNaffinity>
7.6295385361

> <CNN_VS>
3.1014802456

> <CNNaffinity_variance>
0.9927479029

$$$$
[H]c1c([H])c([H])c(C([H])([H])[C@@]2([H])C(=O)N([H])[C@@]([H])(C([H])([H])c3c([H])c([H])c([H])c([H])c3[H])C(=O)N([H])[C@]([H])(C([H])([H])c3c([H])c([H])c([H])c([H])c3[H])C(=O)N([H])[C@@]([H])(C([H])([H])C([H])([H])C([H])([H])C([H])([H])N([H])[H])C(=O)N([H])[C@@]([H])(C([H])(C([H])([H])[H])C([H])([H])[H])C(=O)N2[H])c([H])c1[H]


 56 59  0  0  0  0  0  0  0  0999 V2000
   -9.7256  -10.5963    7.0945 C   0  0  0  0  0  0  0  0  0  0  0  0
  -11.0847  -10.8778    6.6668 N   0  0  0  0  0  0  0  0  0  0  0  0
  -12.2758  -10.2806    7.1690 C   0  0  0  0  0  0  0  0  0  0  0  0
  -13.1677  -10.0291    6.2862 O   0  0  0  0  0  0  0  0  0  0  0  0
  -12.5738   -9.9339    8.5442 C   0  0  0  0  0  0  0  0  0  0  0  0
  -12.7006   -8.5182    8.8306 N   0  0  0  0  0  0  0  0  0  0  0  0
  -12.8976   -7.4036    8.0154 C   0  0  0  0  0  0  0  0  0  0  0  0
  -14.0049   -6.7434    8.1839 O   0  0  0  0  0  0  0  0  0  0  0  0
  -12.0242   -6.8420    6.9729 C   0  0  0  0  0  0  0  0  0  0  0  0
  -11.3152   -5.6529    7.5056 N   0  0  0  0  0  0  0  0  0  0  0  0
   -9.9629   -5.5954    7.8663 C   0  0  0  0  0  0  0  0  0  0  0  0
   -9.2930   -4.6469    7.3776 O   0  0  0  0  0  0  0  0  0  0  0  0
   -9.2620   -6.5378    8.7617 C   0  0  0  0  0  0  0  0  0  0  0  0
   -7.8555   -6.6328    8.5905 N   0  0  0  0  0  0  0  0  0  0  0  0
   -7.0300   -7.6546    8.1146 C   0  0  0  0  0  0  0  0  0  0  0  0
   -6.1219   -8.1038    8.9224 O   0  0  0  0  0  0  0  0  0  0  0  0
   -6.9980   -8.3433    6.8068 C   0  0  0  0  0  0  0  0  0  0  0  0
   -8.2776   -8.6128    6.2069 N   0  0  0  0  0  0  0  0  0  0  0  0
   -9.0725   -9.7166    6.0715 C   0  0  0  0  0  0  0  0  0  0  0  0
   -9.3429  -10.1158    4.8633 O   0  0  0  0  0  0  0  0  0  0  0  0
  -11.1950  -11.5906    5.9102 H   0  0  0  0  0  0  0  0  0  0  0  0
  -12.6436   -8.2972    9.8837 H   0  0  0  0  0  0  0  0  0  0  0  0
  -11.9635   -4.8073    7.5987 H   0  0  0  0  0  0  0  0  0  0  0  0
   -7.3371   -5.7366    8.8931 H   0  0  0  0  0  0  0  0  0  0  0  0
   -8.6838   -7.7046    5.7594 H   0  0  0  0  0  0  0  0  0  0  0  0
   -9.1444  -12.8442    6.0332 C   0  0  0  0  0  0  0  0  0  0  0  0
   -9.0751  -11.9475    7.1872 C   0  0  0  0  0  0  0  0  0  0  0  0
   -7.6447  -11.7660    7.5967 C   0  0  0  0  0  0  0  0  0  0  0  0
  -13.6762  -10.6832    9.2652 C   0  0  0  0  0  0  0  0  0  0  0  0
  -14.1484  -10.2014   10.5526 C   0  0  0  0  0  0  0  0  0  0  0  0
  -13.2321   -9.7383   11.6064 C   0  0  0  0  0  0  0  0  0  0  0  0
  -13.3758  -10.3563   12.9601 C   0  0  0  0  0  0  0  0  0  0  0  0
  -12.5485  -11.4637   13.2598 N   0  0  0  0  0  0  0  0  0  0  0  0
  -11.8141  -11.2789   13.9836 H   0  0  0  0  0  0  0  0  0  0  0  0
  -13.0634  -12.3657   13.4087 H   0  0  0  0  0  0  0  0  0  0  0  0
  -12.6775   -6.5156    5.6745 C   0  0  0  0  0  0  0  0  0  0  0  0
  -14.0977   -6.7326    5.4999 C   0  0  0  0  0  0  0  0  0  0  0  0
  -15.0338   -5.7052    5.5604 C   0  0  0  0  0  0  0  0  0  0  0  0
  -16.3781   -5.9202    5.3437 C   0  0  0  0  0  0  0  0  0  0  0  0
  -16.8486   -7.1818    5.0540 C   0  0  0  0  0  0  0  0  0  0  0  0
  -15.9442   -8.2162    4.9875 C   0  0  0  0  0  0  0  0  0  0  0  0
  -14.6112   -7.9718    5.2083 C   0  0  0  0  0  0  0  0  0  0  0  0
   -9.5432   -5.9735   10.1720 C   0  0  0  0  0  0  0  0  0  0  0  0
  -10.9429   -5.6691   10.4141 C   0  0  0  0  0  0  0  0  0  0  0  0
  -11.8445   -6.5337   10.9923 C   0  0  0  0  0  0  0  0  0  0  0  0
  -13.1627   -6.1818   11.1815 C   0  0  0  0  0  0  0  0  0  0  0  0
  -13.6191   -4.9429   10.7940 C   0  0  0  0  0  0  0  0  0  0  0  0
  -12.7502   -4.0641   10.2183 C   0  0  0  0  0  0  0  0  0  0  0  0
  -11.4279   -4.4219   10.0302 C   0  0  0  0  0  0  0  0  0  0  0  0
   -6.1424   -7.6116    5.7963 C   0  0  0  0  0  0  0  0  0  0  0  0
   -4.8171   -7.2309    6.2282 C   0  0  0  0  0  0  0  0  0  0  0  0
   -4.5118   -5.8850    6.2945 C   0  0  0  0  0  0  0  0  0  0  0  0
   -3.2679   -5.4486    6.6878 C   0  0  0  0  0  0  0  0  0  0  0  0
   -2.2701   -6.3270    7.0336 C   0  0  0  0  0  0  0  0  0  0  0  0
   -2.5433   -7.6829    6.9782 C   0  0  0  0  0  0  0  0  0  0  0  0
   -3.8069   -8.1048    6.5782 C   0  0  0  0  0  0  0  0  0  0  0  0
 26 27  1  0  0  0
 27 28  1  0  0  0
 27  1  1  0  0  0
  1  2  1  0  0  0
  2  3  1  0  0  0
  3  4  2  0  0  0
  3  5  1  0  0  0
  5 29  1  0  0  0
 29 30  1  0  0  0
 30 31  1  0  0  0
 31 32  1  0  0  0
 32 33  1  0  0  0
  5  6  1  0  0  0
  6  7  1  0  0  0
  7  8  2  0  0  0
  7  9  1  0  0  0
  9 36  1  0  0  0
 36 37  1  0  0  0
 37 38  2  0  0  0
 38 39  1  0  0  0
 39 40  2  0  0  0
 40 41  1  0  0  0
 41 42  2  0  0  0
  9 10  1  0  0  0
 10 11  1  0  0  0
 11 12  2  0  0  0
 11 13  1  0  0  0
 13 43  1  0  0  0
 43 44  1  0  0  0
 44 45  2  0  0  0
 45 46  1  0  0  0
 46 47  2  0  0  0
 47 48  1  0  0  0
 48 49  2  0  0  0
 13 14  1  0  0  0
 14 15  1  0  0  0
 15 16  2  0  0  0
 15 17  1  0  0  0
 17 50  1  0  0  0
 50 51  1  0  0  0
 51 52  2  0  0  0
 52 53  1  0  0  0
 53 54  2  0  0  0
 54 55  1  0  0  0
 55 56  2  0  0  0
 17 18  1  0  0  0
 18 19  1  0  0  0
 19 20  2  0  0  0
 19  1  1  0  0  0
 42 37  1  0  0  0
 49 44  1  0  0  0
 56 51  1  0  0  0
  2 21  1  0  0  0
 33 34  1  0  0  0
 33 35  1  0  0  0
  6 22  1  0  0  0
 10 23  1  0  0  0
 14 24  1  0  0  0
 18 25  1  0  0  0
M  END
> <minimizedAffinity>
22.04201

> <CNNscore>
0.4037753642

> <CNNaffinity>
7.1253404617

> <CNN_VS>
2.8770370483

> <CNNaffinity_variance>
0.4605932236

$$$$
[H]c1c([H])c([H])c(C([H])([H])[C@@]2([H])C(=O)N([H])[C@@]([H])(C([H])([H])c3c([H])c([H])c([H])c([H])c3[H])C(=O)N([H])[C@]([H])(C([H])([H])c3c([H])c([H])c([H])c([H])c3[H])C(=O)N([H])[C@@]([H])(C([H])([H])C([H])([H])C([H])([H])C([H])([H])N([H])[H])C(=O)N([H])[C@@]([H])(C([H])(C([H])([H])[H])C([H])([H])[H])C(=O)N2[H])c([H])c1[H]


 56 59  0  0  0  0  0  0  0  0999 V2000
   -5.5869   -8.6345    7.3028 C   0  0  0  0  0  0  0  0  0  0  0  0
   -4.6323   -8.9219    8.3590 N   0  0  0  0  0  0  0  0  0  0  0  0
   -3.3098   -8.4070    8.4741 C   0  0  0  0  0  0  0  0  0  0  0  0
   -2.9472   -8.1105    9.6652 O   0  0  0  0  0  0  0  0  0  0  0  0
   -2.3556   -8.1867    7.4058 C   0  0  0  0  0  0  0  0  0  0  0  0
   -2.0080   -6.8048    7.1377 N   0  0  0  0  0  0  0  0  0  0  0  0
   -2.1578   -5.6324    7.8785 C   0  0  0  0  0  0  0  0  0  0  0  0
   -1.0666   -5.0240    8.2386 O   0  0  0  0  0  0  0  0  0  0  0  0
   -3.3878   -4.9579    8.3223 C   0  0  0  0  0  0  0  0  0  0  0  0
   -3.6630   -3.7959    7.4421 N   0  0  0  0  0  0  0  0  0  0  0  0
   -4.6598   -3.7262    6.4603 C   0  0  0  0  0  0  0  0  0  0  0  0
   -5.4159   -2.7193    6.5007 O   0  0  0  0  0  0  0  0  0  0  0  0
   -4.8975   -4.7180    5.3921 C   0  0  0  0  0  0  0  0  0  0  0  0
   -6.2114   -4.7537    4.8547 N   0  0  0  0  0  0  0  0  0  0  0  0
   -7.2322   -5.7053    4.9210 C   0  0  0  0  0  0  0  0  0  0  0  0
   -7.6591   -6.1919    3.7986 O   0  0  0  0  0  0  0  0  0  0  0  0
   -7.9456   -6.2803    6.0813 C   0  0  0  0  0  0  0  0  0  0  0  0
   -7.1435   -6.5387    7.2474 N   0  0  0  0  0  0  0  0  0  0  0  0
   -6.5939   -7.6518    7.8196 C   0  0  0  0  0  0  0  0  0  0  0  0
   -6.9756   -7.9564    9.0254 O   0  0  0  0  0  0  0  0  0  0  0  0
   -4.9546   -9.5718    9.1118 H   0  0  0  0  0  0  0  0  0  0  0  0
   -1.5285   -6.6714    6.1820 H   0  0  0  0  0  0  0  0  0  0  0  0
   -2.9954   -2.9820    7.6313 H   0  0  0  0  0  0  0  0  0  0  0  0
   -6.4532   -3.8702    4.2851 H   0  0  0  0  0  0  0  0  0  0  0  0
   -6.9459   -5.6094    7.7835 H   0  0  0  0  0  0  0  0  0  0  0  0
   -6.8546  -10.7203    8.0510 C   0  0  0  0  0  0  0  0  0  0  0  0
   -6.2006   -9.9675    6.9804 C   0  0  0  0  0  0  0  0  0  0  0  0
   -7.1516   -9.7951    5.8347 C   0  0  0  0  0  0  0  0  0  0  0  0
   -1.0960   -9.0284    7.3649 C   0  0  0  0  0  0  0  0  0  0  0  0
   -1.1993  -10.4664    7.1810 C   0  0  0  0  0  0  0  0  0  0  0  0
   -1.0602  -11.4167    8.2956 C   0  0  0  0  0  0  0  0  0  0  0  0
   -1.4213  -12.8428    8.0297 C   0  0  0  0  0  0  0  0  0  0  0  0
   -2.6883  -13.2861    8.4753 N   0  0  0  0  0  0  0  0  0  0  0  0
   -3.3704  -13.5038    7.7105 H   0  0  0  0  0  0  0  0  0  0  0  0
   -2.6554  -14.0185    9.2259 H   0  0  0  0  0  0  0  0  0  0  0  0
   -3.4305   -4.5443    9.7527 C   0  0  0  0  0  0  0  0  0  0  0  0
   -2.6578   -3.4073   10.2047 C   0  0  0  0  0  0  0  0  0  0  0  0
   -2.2630   -2.3755    9.3590 C   0  0  0  0  0  0  0  0  0  0  0  0
   -1.5688   -1.2750    9.8143 C   0  0  0  0  0  0  0  0  0  0  0  0
   -1.2371   -1.1569   11.1459 C   0  0  0  0  0  0  0  0  0  0  0  0
   -1.6158   -2.1628   12.0043 C   0  0  0  0  0  0  0  0  0  0  0  0
   -2.3062   -3.2472   11.5220 C   0  0  0  0  0  0  0  0  0  0  0  0
   -3.9258   -4.2833    4.2726 C   0  0  0  0  0  0  0  0  0  0  0  0
   -2.9435   -5.2947    3.9225 C   0  0  0  0  0  0  0  0  0  0  0  0
   -2.0021   -5.1619    2.9270 C   0  0  0  0  0  0  0  0  0  0  0  0
   -1.1068   -6.1688    2.6411 C   0  0  0  0  0  0  0  0  0  0  0  0
   -1.1288   -7.3475    3.3508 C   0  0  0  0  0  0  0  0  0  0  0  0
   -2.0496   -7.5094    4.3431 C   0  0  0  0  0  0  0  0  0  0  0  0
   -2.9465   -6.4959    4.6263 C   0  0  0  0  0  0  0  0  0  0  0  0
   -9.1329   -5.4396    6.4962 C   0  0  0  0  0  0  0  0  0  0  0  0
  -10.0401   -6.0316    7.4523 C   0  0  0  0  0  0  0  0  0  0  0  0
  -10.3317   -5.3242    8.6027 C   0  0  0  0  0  0  0  0  0  0  0  0
  -11.1792   -5.8289    9.5616 C   0  0  0  0  0  0  0  0  0  0  0  0
  -11.7764   -7.0581    9.4233 C   0  0  0  0  0  0  0  0  0  0  0  0
  -11.5055   -7.7928    8.2818 C   0  0  0  0  0  0  0  0  0  0  0  0
  -10.6461   -7.2658    7.3235 C   0  0  0  0  0  0  0  0  0  0  0  0
 26 27  1  0  0  0
 27 28  1  0  0  0
 27  1  1  0  0  0
  1  2  1  0  0  0
  2  3  1  0  0  0
  3  4  2  0  0  0
  3  5  1  0  0  0
  5 29  1  0  0  0
 29 30  1  0  0  0
 30 31  1  0  0  0
 31 32  1  0  0  0
 32 33  1  0  0  0
  5  6  1  0  0  0
  6  7  1  0  0  0
  7  8  2  0  0  0
  7  9  1  0  0  0
  9 36  1  0  0  0
 36 37  1  0  0  0
 37 38  2  0  0  0
 38 39  1  0  0  0
 39 40  2  0  0  0
 40 41  1  0  0  0
 41 42  2  0  0  0
  9 10  1  0  0  0
 10 11  1  0  0  0
 11 12  2  0  0  0
 11 13  1  0  0  0
 13 43  1  0  0  0
 43 44  1  0  0  0
 44 45  2  0  0  0
 45 46  1  0  0  0
 46 47  2  0  0  0
 47 48  1  0  0  0
 48 49  2  0  0  0
 13 14  1  0  0  0
 14 15  1  0  0  0
 15 16  2  0  0  0
 15 17  1  0  0  0
 17 50  1  0  0  0
 50 51  1  0  0  0
 51 52  2  0  0  0
 52 53  1  0  0  0
 53 54  2  0  0  0
 54 55  1  0  0  0
 55 56  2  0  0  0
 17 18  1  0  0  0
 18 19  1  0  0  0
 19 20  2  0  0  0
 19  1  1  0  0  0
 42 37  1  0  0  0
 49 44  1  0  0  0
 56 51  1  0  0  0
  2 21  1  0  0  0
 33 34  1  0  0  0
 33 35  1  0  0  0
  6 22  1  0  0  0
 10 23  1  0  0  0
 14 24  1  0  0  0
 18 25  1  0  0  0
M  END
> <minimizedAffinity>
13.41777

> <CNNscore>
0.3990483582

> <CNNaffinity>
6.3743524551

> <CNN_VS>
2.5436749458

> <CNNaffinity_variance>
0.6084470749

$$$$
[H]c1c([H])c([H])c(C([H])([H])[C@@]2([H])C(=O)N([H])[C@@]([H])(C([H])([H])c3c([H])c([H])c([H])c([H])c3[H])C(=O)N([H])[C@]([H])(C([H])([H])c3c([H])c([H])c([H])c([H])c3[H])C(=O)N([H])[C@@]([H])(C([H])([H])C([H])([H])C([H])([H])C([H])([H])N([H])[H])C(=O)N([H])[C@@]([H])(C([H])(C([H])([H])[H])C([H])([H])[H])C(=O)N2[H])c([H])c1[H]


 56 59  0  0  0  0  0  0  0  0999 V2000
   -9.7089   -9.9253    5.9945 C   0  0  0  0  0  0  0  0  0  0  0  0
   -8.4431   -9.5468    6.5974 N   0  0  0  0  0  0  0  0  0  0  0  0
   -7.9460   -8.2240    6.7731 C   0  0  0  0  0  0  0  0  0  0  0  0
   -7.3337   -8.0194    7.8782 O   0  0  0  0  0  0  0  0  0  0  0  0
   -8.0618   -7.1112    5.8520 C   0  0  0  0  0  0  0  0  0  0  0  0
   -8.8809   -6.0001    6.2959 N   0  0  0  0  0  0  0  0  0  0  0  0
   -9.3542   -5.6180    7.5511 C   0  0  0  0  0  0  0  0  0  0  0  0
   -8.9304   -4.4795    8.0148 O   0  0  0  0  0  0  0  0  0  0  0  0
  -10.2846   -6.3165    8.4517 C   0  0  0  0  0  0  0  0  0  0  0  0
  -11.6293   -5.6976    8.3550 N   0  0  0  0  0  0  0  0  0  0  0  0
  -12.7429   -6.2480    7.7073 C   0  0  0  0  0  0  0  0  0  0  0  0
  -13.8111   -6.2956    8.3736 O   0  0  0  0  0  0  0  0  0  0  0  0
  -12.7743   -6.7695    6.3259 C   0  0  0  0  0  0  0  0  0  0  0  0
  -13.7842   -7.7267    6.0428 N   0  0  0  0  0  0  0  0  0  0  0  0
  -13.7346   -9.0918    5.7494 C   0  0  0  0  0  0  0  0  0  0  0  0
  -14.2280   -9.4692    4.6124 O   0  0  0  0  0  0  0  0  0  0  0  0
  -13.2045  -10.2308    6.5289 C   0  0  0  0  0  0  0  0  0  0  0  0
  -11.9916   -9.9811    7.2613 N   0  0  0  0  0  0  0  0  0  0  0  0
  -10.6713  -10.2878    7.0851 C   0  0  0  0  0  0  0  0  0  0  0  0
  -10.0992  -11.0193    7.9961 O   0  0  0  0  0  0  0  0  0  0  0  0
   -7.8393  -10.3288    6.9390 H   0  0  0  0  0  0  0  0  0  0  0  0
   -9.1618   -5.3396    5.4922 H   0  0  0  0  0  0  0  0  0  0  0  0
  -11.6694   -4.7465    8.8423 H   0  0  0  0  0  0  0  0  0  0  0  0
  -14.7762   -7.3032    6.0578 H   0  0  0  0  0  0  0  0  0  0  0  0
  -12.2077   -9.4143    8.1680 H   0  0  0  0  0  0  0  0  0  0  0  0
   -8.3554  -10.9282    4.0763 C   0  0  0  0  0  0  0  0  0  0  0  0
   -9.3698  -11.0969    5.1170 C   0  0  0  0  0  0  0  0  0  0  0  0
   -9.0068  -12.2614    5.9879 C   0  0  0  0  0  0  0  0  0  0  0  0
   -6.8066   -6.5680    5.1993 C   0  0  0  0  0  0  0  0  0  0  0  0
   -5.5155   -6.7944    5.8272 C   0  0  0  0  0  0  0  0  0  0  0  0
   -4.6778   -5.6937    6.3285 C   0  0  0  0  0  0  0  0  0  0  0  0
   -4.3576   -5.6860    7.7888 C   0  0  0  0  0  0  0  0  0  0  0  0
   -5.3891   -6.0582    8.6821 N   0  0  0  0  0  0  0  0  0  0  0  0
   -5.2352   -6.9704    9.1736 H   0  0  0  0  0  0  0  0  0  0  0  0
   -5.7128   -5.2902    9.3194 H   0  0  0  0  0  0  0  0  0  0  0  0
   -9.8650   -6.4208    9.8772 C   0  0  0  0  0  0  0  0  0  0  0  0
  -10.7380   -5.9458   10.9292 C   0  0  0  0  0  0  0  0  0  0  0  0
  -12.0736   -5.6203   10.7157 C   0  0  0  0  0  0  0  0  0  0  0  0
  -12.9053   -5.2155   11.7378 C   0  0  0  0  0  0  0  0  0  0  0  0
  -12.4342   -5.1184   13.0284 C   0  0  0  0  0  0  0  0  0  0  0  0
  -11.1171   -5.4350   13.2677 C   0  0  0  0  0  0  0  0  0  0  0  0
  -10.3123   -5.8349   12.2296 C   0  0  0  0  0  0  0  0  0  0  0  0
  -13.0432   -5.5114    5.4708 C   0  0  0  0  0  0  0  0  0  0  0  0
  -14.4323   -5.3570    5.0742 C   0  0  0  0  0  0  0  0  0  0  0  0
  -14.8849   -4.4542    4.1389 C   0  0  0  0  0  0  0  0  0  0  0  0
  -16.2210   -4.3543    3.8195 C   0  0  0  0  0  0  0  0  0  0  0  0
  -17.1498   -5.1633    4.4329 C   0  0  0  0  0  0  0  0  0  0  0  0
  -16.7326   -6.0677    5.3638 C   0  0  0  0  0  0  0  0  0  0  0  0
  -15.3904   -6.1643    5.6813 C   0  0  0  0  0  0  0  0  0  0  0  0
  -14.2313  -10.7957    7.4856 C   0  0  0  0  0  0  0  0  0  0  0  0
  -14.6205   -9.9476    8.5889 C   0  0  0  0  0  0  0  0  0  0  0  0
  -13.6721   -9.6426    9.5462 C   0  0  0  0  0  0  0  0  0  0  0  0
  -13.9730   -8.8492   10.6289 C   0  0  0  0  0  0  0  0  0  0  0  0
  -15.2282   -8.3219   10.8117 C   0  0  0  0  0  0  0  0  0  0  0  0
  -16.2018   -8.6081    9.8703 C   0  0  0  0  0  0  0  0  0  0  0  0
  -15.8786   -9.4121    8.7824 C   0  0  0  0  0  0  0  0  0  0  0  0
 26 27  1  0  0  0
 27 28  1  0  0  0
 27  1  1  0  0  0
  1  2  1  0  0  0
  2  3  1  0  0  0
  3  4  2  0  0  0
  3  5  1  0  0  0
  5 29  1  0  0  0
 29 30  1  0  0  0
 30 31  1  0  0  0
 31 32  1  0  0  0
 32 33  1  0  0  0
  5  6  1  0  0  0
  6  7  1  0  0  0
  7  8  2  0  0  0
  7  9  1  0  0  0
  9 36  1  0  0  0
 36 37  1  0  0  0
 37 38  2  0  0  0
 38 39  1  0  0  0
 39 40  2  0  0  0
 40 41  1  0  0  0
 41 42  2  0  0  0
  9 10  1  0  0  0
 10 11  1  0  0  0
 11 12  2  0  0  0
 11 13  1  0  0  0
 13 43  1  0  0  0
 43 44  1  0  0  0
 44 45  2  0  0  0
 45 46  1  0  0  0
 46 47  2  0  0  0
 47 48  1  0  0  0
 48 49  2  0  0  0
 13 14  1  0  0  0
 14 15  1  0  0  0
 15 16  2  0  0  0
 15 17  1  0  0  0
 17 50  1  0  0  0
 50 51  1  0  0  0
 51 52  2  0  0  0
 52 53  1  0  0  0
 53 54  2  0  0  0
 54 55  1  0  0  0
 55 56  2  0  0  0
 17 18  1  0  0  0
 18 19  1  0  0  0
 19 20  2  0  0  0
 19  1  1  0  0  0
 42 37  1  0  0  0
 49 44  1  0  0  0
 56 51  1  0  0  0
  2 21  1  0  0  0
 33 34  1  0  0  0
 33 35  1  0  0  0
  6 22  1  0  0  0
 10 23  1  0  0  0
 14 24  1  0  0  0
 18 25  1  0  0  0
M  END
> <minimizedAffinity>
16.28922

> <CNNscore>
0.3962795138

> <CNNaffinity>
7.4421892166

> <CNN_VS>
2.9491870403

> <CNNaffinity_variance>
0.4349244237

$$$$
[H]c1c([H])c([H])c(C([H])([H])[C@@]2([H])C(=O)N([H])[C@@]([H])(C([H])([H])c3c([H])c([H])c([H])c([H])c3[H])C(=O)N([H])[C@]([H])(C([H])([H])c3c([H])c([H])c([H])c([H])c3[H])C(=O)N([H])[C@@]([H])(C([H])([H])C([H])([H])C([H])([H])C([H])([H])N([H])[H])C(=O)N([H])[C@@]([H])(C([H])(C([H])([H])[H])C([H])([H])[H])C(=O)N2[H])c([H])c1[H]


 56 59  0  0  0  0  0  0  0  0999 V2000
   -6.3487   -5.4456    5.5953 C   0  0  0  0  0  0  0  0  0  0  0  0
   -5.3762   -5.0459    4.5935 N   0  0  0  0  0  0  0  0  0  0  0  0
   -4.2386   -4.2138    4.7962 C   0  0  0  0  0  0  0  0  0  0  0  0
   -3.1881   -4.5701    4.1576 O   0  0  0  0  0  0  0  0  0  0  0  0
   -4.1493   -3.0345    5.6336 C   0  0  0  0  0  0  0  0  0  0  0  0
   -3.2770   -3.1376    6.7873 N   0  0  0  0  0  0  0  0  0  0  0  0
   -2.2554   -4.0262    7.1225 C   0  0  0  0  0  0  0  0  0  0  0  0
   -1.0600   -3.5276    7.2370 O   0  0  0  0  0  0  0  0  0  0  0  0
   -2.3220   -5.4736    7.3779 C   0  0  0  0  0  0  0  0  0  0  0  0
   -2.2829   -5.7231    8.8396 N   0  0  0  0  0  0  0  0  0  0  0  0
   -3.3677   -6.1110    9.6366 C   0  0  0  0  0  0  0  0  0  0  0  0
   -3.1867   -7.1124   10.3793 O   0  0  0  0  0  0  0  0  0  0  0  0
   -4.6897   -5.4543    9.6835 C   0  0  0  0  0  0  0  0  0  0  0  0
   -5.7734   -6.2630   10.1170 N   0  0  0  0  0  0  0  0  0  0  0  0
   -6.8938   -6.7725    9.4558 C   0  0  0  0  0  0  0  0  0  0  0  0
   -8.0561   -6.4299    9.9146 O   0  0  0  0  0  0  0  0  0  0  0  0
   -7.0024   -7.6681    8.2845 C   0  0  0  0  0  0  0  0  0  0  0  0
   -6.0400   -7.4526    7.2371 N   0  0  0  0  0  0  0  0  0  0  0  0
   -6.0622   -6.8584    6.0062 C   0  0  0  0  0  0  0  0  0  0  0  0
   -5.7925   -7.6048    4.9754 O   0  0  0  0  0  0  0  0  0  0  0  0
   -5.5293   -5.4113    3.6261 H   0  0  0  0  0  0  0  0  0  0  0  0
   -3.4522   -2.3627    7.5153 H   0  0  0  0  0  0  0  0  0  0  0  0
   -1.3069   -5.5659    9.2477 H   0  0  0  0  0  0  0  0  0  0  0  0
   -5.7071   -6.5244   11.1614 H   0  0  0  0  0  0  0  0  0  0  0  0
   -5.0750   -7.8771    7.5176 H   0  0  0  0  0  0  0  0  0  0  0  0
   -7.8877   -6.0096    3.6382 C   0  0  0  0  0  0  0  0  0  0  0  0
   -7.6758   -5.3080    4.9044 C   0  0  0  0  0  0  0  0  0  0  0  0
   -8.7616   -5.6757    5.8699 C   0  0  0  0  0  0  0  0  0  0  0  0
   -3.9401   -1.6849    4.9768 C   0  0  0  0  0  0  0  0  0  0  0  0
   -2.6136   -1.0912    4.9631 C   0  0  0  0  0  0  0  0  0  0  0  0
   -1.5587   -1.5372    4.0397 C   0  0  0  0  0  0  0  0  0  0  0  0
   -1.8903   -1.5654    2.5822 C   0  0  0  0  0  0  0  0  0  0  0  0
   -2.0773   -2.8328    1.9829 N   0  0  0  0  0  0  0  0  0  0  0  0
   -3.0618   -3.0378    1.6893 H   0  0  0  0  0  0  0  0  0  0  0  0
   -1.3644   -3.0804    1.2539 H   0  0  0  0  0  0  0  0  0  0  0  0
   -1.3039   -6.3105    6.6834 C   0  0  0  0  0  0  0  0  0  0  0  0
   -1.3108   -7.7486    6.8458 C   0  0  0  0  0  0  0  0  0  0  0  0
   -1.1512   -8.3721    8.0791 C   0  0  0  0  0  0  0  0  0  0  0  0
   -1.2085   -9.7417    8.2247 C   0  0  0  0  0  0  0  0  0  0  0  0
   -1.4305  -10.5540    7.1348 C   0  0  0  0  0  0  0  0  0  0  0  0
   -1.5924   -9.9633    5.9030 C   0  0  0  0  0  0  0  0  0  0  0  0
   -1.5299   -8.5965    5.7887 C   0  0  0  0  0  0  0  0  0  0  0  0
   -4.4916   -4.3161   10.7091 C   0  0  0  0  0  0  0  0  0  0  0  0
   -3.3964   -3.4182   10.3853 C   0  0  0  0  0  0  0  0  0  0  0  0
   -2.0773   -3.6423   10.7082 C   0  0  0  0  0  0  0  0  0  0  0  0
   -1.0901   -2.7399   10.3789 C   0  0  0  0  0  0  0  0  0  0  0  0
   -1.3988   -1.5774    9.7106 C   0  0  0  0  0  0  0  0  0  0  0  0
   -2.6967   -1.3267    9.3769 C   0  0  0  0  0  0  0  0  0  0  0  0
   -3.6843   -2.2354    9.7096 C   0  0  0  0  0  0  0  0  0  0  0  0
   -6.9617   -9.1287    8.6762 C   0  0  0  0  0  0  0  0  0  0  0  0
   -7.8583  -10.0122    7.9668 C   0  0  0  0  0  0  0  0  0  0  0  0
   -9.1039   -9.5323    7.6104 C   0  0  0  0  0  0  0  0  0  0  0  0
  -10.0132  -10.3190    6.9420 C   0  0  0  0  0  0  0  0  0  0  0  0
   -9.7286  -11.6177    6.5965 C   0  0  0  0  0  0  0  0  0  0  0  0
   -8.4889  -12.1294    6.9388 C   0  0  0  0  0  0  0  0  0  0  0  0
   -7.5828  -11.3187    7.6143 C   0  0  0  0  0  0  0  0  0  0  0  0
 26 27  1  0  0  0
 27 28  1  0  0  0
 27  1  1  0  0  0
  1  2  1  0  0  0
  2  3  1  0  0  0
  3  4  2  0  0  0
  3  5  1  0  0  0
  5 29  1  0  0  0
 29 30  1  0  0  0
 30 31  1  0  0  0
 31 32  1  0  0  0
 32 33  1  0  0  0
  5  6  1  0  0  0
  6  7  1  0  0  0
  7  8  2  0  0  0
  7  9  1  0  0  0
  9 36  1  0  0  0
 36 37  1  0  0  0
 37 38  2  0  0  0
 38 39  1  0  0  0
 39 40  2  0  0  0
 40 41  1  0  0  0
 41 42  2  0  0  0
  9 10  1  0  0  0
 10 11  1  0  0  0
 11 12  2  0  0  0
 11 13  1  0  0  0
 13 43  1  0  0  0
 43 44  1  0  0  0
 44 45  2  0  0  0
 45 46  1  0  0  0
 46 47  2  0  0  0
 47 48  1  0  0  0
 48 49  2  0  0  0
 13 14  1  0  0  0
 14 15  1  0  0  0
 15 16  2  0  0  0
 15 17  1  0  0  0
 17 50  1  0  0  0
 50 51  1  0  0  0
 51 52  2  0  0  0
 52 53  1  0  0  0
 53 54  2  0  0  0
 54 55  1  0  0  0
 55 56  2  0  0  0
 17 18  1  0  0  0
 18 19  1  0  0  0
 19 20  2  0  0  0
 19  1  1  0  0  0
 42 37  1  0  0  0
 49 44  1  0  0  0
 56 51  1  0  0  0
  2 21  1  0  0  0
 33 34  1  0  0  0
 33 35  1  0  0  0
  6 22  1  0  0  0
 10 23  1  0  0  0
 14 24  1  0  0  0
 18 25  1  0  0  0
M  END
> <minimizedAffinity>
9.43161

> <CNNscore>
0.3878945708

> <CNNaffinity>
6.1368718147

> <CNN_VS>
2.3804593086

> <CNNaffinity_variance>
0.5847085714

$$$$
[H]c1c([H])c([H])c(C([H])([H])[C@@]2([H])C(=O)N([H])[C@@]([H])(C([H])([H])c3c([H])c([H])c([H])c([H])c3[H])C(=O)N([H])[C@]([H])(C([H])([H])c3c([H])c([H])c([H])c([H])c3[H])C(=O)N([H])[C@@]([H])(C([H])([H])C([H])([H])C([H])([H])C([H])([H])N([H])[H])C(=O)N([H])[C@@]([H])(C([H])(C([H])([H])[H])C([H])([H])[H])C(=O)N2[H])c([H])c1[H]


 56 59  0  0  0  0  0  0  0  0999 V2000
   -6.3870   -5.4441    5.5311 C   0  0  0  0  0  0  0  0  0  0  0  0
   -5.4324   -5.0541    4.5084 N   0  0  0  0  0  0  0  0  0  0  0  0
   -4.2878   -4.2255    4.6842 C   0  0  0  0  0  0  0  0  0  0  0  0
   -3.2513   -4.5897    4.0276 O   0  0  0  0  0  0  0  0  0  0  0  0
   -4.1778   -3.0417    5.5128 C   0  0  0  0  0  0  0  0  0  0  0  0
   -3.2838   -3.1415    6.6500 N   0  0  0  0  0  0  0  0  0  0  0  0
   -2.2594   -4.0323    6.9707 C   0  0  0  0  0  0  0  0  0  0  0  0
   -1.0601   -3.5379    7.0593 O   0  0  0  0  0  0  0  0  0  0  0  0
   -2.3267   -5.4779    7.2359 C   0  0  0  0  0  0  0  0  0  0  0  0
   -2.2605   -5.7190    8.6981 N   0  0  0  0  0  0  0  0  0  0  0  0
   -3.3312   -6.0979    9.5180 C   0  0  0  0  0  0  0  0  0  0  0  0
   -3.1399   -7.0957   10.2631 O   0  0  0  0  0  0  0  0  0  0  0  0
   -4.6495   -5.4356    9.5865 C   0  0  0  0  0  0  0  0  0  0  0  0
   -5.7278   -6.2373   10.0456 N   0  0  0  0  0  0  0  0  0  0  0  0
   -6.8627   -6.7461    9.4091 C   0  0  0  0  0  0  0  0  0  0  0  0
   -8.0146   -6.3962    9.8882 O   0  0  0  0  0  0  0  0  0  0  0  0
   -6.9974   -7.6481    8.2454 C   0  0  0  0  0  0  0  0  0  0  0  0
   -6.0545   -7.4427    7.1784 N   0  0  0  0  0  0  0  0  0  0  0  0
   -6.0982   -6.8556    5.9447 C   0  0  0  0  0  0  0  0  0  0  0  0
   -5.8513   -7.6090    4.9134 O   0  0  0  0  0  0  0  0  0  0  0  0
   -5.6056   -5.4246    3.5463 H   0  0  0  0  0  0  0  0  0  0  0  0
   -3.4419   -2.3618    7.3767 H   0  0  0  0  0  0  0  0  0  0  0  0
   -1.2762   -5.5634    9.0864 H   0  0  0  0  0  0  0  0  0  0  0  0
   -5.6424   -6.4929   11.0900 H   0  0  0  0  0  0  0  0  0  0  0  0
   -5.0860   -7.8694    7.4428 H   0  0  0  0  0  0  0  0  0  0  0  0
   -7.9636   -6.0086    3.6043 C   0  0  0  0  0  0  0  0  0  0  0  0
   -7.7266   -5.3051    4.8650 C   0  0  0  0  0  0  0  0  0  0  0  0
   -8.7947   -5.6689    5.8515 C   0  0  0  0  0  0  0  0  0  0  0  0
   -3.9760   -1.6967    4.8441 C   0  0  0  0  0  0  0  0  0  0  0  0
   -2.6340   -1.1541    4.7138 C   0  0  0  0  0  0  0  0  0  0  0  0
   -1.7751   -1.4424    3.5547 C   0  0  0  0  0  0  0  0  0  0  0  0
   -2.4373   -1.5396    2.2179 C   0  0  0  0  0  0  0  0  0  0  0  0
   -2.6437   -2.8345    1.6877 N   0  0  0  0  0  0  0  0  0  0  0  0
   -3.6467   -3.1328    1.6377 H   0  0  0  0  0  0  0  0  0  0  0  0
   -2.1035   -3.0388    0.8118 H   0  0  0  0  0  0  0  0  0  0  0  0
   -1.3256   -6.3230    6.5269 C   0  0  0  0  0  0  0  0  0  0  0  0
   -1.3859   -7.7651    6.6320 C   0  0  0  0  0  0  0  0  0  0  0  0
   -1.6928   -8.5908    5.5552 C   0  0  0  0  0  0  0  0  0  0  0  0
   -1.6987   -9.9653    5.6596 C   0  0  0  0  0  0  0  0  0  0  0  0
   -1.3948  -10.5791    6.8545 C   0  0  0  0  0  0  0  0  0  0  0  0
   -1.0870   -9.7861    7.9356 C   0  0  0  0  0  0  0  0  0  0  0  0
   -1.0895   -8.4197    7.8017 C   0  0  0  0  0  0  0  0  0  0  0  0
   -4.4272   -4.2922   10.6013 C   0  0  0  0  0  0  0  0  0  0  0  0
   -3.8570   -4.7303   11.8637 C   0  0  0  0  0  0  0  0  0  0  0  0
   -4.5477   -5.4077   12.8428 C   0  0  0  0  0  0  0  0  0  0  0  0
   -3.9451   -5.7832   14.0231 C   0  0  0  0  0  0  0  0  0  0  0  0
   -2.6216   -5.4886   14.2580 C   0  0  0  0  0  0  0  0  0  0  0  0
   -1.9105   -4.8184   13.3072 C   0  0  0  0  0  0  0  0  0  0  0  0
   -2.5198   -4.4434   12.1241 C   0  0  0  0  0  0  0  0  0  0  0  0
   -6.9549   -9.1066    8.6449 C   0  0  0  0  0  0  0  0  0  0  0  0
   -7.8561   -9.9936    7.9458 C   0  0  0  0  0  0  0  0  0  0  0  0
   -9.1041   -9.5155    7.5953 C   0  0  0  0  0  0  0  0  0  0  0  0
  -10.0177  -10.3056    6.9368 C   0  0  0  0  0  0  0  0  0  0  0  0
   -9.7352  -11.6059    6.5957 C   0  0  0  0  0  0  0  0  0  0  0  0
   -8.4932  -12.1159    6.9323 C   0  0  0  0  0  0  0  0  0  0  0  0
   -7.5828  -11.3018    7.5979 C   0  0  0  0  0  0  0  0  0  0  0  0
 26 27  1  0  0  0
 27 28  1  0  0  0
 27  1  1  0  0  0
  1  2  1  0  0  0
  2  3  1  0  0  0
  3  4  2  0  0  0
  3  5  1  0  0  0
  5 29  1  0  0  0
 29 30  1  0  0  0
 30 31  1  0  0  0
 31 32  1  0  0  0
 32 33  1  0  0  0
  5  6  1  0  0  0
  6  7  1  0  0  0
  7  8  2  0  0  0
  7  9  1  0  0  0
  9 36  1  0  0  0
 36 37  1  0  0  0
 37 38  2  0  0  0
 38 39  1  0  0  0
 39 40  2  0  0  0
 40 41  1  0  0  0
 41 42  2  0  0  0
  9 10  1  0  0  0
 10 11  1  0  0  0
 11 12  2  0  0  0
 11 13  1  0  0  0
 13 43  1  0  0  0
 43 44  1  0  0  0
 44 45  2  0  0  0
 45 46  1  0  0  0
 46 47  2  0  0  0
 47 48  1  0  0  0
 48 49  2  0  0  0
 13 14  1  0  0  0
 14 15  1  0  0  0
 15 16  2  0  0  0
 15 17  1  0  0  0
 17 50  1  0  0  0
 50 51  1  0  0  0
 51 52  2  0  0  0
 52 53  1  0  0  0
 53 54  2  0  0  0
 54 55  1  0  0  0
 55 56  2  0  0  0
 17 18  1  0  0  0
 18 19  1  0  0  0
 19 20  2  0  0  0
 19  1  1  0  0  0
 42 37  1  0  0  0
 49 44  1  0  0  0
 56 51  1  0  0  0
  2 21  1  0  0  0
 33 34  1  0  0  0
 33 35  1  0  0  0
  6 22  1  0  0  0
 10 23  1  0  0  0
 14 24  1  0  0  0
 18 25  1  0  0  0
M  END
> <minimizedAffinity>
9.13903

> <CNNscore>
0.3829137385

> <CNNaffinity>
6.2605710030

> <CNN_VS>
2.3972587585

> <CNNaffinity_variance>
0.6235153675

$$$$
[H]c1nc(F)c([H])c([H])c1Oc1c([H])c([H])c(C(F)(F)F)c([H])c1C(=O)N([H])c1c([H])c([H])n([H])c(=O)c1[H]


 30 32  0  0  0  0  0  0  0  0999 V2000
  -17.0786   -7.3382    5.3567 C   0  0  0  0  0  0  0  0  0  0  0  0
  -16.5540   -6.2668    4.6133 C   0  0  0  0  0  0  0  0  0  0  0  0
  -17.3597   -5.2191    4.2550 C   0  0  0  0  0  0  0  0  0  0  0  0
  -18.6695   -5.2659    4.6468 C   0  0  0  0  0  0  0  0  0  0  0  0
  -19.1762   -6.3152    5.3678 C   0  0  0  0  0  0  0  0  0  0  0  0
  -18.3758   -7.4233    5.7562 C   0  0  0  0  0  0  0  0  0  0  0  0
  -19.0797   -8.5404    6.3386 C   0  0  0  0  0  0  0  0  0  0  0  0
  -18.8303   -8.7806    7.5639 O   0  0  0  0  0  0  0  0  0  0  0  0
  -20.0062   -9.4239    5.7447 N   0  0  0  0  0  0  0  0  0  0  0  0
  -20.3281   -9.2359    4.7660 H   0  0  0  0  0  0  0  0  0  0  0  0
  -20.5957  -10.5221    6.4169 C   0  0  0  0  0  0  0  0  0  0  0  0
  -21.0853  -11.6079    5.6768 C   0  0  0  0  0  0  0  0  0  0  0  0
  -21.6295  -12.7065    6.3057 C   0  0  0  0  0  0  0  0  0  0  0  0
  -21.6793  -12.7132    7.6242 N   0  0  0  0  0  0  0  0  0  0  0  0
  -21.2298  -11.7114    8.3869 C   0  0  0  0  0  0  0  0  0  0  0  0
  -21.3025  -11.7704    9.6347 O   0  0  0  0  0  0  0  0  0  0  0  0
  -20.6698  -10.5815    7.7720 C   0  0  0  0  0  0  0  0  0  0  0  0
  -22.1084  -13.5631    8.0855 H   0  0  0  0  0  0  0  0  0  0  0  0
  -19.5394   -4.1094    4.2914 C   0  0  0  0  0  0  0  0  0  0  0  0
  -20.8570   -4.4939    4.1678 F   0  0  0  0  0  0  0  0  0  0  0  0
  -19.0941   -3.3835    3.2371 F   0  0  0  0  0  0  0  0  0  0  0  0
  -19.5262   -3.2563    5.4100 F   0  0  0  0  0  0  0  0  0  0  0  0
  -16.1801   -8.3589    5.7005 O   0  0  0  0  0  0  0  0  0  0  0  0
  -12.3976   -9.8727    1.9571 F   0  0  0  0  0  0  0  0  0  0  0  0
  -13.3511   -9.4980    2.8487 C   0  0  0  0  0  0  0  0  0  0  0  0
  -14.6433   -9.2163    2.4344 C   0  0  0  0  0  0  0  0  0  0  0  0
  -15.5773   -8.8387    3.4101 C   0  0  0  0  0  0  0  0  0  0  0  0
  -15.2296   -8.7503    4.7260 C   0  0  0  0  0  0  0  0  0  0  0  0
  -13.9323   -9.0416    5.0862 C   0  0  0  0  0  0  0  0  0  0  0  0
  -13.0190   -9.4088    4.1439 N   0  0  0  0  0  0  0  0  0  0  0  0
 24 25  1  0  0  0
 25 26  2  0  0  0
 26 27  1  0  0  0
 27 28  2  0  0  0
 28 23  1  0  0  0
 23  1  1  0  0  0
  1  2  2  0  0  0
  2  3  1  0  0  0
  3  4  2  0  0  0
  4  5  1  0  0  0
  5  6  2  0  0  0
  6  7  1  0  0  0
  7  8  2  0  0  0
  7  9  1  0  0  0
  9 11  1  0  0  0
 11 12  1  0  0  0
 12 13  2  0  0  0
 13 14  1  0  0  0
 14 15  1  0  0  0
 15 16  2  0  0  0
 15 17  1  0  0  0
  4 19  1  0  0  0
 19 20  1  0  0  0
 19 21  1  0  0  0
 19 22  1  0  0  0
 28 29  1  0  0  0
 29 30  2  0  0  0
 30 25  1  0  0  0
  6  1  1  0  0  0
 17 11  2  0  0  0
  9 10  1  0  0  0
 14 18  1  0  0  0
M  END
> <minimizedAffinity>
12.76784

> <CNNscore>
0.5362875462

> <CNNaffinity>
6.4309740067

> <CNN_VS>
3.4488513470

> <CNNaffinity_variance>
1.2040578127

$$$$
[H]c1nc(F)c([H])c([H])c1Oc1c([H])c([H])c(C(F)(F)F)c([H])c1C(=O)N([H])c1c([H])c([H])n([H])c(=O)c1[H]


 30 32  0  0  0  0  0  0  0  0999 V2000
  -11.9885   -6.8750    7.9530 C   0  0  0  0  0  0  0  0  0  0  0  0
  -13.3068   -6.6679    8.3948 C   0  0  0  0  0  0  0  0  0  0  0  0
  -13.5410   -6.0325    9.5849 C   0  0  0  0  0  0  0  0  0  0  0  0
  -12.4543   -5.6192   10.3057 C   0  0  0  0  0  0  0  0  0  0  0  0
  -11.1714   -5.8277    9.8719 C   0  0  0  0  0  0  0  0  0  0  0  0
  -10.8847   -6.4862    8.6457 C   0  0  0  0  0  0  0  0  0  0  0  0
   -9.4982   -6.8094    8.4090 C   0  0  0  0  0  0  0  0  0  0  0  0
   -9.0241   -7.7723    9.0940 O   0  0  0  0  0  0  0  0  0  0  0  0
   -8.5747   -6.2050    7.5296 N   0  0  0  0  0  0  0  0  0  0  0  0
   -8.9141   -5.4657    6.8700 H   0  0  0  0  0  0  0  0  0  0  0  0
   -7.2151   -6.5868    7.4247 C   0  0  0  0  0  0  0  0  0  0  0  0
   -6.2705   -6.0415    8.3060 C   0  0  0  0  0  0  0  0  0  0  0  0
   -4.9474   -6.4228    8.2518 C   0  0  0  0  0  0  0  0  0  0  0  0
   -4.5890   -7.3158    7.3489 N   0  0  0  0  0  0  0  0  0  0  0  0
   -5.4396   -7.8734    6.4813 C   0  0  0  0  0  0  0  0  0  0  0  0
   -5.0447   -8.7159    5.6446 O   0  0  0  0  0  0  0  0  0  0  0  0
   -6.7926   -7.5037    6.5157 C   0  0  0  0  0  0  0  0  0  0  0  0
   -3.5671   -7.5877    7.3200 H   0  0  0  0  0  0  0  0  0  0  0  0
  -12.7066   -4.8935   11.5825 C   0  0  0  0  0  0  0  0  0  0  0  0
  -12.6854   -3.5284   11.3947 F   0  0  0  0  0  0  0  0  0  0  0  0
  -11.9306   -5.3023   12.6158 F   0  0  0  0  0  0  0  0  0  0  0  0
  -14.0387   -5.1788   11.9339 F   0  0  0  0  0  0  0  0  0  0  0  0
  -11.8384   -7.5137    6.7133 O   0  0  0  0  0  0  0  0  0  0  0  0
   -9.3936  -12.4765    6.6370 F   0  0  0  0  0  0  0  0  0  0  0  0
  -10.0258  -11.2748    6.6642 C   0  0  0  0  0  0  0  0  0  0  0  0
  -11.3769  -11.1866    6.9606 C   0  0  0  0  0  0  0  0  0  0  0  0
  -11.9636   -9.9128    6.9743 C   0  0  0  0  0  0  0  0  0  0  0  0
  -11.2318   -8.7936    6.7052 C   0  0  0  0  0  0  0  0  0  0  0  0
   -9.8922   -8.9352    6.4172 C   0  0  0  0  0  0  0  0  0  0  0  0
   -9.3150  -10.1696    6.4017 N   0  0  0  0  0  0  0  0  0  0  0  0
 24 25  1  0  0  0
 25 26  2  0  0  0
 26 27  1  0  0  0
 27 28  2  0  0  0
 28 23  1  0  0  0
 23  1  1  0  0  0
  1  2  2  0  0  0
  2  3  1  0  0  0
  3  4  2  0  0  0
  4  5  1  0  0  0
  5  6  2  0  0  0
  6  7  1  0  0  0
  7  8  2  0  0  0
  7  9  1  0  0  0
  9 11  1  0  0  0
 11 12  1  0  0  0
 12 13  2  0  0  0
 13 14  1  0  0  0
 14 15  1  0  0  0
 15 16  2  0  0  0
 15 17  1  0  0  0
  4 19  1  0  0  0
 19 20  1  0  0  0
 19 21  1  0  0  0
 19 22  1  0  0  0
 28 29  1  0  0  0
 29 30  2  0  0  0
 30 25  1  0  0  0
  6  1  1  0  0  0
 17 11  2  0  0  0
  9 10  1  0  0  0
 14 18  1  0  0  0
M  END
> <minimizedAffinity>
1.73335

> <CNNscore>
0.3747628033

> <CNNaffinity>
6.0332460403

> <CNN_VS>
2.2610361576

> <CNNaffinity_variance>
0.4624393582

$$$$
[H]c1nc(F)c([H])c([H])c1Oc1c([H])c([H])c(C(F)(F)F)c([H])c1C(=O)N([H])c1c([H])c([H])n([H])c(=O)c1[H]


 30 32  0  0  0  0  0  0  0  0999 V2000
   -8.8238   -9.3798    6.9757 C   0  0  0  0  0  0  0  0  0  0  0  0
   -9.6852  -10.3795    6.4917 C   0  0  0  0  0  0  0  0  0  0  0  0
   -9.4781  -10.9246    5.2528 C   0  0  0  0  0  0  0  0  0  0  0  0
   -8.4167  -10.4588    4.5264 C   0  0  0  0  0  0  0  0  0  0  0  0
   -7.5828   -9.4809    5.0019 C   0  0  0  0  0  0  0  0  0  0  0  0
   -7.7648   -8.8863    6.2797 C   0  0  0  0  0  0  0  0  0  0  0  0
   -6.9366   -7.7406    6.5693 C   0  0  0  0  0  0  0  0  0  0  0  0
   -7.5499   -6.6403    6.7547 O   0  0  0  0  0  0  0  0  0  0  0  0
   -5.5316   -7.6526    6.6690 N   0  0  0  0  0  0  0  0  0  0  0  0
   -4.9651   -8.5319    6.6168 H   0  0  0  0  0  0  0  0  0  0  0  0
   -4.8292   -6.4474    6.9121 C   0  0  0  0  0  0  0  0  0  0  0  0
   -4.4641   -6.1084    8.2230 C   0  0  0  0  0  0  0  0  0  0  0  0
   -3.7475   -4.9610    8.4850 C   0  0  0  0  0  0  0  0  0  0  0  0
   -3.4115   -4.1866    7.4709 N   0  0  0  0  0  0  0  0  0  0  0  0
   -3.7278   -4.4532    6.1996 C   0  0  0  0  0  0  0  0  0  0  0  0
   -3.3834   -3.6824    5.2759 O   0  0  0  0  0  0  0  0  0  0  0  0
   -4.4560   -5.6156    5.9051 C   0  0  0  0  0  0  0  0  0  0  0  0
   -2.8686   -3.3070    7.6961 H   0  0  0  0  0  0  0  0  0  0  0  0
   -8.1660  -11.0768    3.1939 C   0  0  0  0  0  0  0  0  0  0  0  0
   -8.1028  -12.4506    3.2835 F   0  0  0  0  0  0  0  0  0  0  0  0
   -7.1214  -10.5373    2.5196 F   0  0  0  0  0  0  0  0  0  0  0  0
   -9.3195  -10.8279    2.4279 F   0  0  0  0  0  0  0  0  0  0  0  0
   -9.0942   -8.8918    8.2626 O   0  0  0  0  0  0  0  0  0  0  0  0
  -13.8085   -6.0715    8.9206 F   0  0  0  0  0  0  0  0  0  0  0  0
  -12.6326   -6.7348    8.7729 C   0  0  0  0  0  0  0  0  0  0  0  0
  -11.4331   -6.1524    9.1509 C   0  0  0  0  0  0  0  0  0  0  0  0
  -10.2578   -6.8967    8.9731 C   0  0  0  0  0  0  0  0  0  0  0  0
  -10.2893   -8.1541    8.4455 C   0  0  0  0  0  0  0  0  0  0  0  0
  -11.5074   -8.6880    8.0865 C   0  0  0  0  0  0  0  0  0  0  0  0
  -12.6537   -7.9709    8.2559 N   0  0  0  0  0  0  0  0  0  0  0  0
 24 25  1  0  0  0
 25 26  2  0  0  0
 26 27  1  0  0  0
 27 28  2  0  0  0
 28 23  1  0  0  0
 23  1  1  0  0  0
  1  2  2  0  0  0
  2  3  1  0  0  0
  3  4  2  0  0  0
  4  5  1  0  0  0
  5  6  2  0  0  0
  6  7  1  0  0  0
  7  8  2  0  0  0
  7  9  1  0  0  0
  9 11  1  0  0  0
 11 12  1  0  0  0
 12 13  2  0  0  0
 13 14  1  0  0  0
 14 15  1  0  0  0
 15 16  2  0  0  0
 15 17  1  0  0  0
  4 19  1  0  0  0
 19 20  1  0  0  0
 19 21  1  0  0  0
 19 22  1  0  0  0
 28 29  1  0  0  0
 29 30  2  0  0  0
 30 25  1  0  0  0
  6  1  1  0  0  0
 17 11  2  0  0  0
  9 10  1  0  0  0
 14 18  1  0  0  0
M  END
> <minimizedAffinity>
2.20678

> <CNNscore>
0.3410064876

> <CNNaffinity>
5.8849134445

> <CNN_VS>
2.0067937374

> <CNNaffinity_variance>
0.5675315261

$$$$
[H]c1nc(F)c([H])c([H])c1Oc1c([H])c([H])c(C(F)(F)F)c([H])c1C(=O)N([H])c1c([H])c([H])n([H])c(=O)c1[H]


 30 32  0  0  0  0  0  0  0  0999 V2000
   -6.6986   -6.4044    6.5289 C   0  0  0  0  0  0  0  0  0  0  0  0
   -7.7777   -6.7783    5.7093 C   0  0  0  0  0  0  0  0  0  0  0  0
   -8.9822   -7.1122    6.2686 C   0  0  0  0  0  0  0  0  0  0  0  0
   -9.0808   -7.0654    7.6322 C   0  0  0  0  0  0  0  0  0  0  0  0
   -8.0241   -6.7042    8.4261 C   0  0  0  0  0  0  0  0  0  0  0  0
   -6.7568   -6.3545    7.8866 C   0  0  0  0  0  0  0  0  0  0  0  0
   -5.6867   -6.1859    8.8401 C   0  0  0  0  0  0  0  0  0  0  0  0
   -5.4473   -7.1840    9.5937 O   0  0  0  0  0  0  0  0  0  0  0  0
   -4.8624   -5.0644    9.0731 N   0  0  0  0  0  0  0  0  0  0  0  0
   -4.9402   -4.2384    8.4340 H   0  0  0  0  0  0  0  0  0  0  0  0
   -3.8704   -5.0069   10.0820 C   0  0  0  0  0  0  0  0  0  0  0  0
   -2.6076   -5.5695    9.8474 C   0  0  0  0  0  0  0  0  0  0  0  0
   -1.6111   -5.4954   10.7963 C   0  0  0  0  0  0  0  0  0  0  0  0
   -1.8735   -4.8807   11.9339 N   0  0  0  0  0  0  0  0  0  0  0  0
   -3.0550   -4.3238   12.2188 C   0  0  0  0  0  0  0  0  0  0  0  0
   -3.2494   -3.7531   13.3154 O   0  0  0  0  0  0  0  0  0  0  0  0
   -4.0865   -4.3840   11.2698 C   0  0  0  0  0  0  0  0  0  0  0  0
   -1.0966   -4.8427   12.6510 H   0  0  0  0  0  0  0  0  0  0  0  0
  -10.4010   -7.3910    8.2417 C   0  0  0  0  0  0  0  0  0  0  0  0
  -10.5586   -8.7514    8.3967 F   0  0  0  0  0  0  0  0  0  0  0  0
  -11.4556   -6.7977    7.6312 F   0  0  0  0  0  0  0  0  0  0  0  0
  -10.3552   -6.8911    9.5560 F   0  0  0  0  0  0  0  0  0  0  0  0
   -5.5081   -6.0567    5.8738 O   0  0  0  0  0  0  0  0  0  0  0  0
   -1.0624   -9.2683    6.6041 F   0  0  0  0  0  0  0  0  0  0  0  0
   -2.1751   -8.5103    6.4255 C   0  0  0  0  0  0  0  0  0  0  0  0
   -3.4318   -9.0917    6.3658 C   0  0  0  0  0  0  0  0  0  0  0  0
   -4.5370   -8.2477    6.1830 C   0  0  0  0  0  0  0  0  0  0  0  0
   -4.3846   -6.8972    6.0672 C   0  0  0  0  0  0  0  0  0  0  0  0
   -3.1142   -6.3689    6.1341 C   0  0  0  0  0  0  0  0  0  0  0  0
   -2.0354   -7.1825    6.3112 N   0  0  0  0  0  0  0  0  0  0  0  0
 24 25  1  0  0  0
 25 26  2  0  0  0
 26 27  1  0  0  0
 27 28  2  0  0  0
 28 23  1  0  0  0
 23  1  1  0  0  0
  1  2  2  0  0  0
  2  3  1  0  0  0
  3  4  2  0  0  0
  4  5  1  0  0  0
  5  6  2  0  0  0
  6  7  1  0  0  0
  7  8  2  0  0  0
  7  9  1  0  0  0
  9 11  1  0  0  0
 11 12  1  0  0  0
 12 13  2  0  0  0
 13 14  1  0  0  0
 14 15  1  0  0  0
 15 16  2  0  0  0
 15 17  1  0  0  0
  4 19  1  0  0  0
 19 20  1  0  0  0
 19 21  1  0  0  0
 19 22  1  0  0  0
 28 29  1  0  0  0
 29 30  2  0  0  0
 30 25  1  0  0  0
  6  1  1  0  0  0
 17 11  2  0  0  0
  9 10  1  0  0  0
 14 18  1  0  0  0
M  END
> <minimizedAffinity>
-2.58346

> <CNNscore>
0.2678960264

> <CNNaffinity>
5.3739676476

> <CNN_VS>
1.4396646023

> <CNNaffinity_variance>
0.5255891681

$$$$
[H]c1nc(F)c([H])c([H])c1Oc1c([H])c([H])c(C(F)(F)F)c([H])c1C(=O)N([H])c1c([H])c([H])n([H])c(=O)c1[H]


 30 32  0  0  0  0  0  0  0  0999 V2000
  -12.4239   -7.3104    8.3312 C   0  0  0  0  0  0  0  0  0  0  0  0
  -11.3638   -7.9906    8.9551 C   0  0  0  0  0  0  0  0  0  0  0  0
  -10.7050   -8.9917    8.2929 C   0  0  0  0  0  0  0  0  0  0  0  0
  -11.1199   -9.2903    7.0240 C   0  0  0  0  0  0  0  0  0  0  0  0
  -12.1568   -8.6265    6.4226 C   0  0  0  0  0  0  0  0  0  0  0  0
  -12.8693   -7.5849    7.0759 C   0  0  0  0  0  0  0  0  0  0  0  0
  -14.0550   -7.1099    6.4042 C   0  0  0  0  0  0  0  0  0  0  0  0
  -14.4391   -5.9357    6.7121 O   0  0  0  0  0  0  0  0  0  0  0  0
  -14.8687   -7.7626    5.4538 N   0  0  0  0  0  0  0  0  0  0  0  0
  -14.5669   -8.6954    5.0854 H   0  0  0  0  0  0  0  0  0  0  0  0
  -16.0454   -7.2017    4.9006 C   0  0  0  0  0  0  0  0  0  0  0  0
  -16.4473   -5.9138    5.2831 C   0  0  0  0  0  0  0  0  0  0  0  0
  -17.5667   -5.3279    4.7333 C   0  0  0  0  0  0  0  0  0  0  0  0
  -18.2537   -6.0088    3.8357 N   0  0  0  0  0  0  0  0  0  0  0  0
  -17.9237   -7.2386    3.4281 C   0  0  0  0  0  0  0  0  0  0  0  0
  -18.6124   -7.8392    2.5732 O   0  0  0  0  0  0  0  0  0  0  0  0
  -16.7879   -7.8576    3.9712 C   0  0  0  0  0  0  0  0  0  0  0  0
  -19.1138   -5.5429    3.4329 H   0  0  0  0  0  0  0  0  0  0  0  0
  -10.3802  -10.3531    6.2866 C   0  0  0  0  0  0  0  0  0  0  0  0
  -10.8128  -10.4502    4.9817 F   0  0  0  0  0  0  0  0  0  0  0  0
  -10.3407  -11.5474    6.9261 F   0  0  0  0  0  0  0  0  0  0  0  0
   -9.0521   -9.9005    6.1832 F   0  0  0  0  0  0  0  0  0  0  0  0
  -13.0294   -6.2844    9.0715 O   0  0  0  0  0  0  0  0  0  0  0  0
  -10.6975   -5.0256   13.9284 F   0  0  0  0  0  0  0  0  0  0  0  0
  -11.3031   -5.3260   12.7505 C   0  0  0  0  0  0  0  0  0  0  0  0
  -12.6749   -5.1971   12.6009 C   0  0  0  0  0  0  0  0  0  0  0  0
  -13.2323   -5.5218   11.3554 C   0  0  0  0  0  0  0  0  0  0  0  0
  -12.4530   -5.9510   10.3216 C   0  0  0  0  0  0  0  0  0  0  0  0
  -11.0945   -6.0613   10.5215 C   0  0  0  0  0  0  0  0  0  0  0  0
  -10.5456   -5.7480   11.7288 N   0  0  0  0  0  0  0  0  0  0  0  0
 24 25  1  0  0  0
 25 26  2  0  0  0
 26 27  1  0  0  0
 27 28  2  0  0  0
 28 23  1  0  0  0
 23  1  1  0  0  0
  1  2  2  0  0  0
  2  3  1  0  0  0
  3  4  2  0  0  0
  4  5  1  0  0  0
  5  6  2  0  0  0
  6  7  1  0  0  0
  7  8  2  0  0  0
  7  9  1  0  0  0
  9 11  1  0  0  0
 11 12  1  0  0  0
 12 13  2  0  0  0
 13 14  1  0  0  0
 14 15  1  0  0  0
 15 16  2  0  0  0
 15 17  1  0  0  0
  4 19  1  0  0  0
 19 20  1  0  0  0
 19 21  1  0  0  0
 19 22  1  0  0  0
 28 29  1  0  0  0
 29 30  2  0  0  0
 30 25  1  0  0  0
  6  1  1  0  0  0
 17 11  2  0  0  0
  9 10  1  0  0  0
 14 18  1  0  0  0
M  END
> <minimizedAffinity>
-1.94206

> <CNNscore>
0.2246846408

> <CNNaffinity>
6.2332220078

> <CNN_VS>
1.4005092382

> <CNNaffinity_variance>
0.1575091183

$$$$
[H]c1nc(F)c([H])c([H])c1Oc1c([H])c([H])c(C(F)(F)F)c([H])c1C(=O)N([H])c1c([H])c([H])n([H])c(=O)c1[H]


 30 32  0  0  0  0  0  0  0  0999 V2000
  -10.4313   -9.6593    7.2651 C   0  0  0  0  0  0  0  0  0  0  0  0
   -9.8192  -10.4597    6.2850 C   0  0  0  0  0  0  0  0  0  0  0  0
   -8.6012  -10.1047    5.7700 C   0  0  0  0  0  0  0  0  0  0  0  0
   -8.0233   -8.9593    6.2449 C   0  0  0  0  0  0  0  0  0  0  0  0
   -8.6270   -8.1808    7.1973 C   0  0  0  0  0  0  0  0  0  0  0  0
   -9.8918   -8.5110    7.7547 C   0  0  0  0  0  0  0  0  0  0  0  0
  -10.4943   -7.5070    8.5982 C   0  0  0  0  0  0  0  0  0  0  0  0
   -9.9754   -6.3456    8.5424 O   0  0  0  0  0  0  0  0  0  0  0  0
  -11.5784   -7.6223    9.4943 N   0  0  0  0  0  0  0  0  0  0  0  0
  -12.1121   -8.5228    9.5288 H   0  0  0  0  0  0  0  0  0  0  0  0
  -12.0476   -6.5638   10.3095 C   0  0  0  0  0  0  0  0  0  0  0  0
  -13.0926   -5.7470    9.8542 C   0  0  0  0  0  0  0  0  0  0  0  0
  -13.5948   -4.7336   10.6413 C   0  0  0  0  0  0  0  0  0  0  0  0
  -13.0682   -4.5493   11.8370 N   0  0  0  0  0  0  0  0  0  0  0  0
  -12.0722   -5.2926   12.3297 C   0  0  0  0  0  0  0  0  0  0  0  0
  -11.6098   -5.0731   13.4716 O   0  0  0  0  0  0  0  0  0  0  0  0
  -11.5433   -6.3317   11.5493 C   0  0  0  0  0  0  0  0  0  0  0  0
  -13.4637   -3.7607   12.4208 H   0  0  0  0  0  0  0  0  0  0  0  0
   -6.6806   -8.5906    5.7142 C   0  0  0  0  0  0  0  0  0  0  0  0
   -6.5480   -7.2241    5.5941 F   0  0  0  0  0  0  0  0  0  0  0  0
   -6.3238   -9.2621    4.5923 F   0  0  0  0  0  0  0  0  0  0  0  0
   -5.7575   -8.9462    6.7146 F   0  0  0  0  0  0  0  0  0  0  0  0
  -11.6671  -10.1071    7.7545 O   0  0  0  0  0  0  0  0  0  0  0  0
  -16.1949   -7.8936    5.4716 F   0  0  0  0  0  0  0  0  0  0  0  0
  -15.0984   -8.4316    6.0655 C   0  0  0  0  0  0  0  0  0  0  0  0
  -15.0181   -8.5453    7.4445 C   0  0  0  0  0  0  0  0  0  0  0  0
  -13.8575   -9.1140    7.9893 C   0  0  0  0  0  0  0  0  0  0  0  0
  -12.8379   -9.5429    7.1913 C   0  0  0  0  0  0  0  0  0  0  0  0
  -12.9672   -9.4080    5.8265 C   0  0  0  0  0  0  0  0  0  0  0  0
  -14.0917   -8.8562    5.2898 N   0  0  0  0  0  0  0  0  0  0  0  0
 24 25  1  0  0  0
 25 26  2  0  0  0
 26 27  1  0  0  0
 27 28  2  0  0  0
 28 23  1  0  0  0
 23  1  1  0  0  0
  1  2  2  0  0  0
  2  3  1  0  0  0
  3  4  2  0  0  0
  4  5  1  0  0  0
  5  6  2  0  0  0
  6  7  1  0  0  0
  7  8  2  0  0  0
  7  9  1  0  0  0
  9 11  1  0  0  0
 11 12  1  0  0  0
 12 13  2  0  0  0
 13 14  1  0  0  0
 14 15  1  0  0  0
 15 16  2  0  0  0
 15 17  1  0  0  0
  4 19  1  0  0  0
 19 20  1  0  0  0
 19 21  1  0  0  0
 19 22  1  0  0  0
 28 29  1  0  0  0
 29 30  2  0  0  0
 30 25  1  0  0  0
  6  1  1  0  0  0
 17 11  2  0  0  0
  9 10  1  0  0  0
 14 18  1  0  0  0
M  END
> <minimizedAffinity>
-3.25809

> <CNNscore>
0.2197455168

> <CNNaffinity>
6.2746067047

> <CNN_VS>
1.3788167238

> <CNNaffinity_variance>
0.3085387349

$$$$
[H]c1nc(F)c([H])c([H])c1Oc1c([H])c([H])c(C(F)(F)F)c([H])c1C(=O)N([H])c1c([H])c([H])n([H])c(=O)c1[H]


 30 32  0  0  0  0  0  0  0  0999 V2000
   -7.4139   -7.1700    6.5550 C   0  0  0  0  0  0  0  0  0  0  0  0
   -6.0886   -7.2238    6.0896 C   0  0  0  0  0  0  0  0  0  0  0  0
   -5.0700   -6.7248    6.8566 C   0  0  0  0  0  0  0  0  0  0  0  0
   -5.3982   -6.1838    8.0694 C   0  0  0  0  0  0  0  0  0  0  0  0
   -6.6926   -6.1303    8.5158 C   0  0  0  0  0  0  0  0  0  0  0  0
   -7.7789   -6.6328    7.7498 C   0  0  0  0  0  0  0  0  0  0  0  0
   -9.0990   -6.3365    8.2518 C   0  0  0  0  0  0  0  0  0  0  0  0
   -9.5334   -5.1617    8.0224 O   0  0  0  0  0  0  0  0  0  0  0  0
   -9.9878   -7.1590    8.9764 N   0  0  0  0  0  0  0  0  0  0  0  0
   -9.7376   -8.1649    9.1258 H   0  0  0  0  0  0  0  0  0  0  0  0
  -11.2480   -6.7301    9.4594 C   0  0  0  0  0  0  0  0  0  0  0  0
  -11.3585   -5.4918   10.1081 C   0  0  0  0  0  0  0  0  0  0  0  0
  -12.5782   -5.0320   10.5548 C   0  0  0  0  0  0  0  0  0  0  0  0
  -13.6429   -5.7860   10.3573 N   0  0  0  0  0  0  0  0  0  0  0  0
  -13.6050   -6.9744    9.7460 C   0  0  0  0  0  0  0  0  0  0  0  0
  -14.6470   -7.6486    9.5857 O   0  0  0  0  0  0  0  0  0  0  0  0
  -12.3761   -7.4654    9.2804 C   0  0  0  0  0  0  0  0  0  0  0  0
  -14.5673   -5.4169   10.7155 H   0  0  0  0  0  0  0  0  0  0  0  0
   -4.2879   -5.6747    8.9229 C   0  0  0  0  0  0  0  0  0  0  0  0
   -3.0873   -6.2604    8.5840 F   0  0  0  0  0  0  0  0  0  0  0  0
   -4.5459   -5.7173   10.2527 F   0  0  0  0  0  0  0  0  0  0  0  0
   -4.1261   -4.3196    8.5810 F   0  0  0  0  0  0  0  0  0  0  0  0
   -8.3930   -7.7232    5.7168 O   0  0  0  0  0  0  0  0  0  0  0  0
   -9.7579  -13.0358    6.4415 F   0  0  0  0  0  0  0  0  0  0  0  0
   -9.4350  -11.7245    6.2979 C   0  0  0  0  0  0  0  0  0  0  0  0
   -9.6504  -10.8205    7.3262 C   0  0  0  0  0  0  0  0  0  0  0  0
   -9.2899   -9.4825    7.1095 C   0  0  0  0  0  0  0  0  0  0  0  0
   -8.7443   -9.0792    5.9262 C   0  0  0  0  0  0  0  0  0  0  0  0
   -8.5501  -10.0171    4.9362 C   0  0  0  0  0  0  0  0  0  0  0  0
   -8.8981  -11.3189    5.1390 N   0  0  0  0  0  0  0  0  0  0  0  0
 24 25  1  0  0  0
 25 26  2  0  0  0
 26 27  1  0  0  0
 27 28  2  0  0  0
 28 23  1  0  0  0
 23  1  1  0  0  0
  1  2  2  0  0  0
  2  3  1  0  0  0
  3  4  2  0  0  0
  4  5  1  0  0  0
  5  6  2  0  0  0
  6  7  1  0  0  0
  7  8  2  0  0  0
  7  9  1  0  0  0
  9 11  1  0  0  0
 11 12  1  0  0  0
 12 13  2  0  0  0
 13 14  1  0  0  0
 14 15  1  0  0  0
 15 16  2  0  0  0
 15 17  1  0  0  0
  4 19  1  0  0  0
 19 20  1  0  0  0
 19 21  1  0  0  0
 19 22  1  0  0  0
 28 29  1  0  0  0
 29 30  2  0  0  0
 30 25  1  0  0  0
  6  1  1  0  0  0
 17 11  2  0  0  0
  9 10  1  0  0  0
 14 18  1  0  0  0
M  END
> <minimizedAffinity>
4.75079

> <CNNscore>
0.1940663606

> <CNNaffinity>
5.9926495552

> <CNN_VS>
1.1629717350

> <CNNaffinity_variance>
0.2400825918

$$$$
[H]c1nc(F)c([H])c([H])c1Oc1c([H])c([H])c(C(F)(F)F)c([H])c1C(=O)N([H])c1c([H])c([H])n([H])c(=O)c1[H]


 30 32  0  0  0  0  0  0  0  0999 V2000
  -12.6199   -7.6938    7.8202 C   0  0  0  0  0  0  0  0  0  0  0  0
  -13.8285   -7.3786    8.4650 C   0  0  0  0  0  0  0  0  0  0  0  0
  -13.8313   -6.5432    9.5498 C   0  0  0  0  0  0  0  0  0  0  0  0
  -12.6280   -6.0426    9.9656 C   0  0  0  0  0  0  0  0  0  0  0  0
  -11.4525   -6.3569    9.3355 C   0  0  0  0  0  0  0  0  0  0  0  0
  -11.4051   -7.2226    8.2096 C   0  0  0  0  0  0  0  0  0  0  0  0
  -10.0889   -7.6189    7.7698 C   0  0  0  0  0  0  0  0  0  0  0  0
   -9.8914   -8.8716    7.6564 O   0  0  0  0  0  0  0  0  0  0  0  0
   -8.9711   -6.8180    7.4528 N   0  0  0  0  0  0  0  0  0  0  0  0
   -9.0833   -5.7769    7.4369 H   0  0  0  0  0  0  0  0  0  0  0  0
   -7.7076   -7.3354    7.0771 C   0  0  0  0  0  0  0  0  0  0  0  0
   -7.5970   -8.1328    5.9289 C   0  0  0  0  0  0  0  0  0  0  0  0
   -6.3747   -8.6186    5.5182 C   0  0  0  0  0  0  0  0  0  0  0  0
   -5.3075   -8.3150    6.2324 N   0  0  0  0  0  0  0  0  0  0  0  0
   -5.3453   -7.5601    7.3352 C   0  0  0  0  0  0  0  0  0  0  0  0
   -4.3010   -7.3037    7.9752 O   0  0  0  0  0  0  0  0  0  0  0  0
   -6.5769   -7.0518    7.7745 C   0  0  0  0  0  0  0  0  0  0  0  0
   -4.3810   -8.7053    5.9033 H   0  0  0  0  0  0  0  0  0  0  0  0
  -12.6322   -5.1030   11.1221 C   0  0  0  0  0  0  0  0  0  0  0  0
  -12.4071   -3.8061   10.7139 F   0  0  0  0  0  0  0  0  0  0  0  0
  -11.8358   -5.4848   12.1501 F   0  0  0  0  0  0  0  0  0  0  0  0
  -13.9521   -5.0936   11.6091 F   0  0  0  0  0  0  0  0  0  0  0  0
  -12.7092   -8.5386    6.7041 O   0  0  0  0  0  0  0  0  0  0  0  0
  -16.5993   -7.3015    2.9693 F   0  0  0  0  0  0  0  0  0  0  0  0
  -15.6452   -7.6404    3.8745 C   0  0  0  0  0  0  0  0  0  0  0  0
  -15.1750   -8.9413    3.9615 C   0  0  0  0  0  0  0  0  0  0  0  0
  -14.1868   -9.2190    4.9171 C   0  0  0  0  0  0  0  0  0  0  0  0
  -13.7008   -8.2431    5.7368 C   0  0  0  0  0  0  0  0  0  0  0  0
  -14.2009   -6.9658    5.6097 C   0  0  0  0  0  0  0  0  0  0  0  0
  -15.1614   -6.6883    4.6838 N   0  0  0  0  0  0  0  0  0  0  0  0
 24 25  1  0  0  0
 25 26  2  0  0  0
 26 27  1  0  0  0
 27 28  2  0  0  0
 28 23  1  0  0  0
 23  1  1  0  0  0
  1  2  2  0  0  0
  2  3  1  0  0  0
  3  4  2  0  0  0
  4  5  1  0  0  0
  5  6  2  0  0  0
  6  7  1  0  0  0
  7  8  2  0  0  0
  7  9  1  0  0  0
  9 11  1  0  0  0
 11 12  1  0  0  0
 12 13  2  0  0  0
 13 14  1  0  0  0
 14 15  1  0  0  0
 15 16  2  0  0  0
 15 17  1  0  0  0
  4 19  1  0  0  0
 19 20  1  0  0  0
 19 21  1  0  0  0
 19 22  1  0  0  0
 28 29  1  0  0  0
 29 30  2  0  0  0
 30 25  1  0  0  0
  6  1  1  0  0  0
 17 11  2  0  0  0
  9 10  1  0  0  0
 14 18  1  0  0  0
M  END
> <minimizedAffinity>
-8.52411

> <CNNscore>
0.1857746542

> <CNNaffinity>
6.3671321869

> <CNN_VS>
1.1828517914

> <CNNaffinity_variance>
0.1498043090

$$$$
[H]c1nc(F)c([H])c([H])c1Oc1c([H])c([H])c(C(F)(F)F)c([H])c1C(=O)N([H])c1c([H])c([H])n([H])c(=O)c1[H]


 30 32  0  0  0  0  0  0  0  0999 V2000
  -13.8042   -7.9818    7.1088 C   0  0  0  0  0  0  0  0  0  0  0  0
  -15.1065   -8.0370    7.6349 C   0  0  0  0  0  0  0  0  0  0  0  0
  -15.2989   -8.0874    8.9896 C   0  0  0  0  0  0  0  0  0  0  0  0
  -14.1873   -8.0819    9.7869 C   0  0  0  0  0  0  0  0  0  0  0  0
  -12.9201   -8.0323    9.2680 C   0  0  0  0  0  0  0  0  0  0  0  0
  -12.6765   -7.9831    7.8688 C   0  0  0  0  0  0  0  0  0  0  0  0
  -11.3005   -8.1306    7.4595 C   0  0  0  0  0  0  0  0  0  0  0  0
  -11.0224   -9.1867    6.8049 O   0  0  0  0  0  0  0  0  0  0  0  0
  -10.2012   -7.2755    7.6871 N   0  0  0  0  0  0  0  0  0  0  0  0
  -10.3689   -6.3465    8.1407 H   0  0  0  0  0  0  0  0  0  0  0  0
   -8.8777   -7.5599    7.2717 C   0  0  0  0  0  0  0  0  0  0  0  0
   -8.2611   -8.7501    7.6833 C   0  0  0  0  0  0  0  0  0  0  0  0
   -6.9882   -9.0709    7.2640 C   0  0  0  0  0  0  0  0  0  0  0  0
   -6.3614   -8.2297    6.4637 N   0  0  0  0  0  0  0  0  0  0  0  0
   -6.8931   -7.0804    6.0351 C   0  0  0  0  0  0  0  0  0  0  0  0
   -6.2526   -6.3189    5.2763 O   0  0  0  0  0  0  0  0  0  0  0  0
   -8.1881   -6.7303    6.4460 C   0  0  0  0  0  0  0  0  0  0  0  0
   -5.3824   -8.4922    6.1608 H   0  0  0  0  0  0  0  0  0  0  0  0
  -14.3944   -8.0981   11.2625 C   0  0  0  0  0  0  0  0  0  0  0  0
  -13.5487   -8.9964   11.8765 F   0  0  0  0  0  0  0  0  0  0  0  0
  -15.6884   -8.2396   11.6397 F   0  0  0  0  0  0  0  0  0  0  0  0
  -13.9681   -6.8405   11.7275 F   0  0  0  0  0  0  0  0  0  0  0  0
  -13.6975   -7.9100    5.7120 O   0  0  0  0  0  0  0  0  0  0  0  0
  -17.4207   -4.8777    2.9634 F   0  0  0  0  0  0  0  0  0  0  0  0
  -16.4931   -5.5909    3.6529 C   0  0  0  0  0  0  0  0  0  0  0  0
  -15.5846   -4.9597    4.4879 C   0  0  0  0  0  0  0  0  0  0  0  0
  -14.6570   -5.7590    5.1717 C   0  0  0  0  0  0  0  0  0  0  0  0
  -14.6455   -7.1148    5.0228 C   0  0  0  0  0  0  0  0  0  0  0  0
  -15.5701   -7.6935    4.1815 C   0  0  0  0  0  0  0  0  0  0  0  0
  -16.4744   -6.9235    3.5134 N   0  0  0  0  0  0  0  0  0  0  0  0
 24 25  1  0  0  0
 25 26  2  0  0  0
 26 27  1  0  0  0
 27 28  2  0  0  0
 28 23  1  0  0  0
 23  1  1  0  0  0
  1  2  2  0  0  0
  2  3  1  0  0  0
  3  4  2  0  0  0
  4  5  1  0  0  0
  5  6  2  0  0  0
  6  7  1  0  0  0
  7  8  2  0  0  0
  7  9  1  0  0  0
  9 11  1  0  0  0
 11 12  1  0  0  0
 12 13  2  0  0  0
 13 14  1  0  0  0
 14 15  1  0  0  0
 15 16  2  0  0  0
 15 17  1  0  0  0
  4 19  1  0  0  0
 19 20  1  0  0  0
 19 21  1  0  0  0
 19 22  1  0  0  0
 28 29  1  0  0  0
 29 30  2  0  0  0
 30 25  1  0  0  0
  6  1  1  0  0  0
 17 11  2  0  0  0
  9 10  1  0  0  0
 14 18  1  0  0  0
M  END
> <minimizedAffinity>
-5.95846

> <CNNscore>
0.1855975389

> <CNNaffinity>
6.2774672508

> <CNN_VS>
1.1650824547

> <CNNaffinity_variance>
0.1802237928

$$$$
[H]c1c([H])c(N([H])C(=O)c2c(C([H])([H])[H])c(C(=O)C(=O)N([H])C3(C(F)(F)F)C([H])([H])C3([H])[H])c3n2C([H])([H])C([H])([H])C3([H])[H])c([H])c(C([H])(F)F)c1F


 36 39  0  0  0  0  0  0  0  0999 V2000
  -10.6876  -10.3246    6.5568 C   0  0  0  0  0  0  0  0  0  0  0  0
  -10.9054   -9.1885    7.5110 C   0  0  0  0  0  0  0  0  0  0  0  0
  -12.1891   -8.7883    7.9451 C   0  0  0  0  0  0  0  0  0  0  0  0
  -11.9970   -7.7112    8.7641 C   0  0  0  0  0  0  0  0  0  0  0  0
  -12.8099   -6.7664    9.5745 C   0  0  0  0  0  0  0  0  0  0  0  0
  -11.8328   -5.6551    9.8958 C   0  0  0  0  0  0  0  0  0  0  0  0
  -10.4794   -6.2667    9.7459 C   0  0  0  0  0  0  0  0  0  0  0  0
  -10.7054   -7.4148    8.8715 N   0  0  0  0  0  0  0  0  0  0  0  0
  -10.0262   -8.3345    8.0926 C   0  0  0  0  0  0  0  0  0  0  0  0
   -8.5513   -8.3437    8.0135 C   0  0  0  0  0  0  0  0  0  0  0  0
   -7.9957   -9.3419    8.5794 O   0  0  0  0  0  0  0  0  0  0  0  0
   -7.8508   -7.3425    7.3689 N   0  0  0  0  0  0  0  0  0  0  0  0
   -8.4075   -6.5817    6.8930 H   0  0  0  0  0  0  0  0  0  0  0  0
   -6.4337   -7.3160    7.2971 C   0  0  0  0  0  0  0  0  0  0  0  0
   -5.6523   -8.0488    6.4548 C   0  0  0  0  0  0  0  0  0  0  0  0
   -4.2533   -7.9239    6.4502 C   0  0  0  0  0  0  0  0  0  0  0  0
   -3.6351   -7.0505    7.3055 C   0  0  0  0  0  0  0  0  0  0  0  0
   -2.3008   -6.8642    7.3714 F   0  0  0  0  0  0  0  0  0  0  0  0
   -4.4294   -6.2978    8.1709 C   0  0  0  0  0  0  0  0  0  0  0  0
   -5.7951   -6.4222    8.1723 C   0  0  0  0  0  0  0  0  0  0  0  0
   -3.8117   -5.3314    9.1242 C   0  0  0  0  0  0  0  0  0  0  0  0
   -3.4870   -4.1476    8.4932 F   0  0  0  0  0  0  0  0  0  0  0  0
   -4.7219   -5.1370   10.1458 F   0  0  0  0  0  0  0  0  0  0  0  0
  -13.4228   -9.4520    7.5477 C   0  0  0  0  0  0  0  0  0  0  0  0
  -13.5452  -10.6821    7.7758 O   0  0  0  0  0  0  0  0  0  0  0  0
  -14.4766   -8.6981    6.9048 C   0  0  0  0  0  0  0  0  0  0  0  0
  -15.5366   -8.4485    7.5305 O   0  0  0  0  0  0  0  0  0  0  0  0
  -14.3182   -8.2452    5.5850 N   0  0  0  0  0  0  0  0  0  0  0  0
  -13.4432   -8.4426    5.0471 H   0  0  0  0  0  0  0  0  0  0  0  0
  -15.3599   -7.4857    4.9140 C   0  0  0  0  0  0  0  0  0  0  0  0
  -16.6109   -8.2202    4.5532 C   0  0  0  0  0  0  0  0  0  0  0  0
  -15.6165   -7.9189    3.4824 C   0  0  0  0  0  0  0  0  0  0  0  0
  -15.3953   -5.9829    5.0962 C   0  0  0  0  0  0  0  0  0  0  0  0
  -14.7111   -5.6998    6.2665 F   0  0  0  0  0  0  0  0  0  0  0  0
  -16.7108   -5.5384    5.2535 F   0  0  0  0  0  0  0  0  0  0  0  0
  -14.7898   -5.3058    4.0745 F   0  0  0  0  0  0  0  0  0  0  0  0
  1  2  1  0  0  0
  2  3  1  0  0  0
  3 24  1  0  0  0
 24 25  2  0  0  0
 24 26  1  0  0  0
 26 27  2  0  0  0
 26 28  1  0  0  0
 28 30  1  0  0  0
 30 31  1  0  0  0
 31 32  1  0  0  0
 30 33  1  0  0  0
 33 34  1  0  0  0
 33 35  1  0  0  0
 33 36  1  0  0  0
  3  4  2  0  0  0
  4  5  1  0  0  0
  5  6  1  0  0  0
  6  7  1  0  0  0
  7  8  1  0  0  0
  8  9  1  0  0  0
  9 10  1  0  0  0
 10 11  2  0  0  0
 10 12  1  0  0  0
 12 14  1  0  0  0
 14 15  2  0  0  0
 15 16  1  0  0  0
 16 17  2  0  0  0
 17 18  1  0  0  0
 17 19  1  0  0  0
 19 20  2  0  0  0
 19 21  1  0  0  0
 21 22  1  0  0  0
 21 23  1  0  0  0
  9  2  2  0  0  0
 20 14  1  0  0  0
 32 30  1  0  0  0
  8  4  1  0  0  0
 28 29  1  0  0  0
 12 13  1  0  0  0
M  END
> <minimizedAffinity>
-9.87089

> <CNNscore>
0.7499769926

> <CNNaffinity>
7.5749292374

> <CNN_VS>
5.6810226440

> <CNNaffinity_variance>
0.0387676433

$$$$
[H]c1c([H])c(N([H])C(=O)c2c(C([H])([H])[H])c(C(=O)C(=O)N([H])C3(C(F)(F)F)C([H])([H])C3([H])[H])c3n2C([H])([H])C([H])([H])C3([H])[H])c([H])c(C([H])(F)F)c1F


 36 39  0  0  0  0  0  0  0  0999 V2000
  -10.1008  -10.2108    6.7027 C   0  0  0  0  0  0  0  0  0  0  0  0
  -10.4824   -9.0762    7.6059 C   0  0  0  0  0  0  0  0  0  0  0  0
  -11.8246   -8.7618    7.9155 C   0  0  0  0  0  0  0  0  0  0  0  0
  -11.7826   -7.6590    8.7216 C   0  0  0  0  0  0  0  0  0  0  0  0
  -12.7291   -6.7607    9.4340 C   0  0  0  0  0  0  0  0  0  0  0  0
  -11.8651   -5.5762    9.8127 C   0  0  0  0  0  0  0  0  0  0  0  0
  -10.4641   -6.0914    9.7975 C   0  0  0  0  0  0  0  0  0  0  0  0
  -10.5299   -7.2684    8.9349 N   0  0  0  0  0  0  0  0  0  0  0  0
   -9.7208   -8.1507    8.2416 C   0  0  0  0  0  0  0  0  0  0  0  0
   -8.2478   -8.0551    8.2928 C   0  0  0  0  0  0  0  0  0  0  0  0
   -7.6664   -9.0772    8.7853 O   0  0  0  0  0  0  0  0  0  0  0  0
   -7.5745   -6.9393    7.8340 N   0  0  0  0  0  0  0  0  0  0  0  0
   -8.1465   -6.1634    7.4027 H   0  0  0  0  0  0  0  0  0  0  0  0
   -6.1622   -6.8129    7.8915 C   0  0  0  0  0  0  0  0  0  0  0  0
   -5.4597   -5.9192    8.6430 C   0  0  0  0  0  0  0  0  0  0  0  0
   -4.0552   -5.8990    8.6442 C   0  0  0  0  0  0  0  0  0  0  0  0
   -3.3511   -6.7899    7.8780 C   0  0  0  0  0  0  0  0  0  0  0  0
   -2.0047   -6.8446    7.8163 F   0  0  0  0  0  0  0  0  0  0  0  0
   -4.0644   -7.7071    7.1057 C   0  0  0  0  0  0  0  0  0  0  0  0
   -5.4357   -7.7240    7.1074 C   0  0  0  0  0  0  0  0  0  0  0  0
   -3.3513   -8.7004    6.2518 C   0  0  0  0  0  0  0  0  0  0  0  0
   -2.4959   -8.0744    5.3679 F   0  0  0  0  0  0  0  0  0  0  0  0
   -2.6761   -9.5526    7.1050 F   0  0  0  0  0  0  0  0  0  0  0  0
  -12.9682   -9.5197    7.4274 C   0  0  0  0  0  0  0  0  0  0  0  0
  -12.9740  -10.7672    7.5819 O   0  0  0  0  0  0  0  0  0  0  0  0
  -14.0672   -8.8372    6.7804 C   0  0  0  0  0  0  0  0  0  0  0  0
  -15.1491   -8.6722    7.3966 O   0  0  0  0  0  0  0  0  0  0  0  0
  -13.9281   -8.3594    5.4672 N   0  0  0  0  0  0  0  0  0  0  0  0
  -13.0354   -8.4868    4.9372 H   0  0  0  0  0  0  0  0  0  0  0  0
  -15.0152   -7.6702    4.7923 C   0  0  0  0  0  0  0  0  0  0  0  0
  -16.2184   -8.4830    4.4370 C   0  0  0  0  0  0  0  0  0  0  0  0
  -15.2450   -8.1274    3.3636 C   0  0  0  0  0  0  0  0  0  0  0  0
  -15.1435   -6.1713    4.9650 C   0  0  0  0  0  0  0  0  0  0  0  0
  -14.2053   -5.5850    4.1320 F   0  0  0  0  0  0  0  0  0  0  0  0
  -14.8387   -5.8007    6.2775 F   0  0  0  0  0  0  0  0  0  0  0  0
  -16.3774   -5.6964    4.6175 F   0  0  0  0  0  0  0  0  0  0  0  0
  1  2  1  0  0  0
  2  3  1  0  0  0
  3 24  1  0  0  0
 24 25  2  0  0  0
 24 26  1  0  0  0
 26 27  2  0  0  0
 26 28  1  0  0  0
 28 30  1  0  0  0
 30 31  1  0  0  0
 31 32  1  0  0  0
 30 33  1  0  0  0
 33 34  1  0  0  0
 33 35  1  0  0  0
 33 36  1  0  0  0
  3  4  2  0  0  0
  4  5  1  0  0  0
  5  6  1  0  0  0
  6  7  1  0  0  0
  7  8  1  0  0  0
  8  9  1  0  0  0
  9 10  1  0  0  0
 10 11  2  0  0  0
 10 12  1  0  0  0
 12 14  1  0  0  0
 14 15  2  0  0  0
 15 16  1  0  0  0
 16 17  2  0  0  0
 17 18  1  0  0  0
 17 19  1  0  0  0
 19 20  2  0  0  0
 19 21  1  0  0  0
 21 22  1  0  0  0
 21 23  1  0  0  0
  9  2  2  0  0  0
 20 14  1  0  0  0
 32 30  1  0  0  0
  8  4  1  0  0  0
 28 29  1  0  0  0
 12 13  1  0  0  0
M  END
> <minimizedAffinity>
-9.25829

> <CNNscore>
0.6566755772

> <CNNaffinity>
7.3774123192

> <CNN_VS>
4.8445663452

> <CNNaffinity_variance>
0.0568594038

$$$$
[H]c1c([H])c(N([H])C(=O)c2c(C([H])([H])[H])c(C(=O)C(=O)N([H])C3(C(F)(F)F)C([H])([H])C3([H])[H])c3n2C([H])([H])C([H])([H])C3([H])[H])c([H])c(C([H])(F)F)c1F


 36 39  0  0  0  0  0  0  0  0999 V2000
  -10.5696  -10.2646    6.4941 C   0  0  0  0  0  0  0  0  0  0  0  0
  -10.7897   -9.1377    7.4586 C   0  0  0  0  0  0  0  0  0  0  0  0
  -12.0675   -8.7893    7.9508 C   0  0  0  0  0  0  0  0  0  0  0  0
  -11.8821   -7.7049    8.7616 C   0  0  0  0  0  0  0  0  0  0  0  0
  -12.6951   -6.7932    9.6091 C   0  0  0  0  0  0  0  0  0  0  0  0
  -11.7500   -5.6432    9.8873 C   0  0  0  0  0  0  0  0  0  0  0  0
  -10.3812   -6.1999    9.6757 C   0  0  0  0  0  0  0  0  0  0  0  0
  -10.6000   -7.3566    8.8109 N   0  0  0  0  0  0  0  0  0  0  0  0
   -9.9202   -8.2485    8.0010 C   0  0  0  0  0  0  0  0  0  0  0  0
   -8.4512   -8.1984    7.8553 C   0  0  0  0  0  0  0  0  0  0  0  0
   -7.8068   -8.8316    8.7548 O   0  0  0  0  0  0  0  0  0  0  0  0
   -7.8457   -7.5172    6.8169 N   0  0  0  0  0  0  0  0  0  0  0  0
   -8.4707   -7.0615    6.0980 H   0  0  0  0  0  0  0  0  0  0  0  0
   -6.4370   -7.4352    6.6661 C   0  0  0  0  0  0  0  0  0  0  0  0
   -5.5475   -8.4585    6.8030 C   0  0  0  0  0  0  0  0  0  0  0  0
   -4.1699   -8.2702    6.6044 C   0  0  0  0  0  0  0  0  0  0  0  0
   -3.6835   -7.0355    6.2644 C   0  0  0  0  0  0  0  0  0  0  0  0
   -2.3796   -6.7615    6.0542 F   0  0  0  0  0  0  0  0  0  0  0  0
   -4.5889   -5.9835    6.1233 C   0  0  0  0  0  0  0  0  0  0  0  0
   -5.9334   -6.1712    6.3178 C   0  0  0  0  0  0  0  0  0  0  0  0
   -4.1169   -4.6175    5.7551 C   0  0  0  0  0  0  0  0  0  0  0  0
   -3.3249   -4.0793    6.7490 F   0  0  0  0  0  0  0  0  0  0  0  0
   -3.4327   -4.7371    4.5603 F   0  0  0  0  0  0  0  0  0  0  0  0
  -13.2901   -9.5024    7.6087 C   0  0  0  0  0  0  0  0  0  0  0  0
  -13.4038  -10.7046    7.9579 O   0  0  0  0  0  0  0  0  0  0  0  0
  -14.3432   -8.8280    6.8818 C   0  0  0  0  0  0  0  0  0  0  0  0
  -15.4451   -8.6057    7.4422 O   0  0  0  0  0  0  0  0  0  0  0  0
  -14.1375   -8.4216    5.5534 N   0  0  0  0  0  0  0  0  0  0  0  0
  -13.2272   -8.5973    5.0691 H   0  0  0  0  0  0  0  0  0  0  0  0
  -15.1774   -7.7422    4.7989 C   0  0  0  0  0  0  0  0  0  0  0  0
  -16.3688   -8.5529    4.4019 C   0  0  0  0  0  0  0  0  0  0  0  0
  -15.3334   -8.2404    3.3740 C   0  0  0  0  0  0  0  0  0  0  0  0
  -15.2971   -6.2374    4.9194 C   0  0  0  0  0  0  0  0  0  0  0  0
  -14.3760   -5.6858    4.0446 F   0  0  0  0  0  0  0  0  0  0  0  0
  -14.9615   -5.8202    6.2102 F   0  0  0  0  0  0  0  0  0  0  0  0
  -16.5370   -5.7707    4.5824 F   0  0  0  0  0  0  0  0  0  0  0  0
  1  2  1  0  0  0
  2  3  1  0  0  0
  3 24  1  0  0  0
 24 25  2  0  0  0
 24 26  1  0  0  0
 26 27  2  0  0  0
 26 28  1  0  0  0
 28 30  1  0  0  0
 30 31  1  0  0  0
 31 32  1  0  0  0
 30 33  1  0  0  0
 33 34  1  0  0  0
 33 35  1  0  0  0
 33 36  1  0  0  0
  3  4  2  0  0  0
  4  5  1  0  0  0
  5  6  1  0  0  0
  6  7  1  0  0  0
  7  8  1  0  0  0
  8  9  1  0  0  0
  9 10  1  0  0  0
 10 11  2  0  0  0
 10 12  1  0  0  0
 12 14  1  0  0  0
 14 15  2  0  0  0
 15 16  1  0  0  0
 16 17  2  0  0  0
 17 18  1  0  0  0
 17 19  1  0  0  0
 19 20  2  0  0  0
 19 21  1  0  0  0
 21 22  1  0  0  0
 21 23  1  0  0  0
  9  2  2  0  0  0
 20 14  1  0  0  0
 32 30  1  0  0  0
  8  4  1  0  0  0
 28 29  1  0  0  0
 12 13  1  0  0  0
M  END
> <minimizedAffinity>
-10.01407

> <CNNscore>
0.6170525551

> <CNNaffinity>
7.4741926193

> <CNN_VS>
4.6119694710

> <CNNaffinity_variance>
0.0596797839

$$$$
[H]c1c([H])c(N([H])C(=O)c2c(C([H])([H])[H])c(C(=O)C(=O)N([H])C3(C(F)(F)F)C([H])([H])C3([H])[H])c3n2C([H])([H])C([H])([H])C3([H])[H])c([H])c(C([H])(F)F)c1F


 36 39  0  0  0  0  0  0  0  0999 V2000
   -8.3780   -9.5840    8.0504 C   0  0  0  0  0  0  0  0  0  0  0  0
   -9.7819   -9.4460    7.5420 C   0  0  0  0  0  0  0  0  0  0  0  0
  -10.3138  -10.2728    6.5272 C   0  0  0  0  0  0  0  0  0  0  0  0
  -11.5875   -9.8313    6.3028 C   0  0  0  0  0  0  0  0  0  0  0  0
  -12.7455  -10.1608    5.4305 C   0  0  0  0  0  0  0  0  0  0  0  0
  -13.6465   -8.9528    5.5788 C   0  0  0  0  0  0  0  0  0  0  0  0
  -13.2449   -8.3195    6.8695 C   0  0  0  0  0  0  0  0  0  0  0  0
  -11.8851   -8.8042    7.0928 N   0  0  0  0  0  0  0  0  0  0  0  0
  -10.7621   -8.5651    7.8645 C   0  0  0  0  0  0  0  0  0  0  0  0
  -10.7460   -7.5175    8.9056 C   0  0  0  0  0  0  0  0  0  0  0  0
   -9.6608   -6.8517    8.9717 O   0  0  0  0  0  0  0  0  0  0  0  0
  -11.8331   -7.2919    9.7278 N   0  0  0  0  0  0  0  0  0  0  0  0
  -12.7019   -7.8690    9.5627 H   0  0  0  0  0  0  0  0  0  0  0  0
  -11.8360   -6.3070   10.7496 C   0  0  0  0  0  0  0  0  0  0  0  0
  -12.8630   -5.4672   11.0611 C   0  0  0  0  0  0  0  0  0  0  0  0
  -12.7671   -4.5436   12.1149 C   0  0  0  0  0  0  0  0  0  0  0  0
  -11.6221   -4.4654   12.8628 C   0  0  0  0  0  0  0  0  0  0  0  0
  -11.4402   -3.6116   13.8911 F   0  0  0  0  0  0  0  0  0  0  0  0
  -10.5667   -5.3220   12.5485 C   0  0  0  0  0  0  0  0  0  0  0  0
  -10.6640   -6.2228   11.5190 C   0  0  0  0  0  0  0  0  0  0  0  0
   -9.2957   -5.2816   13.3279 C   0  0  0  0  0  0  0  0  0  0  0  0
   -9.4941   -5.7045   14.6266 F   0  0  0  0  0  0  0  0  0  0  0  0
   -8.3885   -6.0815   12.6593 F   0  0  0  0  0  0  0  0  0  0  0  0
   -9.5774  -11.3606    5.8988 C   0  0  0  0  0  0  0  0  0  0  0  0
   -9.1066  -12.2695    6.6284 O   0  0  0  0  0  0  0  0  0  0  0  0
   -9.3996  -11.3812    4.4634 C   0  0  0  0  0  0  0  0  0  0  0  0
  -10.1032  -10.6370    3.7365 O   0  0  0  0  0  0  0  0  0  0  0  0
   -8.4439  -12.2297    3.8813 N   0  0  0  0  0  0  0  0  0  0  0  0
   -7.8482  -12.8569    4.4693 H   0  0  0  0  0  0  0  0  0  0  0  0
   -8.2435  -12.2714    2.4424 C   0  0  0  0  0  0  0  0  0  0  0  0
   -8.9854  -13.3239    1.6832 C   0  0  0  0  0  0  0  0  0  0  0  0
   -7.5310  -13.5187    1.9530 C   0  0  0  0  0  0  0  0  0  0  0  0
   -7.7906  -11.0114    1.7351 C   0  0  0  0  0  0  0  0  0  0  0  0
   -6.6025  -11.3127    1.0906 F   0  0  0  0  0  0  0  0  0  0  0  0
   -7.5284   -9.9969    2.6596 F   0  0  0  0  0  0  0  0  0  0  0  0
   -8.6843  -10.5733    0.7979 F   0  0  0  0  0  0  0  0  0  0  0  0
  1  2  1  0  0  0
  2  3  1  0  0  0
  3 24  1  0  0  0
 24 25  2  0  0  0
 24 26  1  0  0  0
 26 27  2  0  0  0
 26 28  1  0  0  0
 28 30  1  0  0  0
 30 31  1  0  0  0
 31 32  1  0  0  0
 30 33  1  0  0  0
 33 34  1  0  0  0
 33 35  1  0  0  0
 33 36  1  0  0  0
  3  4  2  0  0  0
  4  5  1  0  0  0
  5  6  1  0  0  0
  6  7  1  0  0  0
  7  8  1  0  0  0
  8  9  1  0  0  0
  9 10  1  0  0  0
 10 11  2  0  0  0
 10 12  1  0  0  0
 12 14  1  0  0  0
 14 15  2  0  0  0
 15 16  1  0  0  0
 16 17  2  0  0  0
 17 18  1  0  0  0
 17 19  1  0  0  0
 19 20  2  0  0  0
 19 21  1  0  0  0
 21 22  1  0  0  0
 21 23  1  0  0  0
  9  2  2  0  0  0
 20 14  1  0  0  0
 32 30  1  0  0  0
  8  4  1  0  0  0
 28 29  1  0  0  0
 12 13  1  0  0  0
M  END
> <minimizedAffinity>
18.36144

> <CNNscore>
0.5605404377

> <CNNaffinity>
6.6093111038

> <CNN_VS>
3.7047860622

> <CNNaffinity_variance>
1.2129180431

$$$$
[H]c1c([H])c(N([H])C(=O)c2c(C([H])([H])[H])c(C(=O)C(=O)N([H])C3(C(F)(F)F)C([H])([H])C3([H])[H])c3n2C([H])([H])C([H])([H])C3([H])[H])c([H])c(C([H])(F)F)c1F


 36 39  0  0  0  0  0  0  0  0999 V2000
  -12.6114  -10.5370    8.8494 C   0  0  0  0  0  0  0  0  0  0  0  0
  -11.6366   -9.4306    8.5769 C   0  0  0  0  0  0  0  0  0  0  0  0
  -11.5224   -8.2897    9.4026 C   0  0  0  0  0  0  0  0  0  0  0  0
  -10.5735   -7.4936    8.8253 C   0  0  0  0  0  0  0  0  0  0  0  0
   -9.9157   -6.1833    9.0717 C   0  0  0  0  0  0  0  0  0  0  0  0
   -9.2296   -5.8862    7.7549 C   0  0  0  0  0  0  0  0  0  0  0  0
   -9.0749   -7.2113    7.0851 C   0  0  0  0  0  0  0  0  0  0  0  0
  -10.0936   -8.0470    7.7158 N   0  0  0  0  0  0  0  0  0  0  0  0
  -10.7543   -9.2526    7.5617 C   0  0  0  0  0  0  0  0  0  0  0  0
  -10.4361  -10.1743    6.4524 C   0  0  0  0  0  0  0  0  0  0  0  0
  -11.3670  -10.9951    6.1607 O   0  0  0  0  0  0  0  0  0  0  0  0
   -9.2218  -10.1299    5.7948 N   0  0  0  0  0  0  0  0  0  0  0  0
   -8.5339   -9.3825    6.0837 H   0  0  0  0  0  0  0  0  0  0  0  0
   -8.8825  -11.0177    4.7410 C   0  0  0  0  0  0  0  0  0  0  0  0
   -8.5260  -10.6693    3.4727 C   0  0  0  0  0  0  0  0  0  0  0  0
   -8.1827  -11.6341    2.5114 C   0  0  0  0  0  0  0  0  0  0  0  0
   -8.1998  -12.9657    2.8326 C   0  0  0  0  0  0  0  0  0  0  0  0
   -7.8862  -13.9602    1.9769 F   0  0  0  0  0  0  0  0  0  0  0  0
   -8.5646  -13.3290    4.1292 C   0  0  0  0  0  0  0  0  0  0  0  0
   -8.8989  -12.3842    5.0653 C   0  0  0  0  0  0  0  0  0  0  0  0
   -8.6015  -14.7635    4.5358 C   0  0  0  0  0  0  0  0  0  0  0  0
   -9.9006  -15.2129    4.6598 F   0  0  0  0  0  0  0  0  0  0  0  0
   -7.9017  -15.4712    3.5769 F   0  0  0  0  0  0  0  0  0  0  0  0
  -12.3032   -8.0847   10.6145 C   0  0  0  0  0  0  0  0  0  0  0  0
  -13.1464   -8.9574   10.9425 O   0  0  0  0  0  0  0  0  0  0  0  0
  -12.1014   -6.8963   11.4142 C   0  0  0  0  0  0  0  0  0  0  0  0
  -11.4008   -6.9558   12.4549 O   0  0  0  0  0  0  0  0  0  0  0  0
  -12.6857   -5.6783   11.0308 N   0  0  0  0  0  0  0  0  0  0  0  0
  -13.2724   -5.6081   10.1678 H   0  0  0  0  0  0  0  0  0  0  0  0
  -12.5002   -4.4686   11.8148 C   0  0  0  0  0  0  0  0  0  0  0  0
  -13.5199   -3.3883   11.6490 C   0  0  0  0  0  0  0  0  0  0  0  0
  -12.1922   -3.2355   10.9857 C   0  0  0  0  0  0  0  0  0  0  0  0
  -11.6867   -4.5467   13.0896 C   0  0  0  0  0  0  0  0  0  0  0  0
  -12.3849   -5.3590   13.9674 F   0  0  0  0  0  0  0  0  0  0  0  0
  -11.5725   -3.2839   13.6770 F   0  0  0  0  0  0  0  0  0  0  0  0
  -10.4468   -5.0906   12.9006 F   0  0  0  0  0  0  0  0  0  0  0  0
  1  2  1  0  0  0
  2  3  1  0  0  0
  3 24  1  0  0  0
 24 25  2  0  0  0
 24 26  1  0  0  0
 26 27  2  0  0  0
 26 28  1  0  0  0
 28 30  1  0  0  0
 30 31  1  0  0  0
 31 32  1  0  0  0
 30 33  1  0  0  0
 33 34  1  0  0  0
 33 35  1  0  0  0
 33 36  1  0  0  0
  3  4  2  0  0  0
  4  5  1  0  0  0
  5  6  1  0  0  0
  6  7  1  0  0  0
  7  8  1  0  0  0
  8  9  1  0  0  0
  9 10  1  0  0  0
 10 11  2  0  0  0
 10 12  1  0  0  0
 12 14  1  0  0  0
 14 15  2  0  0  0
 15 16  1  0  0  0
 16 17  2  0  0  0
 17 18  1  0  0  0
 17 19  1  0  0  0
 19 20  2  0  0  0
 19 21  1  0  0  0
 21 22  1  0  0  0
 21 23  1  0  0  0
  9  2  2  0  0  0
 20 14  1  0  0  0
 32 30  1  0  0  0
  8  4  1  0  0  0
 28 29  1  0  0  0
 12 13  1  0  0  0
M  END
> <minimizedAffinity>
25.09153

> <CNNscore>
0.4967441857

> <CNNaffinity>
6.3115539551

> <CNN_VS>
3.1352276802

> <CNNaffinity_variance>
1.2177791595

$$$$
[H]c1c([H])c(N([H])C(=O)c2c(C([H])([H])[H])c(C(=O)C(=O)N([H])C3(C(F)(F)F)C([H])([H])C3([H])[H])c3n2C([H])([H])C([H])([H])C3([H])[H])c([H])c(C([H])(F)F)c1F


 36 39  0  0  0  0  0  0  0  0999 V2000
  -12.9832   -9.0014    6.5377 C   0  0  0  0  0  0  0  0  0  0  0  0
  -12.8359   -8.0779    7.7098 C   0  0  0  0  0  0  0  0  0  0  0  0
  -13.9418   -7.5125    8.3832 C   0  0  0  0  0  0  0  0  0  0  0  0
  -13.4245   -6.7048    9.3567 C   0  0  0  0  0  0  0  0  0  0  0  0
  -13.9111   -5.8037   10.4344 C   0  0  0  0  0  0  0  0  0  0  0  0
  -12.6712   -5.0261   10.8229 C   0  0  0  0  0  0  0  0  0  0  0  0
  -11.5231   -5.8692   10.3765 C   0  0  0  0  0  0  0  0  0  0  0  0
  -12.0952   -6.7252    9.3403 N   0  0  0  0  0  0  0  0  0  0  0  0
  -11.7290   -7.5802    8.3164 C   0  0  0  0  0  0  0  0  0  0  0  0
  -10.3126   -7.8912    8.0358 C   0  0  0  0  0  0  0  0  0  0  0  0
  -10.1020   -9.0780    7.6205 O   0  0  0  0  0  0  0  0  0  0  0  0
   -9.3129   -6.9541    8.2124 N   0  0  0  0  0  0  0  0  0  0  0  0
   -9.5974   -5.9843    8.5186 H   0  0  0  0  0  0  0  0  0  0  0  0
   -7.9426   -7.2333    7.9712 C   0  0  0  0  0  0  0  0  0  0  0  0
   -6.9496   -7.2780    8.9034 C   0  0  0  0  0  0  0  0  0  0  0  0
   -5.6253   -7.5919    8.5563 C   0  0  0  0  0  0  0  0  0  0  0  0
   -5.2984   -7.8630    7.2539 C   0  0  0  0  0  0  0  0  0  0  0  0
   -4.0565   -8.1733    6.8285 F   0  0  0  0  0  0  0  0  0  0  0  0
   -6.3104   -7.8183    6.2945 C   0  0  0  0  0  0  0  0  0  0  0  0
   -7.6024   -7.5118    6.6373 C   0  0  0  0  0  0  0  0  0  0  0  0
   -6.0134   -8.1041    4.8612 C   0  0  0  0  0  0  0  0  0  0  0  0
   -6.3229   -9.4100    4.5391 F   0  0  0  0  0  0  0  0  0  0  0  0
   -6.7447   -7.2022    4.1116 F   0  0  0  0  0  0  0  0  0  0  0  0
  -15.3292   -7.7919    8.0403 C   0  0  0  0  0  0  0  0  0  0  0  0
  -16.0526   -8.3764    8.8860 O   0  0  0  0  0  0  0  0  0  0  0  0
  -15.8499   -7.3988    6.7493 C   0  0  0  0  0  0  0  0  0  0  0  0
  -15.1663   -6.6584    5.9996 O   0  0  0  0  0  0  0  0  0  0  0  0
  -17.1155   -7.8420    6.3324 N   0  0  0  0  0  0  0  0  0  0  0  0
  -17.7001   -8.4590    6.9420 H   0  0  0  0  0  0  0  0  0  0  0  0
  -17.6639   -7.4631    5.0409 C   0  0  0  0  0  0  0  0  0  0  0  0
  -18.5315   -8.4656    4.3505 C   0  0  0  0  0  0  0  0  0  0  0  0
  -17.1285   -8.2783    3.8784 C   0  0  0  0  0  0  0  0  0  0  0  0
  -17.8105   -5.9910    4.7175 C   0  0  0  0  0  0  0  0  0  0  0  0
  -18.9896   -5.8475    4.0054 F   0  0  0  0  0  0  0  0  0  0  0  0
  -16.7630   -5.5619    3.8981 F   0  0  0  0  0  0  0  0  0  0  0  0
  -17.8877   -5.2035    5.8322 F   0  0  0  0  0  0  0  0  0  0  0  0
  1  2  1  0  0  0
  2  3  1  0  0  0
  3 24  1  0  0  0
 24 25  2  0  0  0
 24 26  1  0  0  0
 26 27  2  0  0  0
 26 28  1  0  0  0
 28 30  1  0  0  0
 30 31  1  0  0  0
 31 32  1  0  0  0
 30 33  1  0  0  0
 33 34  1  0  0  0
 33 35  1  0  0  0
 33 36  1  0  0  0
  3  4  2  0  0  0
  4  5  1  0  0  0
  5  6  1  0  0  0
  6  7  1  0  0  0
  7  8  1  0  0  0
  8  9  1  0  0  0
  9 10  1  0  0  0
 10 11  2  0  0  0
 10 12  1  0  0  0
 12 14  1  0  0  0
 14 15  2  0  0  0
 15 16  1  0  0  0
 16 17  2  0  0  0
 17 18  1  0  0  0
 17 19  1  0  0  0
 19 20  2  0  0  0
 19 21  1  0  0  0
 21 22  1  0  0  0
 21 23  1  0  0  0
  9  2  2  0  0  0
 20 14  1  0  0  0
 32 30  1  0  0  0
  8  4  1  0  0  0
 28 29  1  0  0  0
 12 13  1  0  0  0
M  END
> <minimizedAffinity>
-8.52748

> <CNNscore>
0.4943321049

> <CNNaffinity>
7.5358152390

> <CNN_VS>
3.7251954079

> <CNNaffinity_variance>
0.3441423476

$$$$
[H]c1c([H])c(N([H])C(=O)c2c(C([H])([H])[H])c(C(=O)C(=O)N([H])C3(C(F)(F)F)C([H])([H])C3([H])[H])c3n2C([H])([H])C([H])([H])C3([H])[H])c([H])c(C([H])(F)F)c1F


 36 39  0  0  0  0  0  0  0  0999 V2000
  -12.3924   -9.4610    6.2129 C   0  0  0  0  0  0  0  0  0  0  0  0
  -12.2954   -8.4441    7.3107 C   0  0  0  0  0  0  0  0  0  0  0  0
  -13.4293   -7.8309    7.8891 C   0  0  0  0  0  0  0  0  0  0  0  0
  -12.9542   -6.9439    8.8138 C   0  0  0  0  0  0  0  0  0  0  0  0
  -13.4868   -5.9601    9.7930 C   0  0  0  0  0  0  0  0  0  0  0  0
  -12.2653   -5.1473   10.1677 C   0  0  0  0  0  0  0  0  0  0  0  0
  -11.0983   -6.0185    9.8399 C   0  0  0  0  0  0  0  0  0  0  0  0
  -11.6255   -6.9591    8.8543 N   0  0  0  0  0  0  0  0  0  0  0  0
  -11.2155   -7.8931    7.9198 C   0  0  0  0  0  0  0  0  0  0  0  0
   -9.7882   -8.2191    7.7247 C   0  0  0  0  0  0  0  0  0  0  0  0
   -9.4697   -9.4142    8.0342 O   0  0  0  0  0  0  0  0  0  0  0  0
   -8.8888   -7.2889    7.2404 N   0  0  0  0  0  0  0  0  0  0  0  0
   -9.2623   -6.3384    6.9716 H   0  0  0  0  0  0  0  0  0  0  0  0
   -7.5089   -7.5694    7.0641 C   0  0  0  0  0  0  0  0  0  0  0  0
   -6.9737   -8.5097    6.2357 C   0  0  0  0  0  0  0  0  0  0  0  0
   -5.5851   -8.6856    6.1188 C   0  0  0  0  0  0  0  0  0  0  0  0
   -4.7263   -7.9048    6.8464 C   0  0  0  0  0  0  0  0  0  0  0  0
   -3.3818   -8.0021    6.7988 F   0  0  0  0  0  0  0  0  0  0  0  0
   -5.2680   -6.9407    7.6970 C   0  0  0  0  0  0  0  0  0  0  0  0
   -6.6243   -6.7716    7.8082 C   0  0  0  0  0  0  0  0  0  0  0  0
   -4.3818   -6.0621    8.5138 C   0  0  0  0  0  0  0  0  0  0  0  0
   -4.0340   -4.9214    7.8191 F   0  0  0  0  0  0  0  0  0  0  0  0
   -5.0689   -5.7672    9.6761 F   0  0  0  0  0  0  0  0  0  0  0  0
  -14.8007   -8.1441    7.5129 C   0  0  0  0  0  0  0  0  0  0  0  0
  -15.4995   -8.8305    8.3007 O   0  0  0  0  0  0  0  0  0  0  0  0
  -15.3340   -7.6681    6.2553 C   0  0  0  0  0  0  0  0  0  0  0  0
  -14.6106   -7.6731    5.2286 O   0  0  0  0  0  0  0  0  0  0  0  0
  -16.6561   -7.2010    6.1793 N   0  0  0  0  0  0  0  0  0  0  0  0
  -17.2745   -7.1886    7.0228 H   0  0  0  0  0  0  0  0  0  0  0  0
  -17.2184   -6.7169    4.9296 C   0  0  0  0  0  0  0  0  0  0  0  0
  -16.6270   -5.4694    4.3565 C   0  0  0  0  0  0  0  0  0  0  0  0
  -17.9452   -5.3903    5.0511 C   0  0  0  0  0  0  0  0  0  0  0  0
  -17.9249   -7.7012    4.0213 C   0  0  0  0  0  0  0  0  0  0  0  0
  -16.9963   -8.6659    3.6679 F   0  0  0  0  0  0  0  0  0  0  0  0
  -18.3501   -7.0697    2.8494 F   0  0  0  0  0  0  0  0  0  0  0  0
  -18.9790   -8.3264    4.6269 F   0  0  0  0  0  0  0  0  0  0  0  0
  1  2  1  0  0  0
  2  3  1  0  0  0
  3 24  1  0  0  0
 24 25  2  0  0  0
 24 26  1  0  0  0
 26 27  2  0  0  0
 26 28  1  0  0  0
 28 30  1  0  0  0
 30 31  1  0  0  0
 31 32  1  0  0  0
 30 33  1  0  0  0
 33 34  1  0  0  0
 33 35  1  0  0  0
 33 36  1  0  0  0
  3  4  2  0  0  0
  4  5  1  0  0  0
  5  6  1  0  0  0
  6  7  1  0  0  0
  7  8  1  0  0  0
  8  9  1  0  0  0
  9 10  1  0  0  0
 10 11  2  0  0  0
 10 12  1  0  0  0
 12 14  1  0  0  0
 14 15  2  0  0  0
 15 16  1  0  0  0
 16 17  2  0  0  0
 17 18  1  0  0  0
 17 19  1  0  0  0
 19 20  2  0  0  0
 19 21  1  0  0  0
 21 22  1  0  0  0
 21 23  1  0  0  0
  9  2  2  0  0  0
 20 14  1  0  0  0
 32 30  1  0  0  0
  8  4  1  0  0  0
 28 29  1  0  0  0
 12 13  1  0  0  0
M  END
> <minimizedAffinity>
-10.59294

> <CNNscore>
0.4779421985

> <CNNaffinity>
7.3965196609

> <CNN_VS>
3.5351088047

> <CNNaffinity_variance>
0.1100822911

$$$$
[H]c1c([H])c(N([H])C(=O)c2c(C([H])([H])[H])c(C(=O)C(=O)N([H])C3(C(F)(F)F)C([H])([H])C3([H])[H])c3n2C([H])([H])C([H])([H])C3([H])[H])c([H])c(C([H])(F)F)c1F


 36 39  0  0  0  0  0  0  0  0999 V2000
  -14.2757   -6.6397    8.7203 C   0  0  0  0  0  0  0  0  0  0  0  0
  -13.4533   -7.6820    8.0234 C   0  0  0  0  0  0  0  0  0  0  0  0
  -12.4145   -8.3932    8.6648 C   0  0  0  0  0  0  0  0  0  0  0  0
  -11.8728   -9.2158    7.7175 C   0  0  0  0  0  0  0  0  0  0  0  0
  -10.7906  -10.2291    7.6063 C   0  0  0  0  0  0  0  0  0  0  0  0
  -10.6332  -10.4060    6.1107 C   0  0  0  0  0  0  0  0  0  0  0  0
  -11.9259   -9.9462    5.5226 C   0  0  0  0  0  0  0  0  0  0  0  0
  -12.4895   -9.0722    6.5485 N   0  0  0  0  0  0  0  0  0  0  0  0
  -13.4735   -8.1187    6.7389 C   0  0  0  0  0  0  0  0  0  0  0  0
  -14.4032   -7.7376    5.6563 C   0  0  0  0  0  0  0  0  0  0  0  0
  -13.9461   -6.8651    4.8469 O   0  0  0  0  0  0  0  0  0  0  0  0
  -15.6613   -8.2978    5.5466 N   0  0  0  0  0  0  0  0  0  0  0  0
  -15.9284   -9.0454    6.2430 H   0  0  0  0  0  0  0  0  0  0  0  0
  -16.5816   -7.9339    4.5296 C   0  0  0  0  0  0  0  0  0  0  0  0
  -16.9489   -8.6949    3.4605 C   0  0  0  0  0  0  0  0  0  0  0  0
  -17.8934   -8.2442    2.5236 C   0  0  0  0  0  0  0  0  0  0  0  0
  -18.4736   -7.0115    2.6662 C   0  0  0  0  0  0  0  0  0  0  0  0
  -19.3879   -6.4969    1.8183 F   0  0  0  0  0  0  0  0  0  0  0  0
  -18.1014   -6.2271    3.7582 C   0  0  0  0  0  0  0  0  0  0  0  0
  -17.1791   -6.6707    4.6711 C   0  0  0  0  0  0  0  0  0  0  0  0
  -18.6996   -4.8766    3.9643 C   0  0  0  0  0  0  0  0  0  0  0  0
  -20.0766   -4.9458    4.0261 F   0  0  0  0  0  0  0  0  0  0  0  0
  -18.1571   -4.3704    5.1303 F   0  0  0  0  0  0  0  0  0  0  0  0
  -12.0590   -8.2203   10.0663 C   0  0  0  0  0  0  0  0  0  0  0  0
  -12.1982   -9.1952   10.8475 O   0  0  0  0  0  0  0  0  0  0  0  0
  -11.5571   -6.9472   10.5350 C   0  0  0  0  0  0  0  0  0  0  0  0
  -10.4893   -6.4848   10.0623 O   0  0  0  0  0  0  0  0  0  0  0  0
  -12.2594   -6.2279   11.5155 N   0  0  0  0  0  0  0  0  0  0  0  0
  -13.1503   -6.5958   11.9217 H   0  0  0  0  0  0  0  0  0  0  0  0
  -11.7790   -4.9465   12.0052 C   0  0  0  0  0  0  0  0  0  0  0  0
  -10.6911   -4.9752   13.0299 C   0  0  0  0  0  0  0  0  0  0  0  0
  -12.0881   -4.6882   13.4682 C   0  0  0  0  0  0  0  0  0  0  0  0
  -11.9601   -3.7215   11.1336 C   0  0  0  0  0  0  0  0  0  0  0  0
  -11.7319   -2.6157   11.9355 F   0  0  0  0  0  0  0  0  0  0  0  0
  -13.2738   -3.6433   10.6638 F   0  0  0  0  0  0  0  0  0  0  0  0
  -11.0831   -3.6761   10.0859 F   0  0  0  0  0  0  0  0  0  0  0  0
  1  2  1  0  0  0
  2  3  1  0  0  0
  3 24  1  0  0  0
 24 25  2  0  0  0
 24 26  1  0  0  0
 26 27  2  0  0  0
 26 28  1  0  0  0
 28 30  1  0  0  0
 30 31  1  0  0  0
 31 32  1  0  0  0
 30 33  1  0  0  0
 33 34  1  0  0  0
 33 35  1  0  0  0
 33 36  1  0  0  0
  3  4  2  0  0  0
  4  5  1  0  0  0
  5  6  1  0  0  0
  6  7  1  0  0  0
  7  8  1  0  0  0
  8  9  1  0  0  0
  9 10  1  0  0  0
 10 11  2  0  0  0
 10 12  1  0  0  0
 12 14  1  0  0  0
 14 15  2  0  0  0
 15 16  1  0  0  0
 16 17  2  0  0  0
 17 18  1  0  0  0
 17 19  1  0  0  0
 19 20  2  0  0  0
 19 21  1  0  0  0
 21 22  1  0  0  0
 21 23  1  0  0  0
  9  2  2  0  0  0
 20 14  1  0  0  0
 32 30  1  0  0  0
  8  4  1  0  0  0
 28 29  1  0  0  0
 12 13  1  0  0  0
M  END
> <minimizedAffinity>
12.79465

> <CNNscore>
0.4395994544

> <CNNaffinity>
7.0001082420

> <CNN_VS>
3.0772438049

> <CNNaffinity_variance>
1.0043336153

$$$$
[H]c1c([H])c(N([H])C(=O)c2c(C([H])([H])[H])c(C(=O)C(=O)N([H])C3(C(F)(F)F)C([H])([H])C3([H])[H])c3n2C([H])([H])C([H])([H])C3([H])[H])c([H])c(C([H])(F)F)c1F


 36 39  0  0  0  0  0  0  0  0999 V2000
  -15.2649   -4.1781    5.4803 C   0  0  0  0  0  0  0  0  0  0  0  0
  -15.8181   -5.4684    6.0071 C   0  0  0  0  0  0  0  0  0  0  0  0
  -17.1055   -5.9439    5.6709 C   0  0  0  0  0  0  0  0  0  0  0  0
  -17.2744   -7.1109    6.3618 C   0  0  0  0  0  0  0  0  0  0  0  0
  -18.3098   -8.1630    6.5390 C   0  0  0  0  0  0  0  0  0  0  0  0
  -17.8247   -8.9261    7.7536 C   0  0  0  0  0  0  0  0  0  0  0  0
  -16.3618   -8.6410    7.8381 C   0  0  0  0  0  0  0  0  0  0  0  0
  -16.2013   -7.3945    7.0936 N   0  0  0  0  0  0  0  0  0  0  0  0
  -15.2949   -6.3731    6.8723 C   0  0  0  0  0  0  0  0  0  0  0  0
  -13.9521   -6.3820    7.4875 C   0  0  0  0  0  0  0  0  0  0  0  0
  -12.9911   -6.5252    6.6621 O   0  0  0  0  0  0  0  0  0  0  0  0
  -13.7751   -6.2404    8.8504 N   0  0  0  0  0  0  0  0  0  0  0  0
  -14.6345   -6.0830    9.4435 H   0  0  0  0  0  0  0  0  0  0  0  0
  -12.4983   -6.2671    9.4691 C   0  0  0  0  0  0  0  0  0  0  0  0
  -11.3041   -6.4888    8.8512 C   0  0  0  0  0  0  0  0  0  0  0  0
  -10.0914   -6.4667    9.5596 C   0  0  0  0  0  0  0  0  0  0  0  0
  -10.0830   -6.2191   10.9069 C   0  0  0  0  0  0  0  0  0  0  0  0
   -8.9697   -6.1786   11.6674 F   0  0  0  0  0  0  0  0  0  0  0  0
  -11.3024   -5.9921   11.5456 C   0  0  0  0  0  0  0  0  0  0  0  0
  -12.4844   -6.0141   10.8506 C   0  0  0  0  0  0  0  0  0  0  0  0
  -11.3546   -5.7178   13.0107 C   0  0  0  0  0  0  0  0  0  0  0  0
  -10.1359   -5.9681   13.6081 F   0  0  0  0  0  0  0  0  0  0  0  0
  -11.7390   -4.3986   13.1591 F   0  0  0  0  0  0  0  0  0  0  0  0
  -18.0094   -5.2595    4.7571 C   0  0  0  0  0  0  0  0  0  0  0  0
  -19.1627   -4.9636    5.1600 O   0  0  0  0  0  0  0  0  0  0  0  0
  -17.5747   -4.9335    3.4165 C   0  0  0  0  0  0  0  0  0  0  0  0
  -16.5319   -4.2545    3.2462 O   0  0  0  0  0  0  0  0  0  0  0  0
  -18.3143   -5.3732    2.3067 N   0  0  0  0  0  0  0  0  0  0  0  0
  -19.1853   -5.9396    2.4274 H   0  0  0  0  0  0  0  0  0  0  0  0
  -17.9015   -5.0606    0.9487 C   0  0  0  0  0  0  0  0  0  0  0  0
  -17.9217   -6.1797   -0.0422 C   0  0  0  0  0  0  0  0  0  0  0  0
  -16.6127   -5.7390    0.5224 C   0  0  0  0  0  0  0  0  0  0  0  0
  -18.0067   -3.6283    0.4688 C   0  0  0  0  0  0  0  0  0  0  0  0
  -18.6747   -2.9187    1.4528 F   0  0  0  0  0  0  0  0  0  0  0  0
  -18.7694   -3.5570   -0.6999 F   0  0  0  0  0  0  0  0  0  0  0  0
  -16.7889   -3.0394    0.2715 F   0  0  0  0  0  0  0  0  0  0  0  0
  1  2  1  0  0  0
  2  3  1  0  0  0
  3 24  1  0  0  0
 24 25  2  0  0  0
 24 26  1  0  0  0
 26 27  2  0  0  0
 26 28  1  0  0  0
 28 30  1  0  0  0
 30 31  1  0  0  0
 31 32  1  0  0  0
 30 33  1  0  0  0
 33 34  1  0  0  0
 33 35  1  0  0  0
 33 36  1  0  0  0
  3  4  2  0  0  0
  4  5  1  0  0  0
  5  6  1  0  0  0
  6  7  1  0  0  0
  7  8  1  0  0  0
  8  9  1  0  0  0
  9 10  1  0  0  0
 10 11  2  0  0  0
 10 12  1  0  0  0
 12 14  1  0  0  0
 14 15  2  0  0  0
 15 16  1  0  0  0
 16 17  2  0  0  0
 17 18  1  0  0  0
 17 19  1  0  0  0
 19 20  2  0  0  0
 19 21  1  0  0  0
 21 22  1  0  0  0
 21 23  1  0  0  0
  9  2  2  0  0  0
 20 14  1  0  0  0
 32 30  1  0  0  0
  8  4  1  0  0  0
 28 29  1  0  0  0
 12 13  1  0  0  0
M  END
> <minimizedAffinity>
32.00297

> <CNNscore>
0.4389353096

> <CNNaffinity>
6.6144928932

> <CNN_VS>
2.9033343792

> <CNNaffinity_variance>
1.0280200243

$$$$
[H]C1=C([H])C([H])(F)C([H])([H])C([H])=C1N([H])C(=O)C1(C(=O)N([H])c2c([H])c([H])c(Oc3c([H])c([H])nc4c([H])c(OC([H])([H])C([H])([H])C([H])([H])N5C([H])([H])C([H])([H])C([H])([H])C([H])([H])C5([H])[H])c(OC([H])([H])[H])c([H])c34)c(F)c2[H])C([H])([H])C1([H])[H]


 48 53  0  0  0  0  0  0  0  0999 V2000
   -7.2802   -6.9477    7.4305 C   0  0  0  0  0  0  0  0  0  0  0  0
   -7.2250   -6.7116    6.0733 C   0  0  0  0  0  0  0  0  0  0  0  0
   -6.0080   -6.4202    5.4557 C   0  0  0  0  0  0  0  0  0  0  0  0
   -4.8352   -6.3539    6.1409 C   0  0  0  0  0  0  0  0  0  0  0  0
   -4.8927   -6.5913    7.5046 C   0  0  0  0  0  0  0  0  0  0  0  0
   -6.0893   -6.8795    8.1248 C   0  0  0  0  0  0  0  0  0  0  0  0
   -6.0723   -7.0764    9.4830 F   0  0  0  0  0  0  0  0  0  0  0  0
   -3.5698   -6.0281    5.5755 N   0  0  0  0  0  0  0  0  0  0  0  0
   -3.2642   -4.7719    5.0644 C   0  0  0  0  0  0  0  0  0  0  0  0
   -4.2058   -3.8906    5.1673 O   0  0  0  0  0  0  0  0  0  0  0  0
   -2.8835   -6.8325    5.6186 H   0  0  0  0  0  0  0  0  0  0  0  0
   -2.0254   -4.2733    4.4249 C   0  0  0  0  0  0  0  0  0  0  0  0
   -0.8519   -5.2059    4.4671 C   0  0  0  0  0  0  0  0  0  0  0  0
   -1.6450   -5.1129    3.2277 C   0  0  0  0  0  0  0  0  0  0  0  0
   -1.6280   -2.8567    4.4020 C   0  0  0  0  0  0  0  0  0  0  0  0
   -0.4685   -2.6417    4.9696 O   0  0  0  0  0  0  0  0  0  0  0  0
   -2.3018   -1.7606    3.8825 N   0  0  0  0  0  0  0  0  0  0  0  0
   -3.2456   -1.8473    3.4681 H   0  0  0  0  0  0  0  0  0  0  0  0
   -1.7600   -0.4315    3.9327 C   0  0  0  0  0  0  0  0  0  0  0  0
   -1.8853    0.3249    5.0050 C   0  0  0  0  0  0  0  0  0  0  0  0
   -1.3338    1.6957    5.0711 C   0  0  0  0  0  0  0  0  0  0  0  0
   -0.5906    2.1750    3.8949 C   0  0  0  0  0  0  0  0  0  0  0  0
    0.7057    2.5315    4.3121 F   0  0  0  0  0  0  0  0  0  0  0  0
   -0.5145    1.2547    2.7591 C   0  0  0  0  0  0  0  0  0  0  0  0
   -1.0500    0.0593    2.7753 C   0  0  0  0  0  0  0  0  0  0  0  0
   -8.4755   -7.2370    8.0669 O   0  0  0  0  0  0  0  0  0  0  0  0
  -12.4307   -6.9542    9.2168 C   0  0  0  0  0  0  0  0  0  0  0  0
  -11.1100   -7.0454    8.8340 C   0  0  0  0  0  0  0  0  0  0  0  0
  -10.6418   -8.1554    8.1577 C   0  0  0  0  0  0  0  0  0  0  0  0
   -9.3035   -8.2725    7.7555 C   0  0  0  0  0  0  0  0  0  0  0  0
   -8.8591   -9.3864    7.0810 C   0  0  0  0  0  0  0  0  0  0  0  0
   -9.7437  -10.4113    6.7934 C   0  0  0  0  0  0  0  0  0  0  0  0
  -11.0244  -10.2955    7.1809 N   0  0  0  0  0  0  0  0  0  0  0  0
  -11.4732   -9.2069    7.8427 C   0  0  0  0  0  0  0  0  0  0  0  0
  -12.8031   -9.1017    8.2352 C   0  0  0  0  0  0  0  0  0  0  0  0
  -13.2870   -7.9899    8.9163 C   0  0  0  0  0  0  0  0  0  0  0  0
  -12.2664   -5.3851   11.0781 C   0  0  0  0  0  0  0  0  0  0  0  0
  -12.9082   -5.8400    9.8970 O   0  0  0  0  0  0  0  0  0  0  0  0
  -14.6121   -7.8806    9.3108 O   0  0  0  0  0  0  0  0  0  0  0  0
  -15.5996   -8.3540    8.4050 C   0  0  0  0  0  0  0  0  0  0  0  0
  -15.4151   -7.6392    7.0745 C   0  0  0  0  0  0  0  0  0  0  0  0
  -16.7405   -7.5736    6.3878 C   0  0  0  0  0  0  0  0  0  0  0  0
  -16.5848   -7.7201    4.9736 N   0  0  0  0  0  0  0  0  0  0  0  0
  -17.8875   -7.9598    4.3485 C   0  0  0  0  0  0  0  0  0  0  0  0
  -18.3706   -6.7668    3.5905 C   0  0  0  0  0  0  0  0  0  0  0  0
  -18.0862   -5.4457    4.2729 C   0  0  0  0  0  0  0  0  0  0  0  0
  -16.6587   -5.2983    4.6816 C   0  0  0  0  0  0  0  0  0  0  0  0
  -15.9360   -6.5798    4.3671 C   0  0  0  0  0  0  0  0  0  0  0  0
 37 38  1  0  0  0
 38 27  1  0  0  0
 27 28  2  0  0  0
 28 29  1  0  0  0
 29 30  2  0  0  0
 30 26  1  0  0  0
 26  1  1  0  0  0
  1  2  2  0  0  0
  2  3  1  0  0  0
  3  4  2  0  0  0
  4  8  1  0  0  0
  8  9  1  0  0  0
  9 10  2  0  0  0
  9 12  1  0  0  0
 12 13  1  0  0  0
 13 14  1  0  0  0
 12 15  1  0  0  0
 15 16  2  0  0  0
 15 17  1  0  0  0
 17 19  1  0  0  0
 19 20  2  0  0  0
 20 21  1  0  0  0
 21 22  1  0  0  0
 22 23  1  0  0  0
 22 24  1  0  0  0
 24 25  2  0  0  0
  4  5  1  0  0  0
  5  6  2  0  0  0
  6  7  1  0  0  0
 30 31  1  0  0  0
 31 32  2  0  0  0
 32 33  1  0  0  0
 33 34  2  0  0  0
 34 35  1  0  0  0
 35 36  2  0  0  0
 36 39  1  0  0  0
 39 40  1  0  0  0
 40 41  1  0  0  0
 41 42  1  0  0  0
 42 43  1  0  0  0
 43 44  1  0  0  0
 44 45  1  0  0  0
 45 46  1  0  0  0
 46 47  1  0  0  0
 47 48  1  0  0  0
 36 27  1  0  0  0
 48 43  1  0  0  0
 34 29  1  0  0  0
  6  1  1  0  0  0
 14 12  1  0  0  0
 25 19  1  0  0  0
  8 11  1  0  0  0
 17 18  1  0  0  0
M  END
> <minimizedAffinity>
-8.79307

> <CNNscore>
0.3935444057

> <CNNaffinity>
7.5390686989

> <CNN_VS>
2.9669582844

> <CNNaffinity_variance>
0.0605775416

$$$$
[H]C1=C([H])C([H])(F)C([H])([H])C([H])=C1N([H])C(=O)C1(C(=O)N([H])c2c([H])c([H])c(Oc3c([H])c([H])nc4c([H])c(OC([H])([H])C([H])([H])C([H])([H])N5C([H])([H])C([H])([H])C([H])([H])C([H])([H])C5([H])[H])c(OC([H])([H])[H])c([H])c34)c(F)c2[H])C([H])([H])C1([H])[H]


 48 53  0  0  0  0  0  0  0  0999 V2000
  -10.4861   -8.8569    7.5196 C   0  0  0  0  0  0  0  0  0  0  0  0
   -9.4600   -9.7747    7.4451 C   0  0  0  0  0  0  0  0  0  0  0  0
   -8.1396   -9.3772    7.6594 C   0  0  0  0  0  0  0  0  0  0  0  0
   -7.7978   -8.0927    7.9468 C   0  0  0  0  0  0  0  0  0  0  0  0
   -8.8302   -7.1720    8.0210 C   0  0  0  0  0  0  0  0  0  0  0  0
  -10.1378   -7.5535    7.8107 C   0  0  0  0  0  0  0  0  0  0  0  0
  -11.1039   -6.5806    7.8739 F   0  0  0  0  0  0  0  0  0  0  0  0
   -6.4692   -7.6193    8.1412 N   0  0  0  0  0  0  0  0  0  0  0  0
   -5.6389   -7.2287    7.0969 C   0  0  0  0  0  0  0  0  0  0  0  0
   -6.1690   -7.2902    5.9183 O   0  0  0  0  0  0  0  0  0  0  0  0
   -6.1995   -7.5666    9.1632 H   0  0  0  0  0  0  0  0  0  0  0  0
   -4.2404   -6.7428    7.1152 C   0  0  0  0  0  0  0  0  0  0  0  0
   -4.0677   -5.2567    7.0146 C   0  0  0  0  0  0  0  0  0  0  0  0
   -3.9646   -5.8989    8.3378 C   0  0  0  0  0  0  0  0  0  0  0  0
   -3.1062   -7.4889    6.5475 C   0  0  0  0  0  0  0  0  0  0  0  0
   -3.1963   -8.7803    6.7395 O   0  0  0  0  0  0  0  0  0  0  0  0
   -1.9928   -7.0168    5.8672 N   0  0  0  0  0  0  0  0  0  0  0  0
   -1.8286   -6.0054    5.7262 H   0  0  0  0  0  0  0  0  0  0  0  0
   -0.9727   -7.8928    5.3625 C   0  0  0  0  0  0  0  0  0  0  0  0
   -0.1959   -8.5858    6.1713 C   0  0  0  0  0  0  0  0  0  0  0  0
    0.8594   -9.4908    5.6664 C   0  0  0  0  0  0  0  0  0  0  0  0
    0.9828   -9.6253    4.2062 C   0  0  0  0  0  0  0  0  0  0  0  0
    0.8262  -10.9850    3.8773 F   0  0  0  0  0  0  0  0  0  0  0  0
    0.0718   -8.8086    3.4024 C   0  0  0  0  0  0  0  0  0  0  0  0
   -0.8253   -8.0142    3.9314 C   0  0  0  0  0  0  0  0  0  0  0  0
  -11.8041   -9.2259    7.3092 O   0  0  0  0  0  0  0  0  0  0  0  0
  -15.3499   -8.5700    5.2985 C   0  0  0  0  0  0  0  0  0  0  0  0
  -14.1650   -8.7903    5.9668 C   0  0  0  0  0  0  0  0  0  0  0  0
  -14.0641   -8.5650    7.3262 C   0  0  0  0  0  0  0  0  0  0  0  0
  -12.8711   -8.7827    8.0303 C   0  0  0  0  0  0  0  0  0  0  0  0
  -12.7935   -8.5537    9.3849 C   0  0  0  0  0  0  0  0  0  0  0  0
  -13.9086   -8.0999   10.0678 C   0  0  0  0  0  0  0  0  0  0  0  0
  -15.0490   -7.8921    9.3896 N   0  0  0  0  0  0  0  0  0  0  0  0
  -15.1383   -8.1141    8.0602 C   0  0  0  0  0  0  0  0  0  0  0  0
  -16.3274   -7.8957    7.3731 C   0  0  0  0  0  0  0  0  0  0  0  0
  -16.4422   -8.1186    6.0052 C   0  0  0  0  0  0  0  0  0  0  0  0
  -15.1700   -7.7603    3.0038 C   0  0  0  0  0  0  0  0  0  0  0  0
  -15.4582   -8.7951    3.9312 O   0  0  0  0  0  0  0  0  0  0  0  0
  -17.6255   -7.9015    5.3151 O   0  0  0  0  0  0  0  0  0  0  0  0
  -18.4354   -9.0373    5.0431 C   0  0  0  0  0  0  0  0  0  0  0  0
  -19.5459   -9.0969    6.0816 C   0  0  0  0  0  0  0  0  0  0  0  0
  -20.3988  -10.2887    5.7907 C   0  0  0  0  0  0  0  0  0  0  0  0
  -21.4867  -10.3695    6.7156 N   0  0  0  0  0  0  0  0  0  0  0  0
  -22.7569  -10.4421    5.9897 C   0  0  0  0  0  0  0  0  0  0  0  0
  -23.3578  -11.8082    6.0521 C   0  0  0  0  0  0  0  0  0  0  0  0
  -22.3497  -12.9315    5.9350 C   0  0  0  0  0  0  0  0  0  0  0  0
  -21.2071  -12.7880    6.8838 C   0  0  0  0  0  0  0  0  0  0  0  0
  -21.3596  -11.4868    7.6235 C   0  0  0  0  0  0  0  0  0  0  0  0
 37 38  1  0  0  0
 38 27  1  0  0  0
 27 28  2  0  0  0
 28 29  1  0  0  0
 29 30  2  0  0  0
 30 26  1  0  0  0
 26  1  1  0  0  0
  1  2  2  0  0  0
  2  3  1  0  0  0
  3  4  2  0  0  0
  4  8  1  0  0  0
  8  9  1  0  0  0
  9 10  2  0  0  0
  9 12  1  0  0  0
 12 13  1  0  0  0
 13 14  1  0  0  0
 12 15  1  0  0  0
 15 16  2  0  0  0
 15 17  1  0  0  0
 17 19  1  0  0  0
 19 20  2  0  0  0
 20 21  1  0  0  0
 21 22  1  0  0  0
 22 23  1  0  0  0
 22 24  1  0  0  0
 24 25  2  0  0  0
  4  5  1  0  0  0
  5  6  2  0  0  0
  6  7  1  0  0  0
 30 31  1  0  0  0
 31 32  2  0  0  0
 32 33  1  0  0  0
 33 34  2  0  0  0
 34 35  1  0  0  0
 35 36  2  0  0  0
 36 39  1  0  0  0
 39 40  1  0  0  0
 40 41  1  0  0  0
 41 42  1  0  0  0
 42 43  1  0  0  0
 43 44  1  0  0  0
 44 45  1  0  0  0
 45 46  1  0  0  0
 46 47  1  0  0  0
 47 48  1  0  0  0
 36 27  1  0  0  0
 48 43  1  0  0  0
 34 29  1  0  0  0
  6  1  1  0  0  0
 14 12  1  0  0  0
 25 19  1  0  0  0
  8 11  1  0  0  0
 17 18  1  0  0  0
M  END
> <minimizedAffinity>
-8.10122

> <CNNscore>
0.3862115741

> <CNNaffinity>
7.4592161179

> <CNN_VS>
2.8808355331

> <CNNaffinity_variance>
0.2122320831

$$$$
[H]C1=C([H])C([H])(F)C([H])([H])C([H])=C1N([H])C(=O)C1(C(=O)N([H])c2c([H])c([H])c(Oc3c([H])c([H])nc4c([H])c(OC([H])([H])C([H])([H])C([H])([H])N5C([H])([H])C([H])([H])C([H])([H])C([H])([H])C5([H])[H])c(OC([H])([H])[H])c([H])c34)c(F)c2[H])C([H])([H])C1([H])[H]


 48 53  0  0  0  0  0  0  0  0999 V2000
   -7.0703   -7.1913    7.6941 C   0  0  0  0  0  0  0  0  0  0  0  0
   -5.8546   -7.4156    8.3046 C   0  0  0  0  0  0  0  0  0  0  0  0
   -4.6663   -7.0629    7.6636 C   0  0  0  0  0  0  0  0  0  0  0  0
   -4.6402   -6.4918    6.4297 C   0  0  0  0  0  0  0  0  0  0  0  0
   -5.8626   -6.2674    5.8178 C   0  0  0  0  0  0  0  0  0  0  0  0
   -7.0422   -6.6122    6.4416 C   0  0  0  0  0  0  0  0  0  0  0  0
   -8.2130   -6.3843    5.7624 F   0  0  0  0  0  0  0  0  0  0  0  0
   -3.4623   -6.1419    5.7104 N   0  0  0  0  0  0  0  0  0  0  0  0
   -2.9209   -4.8615    5.7113 C   0  0  0  0  0  0  0  0  0  0  0  0
   -3.5447   -3.9995    6.4472 O   0  0  0  0  0  0  0  0  0  0  0  0
   -3.0306   -6.9667    5.2072 H   0  0  0  0  0  0  0  0  0  0  0  0
   -1.7338   -4.3228    5.0091 C   0  0  0  0  0  0  0  0  0  0  0  0
   -0.7891   -3.5198    5.8525 C   0  0  0  0  0  0  0  0  0  0  0  0
   -0.4550   -4.9226    5.5455 C   0  0  0  0  0  0  0  0  0  0  0  0
   -1.7363   -3.9041    3.5985 C   0  0  0  0  0  0  0  0  0  0  0  0
   -1.5385   -2.6194    3.4462 O   0  0  0  0  0  0  0  0  0  0  0  0
   -1.9213   -4.6656    2.4534 N   0  0  0  0  0  0  0  0  0  0  0  0
   -2.1357   -5.6764    2.4999 H   0  0  0  0  0  0  0  0  0  0  0  0
   -1.8805   -4.0945    1.1363 C   0  0  0  0  0  0  0  0  0  0  0  0
   -0.7547   -4.0084    0.4559 C   0  0  0  0  0  0  0  0  0  0  0  0
   -0.6968   -3.4219   -0.9006 C   0  0  0  0  0  0  0  0  0  0  0  0
   -1.9681   -2.9719   -1.4894 C   0  0  0  0  0  0  0  0  0  0  0  0
   -2.1561   -3.6603   -2.7028 F   0  0  0  0  0  0  0  0  0  0  0  0
   -3.1565   -3.1117   -0.6462 C   0  0  0  0  0  0  0  0  0  0  0  0
   -3.1176   -3.6265    0.5576 C   0  0  0  0  0  0  0  0  0  0  0  0
   -8.2631   -7.5339    8.3084 O   0  0  0  0  0  0  0  0  0  0  0  0
  -12.2657   -6.6548    8.8099 C   0  0  0  0  0  0  0  0  0  0  0  0
  -10.9289   -6.9452    8.6438 C   0  0  0  0  0  0  0  0  0  0  0  0
  -10.5277   -8.1021    8.0040 C   0  0  0  0  0  0  0  0  0  0  0  0
   -9.1745   -8.4204    7.8204 C   0  0  0  0  0  0  0  0  0  0  0  0
   -8.7974   -9.5775    7.1783 C   0  0  0  0  0  0  0  0  0  0  0  0
   -9.7663  -10.4452    6.7052 C   0  0  0  0  0  0  0  0  0  0  0  0
  -11.0613  -10.1369    6.8835 N   0  0  0  0  0  0  0  0  0  0  0  0
  -11.4443   -9.0039    7.5112 C   0  0  0  0  0  0  0  0  0  0  0  0
  -12.7897   -8.6985    7.6861 C   0  0  0  0  0  0  0  0  0  0  0  0
  -13.2065   -7.5374    8.3281 C   0  0  0  0  0  0  0  0  0  0  0  0
  -12.7088   -5.4234   10.8693 C   0  0  0  0  0  0  0  0  0  0  0  0
  -12.6759   -5.4923    9.4522 O   0  0  0  0  0  0  0  0  0  0  0  0
  -14.5469   -7.2286    8.5059 O   0  0  0  0  0  0  0  0  0  0  0  0
  -15.4856   -8.2773    8.3088 C   0  0  0  0  0  0  0  0  0  0  0  0
  -16.5597   -7.7882    7.3485 C   0  0  0  0  0  0  0  0  0  0  0  0
  -15.8971   -7.0123    6.2569 C   0  0  0  0  0  0  0  0  0  0  0  0
  -16.1108   -7.6396    4.9895 N   0  0  0  0  0  0  0  0  0  0  0  0
  -17.4519   -8.2268    4.9411 C   0  0  0  0  0  0  0  0  0  0  0  0
  -18.3717   -7.4453    4.0610 C   0  0  0  0  0  0  0  0  0  0  0  0
  -18.2019   -5.9448    4.1689 C   0  0  0  0  0  0  0  0  0  0  0  0
  -16.7840   -5.5077    4.0110 C   0  0  0  0  0  0  0  0  0  0  0  0
  -15.9175   -6.7307    3.8825 C   0  0  0  0  0  0  0  0  0  0  0  0
 37 38  1  0  0  0
 38 27  1  0  0  0
 27 28  2  0  0  0
 28 29  1  0  0  0
 29 30  2  0  0  0
 30 26  1  0  0  0
 26  1  1  0  0  0
  1  2  2  0  0  0
  2  3  1  0  0  0
  3  4  2  0  0  0
  4  8  1  0  0  0
  8  9  1  0  0  0
  9 10  2  0  0  0
  9 12  1  0  0  0
 12 13  1  0  0  0
 13 14  1  0  0  0
 12 15  1  0  0  0
 15 16  2  0  0  0
 15 17  1  0  0  0
 17 19  1  0  0  0
 19 20  2  0  0  0
 20 21  1  0  0  0
 21 22  1  0  0  0
 22 23  1  0  0  0
 22 24  1  0  0  0
 24 25  2  0  0  0
  4  5  1  0  0  0
  5  6  2  0  0  0
  6  7  1  0  0  0
 30 31  1  0  0  0
 31 32  2  0  0  0
 32 33  1  0  0  0
 33 34  2  0  0  0
 34 35  1  0  0  0
 35 36  2  0  0  0
 36 39  1  0  0  0
 39 40  1  0  0  0
 40 41  1  0  0  0
 41 42  1  0  0  0
 42 43  1  0  0  0
 43 44  1  0  0  0
 44 45  1  0  0  0
 45 46  1  0  0  0
 46 47  1  0  0  0
 47 48  1  0  0  0
 36 27  1  0  0  0
 48 43  1  0  0  0
 34 29  1  0  0  0
  6  1  1  0  0  0
 14 12  1  0  0  0
 25 19  1  0  0  0
  8 11  1  0  0  0
 17 18  1  0  0  0
M  END
> <minimizedAffinity>
-9.38603

> <CNNscore>
0.3262638152

> <CNNaffinity>
7.4831290245

> <CNN_VS>
2.4414741993

> <CNNaffinity_variance>
0.1168722510

$$$$
[H]C1=C([H])C([H])(F)C([H])([H])C([H])=C1N([H])C(=O)C1(C(=O)N([H])c2c([H])c([H])c(Oc3c([H])c([H])nc4c([H])c(OC([H])([H])C([H])([H])C([H])([H])N5C([H])([H])C([H])([H])C([H])([H])C([H])([H])C5([H])[H])c(OC([H])([H])[H])c([H])c34)c(F)c2[H])C([H])([H])C1([H])[H]


 48 53  0  0  0  0  0  0  0  0999 V2000
   -7.1560   -7.0571    7.6854 C   0  0  0  0  0  0  0  0  0  0  0  0
   -7.0238   -6.8253    6.3328 C   0  0  0  0  0  0  0  0  0  0  0  0
   -5.7906   -6.4512    5.7973 C   0  0  0  0  0  0  0  0  0  0  0  0
   -4.6758   -6.2974    6.5608 C   0  0  0  0  0  0  0  0  0  0  0  0
   -4.8107   -6.5304    7.9196 C   0  0  0  0  0  0  0  0  0  0  0  0
   -6.0239   -6.9000    8.4592 C   0  0  0  0  0  0  0  0  0  0  0  0
   -6.0872   -7.0874    9.8174 F   0  0  0  0  0  0  0  0  0  0  0  0
   -3.4006   -5.8851    6.0802 N   0  0  0  0  0  0  0  0  0  0  0  0
   -2.3729   -6.7741    5.7868 C   0  0  0  0  0  0  0  0  0  0  0  0
   -2.6628   -8.0247    5.9472 O   0  0  0  0  0  0  0  0  0  0  0  0
   -3.3354   -4.8381    5.9405 H   0  0  0  0  0  0  0  0  0  0  0  0
   -0.9943   -6.5210    5.3095 C   0  0  0  0  0  0  0  0  0  0  0  0
   -0.0676   -5.8904    6.3057 C   0  0  0  0  0  0  0  0  0  0  0  0
    0.0153   -7.3442    6.0750 C   0  0  0  0  0  0  0  0  0  0  0  0
   -0.6590   -6.1747    3.9193 C   0  0  0  0  0  0  0  0  0  0  0  0
   -1.7083   -5.8586    3.2039 O   0  0  0  0  0  0  0  0  0  0  0  0
    0.5781   -6.1481    3.2915 N   0  0  0  0  0  0  0  0  0  0  0  0
    1.4432   -6.4372    3.7793 H   0  0  0  0  0  0  0  0  0  0  0  0
    0.7326   -5.7703    1.9145 C   0  0  0  0  0  0  0  0  0  0  0  0
    0.7685   -6.6700    0.9518 C   0  0  0  0  0  0  0  0  0  0  0  0
    0.9282   -6.2963   -0.4704 C   0  0  0  0  0  0  0  0  0  0  0  0
    1.0019   -4.8596   -0.7801 C   0  0  0  0  0  0  0  0  0  0  0  0
   -0.0347   -4.5527   -1.6816 F   0  0  0  0  0  0  0  0  0  0  0  0
    0.9547   -3.9482    0.3645 C   0  0  0  0  0  0  0  0  0  0  0  0
    0.8310   -4.3645    1.6003 C   0  0  0  0  0  0  0  0  0  0  0  0
   -8.3690   -7.4274    8.2413 O   0  0  0  0  0  0  0  0  0  0  0  0
  -12.4018   -7.1974    9.0950 C   0  0  0  0  0  0  0  0  0  0  0  0
  -11.0553   -7.2710    8.8113 C   0  0  0  0  0  0  0  0  0  0  0  0
  -10.5392   -8.3279    8.0864 C   0  0  0  0  0  0  0  0  0  0  0  0
   -9.1737   -8.4260    7.7828 C   0  0  0  0  0  0  0  0  0  0  0  0
   -8.6815   -9.4866    7.0574 C   0  0  0  0  0  0  0  0  0  0  0  0
   -9.5444  -10.4759    6.6191 C   0  0  0  0  0  0  0  0  0  0  0  0
  -10.8514  -10.3785    6.9125 N   0  0  0  0  0  0  0  0  0  0  0  0
  -11.3471   -9.3420    7.6228 C   0  0  0  0  0  0  0  0  0  0  0  0
  -12.7035   -9.2551    7.9165 C   0  0  0  0  0  0  0  0  0  0  0  0
  -13.2356   -8.1967    8.6451 C   0  0  0  0  0  0  0  0  0  0  0  0
  -12.0700   -5.1864   10.4364 C   0  0  0  0  0  0  0  0  0  0  0  0
  -12.9275   -6.1366    9.8233 O   0  0  0  0  0  0  0  0  0  0  0  0
  -14.5874   -8.1058    8.9415 O   0  0  0  0  0  0  0  0  0  0  0  0
  -15.3987   -7.3572    8.0464 C   0  0  0  0  0  0  0  0  0  0  0  0
  -16.7126   -8.0994    7.8518 C   0  0  0  0  0  0  0  0  0  0  0  0
  -17.3519   -7.6030    6.5958 C   0  0  0  0  0  0  0  0  0  0  0  0
  -16.3592   -7.2550    5.6268 N   0  0  0  0  0  0  0  0  0  0  0  0
  -16.2724   -8.2979    4.6019 C   0  0  0  0  0  0  0  0  0  0  0  0
  -16.8660   -7.8560    3.3044 C   0  0  0  0  0  0  0  0  0  0  0  0
  -18.1314   -7.0381    3.4518 C   0  0  0  0  0  0  0  0  0  0  0  0
  -17.9800   -5.9001    4.4049 C   0  0  0  0  0  0  0  0  0  0  0  0
  -16.6076   -5.9681    5.0175 C   0  0  0  0  0  0  0  0  0  0  0  0
 37 38  1  0  0  0
 38 27  1  0  0  0
 27 28  2  0  0  0
 28 29  1  0  0  0
 29 30  2  0  0  0
 30 26  1  0  0  0
 26  1  1  0  0  0
  1  2  2  0  0  0
  2  3  1  0  0  0
  3  4  2  0  0  0
  4  8  1  0  0  0
  8  9  1  0  0  0
  9 10  2  0  0  0
  9 12  1  0  0  0
 12 13  1  0  0  0
 13 14  1  0  0  0
 12 15  1  0  0  0
 15 16  2  0  0  0
 15 17  1  0  0  0
 17 19  1  0  0  0
 19 20  2  0  0  0
 20 21  1  0  0  0
 21 22  1  0  0  0
 22 23  1  0  0  0
 22 24  1  0  0  0
 24 25  2  0  0  0
  4  5  1  0  0  0
  5  6  2  0  0  0
  6  7  1  0  0  0
 30 31  1  0  0  0
 31 32  2  0  0  0
 32 33  1  0  0  0
 33 34  2  0  0  0
 34 35  1  0  0  0
 35 36  2  0  0  0
 36 39  1  0  0  0
 39 40  1  0  0  0
 40 41  1  0  0  0
 41 42  1  0  0  0
 42 43  1  0  0  0
 43 44  1  0  0  0
 44 45  1  0  0  0
 45 46  1  0  0  0
 46 47  1  0  0  0
 47 48  1  0  0  0
 36 27  1  0  0  0
 48 43  1  0  0  0
 34 29  1  0  0  0
  6  1  1  0  0  0
 14 12  1  0  0  0
 25 19  1  0  0  0
  8 11  1  0  0  0
 17 18  1  0  0  0
M  END
> <minimizedAffinity>
-7.86607

> <CNNscore>
0.3184091449

> <CNNaffinity>
7.3703842163

> <CNN_VS>
2.3467977047

> <CNNaffinity_variance>
0.0709540322

$$$$
[H]C1=C([H])C([H])(F)C([H])([H])C([H])=C1N([H])C(=O)C1(C(=O)N([H])c2c([H])c([H])c(Oc3c([H])c([H])nc4c([H])c(OC([H])([H])C([H])([H])C([H])([H])N5C([H])([H])C([H])([H])C([H])([H])C([H])([H])C5([H])[H])c(OC([H])([H])[H])c([H])c34)c(F)c2[H])C([H])([H])C1([H])[H]


 48 53  0  0  0  0  0  0  0  0999 V2000
   -6.1997   -7.5800    6.7000 C   0  0  0  0  0  0  0  0  0  0  0  0
   -6.5409   -8.1303    7.9171 C   0  0  0  0  0  0  0  0  0  0  0  0
   -7.7999   -7.8946    8.4710 C   0  0  0  0  0  0  0  0  0  0  0  0
   -8.7394   -7.1269    7.8566 C   0  0  0  0  0  0  0  0  0  0  0  0
   -8.3946   -6.5747    6.6338 C   0  0  0  0  0  0  0  0  0  0  0  0
   -7.1538   -6.8006    6.0778 C   0  0  0  0  0  0  0  0  0  0  0  0
   -6.8741   -6.1983    4.8766 F   0  0  0  0  0  0  0  0  0  0  0  0
  -10.0257   -6.8216    8.3851 N   0  0  0  0  0  0  0  0  0  0  0  0
  -11.1614   -7.5742    8.1089 C   0  0  0  0  0  0  0  0  0  0  0  0
  -10.9680   -8.6085    7.3561 O   0  0  0  0  0  0  0  0  0  0  0  0
  -10.0133   -5.9848    9.0329 H   0  0  0  0  0  0  0  0  0  0  0  0
  -12.5638   -7.3880    8.5459 C   0  0  0  0  0  0  0  0  0  0  0  0
  -12.9823   -8.1867    9.7440 C   0  0  0  0  0  0  0  0  0  0  0  0
  -12.6361   -6.7645    9.9203 C   0  0  0  0  0  0  0  0  0  0  0  0
  -13.6788   -7.1116    7.6264 C   0  0  0  0  0  0  0  0  0  0  0  0
  -14.8448   -7.1161    8.2208 O   0  0  0  0  0  0  0  0  0  0  0  0
  -13.6547   -6.8636    6.2614 N   0  0  0  0  0  0  0  0  0  0  0  0
  -12.7760   -6.8976    5.7168 H   0  0  0  0  0  0  0  0  0  0  0  0
  -14.8480   -6.5970    5.5081 C   0  0  0  0  0  0  0  0  0  0  0  0
  -15.7113   -7.5512    5.2219 C   0  0  0  0  0  0  0  0  0  0  0  0
  -16.9437   -7.2921    4.4462 C   0  0  0  0  0  0  0  0  0  0  0  0
  -17.1968   -5.9012    4.0378 C   0  0  0  0  0  0  0  0  0  0  0  0
  -18.4438   -5.5115    4.5619 F   0  0  0  0  0  0  0  0  0  0  0  0
  -16.1723   -4.9226    4.4060 C   0  0  0  0  0  0  0  0  0  0  0  0
  -15.0952   -5.2403    5.0803 C   0  0  0  0  0  0  0  0  0  0  0  0
   -4.9564   -7.7974    6.1303 O   0  0  0  0  0  0  0  0  0  0  0  0
   -3.3727   -3.9854    6.0510 C   0  0  0  0  0  0  0  0  0  0  0  0
   -3.9041   -5.2566    6.0761 C   0  0  0  0  0  0  0  0  0  0  0  0
   -3.2406   -6.2913    6.7067 C   0  0  0  0  0  0  0  0  0  0  0  0
   -3.7600   -7.5932    6.7482 C   0  0  0  0  0  0  0  0  0  0  0  0
   -3.0829   -8.6085    7.3839 C   0  0  0  0  0  0  0  0  0  0  0  0
   -1.8682   -8.3455    7.9929 C   0  0  0  0  0  0  0  0  0  0  0  0
   -1.3740   -7.0974    7.9504 N   0  0  0  0  0  0  0  0  0  0  0  0
   -2.0293   -6.0920    7.3306 C   0  0  0  0  0  0  0  0  0  0  0  0
   -1.5045   -4.8046    7.2973 C   0  0  0  0  0  0  0  0  0  0  0  0
   -2.1624   -3.7544    6.6660 C   0  0  0  0  0  0  0  0  0  0  0  0
   -3.9933   -2.8073    4.0064 C   0  0  0  0  0  0  0  0  0  0  0  0
   -4.0354   -2.9399    5.4187 O   0  0  0  0  0  0  0  0  0  0  0  0
   -1.6429   -2.4690    6.6292 O   0  0  0  0  0  0  0  0  0  0  0  0
   -1.2315   -1.9002    7.8649 C   0  0  0  0  0  0  0  0  0  0  0  0
   -2.4418   -1.8160    8.7831 C   0  0  0  0  0  0  0  0  0  0  0  0
   -1.9831   -2.0365   10.1879 C   0  0  0  0  0  0  0  0  0  0  0  0
   -3.0292   -2.6092   10.9772 N   0  0  0  0  0  0  0  0  0  0  0  0
   -3.7706   -3.5948   10.1869 C   0  0  0  0  0  0  0  0  0  0  0  0
   -3.4681   -4.9939   10.6139 C   0  0  0  0  0  0  0  0  0  0  0  0
   -2.0132   -5.2333   10.9570 C   0  0  0  0  0  0  0  0  0  0  0  0
   -1.4718   -4.2329   11.9226 C   0  0  0  0  0  0  0  0  0  0  0  0
   -2.5377   -3.2074   12.1976 C   0  0  0  0  0  0  0  0  0  0  0  0
 37 38  1  0  0  0
 38 27  1  0  0  0
 27 28  2  0  0  0
 28 29  1  0  0  0
 29 30  2  0  0  0
 30 26  1  0  0  0
 26  1  1  0  0  0
  1  2  2  0  0  0
  2  3  1  0  0  0
  3  4  2  0  0  0
  4  8  1  0  0  0
  8  9  1  0  0  0
  9 10  2  0  0  0
  9 12  1  0  0  0
 12 13  1  0  0  0
 13 14  1  0  0  0
 12 15  1  0  0  0
 15 16  2  0  0  0
 15 17  1  0  0  0
 17 19  1  0  0  0
 19 20  2  0  0  0
 20 21  1  0  0  0
 21 22  1  0  0  0
 22 23  1  0  0  0
 22 24  1  0  0  0
 24 25  2  0  0  0
  4  5  1  0  0  0
  5  6  2  0  0  0
  6  7  1  0  0  0
 30 31  1  0  0  0
 31 32  2  0  0  0
 32 33  1  0  0  0
 33 34  2  0  0  0
 34 35  1  0  0  0
 35 36  2  0  0  0
 36 39  1  0  0  0
 39 40  1  0  0  0
 40 41  1  0  0  0
 41 42  1  0  0  0
 42 43  1  0  0  0
 43 44  1  0  0  0
 44 45  1  0  0  0
 45 46  1  0  0  0
 46 47  1  0  0  0
 47 48  1  0  0  0
 36 27  1  0  0  0
 48 43  1  0  0  0
 34 29  1  0  0  0
  6  1  1  0  0  0
 14 12  1  0  0  0
 25 19  1  0  0  0
  8 11  1  0  0  0
 17 18  1  0  0  0
M  END
> <minimizedAffinity>
-8.71201

> <CNNscore>
0.2416621894

> <CNNaffinity>
7.3525619507

> <CNN_VS>
1.7768362761

> <CNNaffinity_variance>
0.2499183416

$$$$
[H]C1=C([H])C([H])(F)C([H])([H])C([H])=C1N([H])C(=O)C1(C(=O)N([H])c2c([H])c([H])c(Oc3c([H])c([H])nc4c([H])c(OC([H])([H])C([H])([H])C([H])([H])N5C([H])([H])C([H])([H])C([H])([H])C([H])([H])C5([H])[H])c(OC([H])([H])[H])c([H])c34)c(F)c2[H])C([H])([H])C1([H])[H]


 48 53  0  0  0  0  0  0  0  0999 V2000
  -10.5762   -8.8072    7.4176 C   0  0  0  0  0  0  0  0  0  0  0  0
   -9.5644   -9.7397    7.3306 C   0  0  0  0  0  0  0  0  0  0  0  0
   -8.2375   -9.3644    7.5444 C   0  0  0  0  0  0  0  0  0  0  0  0
   -7.8752   -8.0882    7.8433 C   0  0  0  0  0  0  0  0  0  0  0  0
   -8.8932   -7.1526    7.9300 C   0  0  0  0  0  0  0  0  0  0  0  0
  -10.2071   -7.5122    7.7204 C   0  0  0  0  0  0  0  0  0  0  0  0
  -11.1582   -6.5254    7.7964 F   0  0  0  0  0  0  0  0  0  0  0  0
   -6.5390   -7.6369    8.0378 N   0  0  0  0  0  0  0  0  0  0  0  0
   -5.7415   -7.1502    7.0084 C   0  0  0  0  0  0  0  0  0  0  0  0
   -6.3099   -7.0992    5.8473 O   0  0  0  0  0  0  0  0  0  0  0  0
   -6.2359   -7.6815    9.0508 H   0  0  0  0  0  0  0  0  0  0  0  0
   -4.3409   -6.6700    7.0267 C   0  0  0  0  0  0  0  0  0  0  0  0
   -3.5688   -6.9667    8.2775 C   0  0  0  0  0  0  0  0  0  0  0  0
   -3.3633   -7.8201    7.0929 C   0  0  0  0  0  0  0  0  0  0  0  0
   -3.8864   -5.4435    6.3528 C   0  0  0  0  0  0  0  0  0  0  0  0
   -3.4131   -4.5493    7.1830 O   0  0  0  0  0  0  0  0  0  0  0  0
   -3.9010   -5.1224    5.0029 N   0  0  0  0  0  0  0  0  0  0  0  0
   -4.3092   -5.7576    4.2960 H   0  0  0  0  0  0  0  0  0  0  0  0
   -3.4014   -3.8711    4.5057 C   0  0  0  0  0  0  0  0  0  0  0  0
   -4.1637   -2.7972    4.4488 C   0  0  0  0  0  0  0  0  0  0  0  0
   -3.6637   -1.5022    3.9382 C   0  0  0  0  0  0  0  0  0  0  0  0
   -2.2506   -1.4442    3.5318 C   0  0  0  0  0  0  0  0  0  0  0  0
   -1.6187   -0.4392    4.2882 F   0  0  0  0  0  0  0  0  0  0  0  0
   -1.4966   -2.6949    3.6339 C   0  0  0  0  0  0  0  0  0  0  0  0
   -2.0231   -3.8080    4.0806 C   0  0  0  0  0  0  0  0  0  0  0  0
  -11.9004   -9.1540    7.2080 O   0  0  0  0  0  0  0  0  0  0  0  0
  -15.4901   -8.4267    5.3027 C   0  0  0  0  0  0  0  0  0  0  0  0
  -14.2906   -8.6707    5.9357 C   0  0  0  0  0  0  0  0  0  0  0  0
  -14.1607   -8.5008    7.3007 C   0  0  0  0  0  0  0  0  0  0  0  0
  -12.9523   -8.7437    7.9694 C   0  0  0  0  0  0  0  0  0  0  0  0
  -12.8459   -8.5699    9.3303 C   0  0  0  0  0  0  0  0  0  0  0  0
  -13.9468   -8.1474   10.0550 C   0  0  0  0  0  0  0  0  0  0  0  0
  -15.1020   -7.9154    9.4106 N   0  0  0  0  0  0  0  0  0  0  0  0
  -15.2197   -8.0832    8.0755 C   0  0  0  0  0  0  0  0  0  0  0  0
  -16.4238   -7.8404    7.4237 C   0  0  0  0  0  0  0  0  0  0  0  0
  -16.5677   -8.0076    6.0505 C   0  0  0  0  0  0  0  0  0  0  0  0
  -14.4905   -8.8306    3.1138 C   0  0  0  0  0  0  0  0  0  0  0  0
  -15.6276   -8.5963    3.9299 O   0  0  0  0  0  0  0  0  0  0  0  0
  -17.7661   -7.7659    5.3956 O   0  0  0  0  0  0  0  0  0  0  0  0
  -18.5601   -8.8954    5.0584 C   0  0  0  0  0  0  0  0  0  0  0  0
  -19.7018   -8.9976    6.0591 C   0  0  0  0  0  0  0  0  0  0  0  0
  -20.4141  -10.2909    5.8299 C   0  0  0  0  0  0  0  0  0  0  0  0
  -21.5583  -10.3956    6.6816 N   0  0  0  0  0  0  0  0  0  0  0  0
  -22.7701  -10.5573    5.8748 C   0  0  0  0  0  0  0  0  0  0  0  0
  -23.3070  -11.9493    5.9474 C   0  0  0  0  0  0  0  0  0  0  0  0
  -22.2400  -13.0232    5.9406 C   0  0  0  0  0  0  0  0  0  0  0  0
  -21.1741  -12.7896    6.9584 C   0  0  0  0  0  0  0  0  0  0  0  0
  -21.4404  -11.4736    7.6370 C   0  0  0  0  0  0  0  0  0  0  0  0
 37 38  1  0  0  0
 38 27  1  0  0  0
 27 28  2  0  0  0
 28 29  1  0  0  0
 29 30  2  0  0  0
 30 26  1  0  0  0
 26  1  1  0  0  0
  1  2  2  0  0  0
  2  3  1  0  0  0
  3  4  2  0  0  0
  4  8  1  0  0  0
  8  9  1  0  0  0
  9 10  2  0  0  0
  9 12  1  0  0  0
 12 13  1  0  0  0
 13 14  1  0  0  0
 12 15  1  0  0  0
 15 16  2  0  0  0
 15 17  1  0  0  0
 17 19  1  0  0  0
 19 20  2  0  0  0
 20 21  1  0  0  0
 21 22  1  0  0  0
 22 23  1  0  0  0
 22 24  1  0  0  0
 24 25  2  0  0  0
  4  5  1  0  0  0
  5  6  2  0  0  0
  6  7  1  0  0  0
 30 31  1  0  0  0
 31 32  2  0  0  0
 32 33  1  0  0  0
 33 34  2  0  0  0
 34 35  1  0  0  0
 35 36  2  0  0  0
 36 39  1  0  0  0
 39 40  1  0  0  0
 40 41  1  0  0  0
 41 42  1  0  0  0
 42 43  1  0  0  0
 43 44  1  0  0  0
 44 45  1  0  0  0
 45 46  1  0  0  0
 46 47  1  0  0  0
 47 48  1  0  0  0
 36 27  1  0  0  0
 48 43  1  0  0  0
 34 29  1  0  0  0
  6  1  1  0  0  0
 14 12  1  0  0  0
 25 19  1  0  0  0
  8 11  1  0  0  0
 17 18  1  0  0  0
M  END
> <minimizedAffinity>
-8.19339

> <CNNscore>
0.2077886760

> <CNNaffinity>
7.4261040688

> <CNN_VS>
1.5430603027

> <CNNaffinity_variance>
0.1636767685

$$$$
[H]C1=C([H])C([H])(F)C([H])([H])C([H])=C1N([H])C(=O)C1(C(=O)N([H])c2c([H])c([H])c(Oc3c([H])c([H])nc4c([H])c(OC([H])([H])C([H])([H])C([H])([H])N5C([H])([H])C([H])([H])C([H])([H])C([H])([H])C5([H])[H])c(OC([H])([H])[H])c([H])c34)c(F)c2[H])C([H])([H])C1([H])[H]


 48 53  0  0  0  0  0  0  0  0999 V2000
   -6.3222   -7.6068    6.3847 C   0  0  0  0  0  0  0  0  0  0  0  0
   -7.0580   -6.4838    6.0714 C   0  0  0  0  0  0  0  0  0  0  0  0
   -8.3424   -6.3133    6.5897 C   0  0  0  0  0  0  0  0  0  0  0  0
   -8.9276   -7.2235    7.4135 C   0  0  0  0  0  0  0  0  0  0  0  0
   -8.1867   -8.3513    7.7270 C   0  0  0  0  0  0  0  0  0  0  0  0
   -6.9175   -8.5300    7.2203 C   0  0  0  0  0  0  0  0  0  0  0  0
   -6.2548   -9.6849    7.5532 F   0  0  0  0  0  0  0  0  0  0  0  0
  -10.2444   -7.1238    7.9456 N   0  0  0  0  0  0  0  0  0  0  0  0
  -11.2333   -8.0734    7.7155 C   0  0  0  0  0  0  0  0  0  0  0  0
  -10.8670   -9.0897    7.0035 O   0  0  0  0  0  0  0  0  0  0  0  0
  -10.3742   -6.2706    8.5581 H   0  0  0  0  0  0  0  0  0  0  0  0
  -12.6442   -8.1150    8.1627 C   0  0  0  0  0  0  0  0  0  0  0  0
  -13.0710   -9.3779    8.8493 C   0  0  0  0  0  0  0  0  0  0  0  0
  -12.7446   -8.1960    9.6681 C   0  0  0  0  0  0  0  0  0  0  0  0
  -13.7485   -7.4498    7.4533 C   0  0  0  0  0  0  0  0  0  0  0  0
  -14.2809   -6.4708    8.1395 O   0  0  0  0  0  0  0  0  0  0  0  0
  -14.2823   -7.7213    6.2016 N   0  0  0  0  0  0  0  0  0  0  0  0
  -13.9479   -8.5134    5.6266 H   0  0  0  0  0  0  0  0  0  0  0  0
  -15.3646   -6.9578    5.6462 C   0  0  0  0  0  0  0  0  0  0  0  0
  -16.5833   -7.4522    5.5567 C   0  0  0  0  0  0  0  0  0  0  0  0
  -17.7075   -6.6786    4.9862 C   0  0  0  0  0  0  0  0  0  0  0  0
  -17.4211   -5.3005    4.5569 C   0  0  0  0  0  0  0  0  0  0  0  0
  -18.2790   -4.4355    5.2620 F   0  0  0  0  0  0  0  0  0  0  0  0
  -16.0343   -4.8541    4.6989 C   0  0  0  0  0  0  0  0  0  0  0  0
  -15.0906   -5.6129    5.1985 C   0  0  0  0  0  0  0  0  0  0  0  0
   -5.0465   -7.8000    5.8818 O   0  0  0  0  0  0  0  0  0  0  0  0
   -3.4437   -4.0184    5.4622 C   0  0  0  0  0  0  0  0  0  0  0  0
   -3.9815   -5.2797    5.6005 C   0  0  0  0  0  0  0  0  0  0  0  0
   -3.3617   -6.2337    6.3844 C   0  0  0  0  0  0  0  0  0  0  0  0
   -3.8886   -7.5235    6.5432 C   0  0  0  0  0  0  0  0  0  0  0  0
   -3.2556   -8.4577    7.3307 C   0  0  0  0  0  0  0  0  0  0  0  0
   -2.0785   -8.1236    7.9776 C   0  0  0  0  0  0  0  0  0  0  0  0
   -1.5770   -6.8874    7.8224 N   0  0  0  0  0  0  0  0  0  0  0  0
   -2.1893   -5.9612    7.0531 C   0  0  0  0  0  0  0  0  0  0  0  0
   -1.6577   -4.6849    6.9044 C   0  0  0  0  0  0  0  0  0  0  0  0
   -2.2716   -3.7156    6.1185 C   0  0  0  0  0  0  0  0  0  0  0  0
   -3.8675   -3.0343    3.2700 C   0  0  0  0  0  0  0  0  0  0  0  0
   -4.0626   -3.0539    4.6756 O   0  0  0  0  0  0  0  0  0  0  0  0
   -1.7451   -2.4416    5.9661 O   0  0  0  0  0  0  0  0  0  0  0  0
   -0.4587   -2.3385    5.3708 C   0  0  0  0  0  0  0  0  0  0  0  0
   -0.5941   -2.6145    3.8806 C   0  0  0  0  0  0  0  0  0  0  0  0
    0.3044   -3.7558    3.5299 C   0  0  0  0  0  0  0  0  0  0  0  0
   -0.1055   -4.3626    2.3014 N   0  0  0  0  0  0  0  0  0  0  0  0
    1.0022   -5.1307    1.7282 C   0  0  0  0  0  0  0  0  0  0  0  0
    0.7865   -6.6030    1.8585 C   0  0  0  0  0  0  0  0  0  0  0  0
    0.1728   -7.0223    3.1774 C   0  0  0  0  0  0  0  0  0  0  0  0
   -1.0599   -6.2524    3.5154 C   0  0  0  0  0  0  0  0  0  0  0  0
   -1.2720   -5.2010    2.4604 C   0  0  0  0  0  0  0  0  0  0  0  0
 37 38  1  0  0  0
 38 27  1  0  0  0
 27 28  2  0  0  0
 28 29  1  0  0  0
 29 30  2  0  0  0
 30 26  1  0  0  0
 26  1  1  0  0  0
  1  2  2  0  0  0
  2  3  1  0  0  0
  3  4  2  0  0  0
  4  8  1  0  0  0
  8  9  1  0  0  0
  9 10  2  0  0  0
  9 12  1  0  0  0
 12 13  1  0  0  0
 13 14  1  0  0  0
 12 15  1  0  0  0
 15 16  2  0  0  0
 15 17  1  0  0  0
 17 19  1  0  0  0
 19 20  2  0  0  0
 20 21  1  0  0  0
 21 22  1  0  0  0
 22 23  1  0  0  0
 22 24  1  0  0  0
 24 25  2  0  0  0
  4  5  1  0  0  0
  5  6  2  0  0  0
  6  7  1  0  0  0
 30 31  1  0  0  0
 31 32  2  0  0  0
 32 33  1  0  0  0
 33 34  2  0  0  0
 34 35  1  0  0  0
 35 36  2  0  0  0
 36 39  1  0  0  0
 39 40  1  0  0  0
 40 41  1  0  0  0
 41 42  1  0  0  0
 42 43  1  0  0  0
 43 44  1  0  0  0
 44 45  1  0  0  0
 45 46  1  0  0  0
 46 47  1  0  0  0
 47 48  1  0  0  0
 36 27  1  0  0  0
 48 43  1  0  0  0
 34 29  1  0  0  0
  6  1  1  0  0  0
 14 12  1  0  0  0
 25 19  1  0  0  0
  8 11  1  0  0  0
 17 18  1  0  0  0
M  END
> <minimizedAffinity>
-8.18010

> <CNNscore>
0.1628612280

> <CNNaffinity>
7.1522264481

> <CNN_VS>
1.1648204327

> <CNNaffinity_variance>
0.2326049507

$$$$
[H]C1=C([H])C([H])(F)C([H])([H])C([H])=C1N([H])C(=O)C1(C(=O)N([H])c2c([H])c([H])c(Oc3c([H])c([H])nc4c([H])c(OC([H])([H])C([H])([H])C([H])([H])N5C([H])([H])C([H])([H])C([H])([H])C([H])([H])C5([H])[H])c(OC([H])([H])[H])c([H])c34)c(F)c2[H])C([H])([H])C1([H])[H]


 48 53  0  0  0  0  0  0  0  0999 V2000
   -7.2962   -6.7600    7.4099 C   0  0  0  0  0  0  0  0  0  0  0  0
   -6.7179   -6.8334    8.6593 C   0  0  0  0  0  0  0  0  0  0  0  0
   -5.3435   -6.6472    8.8137 C   0  0  0  0  0  0  0  0  0  0  0  0
   -4.5160   -6.3893    7.7658 C   0  0  0  0  0  0  0  0  0  0  0  0
   -5.0989   -6.3162    6.5112 C   0  0  0  0  0  0  0  0  0  0  0  0
   -6.4551   -6.4988    6.3472 C   0  0  0  0  0  0  0  0  0  0  0  0
   -6.9569   -6.4387    5.0711 F   0  0  0  0  0  0  0  0  0  0  0  0
   -3.1045   -6.2246    7.8539 N   0  0  0  0  0  0  0  0  0  0  0  0
   -2.4984   -5.0307    8.2277 C   0  0  0  0  0  0  0  0  0  0  0  0
   -3.3112   -4.0704    8.5297 O   0  0  0  0  0  0  0  0  0  0  0  0
   -2.5749   -7.1149    7.6376 H   0  0  0  0  0  0  0  0  0  0  0  0
   -1.0647   -4.6797    8.3451 C   0  0  0  0  0  0  0  0  0  0  0  0
   -0.1043   -5.6618    7.7437 C   0  0  0  0  0  0  0  0  0  0  0  0
   -0.4416   -4.4407    6.9895 C   0  0  0  0  0  0  0  0  0  0  0  0
   -0.4915   -3.9451    9.4839 C   0  0  0  0  0  0  0  0  0  0  0  0
    0.7337   -4.3104    9.7634 O   0  0  0  0  0  0  0  0  0  0  0  0
   -1.0634   -2.9579   10.2736 N   0  0  0  0  0  0  0  0  0  0  0  0
   -2.0448   -2.6575   10.1451 H   0  0  0  0  0  0  0  0  0  0  0  0
   -0.3521   -2.3279   11.3506 C   0  0  0  0  0  0  0  0  0  0  0  0
    0.2645   -1.1741   11.1889 C   0  0  0  0  0  0  0  0  0  0  0  0
    1.0019   -0.5139   12.2881 C   0  0  0  0  0  0  0  0  0  0  0  0
    0.9842   -1.1803   13.6000 C   0  0  0  0  0  0  0  0  0  0  0  0
    0.4472   -0.2808   14.5403 F   0  0  0  0  0  0  0  0  0  0  0  0
    0.2720   -2.4575   13.6669 C   0  0  0  0  0  0  0  0  0  0  0  0
   -0.3412   -2.9845   12.6364 C   0  0  0  0  0  0  0  0  0  0  0  0
   -8.6570   -6.9429    7.2302 O   0  0  0  0  0  0  0  0  0  0  0  0
  -12.4812   -7.1165    8.7762 C   0  0  0  0  0  0  0  0  0  0  0  0
  -11.2048   -7.0551    8.2605 C   0  0  0  0  0  0  0  0  0  0  0  0
  -10.5919   -8.1814    7.7461 C   0  0  0  0  0  0  0  0  0  0  0  0
   -9.2950   -8.1459    7.2141 C   0  0  0  0  0  0  0  0  0  0  0  0
   -8.7045   -9.2798    6.7050 C   0  0  0  0  0  0  0  0  0  0  0  0
   -9.3979  -10.4776    6.7171 C   0  0  0  0  0  0  0  0  0  0  0  0
  -10.6396  -10.5074    7.2281 N   0  0  0  0  0  0  0  0  0  0  0  0
  -11.2306   -9.4013    7.7298 C   0  0  0  0  0  0  0  0  0  0  0  0
  -12.5179   -9.4488    8.2536 C   0  0  0  0  0  0  0  0  0  0  0  0
  -13.1460   -8.3225    8.7742 C   0  0  0  0  0  0  0  0  0  0  0  0
  -12.6421   -5.3973   10.5002 C   0  0  0  0  0  0  0  0  0  0  0  0
  -13.1037   -5.9869    9.2947 O   0  0  0  0  0  0  0  0  0  0  0  0
  -14.4292   -8.3647    9.2986 O   0  0  0  0  0  0  0  0  0  0  0  0
  -15.4585   -7.7376    8.5454 C   0  0  0  0  0  0  0  0  0  0  0  0
  -15.4249   -8.2922    7.1289 C   0  0  0  0  0  0  0  0  0  0  0  0
  -16.4823   -7.6036    6.3287 C   0  0  0  0  0  0  0  0  0  0  0  0
  -16.1137   -7.5453    4.9480 N   0  0  0  0  0  0  0  0  0  0  0  0
  -17.1437   -8.1862    4.1272 C   0  0  0  0  0  0  0  0  0  0  0  0
  -17.9468   -7.1876    3.3597 C   0  0  0  0  0  0  0  0  0  0  0  0
  -18.2672   -5.9270    4.1344 C   0  0  0  0  0  0  0  0  0  0  0  0
  -17.0617   -5.3048    4.7557 C   0  0  0  0  0  0  0  0  0  0  0  0
  -15.8761   -6.1935    4.4951 C   0  0  0  0  0  0  0  0  0  0  0  0
 37 38  1  0  0  0
 38 27  1  0  0  0
 27 28  2  0  0  0
 28 29  1  0  0  0
 29 30  2  0  0  0
 30 26  1  0  0  0
 26  1  1  0  0  0
  1  2  2  0  0  0
  2  3  1  0  0  0
  3  4  2  0  0  0
  4  8  1  0  0  0
  8  9  1  0  0  0
  9 10  2  0  0  0
  9 12  1  0  0  0
 12 13  1  0  0  0
 13 14  1  0  0  0
 12 15  1  0  0  0
 15 16  2  0  0  0
 15 17  1  0  0  0
 17 19  1  0  0  0
 19 20  2  0  0  0
 20 21  1  0  0  0
 21 22  1  0  0  0
 22 23  1  0  0  0
 22 24  1  0  0  0
 24 25  2  0  0  0
  4  5  1  0  0  0
  5  6  2  0  0  0
  6  7  1  0  0  0
 30 31  1  0  0  0
 31 32  2  0  0  0
 32 33  1  0  0  0
 33 34  2  0  0  0
 34 35  1  0  0  0
 35 36  2  0  0  0
 36 39  1  0  0  0
 39 40  1  0  0  0
 40 41  1  0  0  0
 41 42  1  0  0  0
 42 43  1  0  0  0
 43 44  1  0  0  0
 44 45  1  0  0  0
 45 46  1  0  0  0
 46 47  1  0  0  0
 47 48  1  0  0  0
 36 27  1  0  0  0
 48 43  1  0  0  0
 34 29  1  0  0  0
  6  1  1  0  0  0
 14 12  1  0  0  0
 25 19  1  0  0  0
  8 11  1  0  0  0
 17 18  1  0  0  0
M  END
> <minimizedAffinity>
-7.24568

> <CNNscore>
0.1476995051

> <CNNaffinity>
7.0657157898

> <CNN_VS>
1.0436027050

> <CNNaffinity_variance>
0.0128866956

$$$$
[H]C1=C([H])C([H])(F)C([H])([H])C([H])=C1N([H])C(=O)C1(C(=O)N([H])c2c([H])c([H])c(Oc3c([H])c([H])nc4c([H])c(OC([H])([H])C([H])([H])C([H])([H])N5C([H])([H])C([H])([H])C([H])([H])C([H])([H])C5([H])[H])c(OC([H])([H])[H])c([H])c34)c(F)c2[H])C([H])([H])C1([H])[H]


 48 53  0  0  0  0  0  0  0  0999 V2000
   -5.9603   -6.7842    7.4381 C   0  0  0  0  0  0  0  0  0  0  0  0
   -6.4197   -7.3949    8.5856 C   0  0  0  0  0  0  0  0  0  0  0  0
   -7.6878   -7.9766    8.6174 C   0  0  0  0  0  0  0  0  0  0  0  0
   -8.5228   -7.9742    7.5440 C   0  0  0  0  0  0  0  0  0  0  0  0
   -8.0595   -7.3600    6.3919 C   0  0  0  0  0  0  0  0  0  0  0  0
   -6.8090   -6.7820    6.3497 C   0  0  0  0  0  0  0  0  0  0  0  0
   -6.4293   -6.1684    5.1821 F   0  0  0  0  0  0  0  0  0  0  0  0
   -9.8381   -8.5189    7.5243 N   0  0  0  0  0  0  0  0  0  0  0  0
  -10.9576   -7.8238    7.9671 C   0  0  0  0  0  0  0  0  0  0  0  0
  -10.7319   -6.6164    8.3736 O   0  0  0  0  0  0  0  0  0  0  0  0
   -9.8717   -9.4908    7.1069 H   0  0  0  0  0  0  0  0  0  0  0  0
  -12.3765   -8.2404    8.0418 C   0  0  0  0  0  0  0  0  0  0  0  0
  -12.6143   -9.7150    8.1748 C   0  0  0  0  0  0  0  0  0  0  0  0
  -12.6986   -8.8674    9.3782 C   0  0  0  0  0  0  0  0  0  0  0  0
  -13.4720   -7.5460    7.3471 C   0  0  0  0  0  0  0  0  0  0  0  0
  -14.0127   -6.5958    8.0665 O   0  0  0  0  0  0  0  0  0  0  0  0
  -13.9905   -7.7654    6.0788 N   0  0  0  0  0  0  0  0  0  0  0  0
  -13.6491   -8.5332    5.4758 H   0  0  0  0  0  0  0  0  0  0  0  0
  -15.0660   -6.9791    5.5422 C   0  0  0  0  0  0  0  0  0  0  0  0
  -16.3001   -7.4396    5.4937 C   0  0  0  0  0  0  0  0  0  0  0  0
  -17.4176   -6.6422    4.9430 C   0  0  0  0  0  0  0  0  0  0  0  0
  -17.1045   -5.2790    4.4855 C   0  0  0  0  0  0  0  0  0  0  0  0
  -17.9175   -4.3800    5.2012 F   0  0  0  0  0  0  0  0  0  0  0  0
  -15.7022   -4.8705    4.5826 C   0  0  0  0  0  0  0  0  0  0  0  0
  -14.7667   -5.6489    5.0672 C   0  0  0  0  0  0  0  0  0  0  0  0
   -4.7069   -6.1983    7.3818 O   0  0  0  0  0  0  0  0  0  0  0  0
   -2.9779   -3.8439    4.4642 C   0  0  0  0  0  0  0  0  0  0  0  0
   -3.5571   -4.6271    5.4390 C   0  0  0  0  0  0  0  0  0  0  0  0
   -3.0620   -5.8845    5.7265 C   0  0  0  0  0  0  0  0  0  0  0  0
   -3.6315   -6.7009    6.7142 C   0  0  0  0  0  0  0  0  0  0  0  0
   -3.1208   -7.9494    6.9856 C   0  0  0  0  0  0  0  0  0  0  0  0
   -2.0277   -8.4119    6.2736 C   0  0  0  0  0  0  0  0  0  0  0  0
   -1.4856   -7.6272    5.3280 N   0  0  0  0  0  0  0  0  0  0  0  0
   -1.9770   -6.3994    5.0529 C   0  0  0  0  0  0  0  0  0  0  0  0
   -1.4027   -5.5985    4.0718 C   0  0  0  0  0  0  0  0  0  0  0  0
   -1.8913   -4.3312    3.7728 C   0  0  0  0  0  0  0  0  0  0  0  0
   -4.0556   -1.7771    5.1858 C   0  0  0  0  0  0  0  0  0  0  0  0
   -3.4708   -2.5778    4.1705 O   0  0  0  0  0  0  0  0  0  0  0  0
   -1.3229   -3.5289    2.7947 O   0  0  0  0  0  0  0  0  0  0  0  0
   -1.0601   -4.1307    1.5343 C   0  0  0  0  0  0  0  0  0  0  0  0
   -2.3217   -4.0463    0.6879 C   0  0  0  0  0  0  0  0  0  0  0  0
   -2.6619   -2.6045    0.4928 C   0  0  0  0  0  0  0  0  0  0  0  0
   -4.0419   -2.3669    0.7839 N   0  0  0  0  0  0  0  0  0  0  0  0
   -4.2552   -0.9473    1.0748 C   0  0  0  0  0  0  0  0  0  0  0  0
   -4.9658   -0.2502   -0.0390 C   0  0  0  0  0  0  0  0  0  0  0  0
   -4.5246   -0.6856   -1.4202 C   0  0  0  0  0  0  0  0  0  0  0  0
   -4.5434   -2.1671   -1.5960 C   0  0  0  0  0  0  0  0  0  0  0  0
   -4.9152   -2.8004   -0.2830 C   0  0  0  0  0  0  0  0  0  0  0  0
 37 38  1  0  0  0
 38 27  1  0  0  0
 27 28  2  0  0  0
 28 29  1  0  0  0
 29 30  2  0  0  0
 30 26  1  0  0  0
 26  1  1  0  0  0
  1  2  2  0  0  0
  2  3  1  0  0  0
  3  4  2  0  0  0
  4  8  1  0  0  0
  8  9  1  0  0  0
  9 10  2  0  0  0
  9 12  1  0  0  0
 12 13  1  0  0  0
 13 14  1  0  0  0
 12 15  1  0  0  0
 15 16  2  0  0  0
 15 17  1  0  0  0
 17 19  1  0  0  0
 19 20  2  0  0  0
 20 21  1  0  0  0
 21 22  1  0  0  0
 22 23  1  0  0  0
 22 24  1  0  0  0
 24 25  2  0  0  0
  4  5  1  0  0  0
  5  6  2  0  0  0
  6  7  1  0  0  0
 30 31  1  0  0  0
 31 32  2  0  0  0
 32 33  1  0  0  0
 33 34  2  0  0  0
 34 35  1  0  0  0
 35 36  2  0  0  0
 36 39  1  0  0  0
 39 40  1  0  0  0
 40 41  1  0  0  0
 41 42  1  0  0  0
 42 43  1  0  0  0
 43 44  1  0  0  0
 44 45  1  0  0  0
 45 46  1  0  0  0
 46 47  1  0  0  0
 47 48  1  0  0  0
 36 27  1  0  0  0
 48 43  1  0  0  0
 34 29  1  0  0  0
  6  1  1  0  0  0
 14 12  1  0  0  0
 25 19  1  0  0  0
  8 11  1  0  0  0
 17 18  1  0  0  0
M  END
> <minimizedAffinity>
-9.30203

> <CNNscore>
0.1444411427

> <CNNaffinity>
7.0498862267

> <CNN_VS>
1.0182936192

> <CNNaffinity_variance>
0.1665642560

$$$$
[H]Oc1c([H])c([H])c(/C([H])=C(\[H])C(=O)N2C([H])([H])C([H])([H])C([H])([H])C([H])([H])C2([H])[H])c([H])c1O[H]


 20 21  0  0  0  0  0  0  0  0999 V2000
   -7.1052   -9.3686    7.5224 O   0  0  0  0  0  0  0  0  0  0  0  0
   -8.4329   -9.0136    7.5742 C   0  0  0  0  0  0  0  0  0  0  0  0
   -9.4115   -9.9415    7.2347 C   0  0  0  0  0  0  0  0  0  0  0  0
  -10.7294   -9.5323    7.3040 C   0  0  0  0  0  0  0  0  0  0  0  0
  -11.1114   -8.2638    7.6891 C   0  0  0  0  0  0  0  0  0  0  0  0
  -10.1210   -7.3639    8.0203 C   0  0  0  0  0  0  0  0  0  0  0  0
   -8.8108   -7.7460    7.9591 C   0  0  0  0  0  0  0  0  0  0  0  0
   -7.8208   -6.8315    8.2949 O   0  0  0  0  0  0  0  0  0  0  0  0
   -6.4100   -8.6803    7.7728 H   0  0  0  0  0  0  0  0  0  0  0  0
   -8.0391   -5.9007    8.5803 H   0  0  0  0  0  0  0  0  0  0  0  0
  -12.5321   -7.9638    7.7192 C   0  0  0  0  0  0  0  0  0  0  0  0
  -13.4772   -8.7556    7.2470 C   0  0  0  0  0  0  0  0  0  0  0  0
  -14.8889   -8.3793    7.3157 C   0  0  0  0  0  0  0  0  0  0  0  0
  -15.4876   -8.2956    8.4190 O   0  0  0  0  0  0  0  0  0  0  0  0
  -15.6155   -8.0999    6.1382 N   0  0  0  0  0  0  0  0  0  0  0  0
  -14.9460   -8.1904    4.8629 C   0  0  0  0  0  0  0  0  0  0  0  0
  -15.8481   -7.4744    3.8526 C   0  0  0  0  0  0  0  0  0  0  0  0
  -17.1176   -8.2860    3.7679 C   0  0  0  0  0  0  0  0  0  0  0  0
  -17.8320   -8.2676    5.0904 C   0  0  0  0  0  0  0  0  0  0  0  0
  -16.9854   -7.7351    6.2109 C   0  0  0  0  0  0  0  0  0  0  0  0
  1  2  1  0  0  0
  2  3  2  0  0  0
  3  4  1  0  0  0
  4  5  2  0  0  0
  5 11  1  0  0  0
 11 12  2  0  0  0
 12 13  1  0  0  0
 13 14  2  0  0  0
 13 15  1  0  0  0
 15 16  1  0  0  0
 16 17  1  0  0  0
 17 18  1  0  0  0
 18 19  1  0  0  0
 19 20  1  0  0  0
  5  6  1  0  0  0
  6  7  2  0  0  0
  7  8  1  0  0  0
  7  2  1  0  0  0
 20 15  1  0  0  0
  1  9  1  0  0  0
  8 10  1  0  0  0
M  END
> <minimizedAffinity>
-8.38347

> <CNNscore>
0.5923913717

> <CNNaffinity>
6.0669727325

> <CNN_VS>
3.5940222740

> <CNNaffinity_variance>
0.6137740612

$$$$
[H]Oc1c([H])c([H])c(/C([H])=C(\[H])C(=O)N2C([H])([H])C([H])([H])C([H])([H])C([H])([H])C2([H])[H])c([H])c1O[H]


 20 21  0  0  0  0  0  0  0  0999 V2000
   -2.3212   -2.0151   13.7296 O   0  0  0  0  0  0  0  0  0  0  0  0
   -2.3124   -2.7963   12.5978 C   0  0  0  0  0  0  0  0  0  0  0  0
   -1.6166   -2.3739   11.4702 C   0  0  0  0  0  0  0  0  0  0  0  0
   -1.6408   -3.1970   10.3607 C   0  0  0  0  0  0  0  0  0  0  0  0
   -2.3143   -4.4004   10.3225 C   0  0  0  0  0  0  0  0  0  0  0  0
   -2.9958   -4.7951   11.4540 C   0  0  0  0  0  0  0  0  0  0  0  0
   -2.9860   -3.9975   12.5631 C   0  0  0  0  0  0  0  0  0  0  0  0
   -3.6760   -4.4045   13.6978 O   0  0  0  0  0  0  0  0  0  0  0  0
   -2.8324   -2.3396   14.5377 H   0  0  0  0  0  0  0  0  0  0  0  0
   -4.1802   -5.2650   13.7267 H   0  0  0  0  0  0  0  0  0  0  0  0
   -2.2586   -5.1693    9.0916 C   0  0  0  0  0  0  0  0  0  0  0  0
   -2.1392   -4.6475    7.8848 C   0  0  0  0  0  0  0  0  0  0  0  0
   -2.0903   -5.4931    6.6924 C   0  0  0  0  0  0  0  0  0  0  0  0
   -1.8138   -6.7177    6.7733 O   0  0  0  0  0  0  0  0  0  0  0  0
   -2.3539   -4.9504    5.4162 N   0  0  0  0  0  0  0  0  0  0  0  0
   -2.6730   -3.5475    5.3030 C   0  0  0  0  0  0  0  0  0  0  0  0
   -3.2718   -3.3548    3.9060 C   0  0  0  0  0  0  0  0  0  0  0  0
   -2.1660   -3.6589    2.9250 C   0  0  0  0  0  0  0  0  0  0  0  0
   -1.7580   -5.1014    3.0368 C   0  0  0  0  0  0  0  0  0  0  0  0
   -2.3050   -5.7758    4.2624 C   0  0  0  0  0  0  0  0  0  0  0  0
  1  2  1  0  0  0
  2  3  2  0  0  0
  3  4  1  0  0  0
  4  5  2  0  0  0
  5 11  1  0  0  0
 11 12  2  0  0  0
 12 13  1  0  0  0
 13 14  2  0  0  0
 13 15  1  0  0  0
 15 16  1  0  0  0
 16 17  1  0  0  0
 17 18  1  0  0  0
 18 19  1  0  0  0
 19 20  1  0  0  0
  5  6  1  0  0  0
  6  7  2  0  0  0
  7  8  1  0  0  0
  7  2  1  0  0  0
 20 15  1  0  0  0
  1  9  1  0  0  0
  8 10  1  0  0  0
M  END
> <minimizedAffinity>
-2.24448

> <CNNscore>
0.5384967327

> <CNNaffinity>
4.2551536560

> <CNN_VS>
2.2913863659

> <CNNaffinity_variance>
0.9986382723

$$$$
[H]Oc1c([H])c([H])c(/C([H])=C(\[H])C(=O)N2C([H])([H])C([H])([H])C([H])([H])C([H])([H])C2([H])[H])c([H])c1O[H]


 20 21  0  0  0  0  0  0  0  0999 V2000
  -16.4331   -8.2087    2.2110 O   0  0  0  0  0  0  0  0  0  0  0  0
  -15.9587   -7.6339    3.3668 C   0  0  0  0  0  0  0  0  0  0  0  0
  -16.2081   -6.2904    3.6249 C   0  0  0  0  0  0  0  0  0  0  0  0
  -15.7085   -5.7636    4.8006 C   0  0  0  0  0  0  0  0  0  0  0  0
  -14.9845   -6.5001    5.7153 C   0  0  0  0  0  0  0  0  0  0  0  0
  -14.7518   -7.8296    5.4345 C   0  0  0  0  0  0  0  0  0  0  0  0
  -15.2360   -8.3722    4.2781 C   0  0  0  0  0  0  0  0  0  0  0  0
  -14.9958   -9.7127    4.0049 O   0  0  0  0  0  0  0  0  0  0  0  0
  -16.2412   -9.1856    2.0422 H   0  0  0  0  0  0  0  0  0  0  0  0
  -14.4783  -10.2928    4.6304 H   0  0  0  0  0  0  0  0  0  0  0  0
  -14.5170   -5.8231    6.9122 C   0  0  0  0  0  0  0  0  0  0  0  0
  -14.0031   -6.4299    7.9661 C   0  0  0  0  0  0  0  0  0  0  0  0
  -13.5546   -5.6737    9.1350 C   0  0  0  0  0  0  0  0  0  0  0  0
  -13.3339   -4.4372    9.0653 O   0  0  0  0  0  0  0  0  0  0  0  0
  -13.3581   -6.3187   10.3751 N   0  0  0  0  0  0  0  0  0  0  0  0
  -13.6061   -7.7370   10.4750 C   0  0  0  0  0  0  0  0  0  0  0  0
  -13.6860   -8.0545   11.9717 C   0  0  0  0  0  0  0  0  0  0  0  0
  -12.3131   -7.7836   12.5365 C   0  0  0  0  0  0  0  0  0  0  0  0
  -11.9815   -6.3227   12.4108 C   0  0  0  0  0  0  0  0  0  0  0  0
  -12.9227   -5.5799   11.5063 C   0  0  0  0  0  0  0  0  0  0  0  0
  1  2  1  0  0  0
  2  3  2  0  0  0
  3  4  1  0  0  0
  4  5  2  0  0  0
  5 11  1  0  0  0
 11 12  2  0  0  0
 12 13  1  0  0  0
 13 14  2  0  0  0
 13 15  1  0  0  0
 15 16  1  0  0  0
 16 17  1  0  0  0
 17 18  1  0  0  0
 18 19  1  0  0  0
 19 20  1  0  0  0
  5  6  1  0  0  0
  6  7  2  0  0  0
  7  8  1  0  0  0
  7  2  1  0  0  0
 20 15  1  0  0  0
  1  9  1  0  0  0
  8 10  1  0  0  0
M  END
> <minimizedAffinity>
8.14433

> <CNNscore>
0.5025758743

> <CNNaffinity>
5.5785150528

> <CNN_VS>
2.8036270142

> <CNNaffinity_variance>
1.0716069937

$$$$
[H]Oc1c([H])c([H])c(/C([H])=C(\[H])C(=O)N2C([H])([H])C([H])([H])C([H])([H])C([H])([H])C2([H])[H])c([H])c1O[H]


 20 21  0  0  0  0  0  0  0  0999 V2000
   -2.4554   -1.2637   10.5273 O   0  0  0  0  0  0  0  0  0  0  0  0
   -2.1459   -2.5700   10.2287 C   0  0  0  0  0  0  0  0  0  0  0  0
   -1.9539   -2.9509    8.9050 C   0  0  0  0  0  0  0  0  0  0  0  0
   -1.6450   -4.2754    8.6612 C   0  0  0  0  0  0  0  0  0  0  0  0
   -1.5205   -5.2218    9.6572 C   0  0  0  0  0  0  0  0  0  0  0  0
   -1.7160   -4.8171   10.9604 C   0  0  0  0  0  0  0  0  0  0  0  0
   -2.0224   -3.5125   11.2257 C   0  0  0  0  0  0  0  0  0  0  0  0
   -2.2173   -3.1154   12.5423 O   0  0  0  0  0  0  0  0  0  0  0  0
   -2.5909   -1.0074   11.4946 H   0  0  0  0  0  0  0  0  0  0  0  0
   -2.1400   -3.7570   13.3025 H   0  0  0  0  0  0  0  0  0  0  0  0
   -1.1917   -6.5805    9.2634 C   0  0  0  0  0  0  0  0  0  0  0  0
   -2.0756   -7.4938    8.9062 C   0  0  0  0  0  0  0  0  0  0  0  0
   -1.6618   -8.8432    8.5224 C   0  0  0  0  0  0  0  0  0  0  0  0
   -1.0620   -9.5956    9.3327 O   0  0  0  0  0  0  0  0  0  0  0  0
   -1.9280   -9.3342    7.2260 N   0  0  0  0  0  0  0  0  0  0  0  0
   -2.6153   -8.4858    6.2821 C   0  0  0  0  0  0  0  0  0  0  0  0
   -3.0894   -9.4008    5.1485 C   0  0  0  0  0  0  0  0  0  0  0  0
   -1.8435   -9.9254    4.4778 C   0  0  0  0  0  0  0  0  0  0  0  0
   -1.0602  -10.7779    5.4367 C   0  0  0  0  0  0  0  0  0  0  0  0
   -1.5241  -10.6446    6.8590 C   0  0  0  0  0  0  0  0  0  0  0  0
  1  2  1  0  0  0
  2  3  2  0  0  0
  3  4  1  0  0  0
  4  5  2  0  0  0
  5 11  1  0  0  0
 11 12  2  0  0  0
 12 13  1  0  0  0
 13 14  2  0  0  0
 13 15  1  0  0  0
 15 16  1  0  0  0
 16 17  1  0  0  0
 17 18  1  0  0  0
 18 19  1  0  0  0
 19 20  1  0  0  0
  5  6  1  0  0  0
  6  7  2  0  0  0
  7  8  1  0  0  0
  7  2  1  0  0  0
 20 15  1  0  0  0
  1  9  1  0  0  0
  8 10  1  0  0  0
M  END
> <minimizedAffinity>
-1.14494

> <CNNscore>
0.4910624623

> <CNNaffinity>
4.3507051468

> <CNN_VS>
2.1364679337

> <CNNaffinity_variance>
1.6786968708

$$$$
[H]Oc1c([H])c([H])c(/C([H])=C(\[H])C(=O)N2C([H])([H])C([H])([H])C([H])([H])C([H])([H])C2([H])[H])c([H])c1O[H]


 20 21  0  0  0  0  0  0  0  0999 V2000
   -2.2552   -1.9905   11.0618 O   0  0  0  0  0  0  0  0  0  0  0  0
   -2.1276   -3.2129   10.4449 C   0  0  0  0  0  0  0  0  0  0  0  0
   -1.3220   -3.3393    9.3184 C   0  0  0  0  0  0  0  0  0  0  0  0
   -1.2293   -4.5898    8.7379 C   0  0  0  0  0  0  0  0  0  0  0  0
   -1.8902   -5.7011    9.2190 C   0  0  0  0  0  0  0  0  0  0  0  0
   -2.6821   -5.5477   10.3370 C   0  0  0  0  0  0  0  0  0  0  0  0
   -2.7890   -4.3206   10.9279 C   0  0  0  0  0  0  0  0  0  0  0  0
   -3.5895   -4.1771   12.0539 O   0  0  0  0  0  0  0  0  0  0  0  0
   -2.8449   -1.9197   11.8785 H   0  0  0  0  0  0  0  0  0  0  0  0
   -4.0904   -4.9462   12.4450 H   0  0  0  0  0  0  0  0  0  0  0  0
   -1.7058   -6.9571    8.5136 C   0  0  0  0  0  0  0  0  0  0  0  0
   -1.4477   -7.0631    7.2232 C   0  0  0  0  0  0  0  0  0  0  0  0
   -1.2751   -8.3689    6.5872 C   0  0  0  0  0  0  0  0  0  0  0  0
   -1.1118   -8.4712    5.3440 O   0  0  0  0  0  0  0  0  0  0  0  0
   -1.2881   -9.5507    7.3590 N   0  0  0  0  0  0  0  0  0  0  0  0
   -1.4742   -9.4537    8.7870 C   0  0  0  0  0  0  0  0  0  0  0  0
   -1.0604  -10.8100    9.3669 C   0  0  0  0  0  0  0  0  0  0  0  0
   -2.0516  -11.8176    8.8381 C   0  0  0  0  0  0  0  0  0  0  0  0
   -1.9355  -11.9213    7.3429 C   0  0  0  0  0  0  0  0  0  0  0  0
   -1.1202  -10.8152    6.7365 C   0  0  0  0  0  0  0  0  0  0  0  0
  1  2  1  0  0  0
  2  3  2  0  0  0
  3  4  1  0  0  0
  4  5  2  0  0  0
  5 11  1  0  0  0
 11 12  2  0  0  0
 12 13  1  0  0  0
 13 14  2  0  0  0
 13 15  1  0  0  0
 15 16  1  0  0  0
 16 17  1  0  0  0
 17 18  1  0  0  0
 18 19  1  0  0  0
 19 20  1  0  0  0
  5  6  1  0  0  0
  6  7  2  0  0  0
  7  8  1  0  0  0
  7  2  1  0  0  0
 20 15  1  0  0  0
  1  9  1  0  0  0
  8 10  1  0  0  0
M  END
> <minimizedAffinity>
-1.38555

> <CNNscore>
0.4807950556

> <CNNaffinity>
4.2416591644

> <CNN_VS>
2.0393688679

> <CNNaffinity_variance>
1.4033461809

$$$$
[H]Oc1c([H])c([H])c(/C([H])=C(\[H])C(=O)N2C([H])([H])C([H])([H])C([H])([H])C([H])([H])C2([H])[H])c([H])c1O[H]


 20 21  0  0  0  0  0  0  0  0999 V2000
  -15.2449   -5.6150    2.0918 O   0  0  0  0  0  0  0  0  0  0  0  0
  -15.4830   -6.0470    3.3756 C   0  0  0  0  0  0  0  0  0  0  0  0
  -15.8478   -5.1323    4.3575 C   0  0  0  0  0  0  0  0  0  0  0  0
  -16.0750   -5.6199    5.6302 C   0  0  0  0  0  0  0  0  0  0  0  0
  -15.9579   -6.9532    5.9646 C   0  0  0  0  0  0  0  0  0  0  0  0
  -15.5951   -7.8384    4.9720 C   0  0  0  0  0  0  0  0  0  0  0  0
  -15.3652   -7.3792    3.7061 C   0  0  0  0  0  0  0  0  0  0  0  0
  -15.0000   -8.2795    2.7134 O   0  0  0  0  0  0  0  0  0  0  0  0
  -14.9812   -6.2950    1.3934 H   0  0  0  0  0  0  0  0  0  0  0  0
  -14.9003   -9.2549    2.8984 H   0  0  0  0  0  0  0  0  0  0  0  0
  -16.2254   -7.3326    7.3408 C   0  0  0  0  0  0  0  0  0  0  0  0
  -15.6450   -8.3383    7.9691 C   0  0  0  0  0  0  0  0  0  0  0  0
  -15.9707   -8.6557    9.3592 C   0  0  0  0  0  0  0  0  0  0  0  0
  -17.1650   -8.7486    9.7435 O   0  0  0  0  0  0  0  0  0  0  0  0
  -14.9456   -8.8662   10.3066 N   0  0  0  0  0  0  0  0  0  0  0  0
  -13.5691   -8.7641    9.8848 C   0  0  0  0  0  0  0  0  0  0  0  0
  -12.7314   -9.4085   10.9940 C   0  0  0  0  0  0  0  0  0  0  0  0
  -12.9068   -8.5409   12.2162 C   0  0  0  0  0  0  0  0  0  0  0  0
  -14.3397   -8.5705   12.6697 C   0  0  0  0  0  0  0  0  0  0  0  0
  -15.2674   -9.1741   11.6544 C   0  0  0  0  0  0  0  0  0  0  0  0
  1  2  1  0  0  0
  2  3  2  0  0  0
  3  4  1  0  0  0
  4  5  2  0  0  0
  5 11  1  0  0  0
 11 12  2  0  0  0
 12 13  1  0  0  0
 13 14  2  0  0  0
 13 15  1  0  0  0
 15 16  1  0  0  0
 16 17  1  0  0  0
 17 18  1  0  0  0
 18 19  1  0  0  0
 19 20  1  0  0  0
  5  6  1  0  0  0
  6  7  2  0  0  0
  7  8  1  0  0  0
  7  2  1  0  0  0
 20 15  1  0  0  0
  1  9  1  0  0  0
  8 10  1  0  0  0
M  END
> <minimizedAffinity>
17.58792

> <CNNscore>
0.4737227261

> <CNNaffinity>
6.1100530624

> <CNN_VS>
2.8944709301

> <CNNaffinity_variance>
4.3895349503

$$$$
[H]Oc1c([H])c([H])c(/C([H])=C(\[H])C(=O)N2C([H])([H])C([H])([H])C([H])([H])C([H])([H])C2([H])[H])c([H])c1O[H]


 20 21  0  0  0  0  0  0  0  0999 V2000
  -12.0180   -3.9522    2.7409 O   0  0  0  0  0  0  0  0  0  0  0  0
  -12.6940   -4.7263    3.6548 C   0  0  0  0  0  0  0  0  0  0  0  0
  -12.0216   -5.7292    4.3446 C   0  0  0  0  0  0  0  0  0  0  0  0
  -12.7485   -6.4771    5.2510 C   0  0  0  0  0  0  0  0  0  0  0  0
  -14.0908   -6.2759    5.4980 C   0  0  0  0  0  0  0  0  0  0  0  0
  -14.7328   -5.2750    4.8004 C   0  0  0  0  0  0  0  0  0  0  0  0
  -14.0344   -4.5227    3.8990 C   0  0  0  0  0  0  0  0  0  0  0  0
  -14.6908   -3.5168    3.2014 O   0  0  0  0  0  0  0  0  0  0  0  0
  -12.5242   -3.2291    2.2505 H   0  0  0  0  0  0  0  0  0  0  0  0
  -15.6605   -3.3270    3.3397 H   0  0  0  0  0  0  0  0  0  0  0  0
  -14.7356   -7.1334    6.4770 C   0  0  0  0  0  0  0  0  0  0  0  0
  -15.8610   -6.8440    7.1036 C   0  0  0  0  0  0  0  0  0  0  0  0
  -16.4466   -7.7639    8.0783 C   0  0  0  0  0  0  0  0  0  0  0  0
  -17.5150   -8.3807    7.8315 O   0  0  0  0  0  0  0  0  0  0  0  0
  -15.8222   -7.9815    9.3254 N   0  0  0  0  0  0  0  0  0  0  0  0
  -14.5957   -7.2831    9.6269 C   0  0  0  0  0  0  0  0  0  0  0  0
  -13.9798   -7.9984   10.8337 C   0  0  0  0  0  0  0  0  0  0  0  0
  -14.9308   -7.7825   11.9853 C   0  0  0  0  0  0  0  0  0  0  0  0
  -16.2478   -8.4490   11.7001 C   0  0  0  0  0  0  0  0  0  0  0  0
  -16.3950   -8.8754   10.2675 C   0  0  0  0  0  0  0  0  0  0  0  0
  1  2  1  0  0  0
  2  3  2  0  0  0
  3  4  1  0  0  0
  4  5  2  0  0  0
  5 11  1  0  0  0
 11 12  2  0  0  0
 12 13  1  0  0  0
 13 14  2  0  0  0
 13 15  1  0  0  0
 15 16  1  0  0  0
 16 17  1  0  0  0
 17 18  1  0  0  0
 18 19  1  0  0  0
 19 20  1  0  0  0
  5  6  1  0  0  0
  6  7  2  0  0  0
  7  8  1  0  0  0
  7  2  1  0  0  0
 20 15  1  0  0  0
  1  9  1  0  0  0
  8 10  1  0  0  0
M  END
> <minimizedAffinity>
23.66644

> <CNNscore>
0.4518295825

> <CNNaffinity>
5.4911584854

> <CNN_VS>
2.4810678959

> <CNNaffinity_variance>
2.9875628948

$$$$
[H]Oc1c([H])c([H])c(/C([H])=C(\[H])C(=O)N2C([H])([H])C([H])([H])C([H])([H])C([H])([H])C2([H])[H])c([H])c1O[H]


 20 21  0  0  0  0  0  0  0  0999 V2000
  -16.2068   -8.1448    8.0641 O   0  0  0  0  0  0  0  0  0  0  0  0
  -14.8883   -8.4912    7.8822 C   0  0  0  0  0  0  0  0  0  0  0  0
  -14.0113   -8.4687    8.9612 C   0  0  0  0  0  0  0  0  0  0  0  0
  -12.6980   -8.8257    8.7228 C   0  0  0  0  0  0  0  0  0  0  0  0
  -12.2256   -9.1976    7.4811 C   0  0  0  0  0  0  0  0  0  0  0  0
  -13.1164   -9.2113    6.4290 C   0  0  0  0  0  0  0  0  0  0  0  0
  -14.4200   -8.8621    6.6409 C   0  0  0  0  0  0  0  0  0  0  0  0
  -15.3091   -8.8792    5.5739 O   0  0  0  0  0  0  0  0  0  0  0  0
  -16.8275   -8.1676    7.2679 H   0  0  0  0  0  0  0  0  0  0  0  0
  -15.0228   -9.1398    4.6544 H   0  0  0  0  0  0  0  0  0  0  0  0
  -10.8211   -9.5496    7.3680 C   0  0  0  0  0  0  0  0  0  0  0  0
   -9.8190   -8.7573    7.7013 C   0  0  0  0  0  0  0  0  0  0  0  0
   -8.4287   -9.1881    7.5567 C   0  0  0  0  0  0  0  0  0  0  0  0
   -8.0407  -10.2975    8.0054 O   0  0  0  0  0  0  0  0  0  0  0  0
   -7.4856   -8.3634    6.9064 N   0  0  0  0  0  0  0  0  0  0  0  0
   -7.9118   -7.0869    6.3848 C   0  0  0  0  0  0  0  0  0  0  0  0
   -6.8075   -6.6233    5.4294 C   0  0  0  0  0  0  0  0  0  0  0  0
   -5.5820   -6.3908    6.2786 C   0  0  0  0  0  0  0  0  0  0  0  0
   -5.1236   -7.6853    6.8902 C   0  0  0  0  0  0  0  0  0  0  0  0
   -6.1377   -8.7866    6.7689 C   0  0  0  0  0  0  0  0  0  0  0  0
  1  2  1  0  0  0
  2  3  2  0  0  0
  3  4  1  0  0  0
  4  5  2  0  0  0
  5 11  1  0  0  0
 11 12  2  0  0  0
 12 13  1  0  0  0
 13 14  2  0  0  0
 13 15  1  0  0  0
 15 16  1  0  0  0
 16 17  1  0  0  0
 17 18  1  0  0  0
 18 19  1  0  0  0
 19 20  1  0  0  0
  5  6  1  0  0  0
  6  7  2  0  0  0
  7  8  1  0  0  0
  7  2  1  0  0  0
 20 15  1  0  0  0
  1  9  1  0  0  0
  8 10  1  0  0  0
M  END
> <minimizedAffinity>
-7.86522

> <CNNscore>
0.4517144859

> <CNNaffinity>
5.4961900711

> <CNN_VS>
2.4827086926

> <CNNaffinity_variance>
0.1294444203

$$$$
[H]Oc1c([H])c([H])c(/C([H])=C(\[H])C(=O)N2C([H])([H])C([H])([H])C([H])([H])C([H])([H])C2([H])[H])c([H])c1O[H]


 20 21  0  0  0  0  0  0  0  0999 V2000
  -12.6145   -3.6752    8.7392 O   0  0  0  0  0  0  0  0  0  0  0  0
  -13.4698   -4.5783    8.1525 C   0  0  0  0  0  0  0  0  0  0  0  0
  -14.3111   -4.1678    7.1241 C   0  0  0  0  0  0  0  0  0  0  0  0
  -15.1502   -5.1157    6.5702 C   0  0  0  0  0  0  0  0  0  0  0  0
  -15.1896   -6.4306    6.9858 C   0  0  0  0  0  0  0  0  0  0  0  0
  -14.3451   -6.8105    8.0070 C   0  0  0  0  0  0  0  0  0  0  0  0
  -13.5066   -5.8905    8.5700 C   0  0  0  0  0  0  0  0  0  0  0  0
  -12.6599   -6.2839    9.5984 O   0  0  0  0  0  0  0  0  0  0  0  0
  -12.0118   -3.9930    9.4844 H   0  0  0  0  0  0  0  0  0  0  0  0
  -12.6460   -7.2216    9.9391 H   0  0  0  0  0  0  0  0  0  0  0  0
  -16.1191   -7.3246    6.3179 C   0  0  0  0  0  0  0  0  0  0  0  0
  -17.3069   -6.9705    5.8634 C   0  0  0  0  0  0  0  0  0  0  0  0
  -18.1854   -7.9338    5.2005 C   0  0  0  0  0  0  0  0  0  0  0  0
  -18.3029   -7.9537    3.9481 O   0  0  0  0  0  0  0  0  0  0  0  0
  -18.9257   -8.8685    5.9561 N   0  0  0  0  0  0  0  0  0  0  0  0
  -18.8042   -8.8614    7.3942 C   0  0  0  0  0  0  0  0  0  0  0  0
  -19.3931  -10.1891    7.8814 C   0  0  0  0  0  0  0  0  0  0  0  0
  -20.8627  -10.1516    7.5406 C   0  0  0  0  0  0  0  0  0  0  0  0
  -21.0466  -10.1063    6.0493 C   0  0  0  0  0  0  0  0  0  0  0  0
  -19.7768   -9.8012    5.3075 C   0  0  0  0  0  0  0  0  0  0  0  0
  1  2  1  0  0  0
  2  3  2  0  0  0
  3  4  1  0  0  0
  4  5  2  0  0  0
  5 11  1  0  0  0
 11 12  2  0  0  0
 12 13  1  0  0  0
 13 14  2  0  0  0
 13 15  1  0  0  0
 15 16  1  0  0  0
 16 17  1  0  0  0
 17 18  1  0  0  0
 18 19  1  0  0  0
 19 20  1  0  0  0
  5  6  1  0  0  0
  6  7  2  0  0  0
  7  8  1  0  0  0
  7  2  1  0  0  0
 20 15  1  0  0  0
  1  9  1  0  0  0
  8 10  1  0  0  0
M  END
> <minimizedAffinity>
21.17579

> <CNNscore>
0.4400121272

> <CNNaffinity>
5.4297304153

> <CNN_VS>
2.3891472816

> <CNNaffinity_variance>
1.9515473843

$$$$
[H]OC(=O)C([H])([H])C([H])([H])[C@@]([H])(C(=O)N([H])[C@]([H])(C(=O)N([H])[C@]([H])(C(=O)N([H])[C@]([H])(C(=O)N([H])[C@]([H])(C(=O)N([H])[C@]([H])(C(=O)N([H])[H])C([H])([H])c1c([H])c([H])c([H])c([H])c1[H])C([H])([H])C([H])([H])C(=O)N([H])[H])C([H])([H])c1c([H])nc([H])n1[H])C([H])([H])C([H])(C([H])([H])[H])C([H])([H])[H])C([H])([H])C([H])([H])C(=O)N([H])[H])N([H])[H]


 72 73  0  0  0  0  0  0  0  0999 V2000
   -9.5982   -6.8268    8.8974 C   0  0  0  0  0  0  0  0  0  0  0  0
   -7.0989   -7.1894    8.7040 C   0  0  0  0  0  0  0  0  0  0  0  0
   -7.2063   -8.3651    9.1823 O   0  0  0  0  0  0  0  0  0  0  0  0
   -8.2615   -6.4377    8.5699 N   0  0  0  0  0  0  0  0  0  0  0  0
   -8.1315   -5.4480    8.1846 H   0  0  0  0  0  0  0  0  0  0  0  0
   -5.7071   -6.7613    8.3417 C   0  0  0  0  0  0  0  0  0  0  0  0
   -5.1780   -6.0776    9.4766 N   0  0  0  0  0  0  0  0  0  0  0  0
   -4.1727   -5.1016    9.4378 C   0  0  0  0  0  0  0  0  0  0  0  0
   -3.7018   -4.7719    8.2936 O   0  0  0  0  0  0  0  0  0  0  0  0
   -5.5379   -6.2884   10.4681 H   0  0  0  0  0  0  0  0  0  0  0  0
   -3.6031   -4.4225   10.5944 C   0  0  0  0  0  0  0  0  0  0  0  0
   -3.9038   -2.9920   10.5767 N   0  0  0  0  0  0  0  0  0  0  0  0
   -3.0632   -2.0056   10.0598 C   0  0  0  0  0  0  0  0  0  0  0  0
   -1.9492   -2.3380    9.5778 O   0  0  0  0  0  0  0  0  0  0  0  0
   -4.8310   -2.7173   10.9924 H   0  0  0  0  0  0  0  0  0  0  0  0
   -3.4447   -0.5969   10.0593 C   0  0  0  0  0  0  0  0  0  0  0  0
   -3.4526   -0.0245   11.3944 N   0  0  0  0  0  0  0  0  0  0  0  0
   -2.5035   -0.1653   11.8070 H   0  0  0  0  0  0  0  0  0  0  0  0
   -4.1206   -0.5403   11.9948 H   0  0  0  0  0  0  0  0  0  0  0  0
   -2.6849    0.2600    9.1024 C   0  0  0  0  0  0  0  0  0  0  0  0
   -3.5992    1.1604    8.3125 C   0  0  0  0  0  0  0  0  0  0  0  0
   -4.0519    0.4858    7.0727 C   0  0  0  0  0  0  0  0  0  0  0  0
   -5.3780    0.1917    6.8498 O   0  0  0  0  0  0  0  0  0  0  0  0
   -3.2063    0.1757    6.2067 O   0  0  0  0  0  0  0  0  0  0  0  0
   -6.0581    0.3663    7.5844 H   0  0  0  0  0  0  0  0  0  0  0  0
   -3.7030   -4.9796   11.9341 C   0  0  0  0  0  0  0  0  0  0  0  0
   -4.6087   -4.3146   12.9326 C   0  0  0  0  0  0  0  0  0  0  0  0
   -5.8157   -5.2093   13.1723 C   0  0  0  0  0  0  0  0  0  0  0  0
   -6.6701   -4.9815   14.2889 N   0  0  0  0  0  0  0  0  0  0  0  0
   -6.0947   -6.1614   12.4089 O   0  0  0  0  0  0  0  0  0  0  0  0
   -7.7002   -4.9335   14.2144 H   0  0  0  0  0  0  0  0  0  0  0  0
   -6.2505   -4.8557   15.2407 H   0  0  0  0  0  0  0  0  0  0  0  0
   -4.9240   -7.7201    7.5670 C   0  0  0  0  0  0  0  0  0  0  0  0
   -5.2672   -6.3307    5.5969 C   0  0  0  0  0  0  0  0  0  0  0  0
   -5.0549   -7.7871    6.0968 C   0  0  0  0  0  0  0  0  0  0  0  0
   -6.2614   -8.5229    5.5993 C   0  0  0  0  0  0  0  0  0  0  0  0
  -10.4498   -7.2090    7.7809 C   0  0  0  0  0  0  0  0  0  0  0  0
  -10.1574   -6.6980    6.6486 O   0  0  0  0  0  0  0  0  0  0  0  0
  -11.5617   -8.0747    7.7925 N   0  0  0  0  0  0  0  0  0  0  0  0
  -11.8561   -8.5055    8.6833 H   0  0  0  0  0  0  0  0  0  0  0  0
  -12.3046   -8.3748    6.5558 C   0  0  0  0  0  0  0  0  0  0  0  0
  -13.6354   -7.7535    6.5912 C   0  0  0  0  0  0  0  0  0  0  0  0
  -13.7551   -6.5039    6.3839 O   0  0  0  0  0  0  0  0  0  0  0  0
  -14.8308   -8.4750    6.8395 N   0  0  0  0  0  0  0  0  0  0  0  0
  -14.8125   -9.5008    7.0203 H   0  0  0  0  0  0  0  0  0  0  0  0
  -16.1346   -7.8487    6.8472 C   0  0  0  0  0  0  0  0  0  0  0  0
  -16.8803   -8.2550    8.0401 C   0  0  0  0  0  0  0  0  0  0  0  0
  -16.2527   -8.8521    9.1829 N   0  0  0  0  0  0  0  0  0  0  0  0
  -18.1302   -8.0893    8.0994 O   0  0  0  0  0  0  0  0  0  0  0  0
  -15.7855   -9.7651    9.0656 H   0  0  0  0  0  0  0  0  0  0  0  0
  -16.2732   -8.3786   10.0807 H   0  0  0  0  0  0  0  0  0  0  0  0
  -16.8807   -8.1830    5.5463 C   0  0  0  0  0  0  0  0  0  0  0  0
  -17.0853   -7.0127    4.6824 C   0  0  0  0  0  0  0  0  0  0  0  0
  -16.8273   -5.7293    5.1133 C   0  0  0  0  0  0  0  0  0  0  0  0
  -17.0285   -4.6097    4.3148 C   0  0  0  0  0  0  0  0  0  0  0  0
  -17.5114   -4.7876    3.0214 C   0  0  0  0  0  0  0  0  0  0  0  0
  -17.7718   -6.0532    2.5802 C   0  0  0  0  0  0  0  0  0  0  0  0
  -17.5631   -7.1620    3.3974 C   0  0  0  0  0  0  0  0  0  0  0  0
  -12.2406   -9.8507    6.4073 C   0  0  0  0  0  0  0  0  0  0  0  0
  -11.3337  -10.6060    7.3083 C   0  0  0  0  0  0  0  0  0  0  0  0
   -9.9500  -10.5204    6.6901 C   0  0  0  0  0  0  0  0  0  0  0  0
   -8.8582  -10.2248    7.5219 N   0  0  0  0  0  0  0  0  0  0  0  0
   -9.7455  -10.7012    5.4769 O   0  0  0  0  0  0  0  0  0  0  0  0
   -8.7405   -9.3078    7.9793 H   0  0  0  0  0  0  0  0  0  0  0  0
   -8.1364  -10.9701    7.6804 H   0  0  0  0  0  0  0  0  0  0  0  0
  -10.2904   -6.1772   10.0438 C   0  0  0  0  0  0  0  0  0  0  0  0
  -11.7606   -6.3770   10.0568 C   0  0  0  0  0  0  0  0  0  0  0  0
  -12.4123   -7.5815   10.3456 C   0  0  0  0  0  0  0  0  0  0  0  0
  -13.7196   -7.3926   10.2568 N   0  0  0  0  0  0  0  0  0  0  0  0
  -13.9594   -6.1298    9.9250 C   0  0  0  0  0  0  0  0  0  0  0  0
  -12.7444   -5.5261    9.8072 N   0  0  0  0  0  0  0  0  0  0  0  0
  -12.6849   -4.5119    9.5442 H   0  0  0  0  0  0  0  0  0  0  0  0
 34 35  1  0  0  0
 35 36  1  0  0  0
 35 33  1  0  0  0
 33  6  1  0  0  0
  6  7  1  0  0  0
  7  8  1  0  0  0
  8  9  2  0  0  0
  8 11  1  0  0  0
 11 26  1  0  0  0
 26 27  1  0  0  0
 27 28  1  0  0  0
 28 29  1  0  0  0
 28 30  2  0  0  0
 11 12  1  0  0  0
 12 13  1  0  0  0
 13 14  2  0  0  0
 13 16  1  0  0  0
 16 17  1  0  0  0
 16 20  1  0  0  0
 20 21  1  0  0  0
 21 22  1  0  0  0
 22 23  1  0  0  0
 22 24  2  0  0  0
  6  2  1  0  0  0
  2  3  2  0  0  0
  2  4  1  0  0  0
  4  1  1  0  0  0
  1 66  1  0  0  0
 66 67  1  0  0  0
 67 68  2  0  0  0
 68 69  1  0  0  0
 69 70  2  0  0  0
 70 71  1  0  0  0
  1 37  1  0  0  0
 37 38  2  0  0  0
 37 39  1  0  0  0
 39 41  1  0  0  0
 41 59  1  0  0  0
 59 60  1  0  0  0
 60 61  1  0  0  0
 61 62  1  0  0  0
 61 63  2  0  0  0
 41 42  1  0  0  0
 42 43  2  0  0  0
 42 44  1  0  0  0
 44 46  1  0  0  0
 46 52  1  0  0  0
 52 53  1  0  0  0
 53 54  2  0  0  0
 54 55  1  0  0  0
 55 56  2  0  0  0
 56 57  1  0  0  0
 57 58  2  0  0  0
 46 47  1  0  0  0
 47 48  1  0  0  0
 47 49  2  0  0  0
 71 67  1  0  0  0
 58 53  1  0  0  0
  7 10  1  0  0  0
 29 31  1  0  0  0
 29 32  1  0  0  0
 12 15  1  0  0  0
 17 18  1  0  0  0
 17 19  1  0  0  0
 23 25  1  0  0  0
  4  5  1  0  0  0
 71 72  1  0  0  0
 39 40  1  0  0  0
 62 64  1  0  0  0
 62 65  1  0  0  0
 44 45  1  0  0  0
 48 50  1  0  0  0
 48 51  1  0  0  0
M  END
> <minimizedAffinity>
-4.29754

> <CNNscore>
0.3502803445

> <CNNaffinity>
7.5994710922

> <CNN_VS>
2.6619453430

> <CNNaffinity_variance>
0.0929137468

$$$$
[H]OC(=O)C([H])([H])C([H])([H])[C@@]([H])(C(=O)N([H])[C@]([H])(C(=O)N([H])[C@]([H])(C(=O)N([H])[C@]([H])(C(=O)N([H])[C@]([H])(C(=O)N([H])[C@]([H])(C(=O)N([H])[H])C([H])([H])c1c([H])c([H])c([H])c([H])c1[H])C([H])([H])C([H])([H])C(=O)N([H])[H])C([H])([H])c1c([H])nc([H])n1[H])C([H])([H])C([H])(C([H])([H])[H])C([H])([H])[H])C([H])([H])C([H])([H])C(=O)N([H])[H])N([H])[H]


 72 73  0  0  0  0  0  0  0  0999 V2000
   -3.6118   -5.2861    6.4194 C   0  0  0  0  0  0  0  0  0  0  0  0
   -1.4719   -4.4319    7.4713 C   0  0  0  0  0  0  0  0  0  0  0  0
   -0.9177   -5.5700    7.3303 O   0  0  0  0  0  0  0  0  0  0  0  0
   -2.7849   -4.2938    7.0334 N   0  0  0  0  0  0  0  0  0  0  0  0
   -3.2255   -3.3309    7.1864 H   0  0  0  0  0  0  0  0  0  0  0  0
   -0.6207   -3.3699    8.1032 C   0  0  0  0  0  0  0  0  0  0  0  0
   -0.8704   -2.1617    7.3868 N   0  0  0  0  0  0  0  0  0  0  0  0
   -1.6440   -1.0895    7.8523 C   0  0  0  0  0  0  0  0  0  0  0  0
   -2.1518   -1.1816    9.0241 O   0  0  0  0  0  0  0  0  0  0  0  0
   -0.4613   -2.0052    6.4044 H   0  0  0  0  0  0  0  0  0  0  0  0
   -1.9317    0.1337    7.1143 C   0  0  0  0  0  0  0  0  0  0  0  0
   -2.6855   -0.1432    5.8928 N   0  0  0  0  0  0  0  0  0  0  0  0
   -2.3214    0.2844    4.6155 C   0  0  0  0  0  0  0  0  0  0  0  0
   -1.2785    0.9739    4.4721 O   0  0  0  0  0  0  0  0  0  0  0  0
   -3.5638   -0.7093    6.0193 H   0  0  0  0  0  0  0  0  0  0  0  0
   -3.1173   -0.0515    3.4392 C   0  0  0  0  0  0  0  0  0  0  0  0
   -4.3722   -0.6965    3.7849 N   0  0  0  0  0  0  0  0  0  0  0  0
   -4.8904   -0.0594    4.4303 H   0  0  0  0  0  0  0  0  0  0  0  0
   -4.1865   -1.5697    4.3099 H   0  0  0  0  0  0  0  0  0  0  0  0
   -3.3271    1.0724    2.4800 C   0  0  0  0  0  0  0  0  0  0  0  0
   -4.7795    1.2253    2.1087 C   0  0  0  0  0  0  0  0  0  0  0  0
   -5.2162    2.6314    2.2793 C   0  0  0  0  0  0  0  0  0  0  0  0
   -5.1627    3.2644    3.5004 O   0  0  0  0  0  0  0  0  0  0  0  0
   -5.6446    3.2587    1.2873 O   0  0  0  0  0  0  0  0  0  0  0  0
   -4.8938    2.7354    4.3254 H   0  0  0  0  0  0  0  0  0  0  0  0
   -2.4058    1.3358    7.7816 C   0  0  0  0  0  0  0  0  0  0  0  0
   -1.3994    2.3190    8.3104 C   0  0  0  0  0  0  0  0  0  0  0  0
   -1.3545    2.2077    9.8271 C   0  0  0  0  0  0  0  0  0  0  0  0
   -0.6517    1.1367   10.4498 N   0  0  0  0  0  0  0  0  0  0  0  0
   -1.9251    3.0399   10.5681 O   0  0  0  0  0  0  0  0  0  0  0  0
    0.0248    1.2739   11.2196 H   0  0  0  0  0  0  0  0  0  0  0  0
   -0.8177    0.1545   10.1249 H   0  0  0  0  0  0  0  0  0  0  0  0
   -0.5202   -3.4129    9.5595 C   0  0  0  0  0  0  0  0  0  0  0  0
   -2.4311   -3.2149   11.0558 C   0  0  0  0  0  0  0  0  0  0  0  0
   -1.4695   -4.2164   10.3571 C   0  0  0  0  0  0  0  0  0  0  0  0
   -0.8576   -4.9843   11.4887 C   0  0  0  0  0  0  0  0  0  0  0  0
   -4.3589   -6.1500    7.3211 C   0  0  0  0  0  0  0  0  0  0  0  0
   -4.1226   -7.4007    7.2278 O   0  0  0  0  0  0  0  0  0  0  0  0
   -5.3151   -5.7786    8.2874 N   0  0  0  0  0  0  0  0  0  0  0  0
   -5.5598   -4.7818    8.3976 H   0  0  0  0  0  0  0  0  0  0  0  0
   -5.9651   -6.7886    9.1412 C   0  0  0  0  0  0  0  0  0  0  0  0
   -7.2415   -7.2156    8.5525 C   0  0  0  0  0  0  0  0  0  0  0  0
   -7.7858   -6.5104    7.6441 O   0  0  0  0  0  0  0  0  0  0  0  0
   -7.9230   -8.3996    8.9333 N   0  0  0  0  0  0  0  0  0  0  0  0
   -7.5405   -9.0268    9.6719 H   0  0  0  0  0  0  0  0  0  0  0  0
   -9.1678   -8.8151    8.3249 C   0  0  0  0  0  0  0  0  0  0  0  0
   -8.9003   -9.6728    7.1686 C   0  0  0  0  0  0  0  0  0  0  0  0
   -9.7867  -10.7229    6.7584 N   0  0  0  0  0  0  0  0  0  0  0  0
   -7.8541   -9.5107    6.4813 O   0  0  0  0  0  0  0  0  0  0  0  0
   -9.9485  -11.5099    7.4063 H   0  0  0  0  0  0  0  0  0  0  0  0
  -10.2390  -10.6819    5.8505 H   0  0  0  0  0  0  0  0  0  0  0  0
  -10.0060   -7.5805    7.9586 C   0  0  0  0  0  0  0  0  0  0  0  0
  -11.3057   -7.5431    8.6421 C   0  0  0  0  0  0  0  0  0  0  0  0
  -11.9561   -8.6898    9.0438 C   0  0  0  0  0  0  0  0  0  0  0  0
  -13.1923   -8.6741    9.6788 C   0  0  0  0  0  0  0  0  0  0  0  0
  -13.8045   -7.4479    9.9223 C   0  0  0  0  0  0  0  0  0  0  0  0
  -13.1724   -6.3029    9.5300 C   0  0  0  0  0  0  0  0  0  0  0  0
  -11.9331   -6.3414    8.8947 C   0  0  0  0  0  0  0  0  0  0  0  0
   -6.0027   -6.1896   10.4993 C   0  0  0  0  0  0  0  0  0  0  0  0
   -4.7171   -5.7796   11.1191 C   0  0  0  0  0  0  0  0  0  0  0  0
   -5.0325   -5.4265   12.5614 C   0  0  0  0  0  0  0  0  0  0  0  0
   -3.9682   -5.1572   13.4365 N   0  0  0  0  0  0  0  0  0  0  0  0
   -6.1953   -5.3668   12.9979 O   0  0  0  0  0  0  0  0  0  0  0  0
   -3.2952   -5.8808   13.7322 H   0  0  0  0  0  0  0  0  0  0  0  0
   -3.8583   -4.1793   13.8015 H   0  0  0  0  0  0  0  0  0  0  0  0
   -3.1798   -5.9097    5.1388 C   0  0  0  0  0  0  0  0  0  0  0  0
   -2.5664   -4.9597    4.1780 C   0  0  0  0  0  0  0  0  0  0  0  0
   -1.3710   -5.1705    3.4813 C   0  0  0  0  0  0  0  0  0  0  0  0
   -1.1267   -4.1141    2.7218 N   0  0  0  0  0  0  0  0  0  0  0  0
   -2.0969   -3.2228    2.8836 C   0  0  0  0  0  0  0  0  0  0  0  0
   -2.9682   -3.7618    3.7808 N   0  0  0  0  0  0  0  0  0  0  0  0
   -3.8233   -3.2266    4.0696 H   0  0  0  0  0  0  0  0  0  0  0  0
 34 35  1  0  0  0
 35 36  1  0  0  0
 35 33  1  0  0  0
 33  6  1  0  0  0
  6  7  1  0  0  0
  7  8  1  0  0  0
  8  9  2  0  0  0
  8 11  1  0  0  0
 11 26  1  0  0  0
 26 27  1  0  0  0
 27 28  1  0  0  0
 28 29  1  0  0  0
 28 30  2  0  0  0
 11 12  1  0  0  0
 12 13  1  0  0  0
 13 14  2  0  0  0
 13 16  1  0  0  0
 16 17  1  0  0  0
 16 20  1  0  0  0
 20 21  1  0  0  0
 21 22  1  0  0  0
 22 23  1  0  0  0
 22 24  2  0  0  0
  6  2  1  0  0  0
  2  3  2  0  0  0
  2  4  1  0  0  0
  4  1  1  0  0  0
  1 66  1  0  0  0
 66 67  1  0  0  0
 67 68  2  0  0  0
 68 69  1  0  0  0
 69 70  2  0  0  0
 70 71  1  0  0  0
  1 37  1  0  0  0
 37 38  2  0  0  0
 37 39  1  0  0  0
 39 41  1  0  0  0
 41 59  1  0  0  0
 59 60  1  0  0  0
 60 61  1  0  0  0
 61 62  1  0  0  0
 61 63  2  0  0  0
 41 42  1  0  0  0
 42 43  2  0  0  0
 42 44  1  0  0  0
 44 46  1  0  0  0
 46 52  1  0  0  0
 52 53  1  0  0  0
 53 54  2  0  0  0
 54 55  1  0  0  0
 55 56  2  0  0  0
 56 57  1  0  0  0
 57 58  2  0  0  0
 46 47  1  0  0  0
 47 48  1  0  0  0
 47 49  2  0  0  0
 71 67  1  0  0  0
 58 53  1  0  0  0
  7 10  1  0  0  0
 29 31  1  0  0  0
 29 32  1  0  0  0
 12 15  1  0  0  0
 17 18  1  0  0  0
 17 19  1  0  0  0
 23 25  1  0  0  0
  4  5  1  0  0  0
 71 72  1  0  0  0
 39 40  1  0  0  0
 62 64  1  0  0  0
 62 65  1  0  0  0
 44 45  1  0  0  0
 48 50  1  0  0  0
 48 51  1  0  0  0
M  END
> <minimizedAffinity>
-3.71162

> <CNNscore>
0.3334314525

> <CNNaffinity>
7.2455644608

> <CNN_VS>
2.4158990383

> <CNNaffinity_variance>
2.7594518661

$$$$
[H]OC(=O)C([H])([H])C([H])([H])[C@@]([H])(C(=O)N([H])[C@]([H])(C(=O)N([H])[C@]([H])(C(=O)N([H])[C@]([H])(C(=O)N([H])[C@]([H])(C(=O)N([H])[C@]([H])(C(=O)N([H])[H])C([H])([H])c1c([H])c([H])c([H])c([H])c1[H])C([H])([H])C([H])([H])C(=O)N([H])[H])C([H])([H])c1c([H])nc([H])n1[H])C([H])([H])C([H])(C([H])([H])[H])C([H])([H])[H])C([H])([H])C([H])([H])C(=O)N([H])[H])N([H])[H]


 72 73  0  0  0  0  0  0  0  0999 V2000
   -9.5577   -6.7100    8.7732 C   0  0  0  0  0  0  0  0  0  0  0  0
   -7.0346   -6.9297    8.7481 C   0  0  0  0  0  0  0  0  0  0  0  0
   -7.1061   -8.1041    9.2359 O   0  0  0  0  0  0  0  0  0  0  0  0
   -8.2268   -6.2479    8.5275 N   0  0  0  0  0  0  0  0  0  0  0  0
   -8.1283   -5.2568    8.1367 H   0  0  0  0  0  0  0  0  0  0  0  0
   -5.6486   -6.4260    8.4707 C   0  0  0  0  0  0  0  0  0  0  0  0
   -5.0778   -6.0761    9.7306 N   0  0  0  0  0  0  0  0  0  0  0  0
   -4.2982   -4.9377    9.9781 C   0  0  0  0  0  0  0  0  0  0  0  0
   -4.0967   -4.1272    9.0076 O   0  0  0  0  0  0  0  0  0  0  0  0
   -5.2201   -6.6991   10.5957 H   0  0  0  0  0  0  0  0  0  0  0  0
   -3.6837   -4.5899   11.2528 C   0  0  0  0  0  0  0  0  0  0  0  0
   -4.6882   -4.2130   12.2458 N   0  0  0  0  0  0  0  0  0  0  0  0
   -5.3252   -5.1003   13.1139 C   0  0  0  0  0  0  0  0  0  0  0  0
   -5.0466   -6.3261   13.0535 O   0  0  0  0  0  0  0  0  0  0  0  0
   -4.9274   -3.1887   12.2840 H   0  0  0  0  0  0  0  0  0  0  0  0
   -6.3044   -4.6427   14.0946 C   0  0  0  0  0  0  0  0  0  0  0  0
   -7.5624   -5.3628   13.9992 N   0  0  0  0  0  0  0  0  0  0  0  0
   -7.3558   -6.3807   14.1088 H   0  0  0  0  0  0  0  0  0  0  0  0
   -7.9685   -5.2387   13.0546 H   0  0  0  0  0  0  0  0  0  0  0  0
   -5.8091   -4.5930   15.5016 C   0  0  0  0  0  0  0  0  0  0  0  0
   -4.8021   -3.4896   15.6998 C   0  0  0  0  0  0  0  0  0  0  0  0
   -5.4817   -2.1772   15.8116 C   0  0  0  0  0  0  0  0  0  0  0  0
   -4.9605   -1.0393   15.2385 O   0  0  0  0  0  0  0  0  0  0  0  0
   -6.5569   -2.1020   16.4437 O   0  0  0  0  0  0  0  0  0  0  0  0
   -4.0470   -1.0776   14.7948 H   0  0  0  0  0  0  0  0  0  0  0  0
   -2.6230   -5.3962   11.8356 C   0  0  0  0  0  0  0  0  0  0  0  0
   -1.2479   -4.8037   11.9676 C   0  0  0  0  0  0  0  0  0  0  0  0
   -1.3690   -3.4121   12.5707 C   0  0  0  0  0  0  0  0  0  0  0  0
   -0.8827   -2.2759   11.8629 N   0  0  0  0  0  0  0  0  0  0  0  0
   -1.8915   -3.2211   13.6922 O   0  0  0  0  0  0  0  0  0  0  0  0
   -1.4368   -1.4141   11.7241 H   0  0  0  0  0  0  0  0  0  0  0  0
    0.0833   -2.2970   11.4574 H   0  0  0  0  0  0  0  0  0  0  0  0
   -4.9009   -7.1438    7.4420 C   0  0  0  0  0  0  0  0  0  0  0  0
   -3.9712   -5.6375    5.7698 C   0  0  0  0  0  0  0  0  0  0  0  0
   -3.6215   -6.6107    6.9302 C   0  0  0  0  0  0  0  0  0  0  0  0
   -2.7189   -7.6246    6.2962 C   0  0  0  0  0  0  0  0  0  0  0  0
  -10.1428   -7.5631    7.7496 C   0  0  0  0  0  0  0  0  0  0  0  0
   -9.9049   -7.2352    6.5393 O   0  0  0  0  0  0  0  0  0  0  0  0
  -10.9430   -8.7095    7.9268 N   0  0  0  0  0  0  0  0  0  0  0  0
  -11.1827   -9.0142    8.8835 H   0  0  0  0  0  0  0  0  0  0  0  0
  -11.4373   -9.4778    6.7705 C   0  0  0  0  0  0  0  0  0  0  0  0
  -12.9061   -9.5074    6.7623 C   0  0  0  0  0  0  0  0  0  0  0  0
  -13.5280  -10.2377    7.5982 O   0  0  0  0  0  0  0  0  0  0  0  0
  -13.7003   -8.7483    5.8654 N   0  0  0  0  0  0  0  0  0  0  0  0
  -13.2627   -8.1291    5.1511 H   0  0  0  0  0  0  0  0  0  0  0  0
  -15.1463   -8.7735    5.8887 C   0  0  0  0  0  0  0  0  0  0  0  0
  -15.6683   -8.9190    4.5284 C   0  0  0  0  0  0  0  0  0  0  0  0
  -17.0452   -9.2090    4.2513 N   0  0  0  0  0  0  0  0  0  0  0  0
  -14.9024   -8.7921    3.5331 O   0  0  0  0  0  0  0  0  0  0  0  0
  -17.4346  -10.1055    4.5830 H   0  0  0  0  0  0  0  0  0  0  0  0
  -17.6137   -8.5404    3.7409 H   0  0  0  0  0  0  0  0  0  0  0  0
  -15.6779   -7.5138    6.5898 C   0  0  0  0  0  0  0  0  0  0  0  0
  -15.8349   -6.3711    5.6802 C   0  0  0  0  0  0  0  0  0  0  0  0
  -14.7587   -5.6314    5.2397 C   0  0  0  0  0  0  0  0  0  0  0  0
  -14.8898   -4.5389    4.3907 C   0  0  0  0  0  0  0  0  0  0  0  0
  -16.1627   -4.1719    3.9633 C   0  0  0  0  0  0  0  0  0  0  0  0
  -17.2389   -4.8951    4.3913 C   0  0  0  0  0  0  0  0  0  0  0  0
  -17.0850   -5.9871    5.2426 C   0  0  0  0  0  0  0  0  0  0  0  0
  -10.7255  -10.7794    6.8304 C   0  0  0  0  0  0  0  0  0  0  0  0
   -9.4465  -10.9123    6.0878 C   0  0  0  0  0  0  0  0  0  0  0  0
   -8.3824  -10.2584    6.9506 C   0  0  0  0  0  0  0  0  0  0  0  0
   -7.5960   -9.2384    6.3919 N   0  0  0  0  0  0  0  0  0  0  0  0
   -8.1798  -10.5907    8.1317 O   0  0  0  0  0  0  0  0  0  0  0  0
   -6.9156   -9.4120    5.6364 H   0  0  0  0  0  0  0  0  0  0  0  0
   -7.7090   -8.2627    6.7619 H   0  0  0  0  0  0  0  0  0  0  0  0
  -10.5128   -5.8362    9.5078 C   0  0  0  0  0  0  0  0  0  0  0  0
  -11.8726   -6.4118    9.6537 C   0  0  0  0  0  0  0  0  0  0  0  0
  -12.9647   -6.1312    8.8245 C   0  0  0  0  0  0  0  0  0  0  0  0
  -14.0142   -6.8143    9.2537 N   0  0  0  0  0  0  0  0  0  0  0  0
  -13.6689   -7.5268   10.3192 C   0  0  0  0  0  0  0  0  0  0  0  0
  -12.3522   -7.2643   10.5467 N   0  0  0  0  0  0  0  0  0  0  0  0
  -11.8572   -7.7194   11.3523 H   0  0  0  0  0  0  0  0  0  0  0  0
 34 35  1  0  0  0
 35 36  1  0  0  0
 35 33  1  0  0  0
 33  6  1  0  0  0
  6  7  1  0  0  0
  7  8  1  0  0  0
  8  9  2  0  0  0
  8 11  1  0  0  0
 11 26  1  0  0  0
 26 27  1  0  0  0
 27 28  1  0  0  0
 28 29  1  0  0  0
 28 30  2  0  0  0
 11 12  1  0  0  0
 12 13  1  0  0  0
 13 14  2  0  0  0
 13 16  1  0  0  0
 16 17  1  0  0  0
 16 20  1  0  0  0
 20 21  1  0  0  0
 21 22  1  0  0  0
 22 23  1  0  0  0
 22 24  2  0  0  0
  6  2  1  0  0  0
  2  3  2  0  0  0
  2  4  1  0  0  0
  4  1  1  0  0  0
  1 66  1  0  0  0
 66 67  1  0  0  0
 67 68  2  0  0  0
 68 69  1  0  0  0
 69 70  2  0  0  0
 70 71  1  0  0  0
  1 37  1  0  0  0
 37 38  2  0  0  0
 37 39  1  0  0  0
 39 41  1  0  0  0
 41 59  1  0  0  0
 59 60  1  0  0  0
 60 61  1  0  0  0
 61 62  1  0  0  0
 61 63  2  0  0  0
 41 42  1  0  0  0
 42 43  2  0  0  0
 42 44  1  0  0  0
 44 46  1  0  0  0
 46 52  1  0  0  0
 52 53  1  0  0  0
 53 54  2  0  0  0
 54 55  1  0  0  0
 55 56  2  0  0  0
 56 57  1  0  0  0
 57 58  2  0  0  0
 46 47  1  0  0  0
 47 48  1  0  0  0
 47 49  2  0  0  0
 71 67  1  0  0  0
 58 53  1  0  0  0
  7 10  1  0  0  0
 29 31  1  0  0  0
 29 32  1  0  0  0
 12 15  1  0  0  0
 17 18  1  0  0  0
 17 19  1  0  0  0
 23 25  1  0  0  0
  4  5  1  0  0  0
 71 72  1  0  0  0
 39 40  1  0  0  0
 62 64  1  0  0  0
 62 65  1  0  0  0
 44 45  1  0  0  0
 48 50  1  0  0  0
 48 51  1  0  0  0
M  END
> <minimizedAffinity>
-5.77754

> <CNNscore>
0.3044303358

> <CNNaffinity>
7.6806001663

> <CNN_VS>
2.3382077217

> <CNNaffinity_variance>
0.0982350856

$$$$
[H]OC(=O)C([H])([H])C([H])([H])[C@@]([H])(C(=O)N([H])[C@]([H])(C(=O)N([H])[C@]([H])(C(=O)N([H])[C@]([H])(C(=O)N([H])[C@]([H])(C(=O)N([H])[C@]([H])(C(=O)N([H])[H])C([H])([H])c1c([H])c([H])c([H])c([H])c1[H])C([H])([H])C([H])([H])C(=O)N([H])[H])C([H])([H])c1c([H])nc([H])n1[H])C([H])([H])C([H])(C([H])([H])[H])C([H])([H])[H])C([H])([H])C([H])([H])C(=O)N([H])[H])N([H])[H]


 72 73  0  0  0  0  0  0  0  0999 V2000
   -9.4258   -7.2126    8.3173 C   0  0  0  0  0  0  0  0  0  0  0  0
   -7.4503   -6.7749    6.7940 C   0  0  0  0  0  0  0  0  0  0  0  0
   -8.2008   -6.1939    5.9445 O   0  0  0  0  0  0  0  0  0  0  0  0
   -8.0460   -7.2760    7.9466 N   0  0  0  0  0  0  0  0  0  0  0  0
   -7.3895   -7.7757    8.6278 H   0  0  0  0  0  0  0  0  0  0  0  0
   -5.9954   -6.8444    6.4332 C   0  0  0  0  0  0  0  0  0  0  0  0
   -5.6034   -5.5280    6.0476 N   0  0  0  0  0  0  0  0  0  0  0  0
   -4.4305   -5.2036    5.3519 C   0  0  0  0  0  0  0  0  0  0  0  0
   -3.6534   -6.1615    5.0085 O   0  0  0  0  0  0  0  0  0  0  0  0
   -6.2150   -4.6756    6.2851 H   0  0  0  0  0  0  0  0  0  0  0  0
   -4.0059   -3.8592    4.9833 C   0  0  0  0  0  0  0  0  0  0  0  0
   -3.0488   -3.3176    5.9463 N   0  0  0  0  0  0  0  0  0  0  0  0
   -3.1751   -2.0872    6.5922 C   0  0  0  0  0  0  0  0  0  0  0  0
   -4.1694   -1.3589    6.3382 O   0  0  0  0  0  0  0  0  0  0  0  0
   -2.2123   -3.9245    6.1461 H   0  0  0  0  0  0  0  0  0  0  0  0
   -2.1850   -1.6244    7.5595 C   0  0  0  0  0  0  0  0  0  0  0  0
   -2.0680   -0.1766    7.5830 N   0  0  0  0  0  0  0  0  0  0  0  0
   -3.0146    0.2162    7.7843 H   0  0  0  0  0  0  0  0  0  0  0  0
   -1.7920    0.1697    6.6468 H   0  0  0  0  0  0  0  0  0  0  0  0
   -2.3412   -2.1820    8.9349 C   0  0  0  0  0  0  0  0  0  0  0  0
   -1.7711   -1.2578    9.9797 C   0  0  0  0  0  0  0  0  0  0  0  0
   -2.8459   -0.7358   10.8567 C   0  0  0  0  0  0  0  0  0  0  0  0
   -3.1056   -1.2858   12.0916 O   0  0  0  0  0  0  0  0  0  0  0  0
   -3.5350    0.2295   10.4638 O   0  0  0  0  0  0  0  0  0  0  0  0
   -2.6048   -2.1213   12.3810 H   0  0  0  0  0  0  0  0  0  0  0  0
   -3.6487   -3.5182    3.6154 C   0  0  0  0  0  0  0  0  0  0  0  0
   -2.2629   -3.8330    3.1257 C   0  0  0  0  0  0  0  0  0  0  0  0
   -2.1794   -3.5019    1.6430 C   0  0  0  0  0  0  0  0  0  0  0  0
   -1.8223   -4.5076    0.6999 N   0  0  0  0  0  0  0  0  0  0  0  0
   -2.4174   -2.3524    1.2081 O   0  0  0  0  0  0  0  0  0  0  0  0
   -2.3555   -4.6865   -0.1678 H   0  0  0  0  0  0  0  0  0  0  0  0
   -0.9793   -5.1039    0.8778 H   0  0  0  0  0  0  0  0  0  0  0  0
   -5.1652   -7.6937    7.2832 C   0  0  0  0  0  0  0  0  0  0  0  0
   -3.0154   -8.8344    7.3627 C   0  0  0  0  0  0  0  0  0  0  0  0
   -3.7139   -7.4466    7.4074 C   0  0  0  0  0  0  0  0  0  0  0  0
   -3.2787   -6.8612    8.7160 C   0  0  0  0  0  0  0  0  0  0  0  0
  -10.2502   -8.3470    7.9283 C   0  0  0  0  0  0  0  0  0  0  0  0
   -9.6515   -9.4693    7.8248 O   0  0  0  0  0  0  0  0  0  0  0  0
  -11.6315   -8.3625    7.6492 N   0  0  0  0  0  0  0  0  0  0  0  0
  -12.1662   -7.4809    7.7006 H   0  0  0  0  0  0  0  0  0  0  0  0
  -12.3205   -9.6145    7.2899 C   0  0  0  0  0  0  0  0  0  0  0  0
  -13.0249   -9.4650    6.0094 C   0  0  0  0  0  0  0  0  0  0  0  0
  -12.4300   -9.7565    4.9231 O   0  0  0  0  0  0  0  0  0  0  0  0
  -14.3648   -9.0132    5.9000 N   0  0  0  0  0  0  0  0  0  0  0  0
  -14.9157   -8.7536    6.7451 H   0  0  0  0  0  0  0  0  0  0  0  0
  -15.0486   -8.8949    4.6309 C   0  0  0  0  0  0  0  0  0  0  0  0
  -14.6153   -7.6800    3.9379 C   0  0  0  0  0  0  0  0  0  0  0  0
  -14.2200   -6.4887    4.6315 N   0  0  0  0  0  0  0  0  0  0  0  0
  -14.5772   -7.6430    2.6768 O   0  0  0  0  0  0  0  0  0  0  0  0
  -14.9213   -6.0035    5.2130 H   0  0  0  0  0  0  0  0  0  0  0  0
  -13.2702   -6.1408    4.5457 H   0  0  0  0  0  0  0  0  0  0  0  0
  -16.5686   -8.9338    4.8528 C   0  0  0  0  0  0  0  0  0  0  0  0
  -17.2048   -7.6170    4.7145 C   0  0  0  0  0  0  0  0  0  0  0  0
  -17.8927   -7.2508    3.5778 C   0  0  0  0  0  0  0  0  0  0  0  0
  -18.4885   -6.0046    3.4241 C   0  0  0  0  0  0  0  0  0  0  0  0
  -18.3891   -5.0822    4.4618 C   0  0  0  0  0  0  0  0  0  0  0  0
  -17.7106   -5.4304    5.5944 C   0  0  0  0  0  0  0  0  0  0  0  0
  -17.1206   -6.6854    5.7278 C   0  0  0  0  0  0  0  0  0  0  0  0
  -13.1316   -9.9724    8.4810 C   0  0  0  0  0  0  0  0  0  0  0  0
  -13.5125   -8.8870    9.4200 C   0  0  0  0  0  0  0  0  0  0  0  0
  -14.6975   -8.1759    8.7918 C   0  0  0  0  0  0  0  0  0  0  0  0
  -15.9758   -8.7366    8.9421 N   0  0  0  0  0  0  0  0  0  0  0  0
  -14.5806   -7.1176    8.1496 O   0  0  0  0  0  0  0  0  0  0  0  0
  -16.2454   -9.6308    8.5042 H   0  0  0  0  0  0  0  0  0  0  0  0
  -16.6810   -8.2208    9.5237 H   0  0  0  0  0  0  0  0  0  0  0  0
  -10.1162   -5.8944    8.3492 C   0  0  0  0  0  0  0  0  0  0  0  0
  -11.1250   -5.7639    9.4295 C   0  0  0  0  0  0  0  0  0  0  0  0
  -10.8944   -6.0102   10.7879 C   0  0  0  0  0  0  0  0  0  0  0  0
  -12.0172   -5.8008   11.4572 N   0  0  0  0  0  0  0  0  0  0  0  0
  -12.9707   -5.4311   10.6109 C   0  0  0  0  0  0  0  0  0  0  0  0
  -12.4017   -5.4157    9.3738 N   0  0  0  0  0  0  0  0  0  0  0  0
  -12.9749   -5.1531    8.5349 H   0  0  0  0  0  0  0  0  0  0  0  0
 34 35  1  0  0  0
 35 36  1  0  0  0
 35 33  1  0  0  0
 33  6  1  0  0  0
  6  7  1  0  0  0
  7  8  1  0  0  0
  8  9  2  0  0  0
  8 11  1  0  0  0
 11 26  1  0  0  0
 26 27  1  0  0  0
 27 28  1  0  0  0
 28 29  1  0  0  0
 28 30  2  0  0  0
 11 12  1  0  0  0
 12 13  1  0  0  0
 13 14  2  0  0  0
 13 16  1  0  0  0
 16 17  1  0  0  0
 16 20  1  0  0  0
 20 21  1  0  0  0
 21 22  1  0  0  0
 22 23  1  0  0  0
 22 24  2  0  0  0
  6  2  1  0  0  0
  2  3  2  0  0  0
  2  4  1  0  0  0
  4  1  1  0  0  0
  1 66  1  0  0  0
 66 67  1  0  0  0
 67 68  2  0  0  0
 68 69  1  0  0  0
 69 70  2  0  0  0
 70 71  1  0  0  0
  1 37  1  0  0  0
 37 38  2  0  0  0
 37 39  1  0  0  0
 39 41  1  0  0  0
 41 59  1  0  0  0
 59 60  1  0  0  0
 60 61  1  0  0  0
 61 62  1  0  0  0
 61 63  2  0  0  0
 41 42  1  0  0  0
 42 43  2  0  0  0
 42 44  1  0  0  0
 44 46  1  0  0  0
 46 52  1  0  0  0
 52 53  1  0  0  0
 53 54  2  0  0  0
 54 55  1  0  0  0
 55 56  2  0  0  0
 56 57  1  0  0  0
 57 58  2  0  0  0
 46 47  1  0  0  0
 47 48  1  0  0  0
 47 49  2  0  0  0
 71 67  1  0  0  0
 58 53  1  0  0  0
  7 10  1  0  0  0
 29 31  1  0  0  0
 29 32  1  0  0  0
 12 15  1  0  0  0
 17 18  1  0  0  0
 17 19  1  0  0  0
 23 25  1  0  0  0
  4  5  1  0  0  0
 71 72  1  0  0  0
 39 40  1  0  0  0
 62 64  1  0  0  0
 62 65  1  0  0  0
 44 45  1  0  0  0
 48 50  1  0  0  0
 48 51  1  0  0  0
M  END
> <minimizedAffinity>
-5.10926

> <CNNscore>
0.2898901105

> <CNNaffinity>
7.7181692123

> <CNN_VS>
2.2374210358

> <CNNaffinity_variance>
0.1504248679

$$$$
[H]OC(=O)C([H])([H])C([H])([H])[C@@]([H])(C(=O)N([H])[C@]([H])(C(=O)N([H])[C@]([H])(C(=O)N([H])[C@]([H])(C(=O)N([H])[C@]([H])(C(=O)N([H])[C@]([H])(C(=O)N([H])[H])C([H])([H])c1c([H])c([H])c([H])c([H])c1[H])C([H])([H])C([H])([H])C(=O)N([H])[H])C([H])([H])c1c([H])nc([H])n1[H])C([H])([H])C([H])(C([H])([H])[H])C([H])([H])[H])C([H])([H])C([H])([H])C(=O)N([H])[H])N([H])[H]


 72 73  0  0  0  0  0  0  0  0999 V2000
   -9.5241   -6.7316    8.7248 C   0  0  0  0  0  0  0  0  0  0  0  0
   -7.0052   -6.9949    8.7540 C   0  0  0  0  0  0  0  0  0  0  0  0
   -7.1055   -8.1424    9.2978 O   0  0  0  0  0  0  0  0  0  0  0  0
   -8.1813   -6.3049    8.4796 N   0  0  0  0  0  0  0  0  0  0  0  0
   -8.0589   -5.3362    8.0422 H   0  0  0  0  0  0  0  0  0  0  0  0
   -5.6062   -6.5291    8.4760 C   0  0  0  0  0  0  0  0  0  0  0  0
   -5.1188   -5.9459    9.6834 N   0  0  0  0  0  0  0  0  0  0  0  0
   -4.0795   -5.0092    9.7681 C   0  0  0  0  0  0  0  0  0  0  0  0
   -3.5332   -4.6204    8.6773 O   0  0  0  0  0  0  0  0  0  0  0  0
   -5.5415   -6.2100   10.6365 H   0  0  0  0  0  0  0  0  0  0  0  0
   -3.5530   -4.4336   10.9990 C   0  0  0  0  0  0  0  0  0  0  0  0
   -3.6478   -2.9749   10.9908 N   0  0  0  0  0  0  0  0  0  0  0  0
   -2.5615   -2.1046   10.8932 C   0  0  0  0  0  0  0  0  0  0  0  0
   -1.3984   -2.5792   10.8192 O   0  0  0  0  0  0  0  0  0  0  0  0
   -4.6215   -2.5823   11.0657 H   0  0  0  0  0  0  0  0  0  0  0  0
   -2.7398   -0.6562   10.8702 C   0  0  0  0  0  0  0  0  0  0  0  0
   -4.0088   -0.2634   10.2825 N   0  0  0  0  0  0  0  0  0  0  0  0
   -4.7690   -0.7354   10.8211 H   0  0  0  0  0  0  0  0  0  0  0  0
   -4.0692   -0.6122    9.3092 H   0  0  0  0  0  0  0  0  0  0  0  0
   -2.5085    0.0266   12.1769 C   0  0  0  0  0  0  0  0  0  0  0  0
   -3.1695    1.3800   12.2238 C   0  0  0  0  0  0  0  0  0  0  0  0
   -3.6368    1.6848   13.5970 C   0  0  0  0  0  0  0  0  0  0  0  0
   -3.9882    2.9602   13.9772 O   0  0  0  0  0  0  0  0  0  0  0  0
   -3.7133    0.7584   14.4320 O   0  0  0  0  0  0  0  0  0  0  0  0
   -3.8498    3.7302   13.3286 H   0  0  0  0  0  0  0  0  0  0  0  0
   -3.8779   -4.9894   12.3031 C   0  0  0  0  0  0  0  0  0  0  0  0
   -4.9551   -4.3370   13.1238 C   0  0  0  0  0  0  0  0  0  0  0  0
   -6.1177   -5.3078   13.2682 C   0  0  0  0  0  0  0  0  0  0  0  0
   -7.0633   -5.1468   14.3210 N   0  0  0  0  0  0  0  0  0  0  0  0
   -6.2802   -6.2663   12.4795 O   0  0  0  0  0  0  0  0  0  0  0  0
   -8.0863   -5.1621   14.1718 H   0  0  0  0  0  0  0  0  0  0  0  0
   -6.7225   -5.0065   15.3018 H   0  0  0  0  0  0  0  0  0  0  0  0
   -4.7912   -7.4113    7.6452 C   0  0  0  0  0  0  0  0  0  0  0  0
   -2.9542   -6.9036    6.1296 C   0  0  0  0  0  0  0  0  0  0  0  0
   -4.4964   -7.0632    6.2400 C   0  0  0  0  0  0  0  0  0  0  0  0
   -5.0332   -5.7398    5.7872 C   0  0  0  0  0  0  0  0  0  0  0  0
  -10.1288   -7.5747    7.7043 C   0  0  0  0  0  0  0  0  0  0  0  0
   -9.8965   -7.2473    6.4928 O   0  0  0  0  0  0  0  0  0  0  0  0
  -10.9426   -8.7108    7.8856 N   0  0  0  0  0  0  0  0  0  0  0  0
  -11.1784   -9.0144    8.8437 H   0  0  0  0  0  0  0  0  0  0  0  0
  -11.4564   -9.4700    6.7319 C   0  0  0  0  0  0  0  0  0  0  0  0
  -12.9251   -9.5000    6.7485 C   0  0  0  0  0  0  0  0  0  0  0  0
  -13.5327  -10.2248    7.5996 O   0  0  0  0  0  0  0  0  0  0  0  0
  -13.7345   -8.7471    5.8600 N   0  0  0  0  0  0  0  0  0  0  0  0
  -13.3091   -8.1326    5.1343 H   0  0  0  0  0  0  0  0  0  0  0  0
  -15.1799   -8.7725    5.9077 C   0  0  0  0  0  0  0  0  0  0  0  0
  -15.7248   -8.9217    4.5567 C   0  0  0  0  0  0  0  0  0  0  0  0
  -17.1076   -9.2051    4.3034 N   0  0  0  0  0  0  0  0  0  0  0  0
  -14.9744   -8.8040    3.5486 O   0  0  0  0  0  0  0  0  0  0  0  0
  -17.4966  -10.0978    4.6458 H   0  0  0  0  0  0  0  0  0  0  0  0
  -17.6805   -8.5359    3.7990 H   0  0  0  0  0  0  0  0  0  0  0  0
  -15.6999   -7.5110    6.6143 C   0  0  0  0  0  0  0  0  0  0  0  0
  -15.8605   -6.3671    5.7068 C   0  0  0  0  0  0  0  0  0  0  0  0
  -17.0950   -5.9675    5.2423 C   0  0  0  0  0  0  0  0  0  0  0  0
  -17.2643   -4.8969    4.3724 C   0  0  0  0  0  0  0  0  0  0  0  0
  -16.1400   -4.1937    3.9490 C   0  0  0  0  0  0  0  0  0  0  0  0
  -14.9100   -4.5779    4.4006 C   0  0  0  0  0  0  0  0  0  0  0  0
  -14.7627   -5.6544    5.2725 C   0  0  0  0  0  0  0  0  0  0  0  0
  -10.7434  -10.7719    6.7691 C   0  0  0  0  0  0  0  0  0  0  0  0
   -9.4610  -10.8888    6.0298 C   0  0  0  0  0  0  0  0  0  0  0  0
   -8.3995  -10.2613    6.9153 C   0  0  0  0  0  0  0  0  0  0  0  0
   -7.5572   -9.2820    6.3654 N   0  0  0  0  0  0  0  0  0  0  0  0
   -8.2466  -10.5807    8.1073 O   0  0  0  0  0  0  0  0  0  0  0  0
   -6.8609   -9.4945    5.6347 H   0  0  0  0  0  0  0  0  0  0  0  0
   -7.6436   -8.2964    6.7159 H   0  0  0  0  0  0  0  0  0  0  0  0
  -10.4580   -5.8300    9.4531 C   0  0  0  0  0  0  0  0  0  0  0  0
  -11.8189   -6.3905    9.6417 C   0  0  0  0  0  0  0  0  0  0  0  0
  -12.9309   -6.1056    8.8410 C   0  0  0  0  0  0  0  0  0  0  0  0
  -13.9748   -6.7746    9.3050 N   0  0  0  0  0  0  0  0  0  0  0  0
  -13.6069   -7.4817   10.3664 C   0  0  0  0  0  0  0  0  0  0  0  0
  -12.2817   -7.2308   10.5549 N   0  0  0  0  0  0  0  0  0  0  0  0
  -11.7689   -7.6844   11.3502 H   0  0  0  0  0  0  0  0  0  0  0  0
 34 35  1  0  0  0
 35 36  1  0  0  0
 35 33  1  0  0  0
 33  6  1  0  0  0
  6  7  1  0  0  0
  7  8  1  0  0  0
  8  9  2  0  0  0
  8 11  1  0  0  0
 11 26  1  0  0  0
 26 27  1  0  0  0
 27 28  1  0  0  0
 28 29  1  0  0  0
 28 30  2  0  0  0
 11 12  1  0  0  0
 12 13  1  0  0  0
 13 14  2  0  0  0
 13 16  1  0  0  0
 16 17  1  0  0  0
 16 20  1  0  0  0
 20 21  1  0  0  0
 21 22  1  0  0  0
 22 23  1  0  0  0
 22 24  2  0  0  0
  6  2  1  0  0  0
  2  3  2  0  0  0
  2  4  1  0  0  0
  4  1  1  0  0  0
  1 66  1  0  0  0
 66 67  1  0  0  0
 67 68  2  0  0  0
 68 69  1  0  0  0
 69 70  2  0  0  0
 70 71  1  0  0  0
  1 37  1  0  0  0
 37 38  2  0  0  0
 37 39  1  0  0  0
 39 41  1  0  0  0
 41 59  1  0  0  0
 59 60  1  0  0  0
 60 61  1  0  0  0
 61 62  1  0  0  0
 61 63  2  0  0  0
 41 42  1  0  0  0
 42 43  2  0  0  0
 42 44  1  0  0  0
 44 46  1  0  0  0
 46 52  1  0  0  0
 52 53  1  0  0  0
 53 54  2  0  0  0
 54 55  1  0  0  0
 55 56  2  0  0  0
 56 57  1  0  0  0
 57 58  2  0  0  0
 46 47  1  0  0  0
 47 48  1  0  0  0
 47 49  2  0  0  0
 71 67  1  0  0  0
 58 53  1  0  0  0
  7 10  1  0  0  0
 29 31  1  0  0  0
 29 32  1  0  0  0
 12 15  1  0  0  0
 17 18  1  0  0  0
 17 19  1  0  0  0
 23 25  1  0  0  0
  4  5  1  0  0  0
 71 72  1  0  0  0
 39 40  1  0  0  0
 62 64  1  0  0  0
 62 65  1  0  0  0
 44 45  1  0  0  0
 48 50  1  0  0  0
 48 51  1  0  0  0
M  END
> <minimizedAffinity>
-5.88551

> <CNNscore>
0.2647477984

> <CNNaffinity>
7.5079598427

> <CNN_VS>
1.9877158403

> <CNNaffinity_variance>
0.1271321476

$$$$
[H]OC(=O)C([H])([H])C([H])([H])[C@@]([H])(C(=O)N([H])[C@]([H])(C(=O)N([H])[C@]([H])(C(=O)N([H])[C@]([H])(C(=O)N([H])[C@]([H])(C(=O)N([H])[C@]([H])(C(=O)N([H])[H])C([H])([H])c1c([H])c([H])c([H])c([H])c1[H])C([H])([H])C([H])([H])C(=O)N([H])[H])C([H])([H])c1c([H])nc([H])n1[H])C([H])([H])C([H])(C([H])([H])[H])C([H])([H])[H])C([H])([H])C([H])([H])C(=O)N([H])[H])N([H])[H]


 72 73  0  0  0  0  0  0  0  0999 V2000
   -9.6560   -6.7373    8.4314 C   0  0  0  0  0  0  0  0  0  0  0  0
   -7.1829   -7.2835    8.4571 C   0  0  0  0  0  0  0  0  0  0  0  0
   -7.3507   -8.1187    9.4041 O   0  0  0  0  0  0  0  0  0  0  0  0
   -8.3031   -6.6065    7.9865 N   0  0  0  0  0  0  0  0  0  0  0  0
   -8.1222   -5.8980    7.2055 H   0  0  0  0  0  0  0  0  0  0  0  0
   -5.7732   -7.1362    7.9645 C   0  0  0  0  0  0  0  0  0  0  0  0
   -5.0649   -6.3971    8.9583 N   0  0  0  0  0  0  0  0  0  0  0  0
   -4.4145   -5.1736    8.7471 C   0  0  0  0  0  0  0  0  0  0  0  0
   -4.4758   -4.6567    7.5772 O   0  0  0  0  0  0  0  0  0  0  0  0
   -4.9868   -6.7596    9.9680 H   0  0  0  0  0  0  0  0  0  0  0  0
   -3.6608   -4.4285    9.7473 C   0  0  0  0  0  0  0  0  0  0  0  0
   -3.1079   -3.1948    9.1912 N   0  0  0  0  0  0  0  0  0  0  0  0
   -1.7659   -2.8192    9.2595 C   0  0  0  0  0  0  0  0  0  0  0  0
   -0.9466   -3.5704    9.8494 O   0  0  0  0  0  0  0  0  0  0  0  0
   -3.7991   -2.5635    8.7098 H   0  0  0  0  0  0  0  0  0  0  0  0
   -1.2861   -1.5782    8.6597 C   0  0  0  0  0  0  0  0  0  0  0  0
   -0.5338   -1.8077    7.4384 N   0  0  0  0  0  0  0  0  0  0  0  0
   -1.1473   -2.3396    6.7816 H   0  0  0  0  0  0  0  0  0  0  0  0
    0.2858   -2.4088    7.6372 H   0  0  0  0  0  0  0  0  0  0  0  0
   -2.3288   -0.5275    8.4694 C   0  0  0  0  0  0  0  0  0  0  0  0
   -2.5078    0.3116    9.7082 C   0  0  0  0  0  0  0  0  0  0  0  0
   -2.9957    1.6658    9.3547 C   0  0  0  0  0  0  0  0  0  0  0  0
   -4.1929    2.1521    9.8291 O   0  0  0  0  0  0  0  0  0  0  0  0
   -2.3011    2.3851    8.6055 O   0  0  0  0  0  0  0  0  0  0  0  0
   -4.7998    1.5426   10.3703 H   0  0  0  0  0  0  0  0  0  0  0  0
   -4.1657   -4.2346   11.0973 C   0  0  0  0  0  0  0  0  0  0  0  0
   -3.8277   -5.2498   12.1530 C   0  0  0  0  0  0  0  0  0  0  0  0
   -4.9353   -5.2604   13.1961 C   0  0  0  0  0  0  0  0  0  0  0  0
   -5.8487   -6.3511   13.2649 N   0  0  0  0  0  0  0  0  0  0  0  0
   -5.0798   -4.3257   14.0162 O   0  0  0  0  0  0  0  0  0  0  0  0
   -6.0826   -6.8403   14.1453 H   0  0  0  0  0  0  0  0  0  0  0  0
   -6.3169   -6.6862   12.3895 H   0  0  0  0  0  0  0  0  0  0  0  0
   -5.2026   -8.3042    7.2991 C   0  0  0  0  0  0  0  0  0  0  0  0
   -2.7711   -8.2243    7.4048 C   0  0  0  0  0  0  0  0  0  0  0  0
   -3.9985   -8.1759    6.4524 C   0  0  0  0  0  0  0  0  0  0  0  0
   -3.8578   -6.8641    5.7426 C   0  0  0  0  0  0  0  0  0  0  0  0
  -10.5013   -7.6417    7.6664 C   0  0  0  0  0  0  0  0  0  0  0  0
   -9.9660   -8.7422    7.3041 O   0  0  0  0  0  0  0  0  0  0  0  0
  -11.8414   -7.4546    7.2725 N   0  0  0  0  0  0  0  0  0  0  0  0
  -12.3226   -6.5762    7.5228 H   0  0  0  0  0  0  0  0  0  0  0  0
  -12.5630   -8.4921    6.5147 C   0  0  0  0  0  0  0  0  0  0  0  0
  -13.5387   -7.8788    5.6035 C   0  0  0  0  0  0  0  0  0  0  0  0
  -14.1366   -8.5979    4.7409 O   0  0  0  0  0  0  0  0  0  0  0  0
  -13.8751   -6.5012    5.6274 N   0  0  0  0  0  0  0  0  0  0  0  0
  -13.4255   -5.8492    6.3041 H   0  0  0  0  0  0  0  0  0  0  0  0
  -14.8560   -5.9206    4.7368 C   0  0  0  0  0  0  0  0  0  0  0  0
  -14.3390   -4.6772    4.1617 C   0  0  0  0  0  0  0  0  0  0  0  0
  -13.3203   -4.6524    3.1526 N   0  0  0  0  0  0  0  0  0  0  0  0
  -14.7845   -3.5611    4.5477 O   0  0  0  0  0  0  0  0  0  0  0  0
  -12.3872   -5.0261    3.3875 H   0  0  0  0  0  0  0  0  0  0  0  0
  -13.5238   -4.2745    2.2326 H   0  0  0  0  0  0  0  0  0  0  0  0
  -16.1817   -5.7143    5.4857 C   0  0  0  0  0  0  0  0  0  0  0  0
  -17.1307   -6.8188    5.2921 C   0  0  0  0  0  0  0  0  0  0  0  0
  -17.6435   -7.1361    4.0529 C   0  0  0  0  0  0  0  0  0  0  0  0
  -18.5527   -8.1681    3.8534 C   0  0  0  0  0  0  0  0  0  0  0  0
  -18.9665   -8.9176    4.9510 C   0  0  0  0  0  0  0  0  0  0  0  0
  -18.4672   -8.6151    6.1854 C   0  0  0  0  0  0  0  0  0  0  0  0
  -17.5564   -7.5760    6.3631 C   0  0  0  0  0  0  0  0  0  0  0  0
  -13.0792   -9.4375    7.5366 C   0  0  0  0  0  0  0  0  0  0  0  0
  -14.5438   -9.6757    7.5931 C   0  0  0  0  0  0  0  0  0  0  0  0
  -15.1249   -8.5599    8.4426 C   0  0  0  0  0  0  0  0  0  0  0  0
  -16.2284   -8.8434    9.2629 N   0  0  0  0  0  0  0  0  0  0  0  0
  -14.6626   -7.4055    8.4402 O   0  0  0  0  0  0  0  0  0  0  0  0
  -17.1587   -9.0752    8.8823 H   0  0  0  0  0  0  0  0  0  0  0  0
  -16.0956   -8.8165   10.3037 H   0  0  0  0  0  0  0  0  0  0  0  0
  -10.3460   -5.5640    9.0337 C   0  0  0  0  0  0  0  0  0  0  0  0
  -11.5534   -5.9100    9.8237 C   0  0  0  0  0  0  0  0  0  0  0  0
  -12.5291   -5.0025   10.2521 C   0  0  0  0  0  0  0  0  0  0  0  0
  -13.4536   -5.6593   10.9350 N   0  0  0  0  0  0  0  0  0  0  0  0
  -13.1362   -6.9475   10.9774 C   0  0  0  0  0  0  0  0  0  0  0  0
  -11.9678   -7.0782   10.2904 N   0  0  0  0  0  0  0  0  0  0  0  0
  -11.5175   -8.0212   10.1939 H   0  0  0  0  0  0  0  0  0  0  0  0
 34 35  1  0  0  0
 35 36  1  0  0  0
 35 33  1  0  0  0
 33  6  1  0  0  0
  6  7  1  0  0  0
  7  8  1  0  0  0
  8  9  2  0  0  0
  8 11  1  0  0  0
 11 26  1  0  0  0
 26 27  1  0  0  0
 27 28  1  0  0  0
 28 29  1  0  0  0
 28 30  2  0  0  0
 11 12  1  0  0  0
 12 13  1  0  0  0
 13 14  2  0  0  0
 13 16  1  0  0  0
 16 17  1  0  0  0
 16 20  1  0  0  0
 20 21  1  0  0  0
 21 22  1  0  0  0
 22 23  1  0  0  0
 22 24  2  0  0  0
  6  2  1  0  0  0
  2  3  2  0  0  0
  2  4  1  0  0  0
  4  1  1  0  0  0
  1 66  1  0  0  0
 66 67  1  0  0  0
 67 68  2  0  0  0
 68 69  1  0  0  0
 69 70  2  0  0  0
 70 71  1  0  0  0
  1 37  1  0  0  0
 37 38  2  0  0  0
 37 39  1  0  0  0
 39 41  1  0  0  0
 41 59  1  0  0  0
 59 60  1  0  0  0
 60 61  1  0  0  0
 61 62  1  0  0  0
 61 63  2  0  0  0
 41 42  1  0  0  0
 42 43  2  0  0  0
 42 44  1  0  0  0
 44 46  1  0  0  0
 46 52  1  0  0  0
 52 53  1  0  0  0
 53 54  2  0  0  0
 54 55  1  0  0  0
 55 56  2  0  0  0
 56 57  1  0  0  0
 57 58  2  0  0  0
 46 47  1  0  0  0
 47 48  1  0  0  0
 47 49  2  0  0  0
 71 67  1  0  0  0
 58 53  1  0  0  0
  7 10  1  0  0  0
 29 31  1  0  0  0
 29 32  1  0  0  0
 12 15  1  0  0  0
 17 18  1  0  0  0
 17 19  1  0  0  0
 23 25  1  0  0  0
  4  5  1  0  0  0
 71 72  1  0  0  0
 39 40  1  0  0  0
 62 64  1  0  0  0
 62 65  1  0  0  0
 44 45  1  0  0  0
 48 50  1  0  0  0
 48 51  1  0  0  0
M  END
> <minimizedAffinity>
-3.99745

> <CNNscore>
0.2644267678

> <CNNaffinity>
7.7332410812

> <CNN_VS>
2.0448758602

> <CNNaffinity_variance>
0.1409867257

$$$$
[H]OC(=O)C([H])([H])C([H])([H])[C@@]([H])(C(=O)N([H])[C@]([H])(C(=O)N([H])[C@]([H])(C(=O)N([H])[C@]([H])(C(=O)N([H])[C@]([H])(C(=O)N([H])[C@]([H])(C(=O)N([H])[H])C([H])([H])c1c([H])c([H])c([H])c([H])c1[H])C([H])([H])C([H])([H])C(=O)N([H])[H])C([H])([H])c1c([H])nc([H])n1[H])C([H])([H])C([H])(C([H])([H])[H])C([H])([H])[H])C([H])([H])C([H])([H])C(=O)N([H])[H])N([H])[H]


 72 73  0  0  0  0  0  0  0  0999 V2000
   -4.0462   -4.7988    6.4741 C   0  0  0  0  0  0  0  0  0  0  0  0
   -2.3285   -4.3150    8.2714 C   0  0  0  0  0  0  0  0  0  0  0  0
   -2.4990   -3.0603    8.1332 O   0  0  0  0  0  0  0  0  0  0  0  0
   -3.0769   -5.1621    7.4609 N   0  0  0  0  0  0  0  0  0  0  0  0
   -2.8930   -6.2082    7.5893 H   0  0  0  0  0  0  0  0  0  0  0  0
   -1.3241   -4.7224    9.3091 C   0  0  0  0  0  0  0  0  0  0  0  0
   -1.9154   -4.4586   10.5804 N   0  0  0  0  0  0  0  0  0  0  0  0
   -3.1945   -4.8704   10.9796 C   0  0  0  0  0  0  0  0  0  0  0  0
   -3.8866   -5.5609   10.1528 O   0  0  0  0  0  0  0  0  0  0  0  0
   -1.3865   -3.9006   11.3326 H   0  0  0  0  0  0  0  0  0  0  0  0
   -3.8192   -4.5770   12.2630 C   0  0  0  0  0  0  0  0  0  0  0  0
   -3.6286   -3.1785   12.6436 N   0  0  0  0  0  0  0  0  0  0  0  0
   -2.8750   -2.7432   13.7341 C   0  0  0  0  0  0  0  0  0  0  0  0
   -2.3156   -3.5939   14.4737 O   0  0  0  0  0  0  0  0  0  0  0  0
   -4.1088   -2.4710   12.0296 H   0  0  0  0  0  0  0  0  0  0  0  0
   -2.7144   -1.3246   14.0371 C   0  0  0  0  0  0  0  0  0  0  0  0
   -1.5099   -1.0545   14.8030 N   0  0  0  0  0  0  0  0  0  0  0  0
   -0.6979   -1.4258   14.2611 H   0  0  0  0  0  0  0  0  0  0  0  0
   -1.5373   -1.5752   15.6978 H   0  0  0  0  0  0  0  0  0  0  0  0
   -2.8293   -0.4133   12.8608 C   0  0  0  0  0  0  0  0  0  0  0  0
   -3.1432    1.0001   13.2785 C   0  0  0  0  0  0  0  0  0  0  0  0
   -2.6722    1.9631   12.2550 C   0  0  0  0  0  0  0  0  0  0  0  0
   -2.0186    3.1249   12.5986 O   0  0  0  0  0  0  0  0  0  0  0  0
   -2.8745    1.7134   11.0476 O   0  0  0  0  0  0  0  0  0  0  0  0
   -1.9246    3.3731   13.5795 H   0  0  0  0  0  0  0  0  0  0  0  0
   -5.1558   -5.0488   12.5885 C   0  0  0  0  0  0  0  0  0  0  0  0
   -5.4925   -5.3474   14.0227 C   0  0  0  0  0  0  0  0  0  0  0  0
   -6.6992   -4.5137   14.4273 C   0  0  0  0  0  0  0  0  0  0  0  0
   -6.5284   -3.1777   14.8902 N   0  0  0  0  0  0  0  0  0  0  0  0
   -7.8648   -4.9664   14.3686 O   0  0  0  0  0  0  0  0  0  0  0  0
   -7.0768   -2.3783   14.5306 H   0  0  0  0  0  0  0  0  0  0  0  0
   -5.8171   -2.9774   15.6330 H   0  0  0  0  0  0  0  0  0  0  0  0
   -0.5753   -5.9448    9.0298 C   0  0  0  0  0  0  0  0  0  0  0  0
   -0.4979   -7.7547   10.6571 C   0  0  0  0  0  0  0  0  0  0  0  0
   -1.1544   -7.2695    9.3343 C   0  0  0  0  0  0  0  0  0  0  0  0
   -0.8269   -8.3482    8.3476 C   0  0  0  0  0  0  0  0  0  0  0  0
   -5.1279   -5.7471    6.2538 C   0  0  0  0  0  0  0  0  0  0  0  0
   -4.9855   -6.5451    5.2680 O   0  0  0  0  0  0  0  0  0  0  0  0
   -6.3181   -5.8953    6.9938 N   0  0  0  0  0  0  0  0  0  0  0  0
   -6.4964   -5.2669    7.7931 H   0  0  0  0  0  0  0  0  0  0  0  0
   -7.3053   -6.9325    6.6460 C   0  0  0  0  0  0  0  0  0  0  0  0
   -8.6496   -6.5296    7.0804 C   0  0  0  0  0  0  0  0  0  0  0  0
   -8.9557   -5.2955    7.1256 O   0  0  0  0  0  0  0  0  0  0  0  0
   -9.6611   -7.4505    7.4549 N   0  0  0  0  0  0  0  0  0  0  0  0
   -9.4844   -8.4771    7.4455 H   0  0  0  0  0  0  0  0  0  0  0  0
  -10.9866   -7.0346    7.8576 C   0  0  0  0  0  0  0  0  0  0  0  0
  -10.9393   -6.4235    9.1874 C   0  0  0  0  0  0  0  0  0  0  0  0
   -9.7579   -6.4221   10.0004 N   0  0  0  0  0  0  0  0  0  0  0  0
  -11.9634   -5.8666    9.6715 O   0  0  0  0  0  0  0  0  0  0  0  0
   -9.3773   -7.3285   10.3151 H   0  0  0  0  0  0  0  0  0  0  0  0
   -9.3148   -5.5444   10.2534 H   0  0  0  0  0  0  0  0  0  0  0  0
  -11.9492   -8.2306    7.7951 C   0  0  0  0  0  0  0  0  0  0  0  0
  -13.0209   -8.0566    6.8057 C   0  0  0  0  0  0  0  0  0  0  0  0
  -13.7767   -6.9061    6.7381 C   0  0  0  0  0  0  0  0  0  0  0  0
  -14.8034   -6.7298    5.8182 C   0  0  0  0  0  0  0  0  0  0  0  0
  -15.0843   -7.7580    4.9230 C   0  0  0  0  0  0  0  0  0  0  0  0
  -14.3441   -8.9041    4.9776 C   0  0  0  0  0  0  0  0  0  0  0  0
  -13.3191   -9.0601    5.9081 C   0  0  0  0  0  0  0  0  0  0  0  0
   -6.7570   -8.1975    7.1972 C   0  0  0  0  0  0  0  0  0  0  0  0
   -7.2613   -9.4792    6.6424 C   0  0  0  0  0  0  0  0  0  0  0  0
   -8.1386  -10.0937    7.7180 C   0  0  0  0  0  0  0  0  0  0  0  0
   -7.6971  -10.0550    9.0502 N   0  0  0  0  0  0  0  0  0  0  0  0
   -9.2319  -10.6299    7.4658 O   0  0  0  0  0  0  0  0  0  0  0  0
   -6.8756  -10.5852    9.3789 H   0  0  0  0  0  0  0  0  0  0  0  0
   -8.2281   -9.4618    9.7342 H   0  0  0  0  0  0  0  0  0  0  0  0
   -3.6200   -4.0179    5.2808 C   0  0  0  0  0  0  0  0  0  0  0  0
   -4.0391   -2.5948    5.3057 C   0  0  0  0  0  0  0  0  0  0  0  0
   -4.3354   -1.8173    4.1802 C   0  0  0  0  0  0  0  0  0  0  0  0
   -4.6647   -0.5981    4.5771 N   0  0  0  0  0  0  0  0  0  0  0  0
   -4.5998   -0.5347    5.9014 C   0  0  0  0  0  0  0  0  0  0  0  0
   -4.2140   -1.7695    6.3268 N   0  0  0  0  0  0  0  0  0  0  0  0
   -4.0905   -1.9573    7.3518 H   0  0  0  0  0  0  0  0  0  0  0  0
 34 35  1  0  0  0
 35 36  1  0  0  0
 35 33  1  0  0  0
 33  6  1  0  0  0
  6  7  1  0  0  0
  7  8  1  0  0  0
  8  9  2  0  0  0
  8 11  1  0  0  0
 11 26  1  0  0  0
 26 27  1  0  0  0
 27 28  1  0  0  0
 28 29  1  0  0  0
 28 30  2  0  0  0
 11 12  1  0  0  0
 12 13  1  0  0  0
 13 14  2  0  0  0
 13 16  1  0  0  0
 16 17  1  0  0  0
 16 20  1  0  0  0
 20 21  1  0  0  0
 21 22  1  0  0  0
 22 23  1  0  0  0
 22 24  2  0  0  0
  6  2  1  0  0  0
  2  3  2  0  0  0
  2  4  1  0  0  0
  4  1  1  0  0  0
  1 66  1  0  0  0
 66 67  1  0  0  0
 67 68  2  0  0  0
 68 69  1  0  0  0
 69 70  2  0  0  0
 70 71  1  0  0  0
  1 37  1  0  0  0
 37 38  2  0  0  0
 37 39  1  0  0  0
 39 41  1  0  0  0
 41 59  1  0  0  0
 59 60  1  0  0  0
 60 61  1  0  0  0
 61 62  1  0  0  0
 61 63  2  0  0  0
 41 42  1  0  0  0
 42 43  2  0  0  0
 42 44  1  0  0  0
 44 46  1  0  0  0
 46 52  1  0  0  0
 52 53  1  0  0  0
 53 54  2  0  0  0
 54 55  1  0  0  0
 55 56  2  0  0  0
 56 57  1  0  0  0
 57 58  2  0  0  0
 46 47  1  0  0  0
 47 48  1  0  0  0
 47 49  2  0  0  0
 71 67  1  0  0  0
 58 53  1  0  0  0
  7 10  1  0  0  0
 29 31  1  0  0  0
 29 32  1  0  0  0
 12 15  1  0  0  0
 17 18  1  0  0  0
 17 19  1  0  0  0
 23 25  1  0  0  0
  4  5  1  0  0  0
 71 72  1  0  0  0
 39 40  1  0  0  0
 62 64  1  0  0  0
 62 65  1  0  0  0
 44 45  1  0  0  0
 48 50  1  0  0  0
 48 51  1  0  0  0
M  END
> <minimizedAffinity>
-5.24851

> <CNNscore>
0.2316619754

> <CNNaffinity>
7.1655821800

> <CNN_VS>
1.6599929333

> <CNNaffinity_variance>
0.4144695699

$$$$
[H]OC(=O)C([H])([H])C([H])([H])[C@@]([H])(C(=O)N([H])[C@]([H])(C(=O)N([H])[C@]([H])(C(=O)N([H])[C@]([H])(C(=O)N([H])[C@]([H])(C(=O)N([H])[C@]([H])(C(=O)N([H])[H])C([H])([H])c1c([H])c([H])c([H])c([H])c1[H])C([H])([H])C([H])([H])C(=O)N([H])[H])C([H])([H])c1c([H])nc([H])n1[H])C([H])([H])C([H])(C([H])([H])[H])C([H])([H])[H])C([H])([H])C([H])([H])C(=O)N([H])[H])N([H])[H]


 72 73  0  0  0  0  0  0  0  0999 V2000
   -9.5187   -6.7257    8.7128 C   0  0  0  0  0  0  0  0  0  0  0  0
   -7.0006   -6.9982    8.7339 C   0  0  0  0  0  0  0  0  0  0  0  0
   -7.1038   -8.1509    9.2659 O   0  0  0  0  0  0  0  0  0  0  0  0
   -8.1749   -6.3012    8.4691 N   0  0  0  0  0  0  0  0  0  0  0  0
   -8.0499   -5.3284    8.0416 H   0  0  0  0  0  0  0  0  0  0  0  0
   -5.6006   -6.5344    8.4577 C   0  0  0  0  0  0  0  0  0  0  0  0
   -5.1214   -5.9331    9.6595 N   0  0  0  0  0  0  0  0  0  0  0  0
   -4.0996   -4.9765    9.7346 C   0  0  0  0  0  0  0  0  0  0  0  0
   -3.5632   -4.5857    8.6396 O   0  0  0  0  0  0  0  0  0  0  0  0
   -5.5368   -6.1979   10.6156 H   0  0  0  0  0  0  0  0  0  0  0  0
   -3.5812   -4.3819   10.9599 C   0  0  0  0  0  0  0  0  0  0  0  0
   -3.7578   -2.9308   10.9667 N   0  0  0  0  0  0  0  0  0  0  0  0
   -2.7208   -1.9997   10.9003 C   0  0  0  0  0  0  0  0  0  0  0  0
   -1.5315   -2.4072   10.8433 O   0  0  0  0  0  0  0  0  0  0  0  0
   -4.7534   -2.5945   11.0274 H   0  0  0  0  0  0  0  0  0  0  0  0
   -2.9799   -0.5635   10.8907 C   0  0  0  0  0  0  0  0  0  0  0  0
   -3.3141   -0.0519   12.2086 N   0  0  0  0  0  0  0  0  0  0  0  0
   -2.5297   -0.2963   12.8534 H   0  0  0  0  0  0  0  0  0  0  0  0
   -4.1591   -0.5305   12.5684 H   0  0  0  0  0  0  0  0  0  0  0  0
   -1.9226    0.2619   10.2365 C   0  0  0  0  0  0  0  0  0  0  0  0
   -2.0973    0.3088    8.7405 C   0  0  0  0  0  0  0  0  0  0  0  0
   -3.3844    0.9525    8.3857 C   0  0  0  0  0  0  0  0  0  0  0  0
   -4.3847    0.2648    7.7366 O   0  0  0  0  0  0  0  0  0  0  0  0
   -3.5659    2.1523    8.6839 O   0  0  0  0  0  0  0  0  0  0  0  0
   -4.2121   -0.6848    7.4186 H   0  0  0  0  0  0  0  0  0  0  0  0
   -3.8475   -4.9654   12.2651 C   0  0  0  0  0  0  0  0  0  0  0  0
   -4.8705   -4.3180   13.1561 C   0  0  0  0  0  0  0  0  0  0  0  0
   -6.0592   -5.2566   13.3010 C   0  0  0  0  0  0  0  0  0  0  0  0
   -6.9487   -5.1263   14.4057 N   0  0  0  0  0  0  0  0  0  0  0  0
   -6.2922   -6.1614   12.4679 O   0  0  0  0  0  0  0  0  0  0  0  0
   -7.9774   -5.0990   14.3054 H   0  0  0  0  0  0  0  0  0  0  0  0
   -6.5580   -5.0549   15.3753 H   0  0  0  0  0  0  0  0  0  0  0  0
   -4.7793   -7.4274    7.6448 C   0  0  0  0  0  0  0  0  0  0  0  0
   -2.9270   -6.9184    6.1483 C   0  0  0  0  0  0  0  0  0  0  0  0
   -4.4686   -7.0946    6.2392 C   0  0  0  0  0  0  0  0  0  0  0  0
   -5.0143   -5.7838    5.7611 C   0  0  0  0  0  0  0  0  0  0  0  0
  -10.1189   -7.5787    7.6979 C   0  0  0  0  0  0  0  0  0  0  0  0
   -9.8940   -7.2542    6.4843 O   0  0  0  0  0  0  0  0  0  0  0  0
  -10.9212   -8.7218    7.8868 N   0  0  0  0  0  0  0  0  0  0  0  0
  -11.1507   -9.0237    8.8470 H   0  0  0  0  0  0  0  0  0  0  0  0
  -11.4319   -9.4905    6.7380 C   0  0  0  0  0  0  0  0  0  0  0  0
  -12.9008   -9.5111    6.7448 C   0  0  0  0  0  0  0  0  0  0  0  0
  -13.5188  -10.2256    7.5971 O   0  0  0  0  0  0  0  0  0  0  0  0
  -13.6993   -8.7599    5.8451 N   0  0  0  0  0  0  0  0  0  0  0  0
  -13.2651   -8.1535    5.1178 H   0  0  0  0  0  0  0  0  0  0  0  0
  -15.1452   -8.7757    5.8831 C   0  0  0  0  0  0  0  0  0  0  0  0
  -15.6819   -8.9203    4.5284 C   0  0  0  0  0  0  0  0  0  0  0  0
  -17.0584   -9.2256    4.2663 N   0  0  0  0  0  0  0  0  0  0  0  0
  -14.9298   -8.7785    3.5247 O   0  0  0  0  0  0  0  0  0  0  0  0
  -17.4327  -10.1287    4.5976 H   0  0  0  0  0  0  0  0  0  0  0  0
  -17.6412   -8.5614    3.7666 H   0  0  0  0  0  0  0  0  0  0  0  0
  -15.6616   -7.5114    6.5872 C   0  0  0  0  0  0  0  0  0  0  0  0
  -15.8193   -6.3689    5.6775 C   0  0  0  0  0  0  0  0  0  0  0  0
  -14.7433   -5.6304    5.2346 C   0  0  0  0  0  0  0  0  0  0  0  0
  -14.8751   -4.5381    4.3854 C   0  0  0  0  0  0  0  0  0  0  0  0
  -16.1484   -4.1702    3.9602 C   0  0  0  0  0  0  0  0  0  0  0  0
  -17.2244   -4.8924    4.3905 C   0  0  0  0  0  0  0  0  0  0  0  0
  -17.0699   -5.9841    5.2420 C   0  0  0  0  0  0  0  0  0  0  0  0
  -10.7275  -10.7964    6.7947 C   0  0  0  0  0  0  0  0  0  0  0  0
   -9.4486  -10.9344    6.0528 C   0  0  0  0  0  0  0  0  0  0  0  0
   -8.3831  -10.2815    6.9146 C   0  0  0  0  0  0  0  0  0  0  0  0
   -7.5814   -9.2776    6.3485 N   0  0  0  0  0  0  0  0  0  0  0  0
   -8.1922  -10.6010    8.1012 O   0  0  0  0  0  0  0  0  0  0  0  0
   -6.8979   -9.4685    5.5999 H   0  0  0  0  0  0  0  0  0  0  0  0
   -7.6858   -8.2961    6.7053 H   0  0  0  0  0  0  0  0  0  0  0  0
  -10.4557   -5.8173    9.4284 C   0  0  0  0  0  0  0  0  0  0  0  0
  -11.8136   -6.3813    9.6279 C   0  0  0  0  0  0  0  0  0  0  0  0
  -12.9140   -6.1597    8.7918 C   0  0  0  0  0  0  0  0  0  0  0  0
  -13.9588   -6.8110    9.2784 N   0  0  0  0  0  0  0  0  0  0  0  0
  -13.6025   -7.4467   10.3879 C   0  0  0  0  0  0  0  0  0  0  0  0
  -12.2838   -7.1689   10.5833 N   0  0  0  0  0  0  0  0  0  0  0  0
  -11.7805   -7.5662   11.4140 H   0  0  0  0  0  0  0  0  0  0  0  0
 34 35  1  0  0  0
 35 36  1  0  0  0
 35 33  1  0  0  0
 33  6  1  0  0  0
  6  7  1  0  0  0
  7  8  1  0  0  0
  8  9  2  0  0  0
  8 11  1  0  0  0
 11 26  1  0  0  0
 26 27  1  0  0  0
 27 28  1  0  0  0
 28 29  1  0  0  0
 28 30  2  0  0  0
 11 12  1  0  0  0
 12 13  1  0  0  0
 13 14  2  0  0  0
 13 16  1  0  0  0
 16 17  1  0  0  0
 16 20  1  0  0  0
 20 21  1  0  0  0
 21 22  1  0  0  0
 22 23  1  0  0  0
 22 24  2  0  0  0
  6  2  1  0  0  0
  2  3  2  0  0  0
  2  4  1  0  0  0
  4  1  1  0  0  0
  1 66  1  0  0  0
 66 67  1  0  0  0
 67 68  2  0  0  0
 68 69  1  0  0  0
 69 70  2  0  0  0
 70 71  1  0  0  0
  1 37  1  0  0  0
 37 38  2  0  0  0
 37 39  1  0  0  0
 39 41  1  0  0  0
 41 59  1  0  0  0
 59 60  1  0  0  0
 60 61  1  0  0  0
 61 62  1  0  0  0
 61 63  2  0  0  0
 41 42  1  0  0  0
 42 43  2  0  0  0
 42 44  1  0  0  0
 44 46  1  0  0  0
 46 52  1  0  0  0
 52 53  1  0  0  0
 53 54  2  0  0  0
 54 55  1  0  0  0
 55 56  2  0  0  0
 56 57  1  0  0  0
 57 58  2  0  0  0
 46 47  1  0  0  0
 47 48  1  0  0  0
 47 49  2  0  0  0
 71 67  1  0  0  0
 58 53  1  0  0  0
  7 10  1  0  0  0
 29 31  1  0  0  0
 29 32  1  0  0  0
 12 15  1  0  0  0
 17 18  1  0  0  0
 17 19  1  0  0  0
 23 25  1  0  0  0
  4  5  1  0  0  0
 71 72  1  0  0  0
 39 40  1  0  0  0
 62 64  1  0  0  0
 62 65  1  0  0  0
 44 45  1  0  0  0
 48 50  1  0  0  0
 48 51  1  0  0  0
M  END
> <minimizedAffinity>
-5.89693

> <CNNscore>
0.2293013036

> <CNNaffinity>
7.5581731796

> <CNN_VS>
1.7330989838

> <CNNaffinity_variance>
0.0757821202

$$$$
[H]OC(=O)C([H])([H])C([H])([H])[C@@]([H])(C(=O)N([H])[C@]([H])(C(=O)N([H])[C@]([H])(C(=O)N([H])[C@]([H])(C(=O)N([H])[C@]([H])(C(=O)N([H])[C@]([H])(C(=O)N([H])[H])C([H])([H])c1c([H])c([H])c([H])c([H])c1[H])C([H])([H])C([H])([H])C(=O)N([H])[H])C([H])([H])c1c([H])nc([H])n1[H])C([H])([H])C([H])(C([H])([H])[H])C([H])([H])[H])C([H])([H])C([H])([H])C(=O)N([H])[H])N([H])[H]


 72 73  0  0  0  0  0  0  0  0999 V2000
   -9.5602   -6.7408    8.7297 C   0  0  0  0  0  0  0  0  0  0  0  0
   -7.0374   -6.9652    8.7461 C   0  0  0  0  0  0  0  0  0  0  0  0
   -7.1171   -8.1140    9.2905 O   0  0  0  0  0  0  0  0  0  0  0  0
   -8.2254   -6.2935    8.4776 N   0  0  0  0  0  0  0  0  0  0  0  0
   -8.1202   -5.3231    8.0394 H   0  0  0  0  0  0  0  0  0  0  0  0
   -5.6471   -6.4779    8.4608 C   0  0  0  0  0  0  0  0  0  0  0  0
   -5.2327   -5.7255    9.5999 N   0  0  0  0  0  0  0  0  0  0  0  0
   -4.2218   -4.7545    9.6048 C   0  0  0  0  0  0  0  0  0  0  0  0
   -3.6334   -4.4968    8.4971 O   0  0  0  0  0  0  0  0  0  0  0  0
   -5.6940   -5.8741   10.5601 H   0  0  0  0  0  0  0  0  0  0  0  0
   -3.7693   -4.0054   10.7699 C   0  0  0  0  0  0  0  0  0  0  0  0
   -3.1703   -4.8851   11.7720 N   0  0  0  0  0  0  0  0  0  0  0  0
   -3.8040   -5.3149   12.9385 C   0  0  0  0  0  0  0  0  0  0  0  0
   -4.9745   -4.9224   13.1824 O   0  0  0  0  0  0  0  0  0  0  0  0
   -2.1866   -5.2005   11.5701 H   0  0  0  0  0  0  0  0  0  0  0  0
   -3.1454   -6.2126   13.8821 C   0  0  0  0  0  0  0  0  0  0  0  0
   -2.1311   -5.5377   14.6733 N   0  0  0  0  0  0  0  0  0  0  0  0
   -2.5893   -4.7361   15.1616 H   0  0  0  0  0  0  0  0  0  0  0  0
   -1.4078   -5.1361   14.0503 H   0  0  0  0  0  0  0  0  0  0  0  0
   -4.0693   -7.0082   14.7426 C   0  0  0  0  0  0  0  0  0  0  0  0
   -3.9457   -6.6271   16.1953 C   0  0  0  0  0  0  0  0  0  0  0  0
   -5.0147   -5.6741   16.5772 C   0  0  0  0  0  0  0  0  0  0  0  0
   -6.0251   -5.3309   15.7077 O   0  0  0  0  0  0  0  0  0  0  0  0
   -4.9976   -5.1684   17.7197 O   0  0  0  0  0  0  0  0  0  0  0  0
   -5.9985   -5.6741   14.7515 H   0  0  0  0  0  0  0  0  0  0  0  0
   -3.0353   -2.7567   10.6384 C   0  0  0  0  0  0  0  0  0  0  0  0
   -3.3874   -1.8209    9.5161 C   0  0  0  0  0  0  0  0  0  0  0  0
   -3.0224   -0.4022    9.9273 C   0  0  0  0  0  0  0  0  0  0  0  0
   -3.7973    0.2860   10.9042 N   0  0  0  0  0  0  0  0  0  0  0  0
   -2.0443    0.1994    9.4287 O   0  0  0  0  0  0  0  0  0  0  0  0
   -3.3826    0.7784   11.7133 H   0  0  0  0  0  0  0  0  0  0  0  0
   -4.8409    0.3054   10.8129 H   0  0  0  0  0  0  0  0  0  0  0  0
   -4.7652   -7.4221    7.7800 C   0  0  0  0  0  0  0  0  0  0  0  0
   -2.9033   -6.9817    6.2737 C   0  0  0  0  0  0  0  0  0  0  0  0
   -4.4329   -7.2469    6.3510 C   0  0  0  0  0  0  0  0  0  0  0  0
   -5.0448   -6.0448    5.6991 C   0  0  0  0  0  0  0  0  0  0  0  0
  -10.1601   -7.5862    7.7084 C   0  0  0  0  0  0  0  0  0  0  0  0
   -9.9284   -7.2572    6.4972 O   0  0  0  0  0  0  0  0  0  0  0  0
  -10.9689   -8.7261    7.8885 N   0  0  0  0  0  0  0  0  0  0  0  0
  -11.2041   -9.0313    8.8462 H   0  0  0  0  0  0  0  0  0  0  0  0
  -11.4783   -9.4870    6.7340 C   0  0  0  0  0  0  0  0  0  0  0  0
  -12.9471   -9.5152    6.7439 C   0  0  0  0  0  0  0  0  0  0  0  0
  -13.5595  -10.2423    7.5896 O   0  0  0  0  0  0  0  0  0  0  0  0
  -13.7516   -8.7581    5.8546 N   0  0  0  0  0  0  0  0  0  0  0  0
  -13.3222   -8.1414    5.1331 H   0  0  0  0  0  0  0  0  0  0  0  0
  -15.1973   -8.7817    5.8957 C   0  0  0  0  0  0  0  0  0  0  0  0
  -15.7363   -8.9220    4.5415 C   0  0  0  0  0  0  0  0  0  0  0  0
  -17.1112   -9.2358    4.2810 N   0  0  0  0  0  0  0  0  0  0  0  0
  -14.9878   -8.7687    3.5368 O   0  0  0  0  0  0  0  0  0  0  0  0
  -17.4781  -10.1436    4.6078 H   0  0  0  0  0  0  0  0  0  0  0  0
  -17.7001   -8.5728    3.7868 H   0  0  0  0  0  0  0  0  0  0  0  0
  -15.7187   -7.5239    6.6077 C   0  0  0  0  0  0  0  0  0  0  0  0
  -15.8636   -6.3713    5.7086 C   0  0  0  0  0  0  0  0  0  0  0  0
  -17.0918   -5.9549    5.2424 C   0  0  0  0  0  0  0  0  0  0  0  0
  -17.2463   -4.8758    4.3803 C   0  0  0  0  0  0  0  0  0  0  0  0
  -16.1129   -4.1813    3.9670 C   0  0  0  0  0  0  0  0  0  0  0  0
  -14.8889   -4.5820    4.4204 C   0  0  0  0  0  0  0  0  0  0  0  0
  -14.7565   -5.6669    5.2843 C   0  0  0  0  0  0  0  0  0  0  0  0
  -10.7672  -10.7897    6.7772 C   0  0  0  0  0  0  0  0  0  0  0  0
   -9.4800  -10.9088    6.0465 C   0  0  0  0  0  0  0  0  0  0  0  0
   -8.4256  -10.2714    6.9332 C   0  0  0  0  0  0  0  0  0  0  0  0
   -7.5723   -9.3055    6.3765 N   0  0  0  0  0  0  0  0  0  0  0  0
   -8.2878  -10.5711    8.1322 O   0  0  0  0  0  0  0  0  0  0  0  0
   -6.8688   -9.5338    5.6575 H   0  0  0  0  0  0  0  0  0  0  0  0
   -7.6579   -8.3137    6.7093 H   0  0  0  0  0  0  0  0  0  0  0  0
  -10.5014   -5.8572    9.4704 C   0  0  0  0  0  0  0  0  0  0  0  0
  -11.8589   -6.4297    9.6473 C   0  0  0  0  0  0  0  0  0  0  0  0
  -12.9723   -6.1361    8.8515 C   0  0  0  0  0  0  0  0  0  0  0  0
  -14.0122   -6.8203    9.3018 N   0  0  0  0  0  0  0  0  0  0  0  0
  -13.6405   -7.5457   10.3495 C   0  0  0  0  0  0  0  0  0  0  0  0
  -12.3170   -7.2904   10.5436 N   0  0  0  0  0  0  0  0  0  0  0  0
  -11.8018   -7.7562   11.3303 H   0  0  0  0  0  0  0  0  0  0  0  0
 34 35  1  0  0  0
 35 36  1  0  0  0
 35 33  1  0  0  0
 33  6  1  0  0  0
  6  7  1  0  0  0
  7  8  1  0  0  0
  8  9  2  0  0  0
  8 11  1  0  0  0
 11 26  1  0  0  0
 26 27  1  0  0  0
 27 28  1  0  0  0
 28 29  1  0  0  0
 28 30  2  0  0  0
 11 12  1  0  0  0
 12 13  1  0  0  0
 13 14  2  0  0  0
 13 16  1  0  0  0
 16 17  1  0  0  0
 16 20  1  0  0  0
 20 21  1  0  0  0
 21 22  1  0  0  0
 22 23  1  0  0  0
 22 24  2  0  0  0
  6  2  1  0  0  0
  2  3  2  0  0  0
  2  4  1  0  0  0
  4  1  1  0  0  0
  1 66  1  0  0  0
 66 67  1  0  0  0
 67 68  2  0  0  0
 68 69  1  0  0  0
 69 70  2  0  0  0
 70 71  1  0  0  0
  1 37  1  0  0  0
 37 38  2  0  0  0
 37 39  1  0  0  0
 39 41  1  0  0  0
 41 59  1  0  0  0
 59 60  1  0  0  0
 60 61  1  0  0  0
 61 62  1  0  0  0
 61 63  2  0  0  0
 41 42  1  0  0  0
 42 43  2  0  0  0
 42 44  1  0  0  0
 44 46  1  0  0  0
 46 52  1  0  0  0
 52 53  1  0  0  0
 53 54  2  0  0  0
 54 55  1  0  0  0
 55 56  2  0  0  0
 56 57  1  0  0  0
 57 58  2  0  0  0
 46 47  1  0  0  0
 47 48  1  0  0  0
 47 49  2  0  0  0
 71 67  1  0  0  0
 58 53  1  0  0  0
  7 10  1  0  0  0
 29 31  1  0  0  0
 29 32  1  0  0  0
 12 15  1  0  0  0
 17 18  1  0  0  0
 17 19  1  0  0  0
 23 25  1  0  0  0
  4  5  1  0  0  0
 71 72  1  0  0  0
 39 40  1  0  0  0
 62 64  1  0  0  0
 62 65  1  0  0  0
 44 45  1  0  0  0
 48 50  1  0  0  0
 48 51  1  0  0  0
M  END
> <minimizedAffinity>
-5.94168

> <CNNscore>
0.2225797772

> <CNNaffinity>
7.4213781357

> <CNN_VS>
1.6518486738

> <CNNaffinity_variance>
0.1551569849

$$$$
[H]c1c([H])c([H])c(C(=O)c2c([H])c(-c3c(N([H])[H])nc(N([H])[H])nc3C([H])([H])C([H])([H])[H])c([H])c([H])c2Cl)c([H])c1[H]


 29 31  0  0  0  0  0  0  0  0999 V2000
   -8.2124   -8.2939    7.1997 C   0  0  0  0  0  0  0  0  0  0  0  0
   -7.3883   -7.8159    8.1651 C   0  0  0  0  0  0  0  0  0  0  0  0
   -7.8841   -7.1725    9.3127 C   0  0  0  0  0  0  0  0  0  0  0  0
   -9.2374   -7.0054    9.5033 C   0  0  0  0  0  0  0  0  0  0  0  0
   -9.7714   -6.1915   10.9546 Cl  0  0  0  0  0  0  0  0  0  0  0  0
  -10.0845   -7.4853    8.5411 C   0  0  0  0  0  0  0  0  0  0  0  0
   -9.5887   -8.1079    7.4236 C   0  0  0  0  0  0  0  0  0  0  0  0
   -6.7530   -8.6461    5.1908 C   0  0  0  0  0  0  0  0  0  0  0  0
   -6.5497   -9.2906    4.0316 N   0  0  0  0  0  0  0  0  0  0  0  0
   -7.3569  -10.2657    3.5826 C   0  0  0  0  0  0  0  0  0  0  0  0
   -7.0985  -10.9084    2.3192 N   0  0  0  0  0  0  0  0  0  0  0  0
   -8.4076  -10.6046    4.3362 N   0  0  0  0  0  0  0  0  0  0  0  0
   -8.6563  -10.0065    5.4879 C   0  0  0  0  0  0  0  0  0  0  0  0
   -9.7660  -10.3662    6.2917 N   0  0  0  0  0  0  0  0  0  0  0  0
   -7.8282   -8.9791    5.9768 C   0  0  0  0  0  0  0  0  0  0  0  0
   -6.6148  -11.8169    2.3283 H   0  0  0  0  0  0  0  0  0  0  0  0
   -7.3789  -10.4905    1.4194 H   0  0  0  0  0  0  0  0  0  0  0  0
   -9.6213  -10.8190    7.2097 H   0  0  0  0  0  0  0  0  0  0  0  0
  -10.7256  -10.1343    5.8820 H   0  0  0  0  0  0  0  0  0  0  0  0
   -4.5599   -8.2994    6.1867 C   0  0  0  0  0  0  0  0  0  0  0  0
   -5.7842   -7.6310    5.5792 C   0  0  0  0  0  0  0  0  0  0  0  0
  -11.5189   -7.3819    8.7402 C   0  0  0  0  0  0  0  0  0  0  0  0
  -12.3232   -8.0524    7.9914 O   0  0  0  0  0  0  0  0  0  0  0  0
  -12.1734   -6.5608    9.7492 C   0  0  0  0  0  0  0  0  0  0  0  0
  -12.8125   -7.0906   10.8523 C   0  0  0  0  0  0  0  0  0  0  0  0
  -13.4479   -6.2951   11.7908 C   0  0  0  0  0  0  0  0  0  0  0  0
  -13.4476   -4.9267   11.6295 C   0  0  0  0  0  0  0  0  0  0  0  0
  -12.8099   -4.3501   10.5239 C   0  0  0  0  0  0  0  0  0  0  0  0
  -12.1934   -5.1723    9.6163 C   0  0  0  0  0  0  0  0  0  0  0  0
 20 21  1  0  0  0
 21  8  1  0  0  0
  8  9  2  0  0  0
  9 10  1  0  0  0
 10 11  1  0  0  0
 10 12  2  0  0  0
 12 13  1  0  0  0
 13 14  1  0  0  0
 13 15  2  0  0  0
 15  1  1  0  0  0
  1  2  2  0  0  0
  2  3  1  0  0  0
  3  4  2  0  0  0
  4  5  1  0  0  0
  4  6  1  0  0  0
  6  7  2  0  0  0
  6 22  1  0  0  0
 22 23  2  0  0  0
 22 24  1  0  0  0
 24 25  2  0  0  0
 25 26  1  0  0  0
 26 27  2  0  0  0
 27 28  1  0  0  0
 28 29  2  0  0  0
 15  8  1  0  0  0
  7  1  1  0  0  0
 29 24  1  0  0  0
 11 16  1  0  0  0
 11 17  1  0  0  0
 14 18  1  0  0  0
 14 19  1  0  0  0
M  END
> <minimizedAffinity>
10.35258

> <CNNscore>
0.5203682184

> <CNNaffinity>
5.9613904953

> <CNN_VS>
3.1021182537

> <CNNaffinity_variance>
1.4746773243

$$$$
[H]c1c([H])c([H])c(C(=O)c2c([H])c(-c3c(N([H])[H])nc(N([H])[H])nc3C([H])([H])C([H])([H])[H])c([H])c([H])c2Cl)c([H])c1[H]


 29 31  0  0  0  0  0  0  0  0999 V2000
   -8.0535   -7.9660    7.1735 C   0  0  0  0  0  0  0  0  0  0  0  0
   -7.1450   -7.4472    8.0367 C   0  0  0  0  0  0  0  0  0  0  0  0
   -7.5234   -6.9168    9.2826 C   0  0  0  0  0  0  0  0  0  0  0  0
   -8.8420   -6.9075    9.6785 C   0  0  0  0  0  0  0  0  0  0  0  0
   -9.2292   -6.2263   11.2407 Cl  0  0  0  0  0  0  0  0  0  0  0  0
   -9.7726   -7.4308    8.8217 C   0  0  0  0  0  0  0  0  0  0  0  0
   -9.3916   -7.9419    7.6069 C   0  0  0  0  0  0  0  0  0  0  0  0
   -8.0985   -9.8334    5.5001 C   0  0  0  0  0  0  0  0  0  0  0  0
   -7.7240  -10.2903    4.2954 N   0  0  0  0  0  0  0  0  0  0  0  0
   -7.0488   -9.5449    3.4052 C   0  0  0  0  0  0  0  0  0  0  0  0
   -6.6561  -10.0973    2.1336 N   0  0  0  0  0  0  0  0  0  0  0  0
   -6.7439   -8.2885    3.7446 N   0  0  0  0  0  0  0  0  0  0  0  0
   -7.0888   -7.7838    4.9159 C   0  0  0  0  0  0  0  0  0  0  0  0
   -6.7718   -6.4512    5.2774 N   0  0  0  0  0  0  0  0  0  0  0  0
   -7.7921   -8.5465    5.8669 C   0  0  0  0  0  0  0  0  0  0  0  0
   -7.2414   -9.8876    1.3133 H   0  0  0  0  0  0  0  0  0  0  0  0
   -5.8188  -10.6886    2.0232 H   0  0  0  0  0  0  0  0  0  0  0  0
   -7.5216   -5.7492    5.3948 H   0  0  0  0  0  0  0  0  0  0  0  0
   -5.7318   -6.2466    5.4149 H   0  0  0  0  0  0  0  0  0  0  0  0
  -10.3451  -10.4909    6.1650 C   0  0  0  0  0  0  0  0  0  0  0  0
   -8.8557  -10.7328    6.3591 C   0  0  0  0  0  0  0  0  0  0  0  0
  -11.1632   -7.4940    9.2339 C   0  0  0  0  0  0  0  0  0  0  0  0
  -11.8663   -8.5395    8.9702 O   0  0  0  0  0  0  0  0  0  0  0  0
  -11.8786   -6.4480    9.9513 C   0  0  0  0  0  0  0  0  0  0  0  0
  -11.8767   -6.3428   11.3278 C   0  0  0  0  0  0  0  0  0  0  0  0
  -12.5803   -5.3536   11.9941 C   0  0  0  0  0  0  0  0  0  0  0  0
  -13.3097   -4.4368   11.2690 C   0  0  0  0  0  0  0  0  0  0  0  0
  -13.3370   -4.5092    9.8706 C   0  0  0  0  0  0  0  0  0  0  0  0
  -12.6282   -5.5044    9.2487 C   0  0  0  0  0  0  0  0  0  0  0  0
 20 21  1  0  0  0
 21  8  1  0  0  0
  8  9  2  0  0  0
  9 10  1  0  0  0
 10 11  1  0  0  0
 10 12  2  0  0  0
 12 13  1  0  0  0
 13 14  1  0  0  0
 13 15  2  0  0  0
 15  1  1  0  0  0
  1  2  2  0  0  0
  2  3  1  0  0  0
  3  4  2  0  0  0
  4  5  1  0  0  0
  4  6  1  0  0  0
  6  7  2  0  0  0
  6 22  1  0  0  0
 22 23  2  0  0  0
 22 24  1  0  0  0
 24 25  2  0  0  0
 25 26  1  0  0  0
 26 27  2  0  0  0
 27 28  1  0  0  0
 28 29  2  0  0  0
 15  8  1  0  0  0
  7  1  1  0  0  0
 29 24  1  0  0  0
 11 16  1  0  0  0
 11 17  1  0  0  0
 14 18  1  0  0  0
 14 19  1  0  0  0
M  END
> <minimizedAffinity>
12.43494

> <CNNscore>
0.4955331087

> <CNNaffinity>
5.6471633911

> <CNN_VS>
2.7983565331

> <CNNaffinity_variance>
0.9264532924

$$$$
[H]c1c([H])c([H])c(C(=O)c2c([H])c(-c3c(N([H])[H])nc(N([H])[H])nc3C([H])([H])C([H])([H])[H])c([H])c([H])c2Cl)c([H])c1[H]


 29 31  0  0  0  0  0  0  0  0999 V2000
   -6.9994   -9.2023    3.1501 C   0  0  0  0  0  0  0  0  0  0  0  0
   -6.7480   -8.0009    2.5732 C   0  0  0  0  0  0  0  0  0  0  0  0
   -6.2821   -6.9029    3.3177 C   0  0  0  0  0  0  0  0  0  0  0  0
   -6.0578   -7.0082    4.6720 C   0  0  0  0  0  0  0  0  0  0  0  0
   -5.4824   -5.5954    5.5248 Cl  0  0  0  0  0  0  0  0  0  0  0  0
   -6.3023   -8.2147    5.2706 C   0  0  0  0  0  0  0  0  0  0  0  0
   -6.7606   -9.2778    4.5343 C   0  0  0  0  0  0  0  0  0  0  0  0
   -8.1992  -11.4041    3.1031 C   0  0  0  0  0  0  0  0  0  0  0  0
   -8.5035  -12.5193    2.4218 N   0  0  0  0  0  0  0  0  0  0  0  0
   -8.1309  -12.7258    1.1481 C   0  0  0  0  0  0  0  0  0  0  0  0
   -8.4704  -13.9533    0.4741 N   0  0  0  0  0  0  0  0  0  0  0  0
   -7.4269  -11.7666    0.5388 N   0  0  0  0  0  0  0  0  0  0  0  0
   -7.1005  -10.6464    1.1589 C   0  0  0  0  0  0  0  0  0  0  0  0
   -6.3588   -9.6254    0.5150 N   0  0  0  0  0  0  0  0  0  0  0  0
   -7.4750  -10.4093    2.4945 C   0  0  0  0  0  0  0  0  0  0  0  0
   -9.2882  -13.9520   -0.1511 H   0  0  0  0  0  0  0  0  0  0  0  0
   -7.9269  -14.8203    0.5987 H   0  0  0  0  0  0  0  0  0  0  0  0
   -6.7976   -8.7127    0.3074 H   0  0  0  0  0  0  0  0  0  0  0  0
   -5.3467   -9.8726    0.2762 H   0  0  0  0  0  0  0  0  0  0  0  0
   -8.5385  -12.6256    5.1803 C   0  0  0  0  0  0  0  0  0  0  0  0
   -8.6924  -11.2899    4.4684 C   0  0  0  0  0  0  0  0  0  0  0  0
   -6.0167   -8.3782    6.6846 C   0  0  0  0  0  0  0  0  0  0  0  0
   -6.8482   -9.0052    7.4414 O   0  0  0  0  0  0  0  0  0  0  0  0
   -4.8292   -7.8848    7.3679 C   0  0  0  0  0  0  0  0  0  0  0  0
   -3.7098   -7.4313    6.6992 C   0  0  0  0  0  0  0  0  0  0  0  0
   -2.5811   -6.9853    7.3659 C   0  0  0  0  0  0  0  0  0  0  0  0
   -2.5637   -6.9882    8.7437 C   0  0  0  0  0  0  0  0  0  0  0  0
   -3.6797   -7.4402    9.4591 C   0  0  0  0  0  0  0  0  0  0  0  0
   -4.7770   -7.8752    8.7619 C   0  0  0  0  0  0  0  0  0  0  0  0
 20 21  1  0  0  0
 21  8  1  0  0  0
  8  9  2  0  0  0
  9 10  1  0  0  0
 10 11  1  0  0  0
 10 12  2  0  0  0
 12 13  1  0  0  0
 13 14  1  0  0  0
 13 15  2  0  0  0
 15  1  1  0  0  0
  1  2  2  0  0  0
  2  3  1  0  0  0
  3  4  2  0  0  0
  4  5  1  0  0  0
  4  6  1  0  0  0
  6  7  2  0  0  0
  6 22  1  0  0  0
 22 23  2  0  0  0
 22 24  1  0  0  0
 24 25  2  0  0  0
 25 26  1  0  0  0
 26 27  2  0  0  0
 27 28  1  0  0  0
 28 29  2  0  0  0
 15  8  1  0  0  0
  7  1  1  0  0  0
 29 24  1  0  0  0
 11 16  1  0  0  0
 11 17  1  0  0  0
 14 18  1  0  0  0
 14 19  1  0  0  0
M  END
> <minimizedAffinity>
28.45815

> <CNNscore>
0.4609562755

> <CNNaffinity>
5.4628610611

> <CNN_VS>
2.5181400776

> <CNNaffinity_variance>
1.0632982254

$$$$
[H]c1c([H])c([H])c(C(=O)c2c([H])c(-c3c(N([H])[H])nc(N([H])[H])nc3C([H])([H])C([H])([H])[H])c([H])c([H])c2Cl)c([H])c1[H]


 29 31  0  0  0  0  0  0  0  0999 V2000
   -9.3980   -8.2537    7.6347 C   0  0  0  0  0  0  0  0  0  0  0  0
   -8.6489   -7.8015    8.6711 C   0  0  0  0  0  0  0  0  0  0  0  0
   -9.1964   -7.0012    9.6892 C   0  0  0  0  0  0  0  0  0  0  0  0
  -10.5266   -6.6463    9.6744 C   0  0  0  0  0  0  0  0  0  0  0  0
  -11.1276   -5.6459   10.9751 Cl  0  0  0  0  0  0  0  0  0  0  0  0
  -11.2990   -7.0971    8.6380 C   0  0  0  0  0  0  0  0  0  0  0  0
  -10.7525   -7.8741    7.6482 C   0  0  0  0  0  0  0  0  0  0  0  0
   -7.9589   -8.7603    5.6442 C   0  0  0  0  0  0  0  0  0  0  0  0
   -7.6999   -9.5671    4.6038 N   0  0  0  0  0  0  0  0  0  0  0  0
   -8.3763  -10.7037    4.3703 C   0  0  0  0  0  0  0  0  0  0  0  0
   -8.0658  -11.5199    3.2242 N   0  0  0  0  0  0  0  0  0  0  0  0
   -9.3492  -11.0392    5.2233 N   0  0  0  0  0  0  0  0  0  0  0  0
   -9.6469  -10.2851    6.2666 C   0  0  0  0  0  0  0  0  0  0  0  0
  -10.6740  -10.6398    7.1756 N   0  0  0  0  0  0  0  0  0  0  0  0
   -8.9560   -9.0876    6.5294 C   0  0  0  0  0  0  0  0  0  0  0  0
   -7.4610  -12.3409    3.3642 H   0  0  0  0  0  0  0  0  0  0  0  0
   -8.4257  -11.3082    2.2816 H   0  0  0  0  0  0  0  0  0  0  0  0
  -10.4431  -10.9002    8.1491 H   0  0  0  0  0  0  0  0  0  0  0  0
  -11.6672  -10.6121    6.7816 H   0  0  0  0  0  0  0  0  0  0  0  0
   -7.8312   -6.3741    5.1846 C   0  0  0  0  0  0  0  0  0  0  0  0
   -7.1297   -7.5741    5.8031 C   0  0  0  0  0  0  0  0  0  0  0  0
  -12.7187   -6.7940    8.6246 C   0  0  0  0  0  0  0  0  0  0  0  0
  -13.1752   -5.8160    9.3263 O   0  0  0  0  0  0  0  0  0  0  0  0
  -13.7280   -7.5146    7.8613 C   0  0  0  0  0  0  0  0  0  0  0  0
  -14.1013   -7.1569    6.5812 C   0  0  0  0  0  0  0  0  0  0  0  0
  -15.0783   -7.8414    5.8781 C   0  0  0  0  0  0  0  0  0  0  0  0
  -15.7052   -8.9187    6.4654 C   0  0  0  0  0  0  0  0  0  0  0  0
  -15.3546   -9.3136    7.7626 C   0  0  0  0  0  0  0  0  0  0  0  0
  -14.3835   -8.6089    8.4258 C   0  0  0  0  0  0  0  0  0  0  0  0
 20 21  1  0  0  0
 21  8  1  0  0  0
  8  9  2  0  0  0
  9 10  1  0  0  0
 10 11  1  0  0  0
 10 12  2  0  0  0
 12 13  1  0  0  0
 13 14  1  0  0  0
 13 15  2  0  0  0
 15  1  1  0  0  0
  1  2  2  0  0  0
  2  3  1  0  0  0
  3  4  2  0  0  0
  4  5  1  0  0  0
  4  6  1  0  0  0
  6  7  2  0  0  0
  6 22  1  0  0  0
 22 23  2  0  0  0
 22 24  1  0  0  0
 24 25  2  0  0  0
 25 26  1  0  0  0
 26 27  2  0  0  0
 27 28  1  0  0  0
 28 29  2  0  0  0
 15  8  1  0  0  0
  7  1  1  0  0  0
 29 24  1  0  0  0
 11 16  1  0  0  0
 11 17  1  0  0  0
 14 18  1  0  0  0
 14 19  1  0  0  0
M  END
> <minimizedAffinity>
6.00563

> <CNNscore>
0.4573065042

> <CNNaffinity>
6.2817845345

> <CNN_VS>
2.8727009296

> <CNNaffinity_variance>
0.9890252352

$$$$
[H]c1c([H])c([H])c(C(=O)c2c([H])c(-c3c(N([H])[H])nc(N([H])[H])nc3C([H])([H])C([H])([H])[H])c([H])c([H])c2Cl)c([H])c1[H]


 29 31  0  0  0  0  0  0  0  0999 V2000
  -10.7808   -7.6755    8.4037 C   0  0  0  0  0  0  0  0  0  0  0  0
  -10.3396   -6.7771    9.3191 C   0  0  0  0  0  0  0  0  0  0  0  0
  -11.2271   -6.0259   10.1096 C   0  0  0  0  0  0  0  0  0  0  0  0
  -12.5899   -6.1782    9.9858 C   0  0  0  0  0  0  0  0  0  0  0  0
  -13.6242   -5.2036   11.0029 Cl  0  0  0  0  0  0  0  0  0  0  0  0
  -13.0534   -7.0836    9.0697 C   0  0  0  0  0  0  0  0  0  0  0  0
  -12.1776   -7.8079    8.3012 C   0  0  0  0  0  0  0  0  0  0  0  0
   -8.7451   -8.1672    7.0241 C   0  0  0  0  0  0  0  0  0  0  0  0
   -8.1308   -8.9832    6.1539 N   0  0  0  0  0  0  0  0  0  0  0  0
   -8.6588  -10.1471    5.7409 C   0  0  0  0  0  0  0  0  0  0  0  0
   -7.9603  -10.9726    4.7886 N   0  0  0  0  0  0  0  0  0  0  0  0
   -9.8517  -10.5011    6.2291 N   0  0  0  0  0  0  0  0  0  0  0  0
  -10.5020   -9.7390    7.0906 C   0  0  0  0  0  0  0  0  0  0  0  0
  -11.7641  -10.1132    7.6141 N   0  0  0  0  0  0  0  0  0  0  0  0
   -9.9717   -8.5133    7.5343 C   0  0  0  0  0  0  0  0  0  0  0  0
   -7.4153  -11.7690    5.1464 H   0  0  0  0  0  0  0  0  0  0  0  0
   -7.9893  -10.7910    3.7742 H   0  0  0  0  0  0  0  0  0  0  0  0
  -11.8656  -10.3474    8.6159 H   0  0  0  0  0  0  0  0  0  0  0  0
  -12.5684  -10.1277    6.9102 H   0  0  0  0  0  0  0  0  0  0  0  0
   -7.3154   -6.3716    6.2158 C   0  0  0  0  0  0  0  0  0  0  0  0
   -8.0495   -6.9498    7.4164 C   0  0  0  0  0  0  0  0  0  0  0  0
  -14.4823   -7.3144    8.9578 C   0  0  0  0  0  0  0  0  0  0  0  0
  -15.1572   -7.6873    9.9887 O   0  0  0  0  0  0  0  0  0  0  0  0
  -15.2694   -7.1581    7.7427 C   0  0  0  0  0  0  0  0  0  0  0  0
  -14.8469   -6.4081    6.6634 C   0  0  0  0  0  0  0  0  0  0  0  0
  -15.6183   -6.2533    5.5239 C   0  0  0  0  0  0  0  0  0  0  0  0
  -16.8508   -6.8653    5.4529 C   0  0  0  0  0  0  0  0  0  0  0  0
  -17.3154   -7.6352    6.5267 C   0  0  0  0  0  0  0  0  0  0  0  0
  -16.5222   -7.7626    7.6376 C   0  0  0  0  0  0  0  0  0  0  0  0
 20 21  1  0  0  0
 21  8  1  0  0  0
  8  9  2  0  0  0
  9 10  1  0  0  0
 10 11  1  0  0  0
 10 12  2  0  0  0
 12 13  1  0  0  0
 13 14  1  0  0  0
 13 15  2  0  0  0
 15  1  1  0  0  0
  1  2  2  0  0  0
  2  3  1  0  0  0
  3  4  2  0  0  0
  4  5  1  0  0  0
  4  6  1  0  0  0
  6  7  2  0  0  0
  6 22  1  0  0  0
 22 23  2  0  0  0
 22 24  1  0  0  0
 24 25  2  0  0  0
 25 26  1  0  0  0
 26 27  2  0  0  0
 27 28  1  0  0  0
 28 29  2  0  0  0
 15  8  1  0  0  0
  7  1  1  0  0  0
 29 24  1  0  0  0
 11 16  1  0  0  0
 11 17  1  0  0  0
 14 18  1  0  0  0
 14 19  1  0  0  0
M  END
> <minimizedAffinity>
-2.83483

> <CNNscore>
0.4055297375

> <CNNaffinity>
6.6196913719

> <CNN_VS>
2.6844816208

> <CNNaffinity_variance>
0.5672270656

$$$$
[H]c1c([H])c([H])c(C(=O)c2c([H])c(-c3c(N([H])[H])nc(N([H])[H])nc3C([H])([H])C([H])([H])[H])c([H])c([H])c2Cl)c([H])c1[H]


 29 31  0  0  0  0  0  0  0  0999 V2000
  -15.0811   -7.5855    6.4856 C   0  0  0  0  0  0  0  0  0  0  0  0
  -15.5088   -7.4534    7.7659 C   0  0  0  0  0  0  0  0  0  0  0  0
  -14.7615   -7.9414    8.8523 C   0  0  0  0  0  0  0  0  0  0  0  0
  -13.5546   -8.5742    8.6559 C   0  0  0  0  0  0  0  0  0  0  0  0
  -12.6900   -9.1551   10.0592 Cl  0  0  0  0  0  0  0  0  0  0  0  0
  -13.1051   -8.7129    7.3704 C   0  0  0  0  0  0  0  0  0  0  0  0
  -13.8451   -8.2361    6.3181 C   0  0  0  0  0  0  0  0  0  0  0  0
  -15.6609   -5.8536    4.7670 C   0  0  0  0  0  0  0  0  0  0  0  0
  -16.4019   -5.5115    3.7020 N   0  0  0  0  0  0  0  0  0  0  0  0
  -17.2508   -6.3579    3.0962 C   0  0  0  0  0  0  0  0  0  0  0  0
  -18.0356   -5.9270    1.9673 N   0  0  0  0  0  0  0  0  0  0  0  0
  -17.3516   -7.5985    3.5837 N   0  0  0  0  0  0  0  0  0  0  0  0
  -16.6449   -7.9922    4.6284 C   0  0  0  0  0  0  0  0  0  0  0  0
  -16.7453   -9.3076    5.1449 N   0  0  0  0  0  0  0  0  0  0  0  0
  -15.7529   -7.1225    5.2828 C   0  0  0  0  0  0  0  0  0  0  0  0
  -17.7007   -6.1686    1.0244 H   0  0  0  0  0  0  0  0  0  0  0  0
  -18.9094   -5.3906    2.0746 H   0  0  0  0  0  0  0  0  0  0  0  0
  -15.9448   -9.9582    5.0765 H   0  0  0  0  0  0  0  0  0  0  0  0
  -17.6825   -9.5550    5.5951 H   0  0  0  0  0  0  0  0  0  0  0  0
  -14.6138   -3.7021    4.3235 C   0  0  0  0  0  0  0  0  0  0  0  0
  -14.7540   -4.8520    5.3098 C   0  0  0  0  0  0  0  0  0  0  0  0
  -11.8075   -9.3189    7.1319 C   0  0  0  0  0  0  0  0  0  0  0  0
  -11.7300  -10.4772    6.5757 O   0  0  0  0  0  0  0  0  0  0  0  0
  -10.5230   -8.7225    7.4708 C   0  0  0  0  0  0  0  0  0  0  0  0
   -9.3415   -9.4365    7.4837 C   0  0  0  0  0  0  0  0  0  0  0  0
   -8.1321   -8.8575    7.8291 C   0  0  0  0  0  0  0  0  0  0  0  0
   -8.0940   -7.5235    8.1721 C   0  0  0  0  0  0  0  0  0  0  0  0
   -9.2709   -6.7643    8.1709 C   0  0  0  0  0  0  0  0  0  0  0  0
  -10.4484   -7.3752    7.8244 C   0  0  0  0  0  0  0  0  0  0  0  0
 20 21  1  0  0  0
 21  8  1  0  0  0
  8  9  2  0  0  0
  9 10  1  0  0  0
 10 11  1  0  0  0
 10 12  2  0  0  0
 12 13  1  0  0  0
 13 14  1  0  0  0
 13 15  2  0  0  0
 15  1  1  0  0  0
  1  2  2  0  0  0
  2  3  1  0  0  0
  3  4  2  0  0  0
  4  5  1  0  0  0
  4  6  1  0  0  0
  6  7  2  0  0  0
  6 22  1  0  0  0
 22 23  2  0  0  0
 22 24  1  0  0  0
 24 25  2  0  0  0
 25 26  1  0  0  0
 26 27  2  0  0  0
 27 28  1  0  0  0
 28 29  2  0  0  0
 15  8  1  0  0  0
  7  1  1  0  0  0
 29 24  1  0  0  0
 11 16  1  0  0  0
 11 17  1  0  0  0
 14 18  1  0  0  0
 14 19  1  0  0  0
M  END
> <minimizedAffinity>
-6.31739

> <CNNscore>
0.2793998122

> <CNNaffinity>
6.6473479271

> <CNN_VS>
1.8572677374

> <CNNaffinity_variance>
0.1656425893

$$$$
[H]c1c([H])c([H])c(C(=O)c2c([H])c(-c3c(N([H])[H])nc(N([H])[H])nc3C([H])([H])C([H])([H])[H])c([H])c([H])c2Cl)c([H])c1[H]


 29 31  0  0  0  0  0  0  0  0999 V2000
  -12.5655   -8.1087    8.0543 C   0  0  0  0  0  0  0  0  0  0  0  0
  -13.3938   -8.1390    9.1278 C   0  0  0  0  0  0  0  0  0  0  0  0
  -14.7921   -8.0950    8.9880 C   0  0  0  0  0  0  0  0  0  0  0  0
  -15.3787   -8.0228    7.7445 C   0  0  0  0  0  0  0  0  0  0  0  0
  -17.1233   -7.9679    7.6576 Cl  0  0  0  0  0  0  0  0  0  0  0  0
  -14.5582   -7.9955    6.6491 C   0  0  0  0  0  0  0  0  0  0  0  0
  -13.1950   -8.0349    6.7983 C   0  0  0  0  0  0  0  0  0  0  0  0
  -10.2942   -7.1175    8.4392 C   0  0  0  0  0  0  0  0  0  0  0  0
   -8.9637   -7.2414    8.3174 N   0  0  0  0  0  0  0  0  0  0  0  0
   -8.3704   -8.3464    7.8368 C   0  0  0  0  0  0  0  0  0  0  0  0
   -6.9366   -8.4135    7.7107 N   0  0  0  0  0  0  0  0  0  0  0  0
   -9.1520   -9.3663    7.4686 N   0  0  0  0  0  0  0  0  0  0  0  0
  -10.4679   -9.3022    7.5682 C   0  0  0  0  0  0  0  0  0  0  0  0
  -11.2994  -10.3829    7.1837 N   0  0  0  0  0  0  0  0  0  0  0  0
  -11.1128   -8.1538    8.0640 C   0  0  0  0  0  0  0  0  0  0  0  0
   -6.4078   -8.8960    8.4504 H   0  0  0  0  0  0  0  0  0  0  0  0
   -6.4321   -7.9976    6.9137 H   0  0  0  0  0  0  0  0  0  0  0  0
  -11.8413  -10.9035    7.8937 H   0  0  0  0  0  0  0  0  0  0  0  0
  -11.3174  -10.6001    6.1373 H   0  0  0  0  0  0  0  0  0  0  0  0
  -11.1180   -6.0835   10.4821 C   0  0  0  0  0  0  0  0  0  0  0  0
  -10.8091   -5.8794    9.0065 C   0  0  0  0  0  0  0  0  0  0  0  0
  -15.1447   -7.9830    5.3211 C   0  0  0  0  0  0  0  0  0  0  0  0
  -14.7191   -8.7993    4.4213 O   0  0  0  0  0  0  0  0  0  0  0  0
  -16.2176   -7.1021    4.8811 C   0  0  0  0  0  0  0  0  0  0  0  0
  -16.1876   -5.7332    5.0572 C   0  0  0  0  0  0  0  0  0  0  0  0
  -17.2268   -4.9131    4.6511 C   0  0  0  0  0  0  0  0  0  0  0  0
  -18.3331   -5.4711    4.0482 C   0  0  0  0  0  0  0  0  0  0  0  0
  -18.4017   -6.8560    3.8510 C   0  0  0  0  0  0  0  0  0  0  0  0
  -17.3527   -7.6335    4.2687 C   0  0  0  0  0  0  0  0  0  0  0  0
 20 21  1  0  0  0
 21  8  1  0  0  0
  8  9  2  0  0  0
  9 10  1  0  0  0
 10 11  1  0  0  0
 10 12  2  0  0  0
 12 13  1  0  0  0
 13 14  1  0  0  0
 13 15  2  0  0  0
 15  1  1  0  0  0
  1  2  2  0  0  0
  2  3  1  0  0  0
  3  4  2  0  0  0
  4  5  1  0  0  0
  4  6  1  0  0  0
  6  7  2  0  0  0
  6 22  1  0  0  0
 22 23  2  0  0  0
 22 24  1  0  0  0
 24 25  2  0  0  0
 25 26  1  0  0  0
 26 27  2  0  0  0
 27 28  1  0  0  0
 28 29  2  0  0  0
 15  8  1  0  0  0
  7  1  1  0  0  0
 29 24  1  0  0  0
 11 16  1  0  0  0
 11 17  1  0  0  0
 14 18  1  0  0  0
 14 19  1  0  0  0
M  END
> <minimizedAffinity>
-10.17995

> <CNNscore>
0.2650785148

> <CNNaffinity>
6.6130890846

> <CNN_VS>
1.7529878616

> <CNNaffinity_variance>
0.2639538348

$$$$
[H]c1c([H])c([H])c(C(=O)c2c([H])c(-c3c(N([H])[H])nc(N([H])[H])nc3C([H])([H])C([H])([H])[H])c([H])c([H])c2Cl)c([H])c1[H]


 29 31  0  0  0  0  0  0  0  0999 V2000
   -9.3024   -8.3255    7.7170 C   0  0  0  0  0  0  0  0  0  0  0  0
   -8.6387   -9.4693    8.0183 C   0  0  0  0  0  0  0  0  0  0  0  0
   -7.3102   -9.6857    7.6118 C   0  0  0  0  0  0  0  0  0  0  0  0
   -6.6256   -8.7345    6.8894 C   0  0  0  0  0  0  0  0  0  0  0  0
   -4.9789   -9.0831    6.4195 Cl  0  0  0  0  0  0  0  0  0  0  0  0
   -7.2784   -7.5719    6.5796 C   0  0  0  0  0  0  0  0  0  0  0  0
   -8.5761   -7.3738    6.9783 C   0  0  0  0  0  0  0  0  0  0  0  0
  -11.7940   -8.5643    7.5606 C   0  0  0  0  0  0  0  0  0  0  0  0
  -13.0049   -8.0977    7.9016 N   0  0  0  0  0  0  0  0  0  0  0  0
  -13.1837   -7.0654    8.7421 C   0  0  0  0  0  0  0  0  0  0  0  0
  -14.5093   -6.5957    9.0557 N   0  0  0  0  0  0  0  0  0  0  0  0
  -12.0967   -6.4850    9.2602 N   0  0  0  0  0  0  0  0  0  0  0  0
  -10.8792   -6.9032    8.9625 C   0  0  0  0  0  0  0  0  0  0  0  0
   -9.7249   -6.2940    9.5134 N   0  0  0  0  0  0  0  0  0  0  0  0
  -10.6663   -7.9794    8.0810 C   0  0  0  0  0  0  0  0  0  0  0  0
  -14.9387   -6.9110    9.9364 H   0  0  0  0  0  0  0  0  0  0  0  0
  -15.0329   -5.9631    8.4325 H   0  0  0  0  0  0  0  0  0  0  0  0
   -9.1252   -6.8141   10.1757 H   0  0  0  0  0  0  0  0  0  0  0  0
   -9.5364   -5.2917    9.1936 H   0  0  0  0  0  0  0  0  0  0  0  0
  -12.9944   -9.7509    5.8077 C   0  0  0  0  0  0  0  0  0  0  0  0
  -11.7387   -9.7116    6.6657 C   0  0  0  0  0  0  0  0  0  0  0  0
   -6.5660   -6.5224    5.8734 C   0  0  0  0  0  0  0  0  0  0  0  0
   -7.0226   -6.0724    4.7571 O   0  0  0  0  0  0  0  0  0  0  0  0
   -5.3304   -5.8941    6.3197 C   0  0  0  0  0  0  0  0  0  0  0  0
   -4.3833   -5.3934    5.4489 C   0  0  0  0  0  0  0  0  0  0  0  0
   -3.2040   -4.8180    5.8911 C   0  0  0  0  0  0  0  0  0  0  0  0
   -2.9572   -4.7355    7.2442 C   0  0  0  0  0  0  0  0  0  0  0  0
   -3.8933   -5.2315    8.1603 C   0  0  0  0  0  0  0  0  0  0  0  0
   -5.0479   -5.7952    7.6821 C   0  0  0  0  0  0  0  0  0  0  0  0
 20 21  1  0  0  0
 21  8  1  0  0  0
  8  9  2  0  0  0
  9 10  1  0  0  0
 10 11  1  0  0  0
 10 12  2  0  0  0
 12 13  1  0  0  0
 13 14  1  0  0  0
 13 15  2  0  0  0
 15  1  1  0  0  0
  1  2  2  0  0  0
  2  3  1  0  0  0
  3  4  2  0  0  0
  4  5  1  0  0  0
  4  6  1  0  0  0
  6  7  2  0  0  0
  6 22  1  0  0  0
 22 23  2  0  0  0
 22 24  1  0  0  0
 24 25  2  0  0  0
 25 26  1  0  0  0
 26 27  2  0  0  0
 27 28  1  0  0  0
 28 29  2  0  0  0
 15  8  1  0  0  0
  7  1  1  0  0  0
 29 24  1  0  0  0
 11 16  1  0  0  0
 11 17  1  0  0  0
 14 18  1  0  0  0
 14 19  1  0  0  0
M  END
> <minimizedAffinity>
-6.46271

> <CNNscore>
0.2543315589

> <CNNaffinity>
6.1915483475

> <CNN_VS>
1.5747061968

> <CNNaffinity_variance>
0.1071950421

$$$$
[H]c1c([H])c([H])c(C(=O)c2c([H])c(-c3c(N([H])[H])nc(N([H])[H])nc3C([H])([H])C([H])([H])[H])c([H])c([H])c2Cl)c([H])c1[H]


 29 31  0  0  0  0  0  0  0  0999 V2000
  -12.2612   -8.8065    7.4140 C   0  0  0  0  0  0  0  0  0  0  0  0
  -11.7307  -10.0291    7.1622 C   0  0  0  0  0  0  0  0  0  0  0  0
  -10.3419  -10.2340    7.0842 C   0  0  0  0  0  0  0  0  0  0  0  0
   -9.4600   -9.1924    7.2659 C   0  0  0  0  0  0  0  0  0  0  0  0
   -7.7494   -9.5304    7.1488 Cl  0  0  0  0  0  0  0  0  0  0  0  0
   -9.9774   -7.9519    7.5251 C   0  0  0  0  0  0  0  0  0  0  0  0
  -11.3346   -7.7636    7.5949 C   0  0  0  0  0  0  0  0  0  0  0  0
  -14.3079   -8.1193    8.6900 C   0  0  0  0  0  0  0  0  0  0  0  0
  -15.6343   -7.9170    8.6889 N   0  0  0  0  0  0  0  0  0  0  0  0
  -16.3942   -8.0380    7.5880 C   0  0  0  0  0  0  0  0  0  0  0  0
  -17.8182   -7.8274    7.6527 N   0  0  0  0  0  0  0  0  0  0  0  0
  -15.7893   -8.3728    6.4440 N   0  0  0  0  0  0  0  0  0  0  0  0
  -14.4860   -8.5819    6.3844 C   0  0  0  0  0  0  0  0  0  0  0  0
  -13.8405   -8.9320    5.1729 N   0  0  0  0  0  0  0  0  0  0  0  0
  -13.6698   -8.4660    7.5250 C   0  0  0  0  0  0  0  0  0  0  0  0
  -18.1858   -6.9118    7.3595 H   0  0  0  0  0  0  0  0  0  0  0  0
  -18.4699   -8.5560    7.9802 H   0  0  0  0  0  0  0  0  0  0  0  0
  -13.1799   -8.2754    4.7242 H   0  0  0  0  0  0  0  0  0  0  0  0
  -14.0856   -9.8964    4.7828 H   0  0  0  0  0  0  0  0  0  0  0  0
  -13.3867   -6.4354   10.1858 C   0  0  0  0  0  0  0  0  0  0  0  0
  -13.5949   -7.9230    9.9443 C   0  0  0  0  0  0  0  0  0  0  0  0
   -9.0749   -6.8445    7.7839 C   0  0  0  0  0  0  0  0  0  0  0  0
   -9.4025   -5.9306    8.6293 O   0  0  0  0  0  0  0  0  0  0  0  0
   -7.7741   -6.6525    7.1581 C   0  0  0  0  0  0  0  0  0  0  0  0
   -7.6083   -6.5100    5.7949 C   0  0  0  0  0  0  0  0  0  0  0  0
   -6.3611   -6.3493    5.2153 C   0  0  0  0  0  0  0  0  0  0  0  0
   -5.2403   -6.3279    6.0165 C   0  0  0  0  0  0  0  0  0  0  0  0
   -5.3663   -6.4688    7.4042 C   0  0  0  0  0  0  0  0  0  0  0  0
   -6.6186   -6.6274    7.9391 C   0  0  0  0  0  0  0  0  0  0  0  0
 20 21  1  0  0  0
 21  8  1  0  0  0
  8  9  2  0  0  0
  9 10  1  0  0  0
 10 11  1  0  0  0
 10 12  2  0  0  0
 12 13  1  0  0  0
 13 14  1  0  0  0
 13 15  2  0  0  0
 15  1  1  0  0  0
  1  2  2  0  0  0
  2  3  1  0  0  0
  3  4  2  0  0  0
  4  5  1  0  0  0
  4  6  1  0  0  0
  6  7  2  0  0  0
  6 22  1  0  0  0
 22 23  2  0  0  0
 22 24  1  0  0  0
 24 25  2  0  0  0
 25 26  1  0  0  0
 26 27  2  0  0  0
 27 28  1  0  0  0
 28 29  2  0  0  0
 15  8  1  0  0  0
  7  1  1  0  0  0
 29 24  1  0  0  0
 11 16  1  0  0  0
 11 17  1  0  0  0
 14 18  1  0  0  0
 14 19  1  0  0  0
M  END
> <minimizedAffinity>
-8.42931

> <CNNscore>
0.2505765557

> <CNNaffinity>
6.7156248093

> <CNN_VS>
1.6827781200

> <CNNaffinity_variance>
0.1484316885

$$$$
[H]c1nc(N2C([H])([H])C([H])([H])N(C(=O)N([H])c3c([H])c([H])c(C(F)(F)F)c([H])c3[H])C([H])([H])C2([H])[H])c(C(F)(F)F)c([H])c1[H]


 30 32  0  0  0  0  0  0  0  0999 V2000
  -14.1896   -7.0307    7.0232 N   0  0  0  0  0  0  0  0  0  0  0  0
  -14.2995   -7.8742    8.1138 C   0  0  0  0  0  0  0  0  0  0  0  0
  -15.3812   -8.5530    8.2939 O   0  0  0  0  0  0  0  0  0  0  0  0
  -13.2920   -8.0454    9.0785 N   0  0  0  0  0  0  0  0  0  0  0  0
  -12.0349   -7.3593    8.8657 C   0  0  0  0  0  0  0  0  0  0  0  0
  -11.0709   -7.7397   10.0112 C   0  0  0  0  0  0  0  0  0  0  0  0
  -11.8451   -7.4354   11.1993 N   0  0  0  0  0  0  0  0  0  0  0  0
  -12.8788   -8.4270   11.4912 C   0  0  0  0  0  0  0  0  0  0  0  0
  -13.5830   -8.8646   10.2314 C   0  0  0  0  0  0  0  0  0  0  0  0
  -13.3016   -6.4566    6.8271 H   0  0  0  0  0  0  0  0  0  0  0  0
  -17.2873   -6.4663    4.2288 C   0  0  0  0  0  0  0  0  0  0  0  0
  -16.3165   -7.4069    4.0054 C   0  0  0  0  0  0  0  0  0  0  0  0
  -15.2902   -7.6065    4.9088 C   0  0  0  0  0  0  0  0  0  0  0  0
  -15.2385   -6.8478    6.0639 C   0  0  0  0  0  0  0  0  0  0  0  0
  -16.2065   -5.9033    6.2934 C   0  0  0  0  0  0  0  0  0  0  0  0
  -17.2137   -5.7281    5.3731 C   0  0  0  0  0  0  0  0  0  0  0  0
  -19.5212   -5.9679    4.0162 F   0  0  0  0  0  0  0  0  0  0  0  0
  -18.4105   -6.2557    3.2783 C   0  0  0  0  0  0  0  0  0  0  0  0
  -18.0097   -5.1786    2.4668 F   0  0  0  0  0  0  0  0  0  0  0  0
  -18.6297   -7.3798    2.5140 F   0  0  0  0  0  0  0  0  0  0  0  0
  -11.7093   -6.3094   12.0301 C   0  0  0  0  0  0  0  0  0  0  0  0
  -11.2347   -6.4881   13.3158 N   0  0  0  0  0  0  0  0  0  0  0  0
  -11.1008   -5.4902   14.1831 C   0  0  0  0  0  0  0  0  0  0  0  0
  -11.4300   -4.1963   13.8461 C   0  0  0  0  0  0  0  0  0  0  0  0
  -11.9073   -3.9789   12.5774 C   0  0  0  0  0  0  0  0  0  0  0  0
  -12.0487   -5.0422   11.6578 C   0  0  0  0  0  0  0  0  0  0  0  0
  -12.5448   -4.7482   10.3147 C   0  0  0  0  0  0  0  0  0  0  0  0
  -11.7597   -5.1818    9.2730 F   0  0  0  0  0  0  0  0  0  0  0  0
  -13.8794   -5.0407   10.1821 F   0  0  0  0  0  0  0  0  0  0  0  0
  -12.4994   -3.3253   10.1584 F   0  0  0  0  0  0  0  0  0  0  0  0
 17 18  1  0  0  0
 18 19  1  0  0  0
 18 20  1  0  0  0
 18 11  1  0  0  0
 11 12  2  0  0  0
 12 13  1  0  0  0
 13 14  2  0  0  0
 14  1  1  0  0  0
  1  2  1  0  0  0
  2  3  2  0  0  0
  2  4  1  0  0  0
  4  5  1  0  0  0
  5  6  1  0  0  0
  6  7  1  0  0  0
  7  8  1  0  0  0
  8  9  1  0  0  0
  7 21  1  0  0  0
 21 22  2  0  0  0
 22 23  1  0  0  0
 23 24  2  0  0  0
 24 25  1  0  0  0
 25 26  2  0  0  0
 26 27  1  0  0  0
 27 28  1  0  0  0
 27 29  1  0  0  0
 27 30  1  0  0  0
 14 15  1  0  0  0
 15 16  2  0  0  0
 16 11  1  0  0  0
  9  4  1  0  0  0
 26 21  1  0  0  0
  1 10  1  0  0  0
M  END
> <minimizedAffinity>
9.35587

> <CNNscore>
0.4419715405

> <CNNaffinity>
6.5920815468

> <CNN_VS>
2.9135124683

> <CNNaffinity_variance>
0.8322906494

$$$$
[H]c1nc(N2C([H])([H])C([H])([H])N(C(=O)N([H])c3c([H])c([H])c(C(F)(F)F)c([H])c3[H])C([H])([H])C2([H])[H])c(C(F)(F)F)c([H])c1[H]


 30 32  0  0  0  0  0  0  0  0999 V2000
  -13.7953   -6.3753    6.5425 N   0  0  0  0  0  0  0  0  0  0  0  0
  -13.0362   -7.4129    7.0526 C   0  0  0  0  0  0  0  0  0  0  0  0
  -13.4187   -8.6326    6.8814 O   0  0  0  0  0  0  0  0  0  0  0  0
  -11.8453   -7.2321    7.7766 N   0  0  0  0  0  0  0  0  0  0  0  0
  -11.3452   -5.8810    7.9200 C   0  0  0  0  0  0  0  0  0  0  0  0
  -10.0092   -5.9344    8.6936 C   0  0  0  0  0  0  0  0  0  0  0  0
  -10.3556   -6.6855    9.8850 N   0  0  0  0  0  0  0  0  0  0  0  0
  -10.4900   -8.1221    9.6497 C   0  0  0  0  0  0  0  0  0  0  0  0
  -11.2155   -8.3951    8.3561 C   0  0  0  0  0  0  0  0  0  0  0  0
  -13.5073   -5.3447    6.6499 H   0  0  0  0  0  0  0  0  0  0  0  0
  -17.4116   -6.9936    4.4777 C   0  0  0  0  0  0  0  0  0  0  0  0
  -16.4346   -6.1980    3.9394 C   0  0  0  0  0  0  0  0  0  0  0  0
  -15.2415   -5.9805    4.6017 C   0  0  0  0  0  0  0  0  0  0  0  0
  -15.0223   -6.5774    5.8298 C   0  0  0  0  0  0  0  0  0  0  0  0
  -15.9967   -7.3742    6.3751 C   0  0  0  0  0  0  0  0  0  0  0  0
  -17.1740   -7.5688    5.6910 C   0  0  0  0  0  0  0  0  0  0  0  0
  -19.2757   -8.3337    4.3649 F   0  0  0  0  0  0  0  0  0  0  0  0
  -18.6906   -7.2561    3.7673 C   0  0  0  0  0  0  0  0  0  0  0  0
  -19.4462   -6.0793    3.9214 F   0  0  0  0  0  0  0  0  0  0  0  0
  -18.4715   -7.5171    2.4332 F   0  0  0  0  0  0  0  0  0  0  0  0
  -10.5899   -6.1681   11.1711 C   0  0  0  0  0  0  0  0  0  0  0  0
   -9.5324   -6.0925   12.0575 N   0  0  0  0  0  0  0  0  0  0  0  0
   -9.6621   -5.6468   13.3027 C   0  0  0  0  0  0  0  0  0  0  0  0
  -10.8781   -5.2241   13.7915 C   0  0  0  0  0  0  0  0  0  0  0  0
  -11.9537   -5.2860   12.9408 C   0  0  0  0  0  0  0  0  0  0  0  0
  -11.8124   -5.7606   11.6175 C   0  0  0  0  0  0  0  0  0  0  0  0
  -12.9892   -5.7869   10.7511 C   0  0  0  0  0  0  0  0  0  0  0  0
  -12.9767   -4.9134    9.6896 F   0  0  0  0  0  0  0  0  0  0  0  0
  -13.3655   -7.0674   10.4304 F   0  0  0  0  0  0  0  0  0  0  0  0
  -14.0887   -5.3028   11.5307 F   0  0  0  0  0  0  0  0  0  0  0  0
 17 18  1  0  0  0
 18 19  1  0  0  0
 18 20  1  0  0  0
 18 11  1  0  0  0
 11 12  2  0  0  0
 12 13  1  0  0  0
 13 14  2  0  0  0
 14  1  1  0  0  0
  1  2  1  0  0  0
  2  3  2  0  0  0
  2  4  1  0  0  0
  4  5  1  0  0  0
  5  6  1  0  0  0
  6  7  1  0  0  0
  7  8  1  0  0  0
  8  9  1  0  0  0
  7 21  1  0  0  0
 21 22  2  0  0  0
 22 23  1  0  0  0
 23 24  2  0  0  0
 24 25  1  0  0  0
 25 26  2  0  0  0
 26 27  1  0  0  0
 27 28  1  0  0  0
 27 29  1  0  0  0
 27 30  1  0  0  0
 14 15  1  0  0  0
 15 16  2  0  0  0
 16 11  1  0  0  0
  9  4  1  0  0  0
 26 21  1  0  0  0
  1 10  1  0  0  0
M  END
> <minimizedAffinity>
4.29238

> <CNNscore>
0.4378666878

> <CNNaffinity>
6.5273194313

> <CNN_VS>
2.8580956459

> <CNNaffinity_variance>
0.8034022450

$$$$
[H]c1nc(N2C([H])([H])C([H])([H])N(C(=O)N([H])c3c([H])c([H])c(C(F)(F)F)c([H])c3[H])C([H])([H])C2([H])[H])c(C(F)(F)F)c([H])c1[H]


 30 32  0  0  0  0  0  0  0  0999 V2000
  -15.3952   -7.3829    6.0768 N   0  0  0  0  0  0  0  0  0  0  0  0
  -15.6012   -6.8885    4.8016 C   0  0  0  0  0  0  0  0  0  0  0  0
  -14.5908   -6.6117    4.0495 O   0  0  0  0  0  0  0  0  0  0  0  0
  -16.8705   -6.6467    4.2489 N   0  0  0  0  0  0  0  0  0  0  0  0
  -18.0275   -7.0195    5.0355 C   0  0  0  0  0  0  0  0  0  0  0  0
  -19.2975   -6.7179    4.2093 C   0  0  0  0  0  0  0  0  0  0  0  0
  -19.1185   -5.3272    3.8382 N   0  0  0  0  0  0  0  0  0  0  0  0
  -18.1480   -5.1313    2.7626 C   0  0  0  0  0  0  0  0  0  0  0  0
  -16.9415   -6.0161    2.9519 C   0  0  0  0  0  0  0  0  0  0  0  0
  -16.2081   -7.6397    6.7326 H   0  0  0  0  0  0  0  0  0  0  0  0
  -11.5652   -8.0467    7.6933 C   0  0  0  0  0  0  0  0  0  0  0  0
  -12.3079   -6.9672    8.0937 C   0  0  0  0  0  0  0  0  0  0  0  0
  -13.5661   -6.7302    7.5741 C   0  0  0  0  0  0  0  0  0  0  0  0
  -14.0925   -7.5975    6.6342 C   0  0  0  0  0  0  0  0  0  0  0  0
  -13.3538   -8.6796    6.2279 C   0  0  0  0  0  0  0  0  0  0  0  0
  -12.1038   -8.8861    6.7632 C   0  0  0  0  0  0  0  0  0  0  0  0
  -10.4020   -9.0422    9.4078 F   0  0  0  0  0  0  0  0  0  0  0  0
  -10.2201   -8.3283    8.2598 C   0  0  0  0  0  0  0  0  0  0  0  0
   -9.5494   -9.0666    7.2676 F   0  0  0  0  0  0  0  0  0  0  0  0
   -9.5432   -7.1606    8.5321 F   0  0  0  0  0  0  0  0  0  0  0  0
  -19.7461   -4.2109    4.4185 C   0  0  0  0  0  0  0  0  0  0  0  0
  -20.9753   -3.8127    3.9281 N   0  0  0  0  0  0  0  0  0  0  0  0
  -21.6306   -2.7534    4.3912 C   0  0  0  0  0  0  0  0  0  0  0  0
  -21.1166   -1.9778    5.4063 C   0  0  0  0  0  0  0  0  0  0  0  0
  -19.8956   -2.3407    5.9183 C   0  0  0  0  0  0  0  0  0  0  0  0
  -19.2014   -3.4674    5.4235 C   0  0  0  0  0  0  0  0  0  0  0  0
  -17.9134   -3.8166    6.0197 C   0  0  0  0  0  0  0  0  0  0  0  0
  -16.8665   -3.9774    5.1434 F   0  0  0  0  0  0  0  0  0  0  0  0
  -17.6249   -3.0418    7.1154 F   0  0  0  0  0  0  0  0  0  0  0  0
  -18.0543   -5.1313    6.5701 F   0  0  0  0  0  0  0  0  0  0  0  0
 17 18  1  0  0  0
 18 19  1  0  0  0
 18 20  1  0  0  0
 18 11  1  0  0  0
 11 12  2  0  0  0
 12 13  1  0  0  0
 13 14  2  0  0  0
 14  1  1  0  0  0
  1  2  1  0  0  0
  2  3  2  0  0  0
  2  4  1  0  0  0
  4  5  1  0  0  0
  5  6  1  0  0  0
  6  7  1  0  0  0
  7  8  1  0  0  0
  8  9  1  0  0  0
  7 21  1  0  0  0
 21 22  2  0  0  0
 22 23  1  0  0  0
 23 24  2  0  0  0
 24 25  1  0  0  0
 25 26  2  0  0  0
 26 27  1  0  0  0
 27 28  1  0  0  0
 27 29  1  0  0  0
 27 30  1  0  0  0
 14 15  1  0  0  0
 15 16  2  0  0  0
 16 11  1  0  0  0
  9  4  1  0  0  0
 26 21  1  0  0  0
  1 10  1  0  0  0
M  END
> <minimizedAffinity>
13.53390

> <CNNscore>
0.3610916436

> <CNNaffinity>
6.6102485657

> <CNN_VS>
2.3869054317

> <CNNaffinity_variance>
0.9116114378

$$$$
[H]c1nc(N2C([H])([H])C([H])([H])N(C(=O)N([H])c3c([H])c([H])c(C(F)(F)F)c([H])c3[H])C([H])([H])C2([H])[H])c(C(F)(F)F)c([H])c1[H]


 30 32  0  0  0  0  0  0  0  0999 V2000
   -7.0023  -11.3714    7.4942 N   0  0  0  0  0  0  0  0  0  0  0  0
   -7.1908  -10.0017    7.4565 C   0  0  0  0  0  0  0  0  0  0  0  0
   -6.2373   -9.2123    7.8182 O   0  0  0  0  0  0  0  0  0  0  0  0
   -8.3864   -9.3847    7.0504 N   0  0  0  0  0  0  0  0  0  0  0  0
   -9.4504  -10.2374    6.5635 C   0  0  0  0  0  0  0  0  0  0  0  0
  -10.6307   -9.3429    6.1239 C   0  0  0  0  0  0  0  0  0  0  0  0
  -10.8684   -8.5228    7.2962 N   0  0  0  0  0  0  0  0  0  0  0  0
   -9.8838   -7.4563    7.4709 C   0  0  0  0  0  0  0  0  0  0  0  0
   -8.4901   -7.9497    7.1734 C   0  0  0  0  0  0  0  0  0  0  0  0
   -7.7649  -12.0657    7.1892 H   0  0  0  0  0  0  0  0  0  0  0  0
   -3.4054  -13.1444    8.7752 C   0  0  0  0  0  0  0  0  0  0  0  0
   -4.6111  -13.6731    9.1546 C   0  0  0  0  0  0  0  0  0  0  0  0
   -5.8030  -13.1053    8.7468 C   0  0  0  0  0  0  0  0  0  0  0  0
   -5.7849  -11.9839    7.9376 C   0  0  0  0  0  0  0  0  0  0  0  0
   -4.5812  -11.4486    7.5550 C   0  0  0  0  0  0  0  0  0  0  0  0
   -3.4126  -12.0368    7.9798 C   0  0  0  0  0  0  0  0  0  0  0  0
   -2.2910  -15.1098    9.1986 F   0  0  0  0  0  0  0  0  0  0  0  0
   -2.1149  -13.7571    9.1862 C   0  0  0  0  0  0  0  0  0  0  0  0
   -1.1849  -13.3444    8.2146 F   0  0  0  0  0  0  0  0  0  0  0  0
   -1.7343  -13.3189   10.4348 F   0  0  0  0  0  0  0  0  0  0  0  0
  -11.8954   -8.6809    8.2433 C   0  0  0  0  0  0  0  0  0  0  0  0
  -11.6297   -9.3969    9.3952 N   0  0  0  0  0  0  0  0  0  0  0  0
  -12.5437   -9.6248   10.3327 C   0  0  0  0  0  0  0  0  0  0  0  0
  -13.8309   -9.1511   10.2114 C   0  0  0  0  0  0  0  0  0  0  0  0
  -14.1340   -8.4365    9.0791 C   0  0  0  0  0  0  0  0  0  0  0  0
  -13.1600   -8.1961    8.0842 C   0  0  0  0  0  0  0  0  0  0  0  0
  -13.5352   -7.4133    6.9083 C   0  0  0  0  0  0  0  0  0  0  0  0
  -14.1744   -6.2217    7.1554 F   0  0  0  0  0  0  0  0  0  0  0  0
  -12.5140   -7.3329    5.9946 F   0  0  0  0  0  0  0  0  0  0  0  0
  -14.5419   -8.1611    6.2165 F   0  0  0  0  0  0  0  0  0  0  0  0
 17 18  1  0  0  0
 18 19  1  0  0  0
 18 20  1  0  0  0
 18 11  1  0  0  0
 11 12  2  0  0  0
 12 13  1  0  0  0
 13 14  2  0  0  0
 14  1  1  0  0  0
  1  2  1  0  0  0
  2  3  2  0  0  0
  2  4  1  0  0  0
  4  5  1  0  0  0
  5  6  1  0  0  0
  6  7  1  0  0  0
  7  8  1  0  0  0
  8  9  1  0  0  0
  7 21  1  0  0  0
 21 22  2  0  0  0
 22 23  1  0  0  0
 23 24  2  0  0  0
 24 25  1  0  0  0
 25 26  2  0  0  0
 26 27  1  0  0  0
 27 28  1  0  0  0
 27 29  1  0  0  0
 27 30  1  0  0  0
 14 15  1  0  0  0
 15 16  2  0  0  0
 16 11  1  0  0  0
  9  4  1  0  0  0
 26 21  1  0  0  0
  1 10  1  0  0  0
M  END
> <minimizedAffinity>
19.63404

> <CNNscore>
0.3598534763

> <CNNaffinity>
5.5993294716

> <CNN_VS>
2.0149381161

> <CNNaffinity_variance>
1.0164035559

$$$$
[H]c1nc(N2C([H])([H])C([H])([H])N(C(=O)N([H])c3c([H])c([H])c(C(F)(F)F)c([H])c3[H])C([H])([H])C2([H])[H])c(C(F)(F)F)c([H])c1[H]


 30 32  0  0  0  0  0  0  0  0999 V2000
  -10.2754   -7.2055    7.7772 N   0  0  0  0  0  0  0  0  0  0  0  0
  -11.0821   -8.2368    7.3315 C   0  0  0  0  0  0  0  0  0  0  0  0
  -10.5487   -9.2957    6.8242 O   0  0  0  0  0  0  0  0  0  0  0  0
  -12.4864   -8.2128    7.3817 N   0  0  0  0  0  0  0  0  0  0  0  0
  -13.1163   -7.0741    8.0163 C   0  0  0  0  0  0  0  0  0  0  0  0
  -14.6454   -7.2932    8.0059 C   0  0  0  0  0  0  0  0  0  0  0  0
  -14.9236   -7.5614    6.6080 N   0  0  0  0  0  0  0  0  0  0  0  0
  -14.5415   -8.9078    6.1854 C   0  0  0  0  0  0  0  0  0  0  0  0
  -13.2099   -9.3038    6.7723 C   0  0  0  0  0  0  0  0  0  0  0  0
  -10.6767   -6.3108    8.2190 H   0  0  0  0  0  0  0  0  0  0  0  0
   -6.0756   -7.2746    7.4952 C   0  0  0  0  0  0  0  0  0  0  0  0
   -6.7092   -7.8917    8.5416 C   0  0  0  0  0  0  0  0  0  0  0  0
   -8.0864   -7.8790    8.6538 C   0  0  0  0  0  0  0  0  0  0  0  0
   -8.8450   -7.2356    7.6929 C   0  0  0  0  0  0  0  0  0  0  0  0
   -8.2170   -6.6146    6.6433 C   0  0  0  0  0  0  0  0  0  0  0  0
   -6.8443   -6.6441    6.5619 C   0  0  0  0  0  0  0  0  0  0  0  0
   -4.2342   -8.5876    7.0837 F   0  0  0  0  0  0  0  0  0  0  0  0
   -4.5967   -7.2993    7.3479 C   0  0  0  0  0  0  0  0  0  0  0  0
   -4.3184   -6.4314    6.2760 F   0  0  0  0  0  0  0  0  0  0  0  0
   -3.9772   -6.8606    8.4966 F   0  0  0  0  0  0  0  0  0  0  0  0
  -15.4729   -6.6695    5.6701 C   0  0  0  0  0  0  0  0  0  0  0  0
  -14.7763   -5.5151    5.3669 N   0  0  0  0  0  0  0  0  0  0  0  0
  -15.2286   -4.5990    4.5170 C   0  0  0  0  0  0  0  0  0  0  0  0
  -16.4375   -4.7491    3.8751 C   0  0  0  0  0  0  0  0  0  0  0  0
  -17.1602   -5.8828    4.1523 C   0  0  0  0  0  0  0  0  0  0  0  0
  -16.6766   -6.8548    5.0565 C   0  0  0  0  0  0  0  0  0  0  0  0
  -17.4810   -8.0509    5.2989 C   0  0  0  0  0  0  0  0  0  0  0  0
  -17.0507   -9.2024    4.6837 F   0  0  0  0  0  0  0  0  0  0  0  0
  -17.7986   -8.1989    6.6261 F   0  0  0  0  0  0  0  0  0  0  0  0
  -18.7514   -7.8292    4.6759 F   0  0  0  0  0  0  0  0  0  0  0  0
 17 18  1  0  0  0
 18 19  1  0  0  0
 18 20  1  0  0  0
 18 11  1  0  0  0
 11 12  2  0  0  0
 12 13  1  0  0  0
 13 14  2  0  0  0
 14  1  1  0  0  0
  1  2  1  0  0  0
  2  3  2  0  0  0
  2  4  1  0  0  0
  4  5  1  0  0  0
  5  6  1  0  0  0
  6  7  1  0  0  0
  7  8  1  0  0  0
  8  9  1  0  0  0
  7 21  1  0  0  0
 21 22  2  0  0  0
 22 23  1  0  0  0
 23 24  2  0  0  0
 24 25  1  0  0  0
 25 26  2  0  0  0
 26 27  1  0  0  0
 27 28  1  0  0  0
 27 29  1  0  0  0
 27 30  1  0  0  0
 14 15  1  0  0  0
 15 16  2  0  0  0
 16 11  1  0  0  0
  9  4  1  0  0  0
 26 21  1  0  0  0
  1 10  1  0  0  0
M  END
> <minimizedAffinity>
-9.36848

> <CNNscore>
0.2494257689

> <CNNaffinity>
6.8135328293

> <CNN_VS>
1.6994706392

> <CNNaffinity_variance>
0.1994049549

$$$$
[H]c1nc(N2C([H])([H])C([H])([H])N(C(=O)N([H])c3c([H])c([H])c(C(F)(F)F)c([H])c3[H])C([H])([H])C2([H])[H])c(C(F)(F)F)c([H])c1[H]


 30 32  0  0  0  0  0  0  0  0999 V2000
  -16.0209   -5.8572    5.0371 N   0  0  0  0  0  0  0  0  0  0  0  0
  -17.3314   -5.9681    4.6090 C   0  0  0  0  0  0  0  0  0  0  0  0
  -18.0127   -4.9052    4.3455 O   0  0  0  0  0  0  0  0  0  0  0  0
  -18.0025   -7.1918    4.4439 N   0  0  0  0  0  0  0  0  0  0  0  0
  -17.2445   -8.4071    4.6551 C   0  0  0  0  0  0  0  0  0  0  0  0
  -18.1642   -9.6133    4.3627 C   0  0  0  0  0  0  0  0  0  0  0  0
  -19.3181   -9.3503    5.2011 N   0  0  0  0  0  0  0  0  0  0  0  0
  -20.2003   -8.3127    4.6697 C   0  0  0  0  0  0  0  0  0  0  0  0
  -19.4063   -7.1605    4.1072 C   0  0  0  0  0  0  0  0  0  0  0  0
  -15.4121   -6.7166    5.2550 H   0  0  0  0  0  0  0  0  0  0  0  0
  -14.0985   -2.1589    5.6285 C   0  0  0  0  0  0  0  0  0  0  0  0
  -13.9758   -2.8196    4.4345 C   0  0  0  0  0  0  0  0  0  0  0  0
  -14.5969   -4.0353    4.2207 C   0  0  0  0  0  0  0  0  0  0  0  0
  -15.3610   -4.5991    5.2262 C   0  0  0  0  0  0  0  0  0  0  0  0
  -15.4871   -3.9437    6.4246 C   0  0  0  0  0  0  0  0  0  0  0  0
  -14.8544   -2.7359    6.6059 C   0  0  0  0  0  0  0  0  0  0  0  0
  -14.4531    0.0728    6.0496 F   0  0  0  0  0  0  0  0  0  0  0  0
  -13.4559   -0.8397    5.8659 C   0  0  0  0  0  0  0  0  0  0  0  0
  -12.6682   -1.0153    7.0183 F   0  0  0  0  0  0  0  0  0  0  0  0
  -12.6705   -0.4720    4.7964 F   0  0  0  0  0  0  0  0  0  0  0  0
  -19.6239   -9.9578    6.4315 C   0  0  0  0  0  0  0  0  0  0  0  0
  -20.5921  -10.9437    6.4611 N   0  0  0  0  0  0  0  0  0  0  0  0
  -20.9702  -11.5535    7.5796 C   0  0  0  0  0  0  0  0  0  0  0  0
  -20.4086  -11.2360    8.7962 C   0  0  0  0  0  0  0  0  0  0  0  0
  -19.4440  -10.2592    8.8078 C   0  0  0  0  0  0  0  0  0  0  0  0
  -19.0445   -9.6126    7.6167 C   0  0  0  0  0  0  0  0  0  0  0  0
  -17.9997   -8.5930    7.6873 C   0  0  0  0  0  0  0  0  0  0  0  0
  -16.8741   -8.8291    6.9343 F   0  0  0  0  0  0  0  0  0  0  0  0
  -18.5085   -7.3237    7.5682 F   0  0  0  0  0  0  0  0  0  0  0  0
  -17.4836   -8.6201    9.0230 F   0  0  0  0  0  0  0  0  0  0  0  0
 17 18  1  0  0  0
 18 19  1  0  0  0
 18 20  1  0  0  0
 18 11  1  0  0  0
 11 12  2  0  0  0
 12 13  1  0  0  0
 13 14  2  0  0  0
 14  1  1  0  0  0
  1  2  1  0  0  0
  2  3  2  0  0  0
  2  4  1  0  0  0
  4  5  1  0  0  0
  5  6  1  0  0  0
  6  7  1  0  0  0
  7  8  1  0  0  0
  8  9  1  0  0  0
  7 21  1  0  0  0
 21 22  2  0  0  0
 22 23  1  0  0  0
 23 24  2  0  0  0
 24 25  1  0  0  0
 25 26  2  0  0  0
 26 27  1  0  0  0
 27 28  1  0  0  0
 27 29  1  0  0  0
 27 30  1  0  0  0
 14 15  1  0  0  0
 15 16  2  0  0  0
 16 11  1  0  0  0
  9  4  1  0  0  0
 26 21  1  0  0  0
  1 10  1  0  0  0
M  END
> <minimizedAffinity>
28.79445

> <CNNscore>
0.2411167026

> <CNNaffinity>
5.6853637695

> <CNN_VS>
1.3708361387

> <CNNaffinity_variance>
1.3749132156

$$$$
[H]c1nc(N2C([H])([H])C([H])([H])N(C(=O)N([H])c3c([H])c([H])c(C(F)(F)F)c([H])c3[H])C([H])([H])C2([H])[H])c(C(F)(F)F)c([H])c1[H]


 30 32  0  0  0  0  0  0  0  0999 V2000
  -13.9170   -7.4741    6.2132 N   0  0  0  0  0  0  0  0  0  0  0  0
  -13.2903   -7.0459    7.3694 C   0  0  0  0  0  0  0  0  0  0  0  0
  -13.8012   -6.0820    8.0573 O   0  0  0  0  0  0  0  0  0  0  0  0
  -12.0931   -7.5928    7.8621 N   0  0  0  0  0  0  0  0  0  0  0  0
  -11.5337   -8.7277    7.1584 C   0  0  0  0  0  0  0  0  0  0  0  0
  -10.2645   -9.1899    7.9080 C   0  0  0  0  0  0  0  0  0  0  0  0
   -9.4854   -7.9705    8.0062 N   0  0  0  0  0  0  0  0  0  0  0  0
   -9.9760   -7.0460    9.0269 C   0  0  0  0  0  0  0  0  0  0  0  0
  -11.4823   -6.9722    9.0140 C   0  0  0  0  0  0  0  0  0  0  0  0
  -13.5337   -8.2827    5.6166 H   0  0  0  0  0  0  0  0  0  0  0  0
  -17.4399   -5.7165    4.7224 C   0  0  0  0  0  0  0  0  0  0  0  0
  -17.5002   -6.8698    5.4595 C   0  0  0  0  0  0  0  0  0  0  0  0
  -16.3558   -7.4638    5.9562 C   0  0  0  0  0  0  0  0  0  0  0  0
  -15.1235   -6.8860    5.7108 C   0  0  0  0  0  0  0  0  0  0  0  0
  -15.0557   -5.7319    4.9724 C   0  0  0  0  0  0  0  0  0  0  0  0
  -16.2136   -5.1669    4.4907 C   0  0  0  0  0  0  0  0  0  0  0  0
  -19.0134   -4.0825    5.0937 F   0  0  0  0  0  0  0  0  0  0  0  0
  -18.6634   -5.0527    4.2010 C   0  0  0  0  0  0  0  0  0  0  0  0
  -18.2922   -4.5249    2.9507 F   0  0  0  0  0  0  0  0  0  0  0  0
  -19.6931   -5.9553    4.0567 F   0  0  0  0  0  0  0  0  0  0  0  0
   -8.3756   -7.6120    7.2210 C   0  0  0  0  0  0  0  0  0  0  0  0
   -8.4873   -6.5268    6.3725 N   0  0  0  0  0  0  0  0  0  0  0  0
   -7.5042   -6.1308    5.5707 C   0  0  0  0  0  0  0  0  0  0  0  0
   -6.2944   -6.7876    5.5388 C   0  0  0  0  0  0  0  0  0  0  0  0
   -6.1459   -7.8727    6.3666 C   0  0  0  0  0  0  0  0  0  0  0  0
   -7.1931   -8.2912    7.2177 C   0  0  0  0  0  0  0  0  0  0  0  0
   -6.9715   -9.4423    8.0907 C   0  0  0  0  0  0  0  0  0  0  0  0
   -7.0489   -9.1990    9.4415 F   0  0  0  0  0  0  0  0  0  0  0  0
   -7.6655  -10.5496    7.6709 F   0  0  0  0  0  0  0  0  0  0  0  0
   -5.6017   -9.8276    7.9288 F   0  0  0  0  0  0  0  0  0  0  0  0
 17 18  1  0  0  0
 18 19  1  0  0  0
 18 20  1  0  0  0
 18 11  1  0  0  0
 11 12  2  0  0  0
 12 13  1  0  0  0
 13 14  2  0  0  0
 14  1  1  0  0  0
  1  2  1  0  0  0
  2  3  2  0  0  0
  2  4  1  0  0  0
  4  5  1  0  0  0
  5  6  1  0  0  0
  6  7  1  0  0  0
  7  8  1  0  0  0
  8  9  1  0  0  0
  7 21  1  0  0  0
 21 22  2  0  0  0
 22 23  1  0  0  0
 23 24  2  0  0  0
 24 25  1  0  0  0
 25 26  2  0  0  0
 26 27  1  0  0  0
 27 28  1  0  0  0
 27 29  1  0  0  0
 27 30  1  0  0  0
 14 15  1  0  0  0
 15 16  2  0  0  0
 16 11  1  0  0  0
  9  4  1  0  0  0
 26 21  1  0  0  0
  1 10  1  0  0  0
M  END
> <minimizedAffinity>
-6.73206

> <CNNscore>
0.2318000346

> <CNNaffinity>
6.4561223984

> <CNN_VS>
1.4965293407

> <CNNaffinity_variance>
0.1642174870

$$$$
[H]c1nc(N2C([H])([H])C([H])([H])N(C(=O)N([H])c3c([H])c([H])c(C(F)(F)F)c([H])c3[H])C([H])([H])C2([H])[H])c(C(F)(F)F)c([H])c1[H]


 30 32  0  0  0  0  0  0  0  0999 V2000
   -7.3326   -6.9110    6.8247 N   0  0  0  0  0  0  0  0  0  0  0  0
   -7.9098   -6.8012    8.0768 C   0  0  0  0  0  0  0  0  0  0  0  0
   -7.1816   -6.9318    9.1330 O   0  0  0  0  0  0  0  0  0  0  0  0
   -9.2776   -6.5605    8.2923 N   0  0  0  0  0  0  0  0  0  0  0  0
  -10.1102   -6.3308    7.1303 C   0  0  0  0  0  0  0  0  0  0  0  0
  -11.5479   -6.0332    7.6108 C   0  0  0  0  0  0  0  0  0  0  0  0
  -11.8405   -7.1624    8.4726 N   0  0  0  0  0  0  0  0  0  0  0  0
  -11.1892   -7.0827    9.7791 C   0  0  0  0  0  0  0  0  0  0  0  0
   -9.7702   -6.5888    9.6493 C   0  0  0  0  0  0  0  0  0  0  0  0
   -7.8992   -6.7959    5.9178 H   0  0  0  0  0  0  0  0  0  0  0  0
   -3.2495   -7.7522    6.2388 C   0  0  0  0  0  0  0  0  0  0  0  0
   -3.6915   -6.4557    6.2697 C   0  0  0  0  0  0  0  0  0  0  0  0
   -5.0276   -6.1582    6.4588 C   0  0  0  0  0  0  0  0  0  0  0  0
   -5.9401   -7.1842    6.6239 C   0  0  0  0  0  0  0  0  0  0  0  0
   -5.5045   -8.4846    6.5928 C   0  0  0  0  0  0  0  0  0  0  0  0
   -4.1680   -8.7469    6.4008 C   0  0  0  0  0  0  0  0  0  0  0  0
   -1.7186   -9.4461    5.9728 F   0  0  0  0  0  0  0  0  0  0  0  0
   -1.8126   -8.0880    6.0598 C   0  0  0  0  0  0  0  0  0  0  0  0
   -1.4292   -7.4447    4.8687 F   0  0  0  0  0  0  0  0  0  0  0  0
   -1.0613   -7.6295    7.1187 F   0  0  0  0  0  0  0  0  0  0  0  0
  -12.6320   -8.2812    8.1590 C   0  0  0  0  0  0  0  0  0  0  0  0
  -13.9957   -8.2085    8.3714 N   0  0  0  0  0  0  0  0  0  0  0  0
  -14.8203   -9.2233    8.1340 C   0  0  0  0  0  0  0  0  0  0  0  0
  -14.3577  -10.4272    7.6516 C   0  0  0  0  0  0  0  0  0  0  0  0
  -13.0076  -10.5389    7.4298 C   0  0  0  0  0  0  0  0  0  0  0  0
  -12.1336   -9.4581    7.6834 C   0  0  0  0  0  0  0  0  0  0  0  0
  -10.7077   -9.6288    7.4112 C   0  0  0  0  0  0  0  0  0  0  0  0
   -9.8601   -9.4044    8.4699 F   0  0  0  0  0  0  0  0  0  0  0  0
  -10.4505  -10.7805    6.7100 F   0  0  0  0  0  0  0  0  0  0  0  0
  -10.3334   -8.5923    6.4965 F   0  0  0  0  0  0  0  0  0  0  0  0
 17 18  1  0  0  0
 18 19  1  0  0  0
 18 20  1  0  0  0
 18 11  1  0  0  0
 11 12  2  0  0  0
 12 13  1  0  0  0
 13 14  2  0  0  0
 14  1  1  0  0  0
  1  2  1  0  0  0
  2  3  2  0  0  0
  2  4  1  0  0  0
  4  5  1  0  0  0
  5  6  1  0  0  0
  6  7  1  0  0  0
  7  8  1  0  0  0
  8  9  1  0  0  0
  7 21  1  0  0  0
 21 22  2  0  0  0
 22 23  1  0  0  0
 23 24  2  0  0  0
 24 25  1  0  0  0
 25 26  2  0  0  0
 26 27  1  0  0  0
 27 28  1  0  0  0
 27 29  1  0  0  0
 27 30  1  0  0  0
 14 15  1  0  0  0
 15 16  2  0  0  0
 16 11  1  0  0  0
  9  4  1  0  0  0
 26 21  1  0  0  0
  1 10  1  0  0  0
M  END
> <minimizedAffinity>
-0.41595

> <CNNscore>
0.1904693395

> <CNNaffinity>
5.9568033218

> <CNN_VS>
1.1345883608

> <CNNaffinity_variance>
0.5859391689

$$$$
[H]c1nc(N2C([H])([H])C([H])([H])N(C(=O)N([H])c3c([H])c([H])c(C(F)(F)F)c([H])c3[H])C([H])([H])C2([H])[H])c(C(F)(F)F)c([H])c1[H]


 30 32  0  0  0  0  0  0  0  0999 V2000
   -7.8234   -6.7774    7.1435 N   0  0  0  0  0  0  0  0  0  0  0  0
   -6.6329   -7.4061    7.4604 C   0  0  0  0  0  0  0  0  0  0  0  0
   -6.6337   -8.4149    8.2639 O   0  0  0  0  0  0  0  0  0  0  0  0
   -5.3792   -7.0088    6.9649 N   0  0  0  0  0  0  0  0  0  0  0  0
   -5.3498   -5.9301    5.9996 C   0  0  0  0  0  0  0  0  0  0  0  0
   -3.8861   -5.7098    5.5579 C   0  0  0  0  0  0  0  0  0  0  0  0
   -3.1897   -5.5432    6.8192 N   0  0  0  0  0  0  0  0  0  0  0  0
   -2.9784   -6.7982    7.5385 C   0  0  0  0  0  0  0  0  0  0  0  0
   -4.2027   -7.6761    7.4704 C   0  0  0  0  0  0  0  0  0  0  0  0
   -7.8709   -5.9419    6.4680 H   0  0  0  0  0  0  0  0  0  0  0  0
  -11.5457   -7.9246    8.7410 C   0  0  0  0  0  0  0  0  0  0  0  0
  -10.8670   -8.7631    7.8964 C   0  0  0  0  0  0  0  0  0  0  0  0
   -9.6451   -8.4049    7.3597 C   0  0  0  0  0  0  0  0  0  0  0  0
   -9.0901   -7.1794    7.6802 C   0  0  0  0  0  0  0  0  0  0  0  0
   -9.7648   -6.3344    8.5243 C   0  0  0  0  0  0  0  0  0  0  0  0
  -10.9801   -6.7203    9.0400 C   0  0  0  0  0  0  0  0  0  0  0  0
  -13.8124   -8.0977    8.4010 F   0  0  0  0  0  0  0  0  0  0  0  0
  -12.8496   -8.3048    9.3449 C   0  0  0  0  0  0  0  0  0  0  0  0
  -12.7152   -9.6628    9.6874 F   0  0  0  0  0  0  0  0  0  0  0  0
  -13.1158   -7.5492   10.4647 F   0  0  0  0  0  0  0  0  0  0  0  0
   -2.7526   -4.3346    7.3891 C   0  0  0  0  0  0  0  0  0  0  0  0
   -1.9682   -3.4887    6.6280 N   0  0  0  0  0  0  0  0  0  0  0  0
   -1.4833   -2.3407    7.0895 C   0  0  0  0  0  0  0  0  0  0  0  0
   -1.7398   -1.9171    8.3744 C   0  0  0  0  0  0  0  0  0  0  0  0
   -2.5141   -2.7319    9.1624 C   0  0  0  0  0  0  0  0  0  0  0  0
   -3.0280   -3.9520    8.6688 C   0  0  0  0  0  0  0  0  0  0  0  0
   -3.8617   -4.7700    9.5475 C   0  0  0  0  0  0  0  0  0  0  0  0
   -5.1019   -5.1077    9.0602 F   0  0  0  0  0  0  0  0  0  0  0  0
   -3.1618   -5.8152   10.0970 F   0  0  0  0  0  0  0  0  0  0  0  0
   -4.1906   -3.9581   10.6806 F   0  0  0  0  0  0  0  0  0  0  0  0
 17 18  1  0  0  0
 18 19  1  0  0  0
 18 20  1  0  0  0
 18 11  1  0  0  0
 11 12  2  0  0  0
 12 13  1  0  0  0
 13 14  2  0  0  0
 14  1  1  0  0  0
  1  2  1  0  0  0
  2  3  2  0  0  0
  2  4  1  0  0  0
  4  5  1  0  0  0
  5  6  1  0  0  0
  6  7  1  0  0  0
  7  8  1  0  0  0
  8  9  1  0  0  0
  7 21  1  0  0  0
 21 22  2  0  0  0
 22 23  1  0  0  0
 23 24  2  0  0  0
 24 25  1  0  0  0
 25 26  2  0  0  0
 26 27  1  0  0  0
 27 28  1  0  0  0
 27 29  1  0  0  0
 27 30  1  0  0  0
 14 15  1  0  0  0
 15 16  2  0  0  0
 16 11  1  0  0  0
  9  4  1  0  0  0
 26 21  1  0  0  0
  1 10  1  0  0  0
M  END
> <minimizedAffinity>
-7.13059

> <CNNscore>
0.1817729473

> <CNNaffinity>
5.4293394089

> <CNN_VS>
0.9869070053

> <CNNaffinity_variance>
0.1792950928

$$$$
[H]Oc1c([H])c2c(c([H])c1O[H])C([H])([H])C([H])([H])N2C(=O)c1c([H])c(C([H])(C([H])([H])[H])C([H])([H])[H])c(O[H])c([H])c1O[H]


 28 30  0  0  0  0  0  0  0  0999 V2000
  -11.1635   -7.5003    8.0255 C   0  0  0  0  0  0  0  0  0  0  0  0
  -10.6663   -6.4403    8.5582 O   0  0  0  0  0  0  0  0  0  0  0  0
  -10.1908   -8.3775    7.4830 N   0  0  0  0  0  0  0  0  0  0  0  0
  -10.2787   -9.7351    6.9999 C   0  0  0  0  0  0  0  0  0  0  0  0
   -8.9749  -10.3384    7.4804 C   0  0  0  0  0  0  0  0  0  0  0  0
   -8.0315   -9.2081    7.3347 C   0  0  0  0  0  0  0  0  0  0  0  0
   -6.6598   -9.1359    7.2074 C   0  0  0  0  0  0  0  0  0  0  0  0
   -5.9962   -7.9287    7.0869 C   0  0  0  0  0  0  0  0  0  0  0  0
   -4.6069   -7.9129    6.9610 O   0  0  0  0  0  0  0  0  0  0  0  0
   -6.7365   -6.7646    7.0953 C   0  0  0  0  0  0  0  0  0  0  0  0
   -6.0681   -5.5595    6.9744 O   0  0  0  0  0  0  0  0  0  0  0  0
   -8.1067   -6.8533    7.2232 C   0  0  0  0  0  0  0  0  0  0  0  0
   -8.7896   -8.0566    7.3451 C   0  0  0  0  0  0  0  0  0  0  0  0
   -4.1577   -7.0125    6.8753 H   0  0  0  0  0  0  0  0  0  0  0  0
   -6.6375   -4.7142    6.9827 H   0  0  0  0  0  0  0  0  0  0  0  0
  -14.7147   -7.8245    6.8400 C   0  0  0  0  0  0  0  0  0  0  0  0
  -13.3240   -7.7268    6.8329 C   0  0  0  0  0  0  0  0  0  0  0  0
  -12.5967   -7.6953    8.0301 C   0  0  0  0  0  0  0  0  0  0  0  0
  -13.3106   -7.7644    9.1940 C   0  0  0  0  0  0  0  0  0  0  0  0
  -12.7468   -7.7519   10.4325 O   0  0  0  0  0  0  0  0  0  0  0  0
  -14.7314   -7.8624    9.1706 C   0  0  0  0  0  0  0  0  0  0  0  0
  -15.4237   -7.8923    8.0023 C   0  0  0  0  0  0  0  0  0  0  0  0
  -16.8049   -7.9873    7.9173 O   0  0  0  0  0  0  0  0  0  0  0  0
  -11.8289   -7.7214   10.6911 H   0  0  0  0  0  0  0  0  0  0  0  0
  -17.4071   -8.0425    8.7202 H   0  0  0  0  0  0  0  0  0  0  0  0
  -14.7683   -8.7351    4.5302 C   0  0  0  0  0  0  0  0  0  0  0  0
  -15.4137   -7.8492    5.5446 C   0  0  0  0  0  0  0  0  0  0  0  0
  -15.6023   -6.4761    4.9548 C   0  0  0  0  0  0  0  0  0  0  0  0
 26 27  1  0  0  0
 27 28  1  0  0  0
 27 16  1  0  0  0
 16 17  2  0  0  0
 17 18  1  0  0  0
 18  1  1  0  0  0
  1  2  2  0  0  0
  1  3  1  0  0  0
  3  4  1  0  0  0
  4  5  1  0  0  0
  5  6  1  0  0  0
  6  7  2  0  0  0
  7  8  1  0  0  0
  8  9  1  0  0  0
  8 10  2  0  0  0
 10 11  1  0  0  0
 10 12  1  0  0  0
 12 13  2  0  0  0
 18 19  2  0  0  0
 19 20  1  0  0  0
 19 21  1  0  0  0
 21 22  2  0  0  0
 22 23  1  0  0  0
 22 16  1  0  0  0
 13  3  1  0  0  0
 13  6  1  0  0  0
  9 14  1  0  0  0
 11 15  1  0  0  0
 20 24  1  0  0  0
 23 25  1  0  0  0
M  END
> <minimizedAffinity>
-9.34223

> <CNNscore>
0.5135546923

> <CNNaffinity>
6.2726626396

> <CNN_VS>
3.2213554382

> <CNNaffinity_variance>
0.2870360613

$$$$
[H]Oc1c([H])c2c(c([H])c1O[H])C([H])([H])C([H])([H])N2C(=O)c1c([H])c(C([H])(C([H])([H])[H])C([H])([H])[H])c(O[H])c([H])c1O[H]


 28 30  0  0  0  0  0  0  0  0999 V2000
  -15.0494   -6.3565    6.6294 C   0  0  0  0  0  0  0  0  0  0  0  0
  -14.4567   -5.2167    6.5654 O   0  0  0  0  0  0  0  0  0  0  0  0
  -14.7467   -7.0932    7.8022 N   0  0  0  0  0  0  0  0  0  0  0  0
  -15.3330   -8.2830    8.3721 C   0  0  0  0  0  0  0  0  0  0  0  0
  -15.2935   -7.9880    9.8575 C   0  0  0  0  0  0  0  0  0  0  0  0
  -14.0205   -7.2475    9.9984 C   0  0  0  0  0  0  0  0  0  0  0  0
  -13.1749   -7.0214   11.0646 C   0  0  0  0  0  0  0  0  0  0  0  0
  -12.0182   -6.2741   10.9387 C   0  0  0  0  0  0  0  0  0  0  0  0
  -11.1984   -6.0762   12.0500 O   0  0  0  0  0  0  0  0  0  0  0  0
  -11.7074   -5.7413    9.7047 C   0  0  0  0  0  0  0  0  0  0  0  0
  -10.5493   -4.9945    9.5838 O   0  0  0  0  0  0  0  0  0  0  0  0
  -12.5626   -5.9762    8.6487 C   0  0  0  0  0  0  0  0  0  0  0  0
  -13.7281   -6.7242    8.7569 C   0  0  0  0  0  0  0  0  0  0  0  0
  -10.3624   -5.5251   11.9191 H   0  0  0  0  0  0  0  0  0  0  0  0
  -10.3417   -4.6125    8.6619 H   0  0  0  0  0  0  0  0  0  0  0  0
  -16.3742   -8.1265    3.5907 C   0  0  0  0  0  0  0  0  0  0  0  0
  -15.5683   -7.7942    4.6786 C   0  0  0  0  0  0  0  0  0  0  0  0
  -15.9296   -6.7633    5.5561 C   0  0  0  0  0  0  0  0  0  0  0  0
  -17.0997   -6.1060    5.2958 C   0  0  0  0  0  0  0  0  0  0  0  0
  -17.5860   -5.0899    6.0594 O   0  0  0  0  0  0  0  0  0  0  0  0
  -17.9025   -6.4666    4.1758 C   0  0  0  0  0  0  0  0  0  0  0  0
  -17.5400   -7.4685    3.3332 C   0  0  0  0  0  0  0  0  0  0  0  0
  -18.2801   -7.8640    2.2289 O   0  0  0  0  0  0  0  0  0  0  0  0
  -17.2419   -4.7023    6.8604 H   0  0  0  0  0  0  0  0  0  0  0  0
  -19.1505   -7.4370    1.9633 H   0  0  0  0  0  0  0  0  0  0  0  0
  -16.2724  -10.5798    3.2187 C   0  0  0  0  0  0  0  0  0  0  0  0
  -15.9308   -9.2184    2.7085 C   0  0  0  0  0  0  0  0  0  0  0  0
  -14.4576   -9.1602    2.3999 C   0  0  0  0  0  0  0  0  0  0  0  0
 26 27  1  0  0  0
 27 28  1  0  0  0
 27 16  1  0  0  0
 16 17  2  0  0  0
 17 18  1  0  0  0
 18  1  1  0  0  0
  1  2  2  0  0  0
  1  3  1  0  0  0
  3  4  1  0  0  0
  4  5  1  0  0  0
  5  6  1  0  0  0
  6  7  2  0  0  0
  7  8  1  0  0  0
  8  9  1  0  0  0
  8 10  2  0  0  0
 10 11  1  0  0  0
 10 12  1  0  0  0
 12 13  2  0  0  0
 18 19  2  0  0  0
 19 20  1  0  0  0
 19 21  1  0  0  0
 21 22  2  0  0  0
 22 23  1  0  0  0
 22 16  1  0  0  0
 13  3  1  0  0  0
 13  6  1  0  0  0
  9 14  1  0  0  0
 11 15  1  0  0  0
 20 24  1  0  0  0
 23 25  1  0  0  0
M  END
> <minimizedAffinity>
1.99330

> <CNNscore>
0.3552726507

> <CNNaffinity>
5.8314046860

> <CNN_VS>
2.0717384815

> <CNNaffinity_variance>
0.5778433084

$$$$
[H]Oc1c([H])c2c(c([H])c1O[H])C([H])([H])C([H])([H])N2C(=O)c1c([H])c(C([H])(C([H])([H])[H])C([H])([H])[H])c(O[H])c([H])c1O[H]


 28 30  0  0  0  0  0  0  0  0999 V2000
   -8.1837   -7.8319    8.0545 C   0  0  0  0  0  0  0  0  0  0  0  0
   -7.4009   -8.3263    8.9474 O   0  0  0  0  0  0  0  0  0  0  0  0
   -7.5275   -6.9889    7.1225 N   0  0  0  0  0  0  0  0  0  0  0  0
   -7.9594   -6.4149    5.8702 C   0  0  0  0  0  0  0  0  0  0  0  0
   -6.7088   -6.5054    5.0202 C   0  0  0  0  0  0  0  0  0  0  0  0
   -5.6374   -6.2432    6.0061 C   0  0  0  0  0  0  0  0  0  0  0  0
   -4.3382   -5.7946    5.8891 C   0  0  0  0  0  0  0  0  0  0  0  0
   -3.5157   -5.6320    6.9888 C   0  0  0  0  0  0  0  0  0  0  0  0
   -2.2093   -5.1750    6.8137 O   0  0  0  0  0  0  0  0  0  0  0  0
   -4.0179   -5.9302    8.2387 C   0  0  0  0  0  0  0  0  0  0  0  0
   -3.1913   -5.7658    9.3357 O   0  0  0  0  0  0  0  0  0  0  0  0
   -5.3185   -6.3775    8.3393 C   0  0  0  0  0  0  0  0  0  0  0  0
   -6.1584   -6.5465    7.2460 C   0  0  0  0  0  0  0  0  0  0  0  0
   -1.6388   -5.0688    7.6402 H   0  0  0  0  0  0  0  0  0  0  0  0
   -3.5859   -5.9922   10.2478 H   0  0  0  0  0  0  0  0  0  0  0  0
  -11.8442   -7.7632    8.9017 C   0  0  0  0  0  0  0  0  0  0  0  0
  -10.5039   -7.3919    8.8061 C   0  0  0  0  0  0  0  0  0  0  0  0
   -9.5910   -8.1654    8.0768 C   0  0  0  0  0  0  0  0  0  0  0  0
  -10.0744   -9.2908    7.4697 C   0  0  0  0  0  0  0  0  0  0  0  0
   -9.3138  -10.1371    6.7232 O   0  0  0  0  0  0  0  0  0  0  0  0
  -11.4488   -9.6462    7.5857 C   0  0  0  0  0  0  0  0  0  0  0  0
  -12.3229   -8.8867    8.2958 C   0  0  0  0  0  0  0  0  0  0  0  0
  -13.6702   -9.1815    8.4433 O   0  0  0  0  0  0  0  0  0  0  0  0
   -8.3908  -10.0893    6.4867 H   0  0  0  0  0  0  0  0  0  0  0  0
  -14.1095   -9.9869    8.0324 H   0  0  0  0  0  0  0  0  0  0  0  0
  -13.6790   -6.0904    8.8522 C   0  0  0  0  0  0  0  0  0  0  0  0
  -12.7462   -6.9048    9.6871 C   0  0  0  0  0  0  0  0  0  0  0  0
  -12.0103   -5.9967   10.6370 C   0  0  0  0  0  0  0  0  0  0  0  0
 26 27  1  0  0  0
 27 28  1  0  0  0
 27 16  1  0  0  0
 16 17  2  0  0  0
 17 18  1  0  0  0
 18  1  1  0  0  0
  1  2  2  0  0  0
  1  3  1  0  0  0
  3  4  1  0  0  0
  4  5  1  0  0  0
  5  6  1  0  0  0
  6  7  2  0  0  0
  7  8  1  0  0  0
  8  9  1  0  0  0
  8 10  2  0  0  0
 10 11  1  0  0  0
 10 12  1  0  0  0
 12 13  2  0  0  0
 18 19  2  0  0  0
 19 20  1  0  0  0
 19 21  1  0  0  0
 21 22  2  0  0  0
 22 23  1  0  0  0
 22 16  1  0  0  0
 13  3  1  0  0  0
 13  6  1  0  0  0
  9 14  1  0  0  0
 11 15  1  0  0  0
 20 24  1  0  0  0
 23 25  1  0  0  0
M  END
> <minimizedAffinity>
-8.60036

> <CNNscore>
0.3321064115

> <CNNaffinity>
5.4733114243

> <CNN_VS>
1.8177218437

> <CNNaffinity_variance>
0.0059549981

$$$$
[H]Oc1c([H])c2c(c([H])c1O[H])C([H])([H])C([H])([H])N2C(=O)c1c([H])c(C([H])(C([H])([H])[H])C([H])([H])[H])c(O[H])c([H])c1O[H]


 28 30  0  0  0  0  0  0  0  0999 V2000
   -4.8416   -6.3944    8.8819 C   0  0  0  0  0  0  0  0  0  0  0  0
   -5.4222   -6.4054   10.0297 O   0  0  0  0  0  0  0  0  0  0  0  0
   -3.6337   -5.6525    8.8594 N   0  0  0  0  0  0  0  0  0  0  0  0
   -2.5803   -5.5541    7.8771 C   0  0  0  0  0  0  0  0  0  0  0  0
   -1.3358   -5.4830    8.7379 C   0  0  0  0  0  0  0  0  0  0  0  0
   -1.7984   -4.6876    9.8964 C   0  0  0  0  0  0  0  0  0  0  0  0
   -1.1406   -3.9239   10.8383 C   0  0  0  0  0  0  0  0  0  0  0  0
   -1.8147   -3.2650   11.8501 C   0  0  0  0  0  0  0  0  0  0  0  0
   -1.0999   -2.5058   12.7769 O   0  0  0  0  0  0  0  0  0  0  0  0
   -3.1880   -3.3802   11.9126 C   0  0  0  0  0  0  0  0  0  0  0  0
   -3.8577   -2.7191   12.9265 O   0  0  0  0  0  0  0  0  0  0  0  0
   -3.8311   -4.1470   10.9638 C   0  0  0  0  0  0  0  0  0  0  0  0
   -3.1705   -4.8154    9.9411 C   0  0  0  0  0  0  0  0  0  0  0  0
   -1.6266   -2.0392   13.5012 H   0  0  0  0  0  0  0  0  0  0  0  0
   -4.8718   -2.8195   12.9506 H   0  0  0  0  0  0  0  0  0  0  0  0
   -7.3986   -8.0383    6.6726 C   0  0  0  0  0  0  0  0  0  0  0  0
   -6.8281   -7.2765    7.6913 C   0  0  0  0  0  0  0  0  0  0  0  0
   -5.4397   -7.1061    7.7738 C   0  0  0  0  0  0  0  0  0  0  0  0
   -4.6796   -7.7174    6.8159 C   0  0  0  0  0  0  0  0  0  0  0  0
   -3.3222   -7.6390    6.7592 O   0  0  0  0  0  0  0  0  0  0  0  0
   -5.2902   -8.4910    5.7875 C   0  0  0  0  0  0  0  0  0  0  0  0
   -6.6379   -8.6475    5.7195 C   0  0  0  0  0  0  0  0  0  0  0  0
   -7.2880   -9.3870    4.7427 O   0  0  0  0  0  0  0  0  0  0  0  0
   -2.7091   -7.1631    7.3141 H   0  0  0  0  0  0  0  0  0  0  0  0
   -6.8092   -9.8688    4.0018 H   0  0  0  0  0  0  0  0  0  0  0  0
   -9.5917   -6.9348    7.0466 C   0  0  0  0  0  0  0  0  0  0  0  0
   -8.8640   -8.1771    6.6496 C   0  0  0  0  0  0  0  0  0  0  0  0
   -9.3563   -9.3285    7.4867 C   0  0  0  0  0  0  0  0  0  0  0  0
 26 27  1  0  0  0
 27 28  1  0  0  0
 27 16  1  0  0  0
 16 17  2  0  0  0
 17 18  1  0  0  0
 18  1  1  0  0  0
  1  2  2  0  0  0
  1  3  1  0  0  0
  3  4  1  0  0  0
  4  5  1  0  0  0
  5  6  1  0  0  0
  6  7  2  0  0  0
  7  8  1  0  0  0
  8  9  1  0  0  0
  8 10  2  0  0  0
 10 11  1  0  0  0
 10 12  1  0  0  0
 12 13  2  0  0  0
 18 19  2  0  0  0
 19 20  1  0  0  0
 19 21  1  0  0  0
 21 22  2  0  0  0
 22 23  1  0  0  0
 22 16  1  0  0  0
 13  3  1  0  0  0
 13  6  1  0  0  0
  9 14  1  0  0  0
 11 15  1  0  0  0
 20 24  1  0  0  0
 23 25  1  0  0  0
M  END
> <minimizedAffinity>
-2.59325

> <CNNscore>
0.3280256391

> <CNNaffinity>
4.7990775108

> <CNN_VS>
1.5742204189

> <CNNaffinity_variance>
1.0062692165

$$$$
[H]Oc1c([H])c2c(c([H])c1O[H])C([H])([H])C([H])([H])N2C(=O)c1c([H])c(C([H])(C([H])([H])[H])C([H])([H])[H])c(O[H])c([H])c1O[H]


 28 30  0  0  0  0  0  0  0  0999 V2000
   -6.6981   -7.6719    8.4318 C   0  0  0  0  0  0  0  0  0  0  0  0
   -7.0970   -8.4675    9.3605 O   0  0  0  0  0  0  0  0  0  0  0  0
   -7.7336   -7.2400    7.5652 N   0  0  0  0  0  0  0  0  0  0  0  0
   -7.7786   -6.2106    6.5540 C   0  0  0  0  0  0  0  0  0  0  0  0
   -9.1712   -5.6408    6.7289 C   0  0  0  0  0  0  0  0  0  0  0  0
   -9.9634   -6.8426    7.0705 C   0  0  0  0  0  0  0  0  0  0  0  0
  -11.3067   -7.1431    6.9799 C   0  0  0  0  0  0  0  0  0  0  0  0
  -11.8140   -8.3663    7.3781 C   0  0  0  0  0  0  0  0  0  0  0  0
  -13.1815   -8.6178    7.2647 O   0  0  0  0  0  0  0  0  0  0  0  0
  -10.9427   -9.3104    7.8809 C   0  0  0  0  0  0  0  0  0  0  0  0
  -11.4549  -10.5325    8.2778 O   0  0  0  0  0  0  0  0  0  0  0  0
   -9.6028   -8.9951    7.9651 C   0  0  0  0  0  0  0  0  0  0  0  0
   -9.0760   -7.7722    7.5699 C   0  0  0  0  0  0  0  0  0  0  0  0
  -13.5147   -9.5223    7.5657 H   0  0  0  0  0  0  0  0  0  0  0  0
  -10.7908  -11.2129    8.6450 H   0  0  0  0  0  0  0  0  0  0  0  0
   -3.0432   -7.7309    7.5599 C   0  0  0  0  0  0  0  0  0  0  0  0
   -4.4053   -8.0277    7.5609 C   0  0  0  0  0  0  0  0  0  0  0  0
   -5.3010   -7.3044    8.3597 C   0  0  0  0  0  0  0  0  0  0  0  0
   -4.7787   -6.3033    9.1303 C   0  0  0  0  0  0  0  0  0  0  0  0
   -5.5209   -5.5109    9.9509 O   0  0  0  0  0  0  0  0  0  0  0  0
   -3.3823   -6.0232    9.1099 C   0  0  0  0  0  0  0  0  0  0  0  0
   -2.5254   -6.7325    8.3302 C   0  0  0  0  0  0  0  0  0  0  0  0
   -1.1585   -6.5054    8.2684 O   0  0  0  0  0  0  0  0  0  0  0  0
   -6.4623   -5.4942   10.1047 H   0  0  0  0  0  0  0  0  0  0  0  0
   -0.6907   -5.7918    8.7997 H   0  0  0  0  0  0  0  0  0  0  0  0
   -2.5230   -8.4816    5.2506 C   0  0  0  0  0  0  0  0  0  0  0  0
   -2.1601   -8.5340    6.6983 C   0  0  0  0  0  0  0  0  0  0  0  0
   -2.0676   -9.9729    7.1341 C   0  0  0  0  0  0  0  0  0  0  0  0
 26 27  1  0  0  0
 27 28  1  0  0  0
 27 16  1  0  0  0
 16 17  2  0  0  0
 17 18  1  0  0  0
 18  1  1  0  0  0
  1  2  2  0  0  0
  1  3  1  0  0  0
  3  4  1  0  0  0
  4  5  1  0  0  0
  5  6  1  0  0  0
  6  7  2  0  0  0
  7  8  1  0  0  0
  8  9  1  0  0  0
  8 10  2  0  0  0
 10 11  1  0  0  0
 10 12  1  0  0  0
 12 13  2  0  0  0
 18 19  2  0  0  0
 19 20  1  0  0  0
 19 21  1  0  0  0
 21 22  2  0  0  0
 22 23  1  0  0  0
 22 16  1  0  0  0
 13  3  1  0  0  0
 13  6  1  0  0  0
  9 14  1  0  0  0
 11 15  1  0  0  0
 20 24  1  0  0  0
 23 25  1  0  0  0
M  END
> <minimizedAffinity>
-0.88755

> <CNNscore>
0.3259127438

> <CNNaffinity>
5.1864094734

> <CNN_VS>
1.6903169155

> <CNNaffinity_variance>
0.9616869092

$$$$
[H]Oc1c([H])c2c(c([H])c1O[H])C([H])([H])C([H])([H])N2C(=O)c1c([H])c(C([H])(C([H])([H])[H])C([H])([H])[H])c(O[H])c([H])c1O[H]


 28 30  0  0  0  0  0  0  0  0999 V2000
  -12.0766   -8.8630    7.3657 C   0  0  0  0  0  0  0  0  0  0  0  0
  -11.6472   -9.9327    6.7948 O   0  0  0  0  0  0  0  0  0  0  0  0
  -11.0444   -8.0069    7.8260 N   0  0  0  0  0  0  0  0  0  0  0  0
  -11.0637   -6.6482    8.3135 C   0  0  0  0  0  0  0  0  0  0  0  0
   -9.7913   -6.0720    7.7272 C   0  0  0  0  0  0  0  0  0  0  0  0
   -8.8632   -7.2221    7.7958 C   0  0  0  0  0  0  0  0  0  0  0  0
   -7.4875   -7.3233    7.8101 C   0  0  0  0  0  0  0  0  0  0  0  0
   -6.8418   -8.5443    7.8766 C   0  0  0  0  0  0  0  0  0  0  0  0
   -5.4475   -8.5895    7.8880 O   0  0  0  0  0  0  0  0  0  0  0  0
   -7.6046   -9.6926    7.9299 C   0  0  0  0  0  0  0  0  0  0  0  0
   -6.9541  -10.9116    7.9964 O   0  0  0  0  0  0  0  0  0  0  0  0
   -8.9786   -9.5749    7.9149 C   0  0  0  0  0  0  0  0  0  0  0  0
   -9.6437   -8.3574    7.8485 C   0  0  0  0  0  0  0  0  0  0  0  0
   -5.0119   -9.4992    7.9373 H   0  0  0  0  0  0  0  0  0  0  0  0
   -7.5399  -11.7447    8.0356 H   0  0  0  0  0  0  0  0  0  0  0  0
  -15.6437   -8.1095    6.4548 C   0  0  0  0  0  0  0  0  0  0  0  0
  -14.2883   -8.4154    6.3412 C   0  0  0  0  0  0  0  0  0  0  0  0
  -13.5009   -8.6379    7.4787 C   0  0  0  0  0  0  0  0  0  0  0  0
  -14.1208   -8.5412    8.6933 C   0  0  0  0  0  0  0  0  0  0  0  0
  -13.4921   -8.7364    9.8844 O   0  0  0  0  0  0  0  0  0  0  0  0
  -15.5072   -8.2258    8.7789 C   0  0  0  0  0  0  0  0  0  0  0  0
  -16.2587   -8.0129    7.6675 C   0  0  0  0  0  0  0  0  0  0  0  0
  -17.6107   -7.7039    7.6886 O   0  0  0  0  0  0  0  0  0  0  0  0
  -12.5889   -8.9804   10.0713 H   0  0  0  0  0  0  0  0  0  0  0  0
  -18.1453   -7.6129    8.5350 H   0  0  0  0  0  0  0  0  0  0  0  0
  -16.0033   -8.7765    4.0899 C   0  0  0  0  0  0  0  0  0  0  0  0
  -16.4089   -7.8851    5.2174 C   0  0  0  0  0  0  0  0  0  0  0  0
  -16.3680   -6.4521    4.7554 C   0  0  0  0  0  0  0  0  0  0  0  0
 26 27  1  0  0  0
 27 28  1  0  0  0
 27 16  1  0  0  0
 16 17  2  0  0  0
 17 18  1  0  0  0
 18  1  1  0  0  0
  1  2  2  0  0  0
  1  3  1  0  0  0
  3  4  1  0  0  0
  4  5  1  0  0  0
  5  6  1  0  0  0
  6  7  2  0  0  0
  7  8  1  0  0  0
  8  9  1  0  0  0
  8 10  2  0  0  0
 10 11  1  0  0  0
 10 12  1  0  0  0
 12 13  2  0  0  0
 18 19  2  0  0  0
 19 20  1  0  0  0
 19 21  1  0  0  0
 21 22  2  0  0  0
 22 23  1  0  0  0
 22 16  1  0  0  0
 13  3  1  0  0  0
 13  6  1  0  0  0
  9 14  1  0  0  0
 11 15  1  0  0  0
 20 24  1  0  0  0
 23 25  1  0  0  0
M  END
> <minimizedAffinity>
-7.07607

> <CNNscore>
0.3191838861

> <CNNaffinity>
6.0565609932

> <CNN_VS>
1.9331567287

> <CNNaffinity_variance>
0.6385945082

$$$$
[H]Oc1c([H])c2c(c([H])c1O[H])C([H])([H])C([H])([H])N2C(=O)c1c([H])c(C([H])(C([H])([H])[H])C([H])([H])[H])c(O[H])c([H])c1O[H]


 28 30  0  0  0  0  0  0  0  0999 V2000
   -9.7556   -8.6824    7.5438 C   0  0  0  0  0  0  0  0  0  0  0  0
  -10.2580   -9.7385    7.0083 O   0  0  0  0  0  0  0  0  0  0  0  0
  -10.7255   -7.7857    8.0585 N   0  0  0  0  0  0  0  0  0  0  0  0
  -10.6103   -6.6223    8.9055 C   0  0  0  0  0  0  0  0  0  0  0  0
  -11.8334   -6.7401    9.7915 C   0  0  0  0  0  0  0  0  0  0  0  0
  -12.8434   -7.2939    8.8630 C   0  0  0  0  0  0  0  0  0  0  0  0
  -14.2229   -7.2898    8.8595 C   0  0  0  0  0  0  0  0  0  0  0  0
  -14.9563   -7.8952    7.8556 C   0  0  0  0  0  0  0  0  0  0  0  0
  -16.3503   -7.8615    7.9012 O   0  0  0  0  0  0  0  0  0  0  0  0
  -14.2797   -8.5207    6.8289 C   0  0  0  0  0  0  0  0  0  0  0  0
  -15.0178   -9.1247    5.8270 O   0  0  0  0  0  0  0  0  0  0  0  0
  -12.9008   -8.5161    6.8465 C   0  0  0  0  0  0  0  0  0  0  0  0
  -12.1482   -7.9133    7.8463 C   0  0  0  0  0  0  0  0  0  0  0  0
  -16.8514   -8.3143    7.1505 H   0  0  0  0  0  0  0  0  0  0  0  0
  -14.4946   -9.5794    5.0797 H   0  0  0  0  0  0  0  0  0  0  0  0
   -6.3435   -7.1515    7.1753 C   0  0  0  0  0  0  0  0  0  0  0  0
   -7.7296   -7.2895    7.2325 C   0  0  0  0  0  0  0  0  0  0  0  0
   -8.3194   -8.5135    7.5751 C   0  0  0  0  0  0  0  0  0  0  0  0
   -7.4773   -9.5553    7.8479 C   0  0  0  0  0  0  0  0  0  0  0  0
   -7.8990  -10.8001    8.2009 O   0  0  0  0  0  0  0  0  0  0  0  0
   -6.0647   -9.3853    7.7803 C   0  0  0  0  0  0  0  0  0  0  0  0
   -5.5065   -8.1926    7.4471 C   0  0  0  0  0  0  0  0  0  0  0  0
   -4.1403   -7.9673    7.3658 O   0  0  0  0  0  0  0  0  0  0  0  0
   -8.7817  -11.1362    8.3358 H   0  0  0  0  0  0  0  0  0  0  0  0
   -3.4501   -8.6747    7.5493 H   0  0  0  0  0  0  0  0  0  0  0  0
   -5.1149   -5.8225    5.4749 C   0  0  0  0  0  0  0  0  0  0  0  0
   -5.7932   -5.8371    6.8053 C   0  0  0  0  0  0  0  0  0  0  0  0
   -4.8564   -5.2808    7.8452 C   0  0  0  0  0  0  0  0  0  0  0  0
 26 27  1  0  0  0
 27 28  1  0  0  0
 27 16  1  0  0  0
 16 17  2  0  0  0
 17 18  1  0  0  0
 18  1  1  0  0  0
  1  2  2  0  0  0
  1  3  1  0  0  0
  3  4  1  0  0  0
  4  5  1  0  0  0
  5  6  1  0  0  0
  6  7  2  0  0  0
  7  8  1  0  0  0
  8  9  1  0  0  0
  8 10  2  0  0  0
 10 11  1  0  0  0
 10 12  1  0  0  0
 12 13  2  0  0  0
 18 19  2  0  0  0
 19 20  1  0  0  0
 19 21  1  0  0  0
 21 22  2  0  0  0
 22 23  1  0  0  0
 22 16  1  0  0  0
 13  3  1  0  0  0
 13  6  1  0  0  0
  9 14  1  0  0  0
 11 15  1  0  0  0
 20 24  1  0  0  0
 23 25  1  0  0  0
M  END
> <minimizedAffinity>
-7.54980

> <CNNscore>
0.2878742814

> <CNNaffinity>
5.8096141815

> <CNN_VS>
1.6724385023

> <CNNaffinity_variance>
0.3930462301

$$$$
[H]Oc1c([H])c2c(c([H])c1O[H])C([H])([H])C([H])([H])N2C(=O)c1c([H])c(C([H])(C([H])([H])[H])C([H])([H])[H])c(O[H])c([H])c1O[H]


 28 30  0  0  0  0  0  0  0  0999 V2000
   -8.9165   -8.3104    7.4587 C   0  0  0  0  0  0  0  0  0  0  0  0
   -8.1532   -9.0534    8.1797 O   0  0  0  0  0  0  0  0  0  0  0  0
   -8.2134   -7.3744    6.6590 N   0  0  0  0  0  0  0  0  0  0  0  0
   -8.6381   -6.5202    5.5754 C   0  0  0  0  0  0  0  0  0  0  0  0
   -7.4533   -6.5737    4.6330 C   0  0  0  0  0  0  0  0  0  0  0  0
   -6.3083   -6.6291    5.5683 C   0  0  0  0  0  0  0  0  0  0  0  0
   -4.9726   -6.3083    5.4428 C   0  0  0  0  0  0  0  0  0  0  0  0
   -4.0804   -6.4566    6.4889 C   0  0  0  0  0  0  0  0  0  0  0  0
   -2.7395   -6.1169    6.3075 O   0  0  0  0  0  0  0  0  0  0  0  0
   -4.5489   -6.9415    7.6925 C   0  0  0  0  0  0  0  0  0  0  0  0
   -3.6526   -7.0880    8.7359 O   0  0  0  0  0  0  0  0  0  0  0  0
   -5.8867   -7.2576    7.8023 C   0  0  0  0  0  0  0  0  0  0  0  0
   -6.7967   -7.1150    6.7626 C   0  0  0  0  0  0  0  0  0  0  0  0
   -2.1182   -6.2388    7.0942 H   0  0  0  0  0  0  0  0  0  0  0  0
   -4.0235   -7.4473    9.6146 H   0  0  0  0  0  0  0  0  0  0  0  0
  -12.5295   -7.8035    8.3596 C   0  0  0  0  0  0  0  0  0  0  0  0
  -11.1596   -7.5843    8.2225 C   0  0  0  0  0  0  0  0  0  0  0  0
  -10.3506   -8.4886    7.5217 C   0  0  0  0  0  0  0  0  0  0  0  0
  -10.9644   -9.5856    6.9843 C   0  0  0  0  0  0  0  0  0  0  0  0
  -10.3150  -10.5467    6.2727 O   0  0  0  0  0  0  0  0  0  0  0  0
  -12.3661   -9.7843    7.1415 C   0  0  0  0  0  0  0  0  0  0  0  0
  -13.1385   -8.8989    7.8233 C   0  0  0  0  0  0  0  0  0  0  0  0
  -14.5060   -9.0388    8.0081 O   0  0  0  0  0  0  0  0  0  0  0  0
   -9.3974  -10.6111    6.0192 H   0  0  0  0  0  0  0  0  0  0  0  0
  -15.0376   -9.8125    7.6486 H   0  0  0  0  0  0  0  0  0  0  0  0
  -12.5683   -5.5588    9.4209 C   0  0  0  0  0  0  0  0  0  0  0  0
  -13.3174   -6.8131    9.1115 C   0  0  0  0  0  0  0  0  0  0  0  0
  -13.8970   -7.3709   10.3850 C   0  0  0  0  0  0  0  0  0  0  0  0
 26 27  1  0  0  0
 27 28  1  0  0  0
 27 16  1  0  0  0
 16 17  2  0  0  0
 17 18  1  0  0  0
 18  1  1  0  0  0
  1  2  2  0  0  0
  1  3  1  0  0  0
  3  4  1  0  0  0
  4  5  1  0  0  0
  5  6  1  0  0  0
  6  7  2  0  0  0
  7  8  1  0  0  0
  8  9  1  0  0  0
  8 10  2  0  0  0
 10 11  1  0  0  0
 10 12  1  0  0  0
 12 13  2  0  0  0
 18 19  2  0  0  0
 19 20  1  0  0  0
 19 21  1  0  0  0
 21 22  2  0  0  0
 22 23  1  0  0  0
 22 16  1  0  0  0
 13  3  1  0  0  0
 13  6  1  0  0  0
  9 14  1  0  0  0
 11 15  1  0  0  0
 20 24  1  0  0  0
 23 25  1  0  0  0
M  END
> <minimizedAffinity>
-6.02365

> <CNNscore>
0.2729217112

> <CNNaffinity>
5.6779785156

> <CNN_VS>
1.5496436357

> <CNNaffinity_variance>
0.2406589240

$$$$
[H]Oc1c([H])c2c(c([H])c1O[H])C([H])([H])C([H])([H])N2C(=O)c1c([H])c(C([H])(C([H])([H])[H])C([H])([H])[H])c(O[H])c([H])c1O[H]


 28 30  0  0  0  0  0  0  0  0999 V2000
   -8.5411   -7.7728    7.8915 C   0  0  0  0  0  0  0  0  0  0  0  0
   -8.6651   -8.9829    7.4732 O   0  0  0  0  0  0  0  0  0  0  0  0
   -9.7659   -7.1744    8.2810 N   0  0  0  0  0  0  0  0  0  0  0  0
  -10.0595   -5.9511    8.9893 C   0  0  0  0  0  0  0  0  0  0  0  0
  -11.2325   -6.3509    9.8606 C   0  0  0  0  0  0  0  0  0  0  0  0
  -11.9721   -7.2859    8.9845 C   0  0  0  0  0  0  0  0  0  0  0  0
  -13.2837   -7.7124    8.9556 C   0  0  0  0  0  0  0  0  0  0  0  0
  -13.7408   -8.6177    8.0155 C   0  0  0  0  0  0  0  0  0  0  0  0
  -15.0778   -9.0156    8.0316 O   0  0  0  0  0  0  0  0  0  0  0  0
  -12.8507   -9.1051    7.0808 C   0  0  0  0  0  0  0  0  0  0  0  0
  -13.3128  -10.0104    6.1425 O   0  0  0  0  0  0  0  0  0  0  0  0
  -11.5431   -8.6691    7.1227 C   0  0  0  0  0  0  0  0  0  0  0  0
  -11.0669   -7.7606    8.0593 C   0  0  0  0  0  0  0  0  0  0  0  0
  -15.3746   -9.6780    7.3295 H   0  0  0  0  0  0  0  0  0  0  0  0
  -12.6360  -10.3549    5.4627 H   0  0  0  0  0  0  0  0  0  0  0  0
   -5.2896   -6.2537    6.7771 C   0  0  0  0  0  0  0  0  0  0  0  0
   -6.5886   -6.7592    6.7505 C   0  0  0  0  0  0  0  0  0  0  0  0
   -7.2304   -7.1624    7.9290 C   0  0  0  0  0  0  0  0  0  0  0  0
   -6.5272   -7.0371    9.0947 C   0  0  0  0  0  0  0  0  0  0  0  0
   -7.0169   -7.3791   10.3175 O   0  0  0  0  0  0  0  0  0  0  0  0
   -5.2006   -6.5184    9.0913 C   0  0  0  0  0  0  0  0  0  0  0  0
   -4.5908   -6.1309    7.9411 C   0  0  0  0  0  0  0  0  0  0  0  0
   -3.3034   -5.6187    7.8760 O   0  0  0  0  0  0  0  0  0  0  0  0
   -7.8748   -7.7150   10.5654 H   0  0  0  0  0  0  0  0  0  0  0  0
   -2.7158   -5.4925    8.6817 H   0  0  0  0  0  0  0  0  0  0  0  0
   -3.3493   -6.4877    5.2451 C   0  0  0  0  0  0  0  0  0  0  0  0
   -4.6765   -5.8525    5.5003 C   0  0  0  0  0  0  0  0  0  0  0  0
   -4.5466   -4.3588    5.3570 C   0  0  0  0  0  0  0  0  0  0  0  0
 26 27  1  0  0  0
 27 28  1  0  0  0
 27 16  1  0  0  0
 16 17  2  0  0  0
 17 18  1  0  0  0
 18  1  1  0  0  0
  1  2  2  0  0  0
  1  3  1  0  0  0
  3  4  1  0  0  0
  4  5  1  0  0  0
  5  6  1  0  0  0
  6  7  2  0  0  0
  7  8  1  0  0  0
  8  9  1  0  0  0
  8 10  2  0  0  0
 10 11  1  0  0  0
 10 12  1  0  0  0
 12 13  2  0  0  0
 18 19  2  0  0  0
 19 20  1  0  0  0
 19 21  1  0  0  0
 21 22  2  0  0  0
 22 23  1  0  0  0
 22 16  1  0  0  0
 13  3  1  0  0  0
 13  6  1  0  0  0
  9 14  1  0  0  0
 11 15  1  0  0  0
 20 24  1  0  0  0
 23 25  1  0  0  0
M  END
> <minimizedAffinity>
-5.90834

> <CNNscore>
0.2050639987

> <CNNaffinity>
5.5167207718

> <CNN_VS>
1.1312807798

> <CNNaffinity_variance>
0.2473432571

$$$$
[H]OC(=O)[C@@]([H])(N([H])C(=O)[C@@]([H])(N([H])C(=O)[C@@]([H])(N([H])C(=O)[C@@]([H])(N([H])C(=O)[C@@]1([H])N(C(=O)[C@@]([H])(N([H])C(=O)OC([H])([H])c2c([H])c([H])c([H])c([H])c2[H])[C@@]([H])(C([H])([H])[H])C([H])([H])C([H])([H])[H])C([H])([H])C([H])([H])C1([H])[H])C([H])([H])C([H])(C([H])([H])[H])C([H])([H])[H])C([H])([H])O[H])C([H])([H])C([H])(C([H])([H])[H])C([H])([H])[H])C([H])([H])c1c([H])c([H])c([H])c([H])c1[H]


 66 68  0  0  0  0  0  0  0  0999 V2000
   -4.3037   -5.8886    6.8796 C   0  0  0  0  0  0  0  0  0  0  0  0
   -5.0293   -7.1275    6.7015 C   0  0  0  0  0  0  0  0  0  0  0  0
   -4.5376   -8.1641    6.2564 O   0  0  0  0  0  0  0  0  0  0  0  0
   -6.3864   -7.0200    7.0812 N   0  0  0  0  0  0  0  0  0  0  0  0
   -6.6593   -6.0671    7.5659 H   0  0  0  0  0  0  0  0  0  0  0  0
   -7.4998   -7.9126    7.0129 C   0  0  0  0  0  0  0  0  0  0  0  0
   -8.7112   -6.9463    7.2215 C   0  0  0  0  0  0  0  0  0  0  0  0
   -8.6482   -5.9868    6.4706 O   0  0  0  0  0  0  0  0  0  0  0  0
   -9.7312   -7.1813    8.1499 N   0  0  0  0  0  0  0  0  0  0  0  0
  -10.2317   -5.9330    7.7483 H   0  0  0  0  0  0  0  0  0  0  0  0
  -10.7514   -7.3426    9.0202 C   0  0  0  0  0  0  0  0  0  0  0  0
  -11.9630   -8.0175    8.3694 C   0  0  0  0  0  0  0  0  0  0  0  0
  -12.1193   -9.2205    8.5839 O   0  0  0  0  0  0  0  0  0  0  0  0
  -12.8124   -7.2335    7.5887 N   0  0  0  0  0  0  0  0  0  0  0  0
  -12.5643   -6.1723    7.5138 H   0  0  0  0  0  0  0  0  0  0  0  0
  -13.9844   -7.5690    6.8503 C   0  0  0  0  0  0  0  0  0  0  0  0
  -14.0640   -8.9993    6.6038 C   0  0  0  0  0  0  0  0  0  0  0  0
  -14.7273   -9.8705    7.5090 O   0  0  0  0  0  0  0  0  0  0  0  0
  -13.5736   -9.5912    5.5921 O   0  0  0  0  0  0  0  0  0  0  0  0
  -14.6611   -9.6790    8.5058 H   0  0  0  0  0  0  0  0  0  0  0  0
  -13.9235   -6.7725    5.5466 C   0  0  0  0  0  0  0  0  0  0  0  0
  -15.2271   -6.5928    4.9235 C   0  0  0  0  0  0  0  0  0  0  0  0
  -15.9499   -7.4592    4.1864 C   0  0  0  0  0  0  0  0  0  0  0  0
  -17.2269   -7.1370    3.7093 C   0  0  0  0  0  0  0  0  0  0  0  0
  -17.8512   -5.9354    3.9474 C   0  0  0  0  0  0  0  0  0  0  0  0
  -17.0837   -5.0380    4.7246 C   0  0  0  0  0  0  0  0  0  0  0  0
  -15.8531   -5.3561    5.1750 C   0  0  0  0  0  0  0  0  0  0  0  0
  -11.1291   -5.9581    9.5304 C   0  0  0  0  0  0  0  0  0  0  0  0
  -12.0620   -5.8515   10.6487 C   0  0  0  0  0  0  0  0  0  0  0  0
  -11.6123   -5.7184   12.0382 C   0  0  0  0  0  0  0  0  0  0  0  0
  -13.2196   -4.8868   10.3476 C   0  0  0  0  0  0  0  0  0  0  0  0
   -7.5197   -8.7645    8.3178 C   0  0  0  0  0  0  0  0  0  0  0  0
   -7.9252  -10.0389    7.9949 O   0  0  0  0  0  0  0  0  0  0  0  0
   -8.8893   -9.9889    7.7773 H   0  0  0  0  0  0  0  0  0  0  0  0
   -3.4071   -4.1532    5.4710 C   0  0  0  0  0  0  0  0  0  0  0  0
   -2.3656   -5.0096    5.6249 O   0  0  0  0  0  0  0  0  0  0  0  0
   -4.5307   -4.6740    6.1643 N   0  0  0  0  0  0  0  0  0  0  0  0
   -5.4247   -4.1959    6.1522 H   0  0  0  0  0  0  0  0  0  0  0  0
   -2.4852   -3.5251    2.1911 C   0  0  0  0  0  0  0  0  0  0  0  0
   -2.1701   -4.7306    2.1279 O   0  0  0  0  0  0  0  0  0  0  0  0
   -2.7336   -2.8467    3.3985 N   0  0  0  0  0  0  0  0  0  0  0  0
   -2.6461   -1.3169    3.3828 C   0  0  0  0  0  0  0  0  0  0  0  0
   -4.0173   -0.9995    3.8640 C   0  0  0  0  0  0  0  0  0  0  0  0
   -4.3446   -2.0671    4.8472 C   0  0  0  0  0  0  0  0  0  0  0  0
   -3.0715   -3.0434    4.7156 C   0  0  0  0  0  0  0  0  0  0  0  0
   -2.5883   -2.7961    0.8761 C   0  0  0  0  0  0  0  0  0  0  0  0
   -3.7285   -1.9881    0.6533 N   0  0  0  0  0  0  0  0  0  0  0  0
   -4.6388   -2.2195   -0.4556 C   0  0  0  0  0  0  0  0  0  0  0  0
   -4.4222   -3.2059   -1.1515 O   0  0  0  0  0  0  0  0  0  0  0  0
   -3.9703   -1.1776    1.2609 H   0  0  0  0  0  0  0  0  0  0  0  0
   -5.7007   -1.4154   -0.7574 O   0  0  0  0  0  0  0  0  0  0  0  0
   -6.3401   -1.3877   -1.9865 C   0  0  0  0  0  0  0  0  0  0  0  0
   -7.6391   -0.7299   -2.0919 C   0  0  0  0  0  0  0  0  0  0  0  0
   -8.2066   -0.0773   -1.0523 C   0  0  0  0  0  0  0  0  0  0  0  0
   -9.4269    0.5095   -1.1247 C   0  0  0  0  0  0  0  0  0  0  0  0
  -10.1494    0.4556   -2.3165 C   0  0  0  0  0  0  0  0  0  0  0  0
   -9.5871   -0.2028   -3.3848 C   0  0  0  0  0  0  0  0  0  0  0  0
   -8.3687   -0.7888   -3.2891 C   0  0  0  0  0  0  0  0  0  0  0  0
   -1.3335   -2.0308    0.6041 C   0  0  0  0  0  0  0  0  0  0  0  0
   -0.0629   -2.6284    1.0647 C   0  0  0  0  0  0  0  0  0  0  0  0
   -0.9525   -2.8285   -1.7142 C   0  0  0  0  0  0  0  0  0  0  0  0
   -1.2545   -1.6038   -0.8273 C   0  0  0  0  0  0  0  0  0  0  0  0
   -4.5166   -5.5743    8.4123 C   0  0  0  0  0  0  0  0  0  0  0  0
   -3.2548   -5.4021    9.1631 C   0  0  0  0  0  0  0  0  0  0  0  0
   -2.4982   -4.1454    9.0456 C   0  0  0  0  0  0  0  0  0  0  0  0
   -2.3301   -6.5288    8.6387 C   0  0  0  0  0  0  0  0  0  0  0  0
 61 62  1  0  0  0
 62 59  1  0  0  0
 59 60  1  0  0  0
 59 46  1  0  0  0
 46 47  1  0  0  0
 47 48  1  0  0  0
 48 49  2  0  0  0
 48 51  1  0  0  0
 51 52  1  0  0  0
 52 53  1  0  0  0
 53 54  2  0  0  0
 54 55  1  0  0  0
 55 56  2  0  0  0
 56 57  1  0  0  0
 57 58  2  0  0  0
 46 39  1  0  0  0
 39 40  2  0  0  0
 39 41  1  0  0  0
 41 42  1  0  0  0
 42 43  1  0  0  0
 43 44  1  0  0  0
 44 45  1  0  0  0
 45 35  1  0  0  0
 35 36  2  0  0  0
 35 37  1  0  0  0
 37  1  1  0  0  0
  1 63  1  0  0  0
 63 64  1  0  0  0
 64 65  1  0  0  0
 64 66  1  0  0  0
  1  2  1  0  0  0
  2  3  2  0  0  0
  2  4  1  0  0  0
  4  6  1  0  0  0
  6 32  1  0  0  0
 32 33  1  0  0  0
  6  7  1  0  0  0
  7  8  2  0  0  0
  7  9  1  0  0  0
  9 11  1  0  0  0
 11 28  1  0  0  0
 28 29  1  0  0  0
 29 30  1  0  0  0
 29 31  1  0  0  0
 11 12  1  0  0  0
 12 13  2  0  0  0
 12 14  1  0  0  0
 14 16  1  0  0  0
 16 21  1  0  0  0
 21 22  1  0  0  0
 22 23  2  0  0  0
 23 24  1  0  0  0
 24 25  2  0  0  0
 25 26  1  0  0  0
 26 27  2  0  0  0
 16 17  1  0  0  0
 17 18  1  0  0  0
 17 19  2  0  0  0
 58 53  1  0  0  0
 45 41  1  0  0  0
 27 22  1  0  0  0
 47 50  1  0  0  0
 37 38  1  0  0  0
  4  5  1  0  0  0
 33 34  1  0  0  0
  9 10  1  0  0  0
 14 15  1  0  0  0
 18 20  1  0  0  0
M  END
> <minimizedAffinity>
-8.24711

> <CNNscore>
0.2963327467

> <CNNaffinity>
7.2836389542

> <CNN_VS>
2.1583807468

> <CNNaffinity_variance>
0.2982649803

$$$$
[H]OC(=O)[C@@]([H])(N([H])C(=O)[C@@]([H])(N([H])C(=O)[C@@]([H])(N([H])C(=O)[C@@]([H])(N([H])C(=O)[C@@]1([H])N(C(=O)[C@@]([H])(N([H])C(=O)OC([H])([H])c2c([H])c([H])c([H])c([H])c2[H])[C@@]([H])(C([H])([H])[H])C([H])([H])C([H])([H])[H])C([H])([H])C([H])([H])C1([H])[H])C([H])([H])C([H])(C([H])([H])[H])C([H])([H])[H])C([H])([H])O[H])C([H])([H])C([H])(C([H])([H])[H])C([H])([H])[H])C([H])([H])c1c([H])c([H])c([H])c([H])c1[H]


 66 68  0  0  0  0  0  0  0  0999 V2000
   -4.3726   -6.0229    6.8345 C   0  0  0  0  0  0  0  0  0  0  0  0
   -5.1034   -7.2692    6.7609 C   0  0  0  0  0  0  0  0  0  0  0  0
   -4.6003   -8.3551    6.4741 O   0  0  0  0  0  0  0  0  0  0  0  0
   -6.4795   -7.1079    7.0401 N   0  0  0  0  0  0  0  0  0  0  0  0
   -6.7679   -6.1019    7.3896 H   0  0  0  0  0  0  0  0  0  0  0  0
   -7.5991   -7.9948    7.0098 C   0  0  0  0  0  0  0  0  0  0  0  0
   -8.7965   -7.0243    7.2728 C   0  0  0  0  0  0  0  0  0  0  0  0
   -8.7805   -6.0799    6.5004 O   0  0  0  0  0  0  0  0  0  0  0  0
   -9.7577   -7.2405    8.2662 N   0  0  0  0  0  0  0  0  0  0  0  0
  -10.2831   -6.0004    7.8712 H   0  0  0  0  0  0  0  0  0  0  0  0
  -10.7227   -7.3842    9.2002 C   0  0  0  0  0  0  0  0  0  0  0  0
  -11.9819   -8.0456    8.6310 C   0  0  0  0  0  0  0  0  0  0  0  0
  -12.2718   -9.1642    9.0580 O   0  0  0  0  0  0  0  0  0  0  0  0
  -12.7215   -7.3429    7.6797 N   0  0  0  0  0  0  0  0  0  0  0  0
  -12.3592   -6.3455    7.4204 H   0  0  0  0  0  0  0  0  0  0  0  0
  -13.9027   -7.6933    6.9632 C   0  0  0  0  0  0  0  0  0  0  0  0
  -13.9261   -9.1105    6.6409 C   0  0  0  0  0  0  0  0  0  0  0  0
  -14.4885  -10.0631    7.5322 O   0  0  0  0  0  0  0  0  0  0  0  0
  -13.4697   -9.6203    5.5702 O   0  0  0  0  0  0  0  0  0  0  0  0
  -14.3710   -9.9223    8.5327 H   0  0  0  0  0  0  0  0  0  0  0  0
  -13.9246   -6.8261    5.7043 C   0  0  0  0  0  0  0  0  0  0  0  0
  -15.2561   -6.3469    5.3617 C   0  0  0  0  0  0  0  0  0  0  0  0
  -16.4597   -6.8182    5.7435 C   0  0  0  0  0  0  0  0  0  0  0  0
  -17.6530   -6.1912    5.3631 C   0  0  0  0  0  0  0  0  0  0  0  0
  -17.7074   -5.0582    4.5860 C   0  0  0  0  0  0  0  0  0  0  0  0
  -16.4383   -4.5727    4.1960 C   0  0  0  0  0  0  0  0  0  0  0  0
  -15.2953   -5.1866    4.5637 C   0  0  0  0  0  0  0  0  0  0  0  0
  -11.0490   -5.9926    9.7261 C   0  0  0  0  0  0  0  0  0  0  0  0
  -12.0046   -5.8617   10.8225 C   0  0  0  0  0  0  0  0  0  0  0  0
  -11.5884   -5.5675   12.1977 C   0  0  0  0  0  0  0  0  0  0  0  0
  -13.2312   -5.0257   10.4254 C   0  0  0  0  0  0  0  0  0  0  0  0
   -7.5717   -8.8556    8.3088 C   0  0  0  0  0  0  0  0  0  0  0  0
   -7.9555  -10.1367    7.9855 O   0  0  0  0  0  0  0  0  0  0  0  0
   -8.9249  -10.1069    7.7891 H   0  0  0  0  0  0  0  0  0  0  0  0
   -3.3094   -4.8120    5.0449 C   0  0  0  0  0  0  0  0  0  0  0  0
   -2.4302   -5.8076    5.3233 O   0  0  0  0  0  0  0  0  0  0  0  0
   -4.4407   -4.9543    5.8900 N   0  0  0  0  0  0  0  0  0  0  0  0
   -5.2309   -4.3226    5.8227 H   0  0  0  0  0  0  0  0  0  0  0  0
   -4.0190   -1.6022    3.9514 C   0  0  0  0  0  0  0  0  0  0  0  0
   -5.1189   -1.7303    4.5261 O   0  0  0  0  0  0  0  0  0  0  0  0
   -3.1533   -2.6768    3.6765 N   0  0  0  0  0  0  0  0  0  0  0  0
   -2.0961   -2.4741    2.5858 C   0  0  0  0  0  0  0  0  0  0  0  0
   -0.8756   -2.7543    3.3886 C   0  0  0  0  0  0  0  0  0  0  0  0
   -1.2717   -3.8240    4.3438 C   0  0  0  0  0  0  0  0  0  0  0  0
   -2.8492   -3.9621    4.0544 C   0  0  0  0  0  0  0  0  0  0  0  0
   -3.6423   -0.2010    3.5436 C   0  0  0  0  0  0  0  0  0  0  0  0
   -4.6137    0.5775    2.8706 N   0  0  0  0  0  0  0  0  0  0  0  0
   -4.7715    0.5424    1.4264 C   0  0  0  0  0  0  0  0  0  0  0  0
   -4.0758   -0.2609    0.8140 O   0  0  0  0  0  0  0  0  0  0  0  0
   -5.2575    1.2267    3.3690 H   0  0  0  0  0  0  0  0  0  0  0  0
   -5.6356    1.3378    0.7292 O   0  0  0  0  0  0  0  0  0  0  0  0
   -7.0166    1.2445    0.7964 C   0  0  0  0  0  0  0  0  0  0  0  0
   -7.7373    0.6283   -0.3137 C   0  0  0  0  0  0  0  0  0  0  0  0
   -7.1043   -0.0239   -1.3148 C   0  0  0  0  0  0  0  0  0  0  0  0
   -7.7568   -0.5721   -2.3694 C   0  0  0  0  0  0  0  0  0  0  0  0
   -9.1461   -0.4764   -2.4472 C   0  0  0  0  0  0  0  0  0  0  0  0
   -9.8069    0.1823   -1.4371 C   0  0  0  0  0  0  0  0  0  0  0  0
   -9.1345    0.7294   -0.3951 C   0  0  0  0  0  0  0  0  0  0  0  0
   -3.0757    0.5465    4.7073 C   0  0  0  0  0  0  0  0  0  0  0  0
   -1.6998    1.0683    4.5715 C   0  0  0  0  0  0  0  0  0  0  0  0
   -4.4186    1.3068    6.6502 C   0  0  0  0  0  0  0  0  0  0  0  0
   -4.0198    1.6015    5.1900 C   0  0  0  0  0  0  0  0  0  0  0  0
   -4.8153   -5.4384    8.2330 C   0  0  0  0  0  0  0  0  0  0  0  0
   -3.6867   -4.9621    9.0606 C   0  0  0  0  0  0  0  0  0  0  0  0
   -2.4619   -5.7711    9.1643 C   0  0  0  0  0  0  0  0  0  0  0  0
   -4.2695   -4.8516   10.4915 C   0  0  0  0  0  0  0  0  0  0  0  0
 61 62  1  0  0  0
 62 59  1  0  0  0
 59 60  1  0  0  0
 59 46  1  0  0  0
 46 47  1  0  0  0
 47 48  1  0  0  0
 48 49  2  0  0  0
 48 51  1  0  0  0
 51 52  1  0  0  0
 52 53  1  0  0  0
 53 54  2  0  0  0
 54 55  1  0  0  0
 55 56  2  0  0  0
 56 57  1  0  0  0
 57 58  2  0  0  0
 46 39  1  0  0  0
 39 40  2  0  0  0
 39 41  1  0  0  0
 41 42  1  0  0  0
 42 43  1  0  0  0
 43 44  1  0  0  0
 44 45  1  0  0  0
 45 35  1  0  0  0
 35 36  2  0  0  0
 35 37  1  0  0  0
 37  1  1  0  0  0
  1 63  1  0  0  0
 63 64  1  0  0  0
 64 65  1  0  0  0
 64 66  1  0  0  0
  1  2  1  0  0  0
  2  3  2  0  0  0
  2  4  1  0  0  0
  4  6  1  0  0  0
  6 32  1  0  0  0
 32 33  1  0  0  0
  6  7  1  0  0  0
  7  8  2  0  0  0
  7  9  1  0  0  0
  9 11  1  0  0  0
 11 28  1  0  0  0
 28 29  1  0  0  0
 29 30  1  0  0  0
 29 31  1  0  0  0
 11 12  1  0  0  0
 12 13  2  0  0  0
 12 14  1  0  0  0
 14 16  1  0  0  0
 16 21  1  0  0  0
 21 22  1  0  0  0
 22 23  2  0  0  0
 23 24  1  0  0  0
 24 25  2  0  0  0
 25 26  1  0  0  0
 26 27  2  0  0  0
 16 17  1  0  0  0
 17 18  1  0  0  0
 17 19  2  0  0  0
 58 53  1  0  0  0
 45 41  1  0  0  0
 27 22  1  0  0  0
 47 50  1  0  0  0
 37 38  1  0  0  0
  4  5  1  0  0  0
 33 34  1  0  0  0
  9 10  1  0  0  0
 14 15  1  0  0  0
 18 20  1  0  0  0
M  END
> <minimizedAffinity>
-8.29681

> <CNNscore>
0.2571192086

> <CNNaffinity>
7.3979949951

> <CNN_VS>
1.9021666050

> <CNNaffinity_variance>
0.2778543830

$$$$
[H]OC(=O)[C@@]([H])(N([H])C(=O)[C@@]([H])(N([H])C(=O)[C@@]([H])(N([H])C(=O)[C@@]([H])(N([H])C(=O)[C@@]1([H])N(C(=O)[C@@]([H])(N([H])C(=O)OC([H])([H])c2c([H])c([H])c([H])c([H])c2[H])[C@@]([H])(C([H])([H])[H])C([H])([H])C([H])([H])[H])C([H])([H])C([H])([H])C1([H])[H])C([H])([H])C([H])(C([H])([H])[H])C([H])([H])[H])C([H])([H])O[H])C([H])([H])C([H])(C([H])([H])[H])C([H])([H])[H])C([H])([H])c1c([H])c([H])c([H])c([H])c1[H]


 66 68  0  0  0  0  0  0  0  0999 V2000
   -5.7993   -6.8286    8.1998 C   0  0  0  0  0  0  0  0  0  0  0  0
   -4.9558   -5.7816    8.7340 C   0  0  0  0  0  0  0  0  0  0  0  0
   -4.9148   -5.4585    9.9207 O   0  0  0  0  0  0  0  0  0  0  0  0
   -4.1834   -5.1458    7.7357 N   0  0  0  0  0  0  0  0  0  0  0  0
   -4.2389   -5.6126    6.7375 H   0  0  0  0  0  0  0  0  0  0  0  0
   -3.2908   -4.0303    7.7453 C   0  0  0  0  0  0  0  0  0  0  0  0
   -3.3231   -3.5686    6.2517 C   0  0  0  0  0  0  0  0  0  0  0  0
   -2.8400   -4.4130    5.5154 O   0  0  0  0  0  0  0  0  0  0  0  0
   -3.8551   -2.3427    5.8371 N   0  0  0  0  0  0  0  0  0  0  0  0
   -3.4220   -2.7154    4.5551 H   0  0  0  0  0  0  0  0  0  0  0  0
   -4.3533   -1.1806    5.3624 C   0  0  0  0  0  0  0  0  0  0  0  0
   -4.0709   -1.0002    3.8675 C   0  0  0  0  0  0  0  0  0  0  0  0
   -4.6350   -0.0652    3.2973 O   0  0  0  0  0  0  0  0  0  0  0  0
   -3.1930   -1.8921    3.2514 N   0  0  0  0  0  0  0  0  0  0  0  0
   -2.7429   -2.6537    3.8922 H   0  0  0  0  0  0  0  0  0  0  0  0
   -2.7559   -1.9952    1.8987 C   0  0  0  0  0  0  0  0  0  0  0  0
   -2.6664   -3.3828    1.4752 C   0  0  0  0  0  0  0  0  0  0  0  0
   -3.3934   -3.8625    0.3529 O   0  0  0  0  0  0  0  0  0  0  0  0
   -1.9532   -4.2705    2.0390 O   0  0  0  0  0  0  0  0  0  0  0  0
   -4.3254   -3.4924    0.1824 H   0  0  0  0  0  0  0  0  0  0  0  0
   -1.4010   -1.2912    1.8216 C   0  0  0  0  0  0  0  0  0  0  0  0
   -1.4793    0.0400    1.2371 C   0  0  0  0  0  0  0  0  0  0  0  0
   -1.7223    1.2237    1.8341 C   0  0  0  0  0  0  0  0  0  0  0  0
   -1.7018    2.4288    1.1204 C   0  0  0  0  0  0  0  0  0  0  0  0
   -1.4326    2.5162   -0.2251 C   0  0  0  0  0  0  0  0  0  0  0  0
   -1.1759    1.2682   -0.8375 C   0  0  0  0  0  0  0  0  0  0  0  0
   -1.2029    0.1129   -0.1424 C   0  0  0  0  0  0  0  0  0  0  0  0
   -3.7075   -0.0560    6.1611 C   0  0  0  0  0  0  0  0  0  0  0  0
   -2.2537   -0.0347    6.2960 C   0  0  0  0  0  0  0  0  0  0  0  0
   -1.4063    0.8862    5.5312 C   0  0  0  0  0  0  0  0  0  0  0  0
   -1.8068   -0.1067    7.7644 C   0  0  0  0  0  0  0  0  0  0  0  0
   -1.8377   -4.5725    7.8990 C   0  0  0  0  0  0  0  0  0  0  0  0
   -1.8536   -5.9255    7.6500 O   0  0  0  0  0  0  0  0  0  0  0  0
   -2.3066   -6.3552    8.4177 H   0  0  0  0  0  0  0  0  0  0  0  0
   -7.8592   -8.0636    8.3753 C   0  0  0  0  0  0  0  0  0  0  0  0
   -6.9064   -8.9919    8.6442 O   0  0  0  0  0  0  0  0  0  0  0  0
   -7.2262   -6.8131    8.1524 N   0  0  0  0  0  0  0  0  0  0  0  0
   -7.7660   -5.9764    7.9611 H   0  0  0  0  0  0  0  0  0  0  0  0
  -11.0967   -6.8523    8.6067 C   0  0  0  0  0  0  0  0  0  0  0  0
  -10.5966   -5.8260    9.1098 O   0  0  0  0  0  0  0  0  0  0  0  0
  -10.3989   -8.0643    8.4528 N   0  0  0  0  0  0  0  0  0  0  0  0
  -11.2271   -9.3408    8.2711 C   0  0  0  0  0  0  0  0  0  0  0  0
  -10.6736   -9.7946    6.9671 C   0  0  0  0  0  0  0  0  0  0  0  0
   -9.2344   -9.4191    7.0001 C   0  0  0  0  0  0  0  0  0  0  0  0
   -9.1353   -8.5989    8.3816 C   0  0  0  0  0  0  0  0  0  0  0  0
  -12.5313   -6.7405    8.1584 C   0  0  0  0  0  0  0  0  0  0  0  0
  -13.0322   -7.7341    7.2842 N   0  0  0  0  0  0  0  0  0  0  0  0
  -13.7924   -7.4052    6.0901 C   0  0  0  0  0  0  0  0  0  0  0  0
  -13.9135   -6.2143    5.8229 O   0  0  0  0  0  0  0  0  0  0  0  0
  -12.8966   -8.7525    7.4542 H   0  0  0  0  0  0  0  0  0  0  0  0
  -14.3660   -8.3312    5.2662 O   0  0  0  0  0  0  0  0  0  0  0  0
  -14.9822   -8.0349    4.0608 C   0  0  0  0  0  0  0  0  0  0  0  0
  -16.2591   -7.3273    4.0760 C   0  0  0  0  0  0  0  0  0  0  0  0
  -17.4460   -7.9752    4.0703 C   0  0  0  0  0  0  0  0  0  0  0  0
  -18.6396   -7.3323    4.0503 C   0  0  0  0  0  0  0  0  0  0  0  0
  -18.6727   -5.9380    4.0388 C   0  0  0  0  0  0  0  0  0  0  0  0
  -17.4751   -5.2622    4.0458 C   0  0  0  0  0  0  0  0  0  0  0  0
  -16.2927   -5.9246    4.0587 C   0  0  0  0  0  0  0  0  0  0  0  0
  -13.4340   -6.5657    9.3369 C   0  0  0  0  0  0  0  0  0  0  0  0
  -13.5615   -7.7070   10.2669 C   0  0  0  0  0  0  0  0  0  0  0  0
  -12.7461   -5.6102   11.5209 C   0  0  0  0  0  0  0  0  0  0  0  0
  -13.1406   -5.2922   10.0645 C   0  0  0  0  0  0  0  0  0  0  0  0
   -5.2845   -6.9701    6.7138 C   0  0  0  0  0  0  0  0  0  0  0  0
   -4.8251   -8.3333    6.3728 C   0  0  0  0  0  0  0  0  0  0  0  0
   -3.4698   -8.5369    5.8370 C   0  0  0  0  0  0  0  0  0  0  0  0
   -5.8123   -8.8179    5.2818 C   0  0  0  0  0  0  0  0  0  0  0  0
 61 62  1  0  0  0
 62 59  1  0  0  0
 59 60  1  0  0  0
 59 46  1  0  0  0
 46 47  1  0  0  0
 47 48  1  0  0  0
 48 49  2  0  0  0
 48 51  1  0  0  0
 51 52  1  0  0  0
 52 53  1  0  0  0
 53 54  2  0  0  0
 54 55  1  0  0  0
 55 56  2  0  0  0
 56 57  1  0  0  0
 57 58  2  0  0  0
 46 39  1  0  0  0
 39 40  2  0  0  0
 39 41  1  0  0  0
 41 42  1  0  0  0
 42 43  1  0  0  0
 43 44  1  0  0  0
 44 45  1  0  0  0
 45 35  1  0  0  0
 35 36  2  0  0  0
 35 37  1  0  0  0
 37  1  1  0  0  0
  1 63  1  0  0  0
 63 64  1  0  0  0
 64 65  1  0  0  0
 64 66  1  0  0  0
  1  2  1  0  0  0
  2  3  2  0  0  0
  2  4  1  0  0  0
  4  6  1  0  0  0
  6 32  1  0  0  0
 32 33  1  0  0  0
  6  7  1  0  0  0
  7  8  2  0  0  0
  7  9  1  0  0  0
  9 11  1  0  0  0
 11 28  1  0  0  0
 28 29  1  0  0  0
 29 30  1  0  0  0
 29 31  1  0  0  0
 11 12  1  0  0  0
 12 13  2  0  0  0
 12 14  1  0  0  0
 14 16  1  0  0  0
 16 21  1  0  0  0
 21 22  1  0  0  0
 22 23  2  0  0  0
 23 24  1  0  0  0
 24 25  2  0  0  0
 25 26  1  0  0  0
 26 27  2  0  0  0
 16 17  1  0  0  0
 17 18  1  0  0  0
 17 19  2  0  0  0
 58 53  1  0  0  0
 45 41  1  0  0  0
 27 22  1  0  0  0
 47 50  1  0  0  0
 37 38  1  0  0  0
  4  5  1  0  0  0
 33 34  1  0  0  0
  9 10  1  0  0  0
 14 15  1  0  0  0
 18 20  1  0  0  0
M  END
> <minimizedAffinity>
-6.63860

> <CNNscore>
0.2165578008

> <CNNaffinity>
7.2227578163

> <CNN_VS>
1.5641444921

> <CNNaffinity_variance>
0.4640583098

$$$$
[H]OC(=O)[C@@]([H])(N([H])C(=O)[C@@]([H])(N([H])C(=O)[C@@]([H])(N([H])C(=O)[C@@]([H])(N([H])C(=O)[C@@]1([H])N(C(=O)[C@@]([H])(N([H])C(=O)OC([H])([H])c2c([H])c([H])c([H])c([H])c2[H])[C@@]([H])(C([H])([H])[H])C([H])([H])C([H])([H])[H])C([H])([H])C([H])([H])C1([H])[H])C([H])([H])C([H])(C([H])([H])[H])C([H])([H])[H])C([H])([H])O[H])C([H])([H])C([H])(C([H])([H])[H])C([H])([H])[H])C([H])([H])c1c([H])c([H])c([H])c([H])c1[H]


 66 68  0  0  0  0  0  0  0  0999 V2000
   -9.3685   -7.0765    7.6866 C   0  0  0  0  0  0  0  0  0  0  0  0
   -8.3491   -6.4239    6.8941 C   0  0  0  0  0  0  0  0  0  0  0  0
   -8.5492   -5.8976    5.7998 O   0  0  0  0  0  0  0  0  0  0  0  0
   -7.0761   -6.4677    7.5063 N   0  0  0  0  0  0  0  0  0  0  0  0
   -7.0678   -6.8713    8.5332 H   0  0  0  0  0  0  0  0  0  0  0  0
   -5.7723   -6.0539    7.0937 C   0  0  0  0  0  0  0  0  0  0  0  0
   -5.1278   -7.4023    6.6341 C   0  0  0  0  0  0  0  0  0  0  0  0
   -5.9569   -8.1412    6.1289 O   0  0  0  0  0  0  0  0  0  0  0  0
   -3.7678   -7.6950    6.7837 N   0  0  0  0  0  0  0  0  0  0  0  0
   -4.0955   -8.9546    6.2583 H   0  0  0  0  0  0  0  0  0  0  0  0
   -2.4681   -8.0460    6.8912 C   0  0  0  0  0  0  0  0  0  0  0  0
   -1.5275   -6.8919    6.5302 C   0  0  0  0  0  0  0  0  0  0  0  0
   -0.3248   -7.0608    6.7368 O   0  0  0  0  0  0  0  0  0  0  0  0
   -2.0846   -5.7348    5.9858 N   0  0  0  0  0  0  0  0  0  0  0  0
   -3.1658   -5.7410    5.8305 H   0  0  0  0  0  0  0  0  0  0  0  0
   -1.4859   -4.5077    5.5768 C   0  0  0  0  0  0  0  0  0  0  0  0
   -0.9378   -3.7818    6.7107 C   0  0  0  0  0  0  0  0  0  0  0  0
    0.3943   -3.9986    7.1544 O   0  0  0  0  0  0  0  0  0  0  0  0
   -1.5666   -2.9108    7.3892 O   0  0  0  0  0  0  0  0  0  0  0  0
    0.7744   -4.9411    7.1111 H   0  0  0  0  0  0  0  0  0  0  0  0
   -2.5748   -3.7054    4.8640 C   0  0  0  0  0  0  0  0  0  0  0  0
   -2.4793   -3.7733    3.4128 C   0  0  0  0  0  0  0  0  0  0  0  0
   -1.7475   -4.6014    2.6412 C   0  0  0  0  0  0  0  0  0  0  0  0
   -1.8225   -4.5669    1.2429 C   0  0  0  0  0  0  0  0  0  0  0  0
   -2.6355   -3.7080    0.5417 C   0  0  0  0  0  0  0  0  0  0  0  0
   -3.3999   -2.8481    1.3632 C   0  0  0  0  0  0  0  0  0  0  0  0
   -3.3168   -2.8860    2.7086 C   0  0  0  0  0  0  0  0  0  0  0  0
   -2.2424   -9.2243    5.9529 C   0  0  0  0  0  0  0  0  0  0  0  0
   -1.3050  -10.2707    6.3514 C   0  0  0  0  0  0  0  0  0  0  0  0
   -1.2108  -10.7583    7.7314 C   0  0  0  0  0  0  0  0  0  0  0  0
   -1.2776  -11.4361    5.3503 C   0  0  0  0  0  0  0  0  0  0  0  0
   -4.9478   -5.7040    8.3692 C   0  0  0  0  0  0  0  0  0  0  0  0
   -4.0380   -4.7260    8.0399 O   0  0  0  0  0  0  0  0  0  0  0  0
   -3.3495   -5.1517    7.4708 H   0  0  0  0  0  0  0  0  0  0  0  0
  -11.7088   -7.4711    8.0947 C   0  0  0  0  0  0  0  0  0  0  0  0
  -11.2921   -6.8327    9.2174 O   0  0  0  0  0  0  0  0  0  0  0  0
  -10.6121   -7.5823    7.2008 N   0  0  0  0  0  0  0  0  0  0  0  0
  -10.7193   -8.0068    6.2862 H   0  0  0  0  0  0  0  0  0  0  0  0
  -14.5818   -6.8096    6.2752 C   0  0  0  0  0  0  0  0  0  0  0  0
  -13.9864   -5.8014    5.8442 O   0  0  0  0  0  0  0  0  0  0  0  0
  -14.1474   -7.5556    7.3862 N   0  0  0  0  0  0  0  0  0  0  0  0
  -15.1768   -8.4496    8.0859 C   0  0  0  0  0  0  0  0  0  0  0  0
  -14.4768   -9.7559    7.9583 C   0  0  0  0  0  0  0  0  0  0  0  0
  -13.0294   -9.4398    8.0944 C   0  0  0  0  0  0  0  0  0  0  0  0
  -13.0435   -7.8314    8.1562 C   0  0  0  0  0  0  0  0  0  0  0  0
  -15.8328   -7.2085    5.5355 C   0  0  0  0  0  0  0  0  0  0  0  0
  -16.9217   -7.7025    6.2923 N   0  0  0  0  0  0  0  0  0  0  0  0
  -17.9051   -8.6146    5.7328 C   0  0  0  0  0  0  0  0  0  0  0  0
  -17.7051   -9.0087    4.5888 O   0  0  0  0  0  0  0  0  0  0  0  0
  -17.0862   -7.4305    7.2839 H   0  0  0  0  0  0  0  0  0  0  0  0
  -19.0159   -9.0483    6.3988 O   0  0  0  0  0  0  0  0  0  0  0  0
  -20.2100   -9.3984    5.7890 C   0  0  0  0  0  0  0  0  0  0  0  0
  -21.0326  -10.4414    6.3945 C   0  0  0  0  0  0  0  0  0  0  0  0
  -20.7062  -11.0319    7.5663 C   0  0  0  0  0  0  0  0  0  0  0  0
  -21.4417  -12.0250    8.1244 C   0  0  0  0  0  0  0  0  0  0  0  0
  -22.5955  -12.4740    7.4822 C   0  0  0  0  0  0  0  0  0  0  0  0
  -22.9437  -11.8840    6.2899 C   0  0  0  0  0  0  0  0  0  0  0  0
  -22.1904  -10.8973    5.7458 C   0  0  0  0  0  0  0  0  0  0  0  0
  -16.2742   -6.1080    4.6255 C   0  0  0  0  0  0  0  0  0  0  0  0
  -16.5644   -6.4661    3.2214 C   0  0  0  0  0  0  0  0  0  0  0  0
  -18.5655   -5.2367    4.2418 C   0  0  0  0  0  0  0  0  0  0  0  0
  -17.3857   -5.3116    5.2319 C   0  0  0  0  0  0  0  0  0  0  0  0
   -8.5898   -8.2908    8.3290 C   0  0  0  0  0  0  0  0  0  0  0  0
   -8.4546   -9.4530    7.4254 C   0  0  0  0  0  0  0  0  0  0  0  0
   -9.6435  -10.2400    7.0614 C   0  0  0  0  0  0  0  0  0  0  0  0
   -7.4935  -10.4156    8.1665 C   0  0  0  0  0  0  0  0  0  0  0  0
 61 62  1  0  0  0
 62 59  1  0  0  0
 59 60  1  0  0  0
 59 46  1  0  0  0
 46 47  1  0  0  0
 47 48  1  0  0  0
 48 49  2  0  0  0
 48 51  1  0  0  0
 51 52  1  0  0  0
 52 53  1  0  0  0
 53 54  2  0  0  0
 54 55  1  0  0  0
 55 56  2  0  0  0
 56 57  1  0  0  0
 57 58  2  0  0  0
 46 39  1  0  0  0
 39 40  2  0  0  0
 39 41  1  0  0  0
 41 42  1  0  0  0
 42 43  1  0  0  0
 43 44  1  0  0  0
 44 45  1  0  0  0
 45 35  1  0  0  0
 35 36  2  0  0  0
 35 37  1  0  0  0
 37  1  1  0  0  0
  1 63  1  0  0  0
 63 64  1  0  0  0
 64 65  1  0  0  0
 64 66  1  0  0  0
  1  2  1  0  0  0
  2  3  2  0  0  0
  2  4  1  0  0  0
  4  6  1  0  0  0
  6 32  1  0  0  0
 32 33  1  0  0  0
  6  7  1  0  0  0
  7  8  2  0  0  0
  7  9  1  0  0  0
  9 11  1  0  0  0
 11 28  1  0  0  0
 28 29  1  0  0  0
 29 30  1  0  0  0
 29 31  1  0  0  0
 11 12  1  0  0  0
 12 13  2  0  0  0
 12 14  1  0  0  0
 14 16  1  0  0  0
 16 21  1  0  0  0
 21 22  1  0  0  0
 22 23  2  0  0  0
 23 24  1  0  0  0
 24 25  2  0  0  0
 25 26  1  0  0  0
 26 27  2  0  0  0
 16 17  1  0  0  0
 17 18  1  0  0  0
 17 19  2  0  0  0
 58 53  1  0  0  0
 45 41  1  0  0  0
 27 22  1  0  0  0
 47 50  1  0  0  0
 37 38  1  0  0  0
  4  5  1  0  0  0
 33 34  1  0  0  0
  9 10  1  0  0  0
 14 15  1  0  0  0
 18 20  1  0  0  0
M  END
> <minimizedAffinity>
-7.06337

> <CNNscore>
0.1967055202

> <CNNaffinity>
7.2121133804

> <CNN_VS>
1.4186625481

> <CNNaffinity_variance>
0.1190146357

$$$$
[H]OC(=O)[C@@]([H])(N([H])C(=O)[C@@]([H])(N([H])C(=O)[C@@]([H])(N([H])C(=O)[C@@]([H])(N([H])C(=O)[C@@]1([H])N(C(=O)[C@@]([H])(N([H])C(=O)OC([H])([H])c2c([H])c([H])c([H])c([H])c2[H])[C@@]([H])(C([H])([H])[H])C([H])([H])C([H])([H])[H])C([H])([H])C([H])([H])C1([H])[H])C([H])([H])C([H])(C([H])([H])[H])C([H])([H])[H])C([H])([H])O[H])C([H])([H])C([H])(C([H])([H])[H])C([H])([H])[H])C([H])([H])c1c([H])c([H])c([H])c([H])c1[H]


 66 68  0  0  0  0  0  0  0  0999 V2000
   -5.5000   -6.9534    8.0255 C   0  0  0  0  0  0  0  0  0  0  0  0
   -4.2995   -6.6906    8.7889 C   0  0  0  0  0  0  0  0  0  0  0  0
   -4.2440   -5.9387    9.7616 O   0  0  0  0  0  0  0  0  0  0  0  0
   -3.1749   -7.3831    8.2858 N   0  0  0  0  0  0  0  0  0  0  0  0
   -3.3955   -8.1052    7.4813 H   0  0  0  0  0  0  0  0  0  0  0  0
   -1.7878   -7.3852    8.6281 C   0  0  0  0  0  0  0  0  0  0  0  0
   -1.2328   -6.2056    7.7649 C   0  0  0  0  0  0  0  0  0  0  0  0
   -0.6503   -6.6159    6.7745 O   0  0  0  0  0  0  0  0  0  0  0  0
   -1.4061   -4.8586    8.1013 N   0  0  0  0  0  0  0  0  0  0  0  0
   -0.6128   -4.5907    6.9748 H   0  0  0  0  0  0  0  0  0  0  0  0
   -1.5365   -3.5392    8.3590 C   0  0  0  0  0  0  0  0  0  0  0  0
   -1.4434   -3.2325    9.8570 C   0  0  0  0  0  0  0  0  0  0  0  0
   -0.3782   -2.7733   10.2720 O   0  0  0  0  0  0  0  0  0  0  0  0
   -2.5634   -3.4810   10.6504 N   0  0  0  0  0  0  0  0  0  0  0  0
   -3.4498   -3.8602   10.1369 H   0  0  0  0  0  0  0  0  0  0  0  0
   -2.7752   -3.3227   12.0509 C   0  0  0  0  0  0  0  0  0  0  0  0
   -2.4208   -1.9838   12.4923 C   0  0  0  0  0  0  0  0  0  0  0  0
   -3.1397   -0.8428   12.0459 O   0  0  0  0  0  0  0  0  0  0  0  0
   -1.4742   -1.7094   13.2943 O   0  0  0  0  0  0  0  0  0  0  0  0
   -3.4839   -0.8281   11.0888 H   0  0  0  0  0  0  0  0  0  0  0  0
   -1.9288   -4.3901   12.7451 C   0  0  0  0  0  0  0  0  0  0  0  0
   -2.6908   -5.2088   13.6773 C   0  0  0  0  0  0  0  0  0  0  0  0
   -3.7068   -6.0607   13.4351 C   0  0  0  0  0  0  0  0  0  0  0  0
   -4.2922   -6.8212   14.4554 C   0  0  0  0  0  0  0  0  0  0  0  0
   -3.8908   -6.7751   15.7696 C   0  0  0  0  0  0  0  0  0  0  0  0
   -2.8224   -5.8808   16.0086 C   0  0  0  0  0  0  0  0  0  0  0  0
   -2.2689   -5.1495   15.0200 C   0  0  0  0  0  0  0  0  0  0  0  0
   -2.8919   -3.1075    7.8149 C   0  0  0  0  0  0  0  0  0  0  0  0
   -3.0526   -1.7380    7.3342 C   0  0  0  0  0  0  0  0  0  0  0  0
   -3.6062   -0.6700    8.1731 C   0  0  0  0  0  0  0  0  0  0  0  0
   -1.8207   -1.2482    6.5572 C   0  0  0  0  0  0  0  0  0  0  0  0
   -1.1257   -8.6298    7.9634 C   0  0  0  0  0  0  0  0  0  0  0  0
    0.1299   -8.7899    8.5026 O   0  0  0  0  0  0  0  0  0  0  0  0
    0.6916   -8.0556    8.1497 H   0  0  0  0  0  0  0  0  0  0  0  0
   -7.5476   -8.2196    7.9694 C   0  0  0  0  0  0  0  0  0  0  0  0
   -6.7726   -8.8240    7.0335 O   0  0  0  0  0  0  0  0  0  0  0  0
   -6.8055   -7.1655    8.5631 N   0  0  0  0  0  0  0  0  0  0  0  0
   -7.1964   -6.6022    9.3101 H   0  0  0  0  0  0  0  0  0  0  0  0
  -10.7927   -7.0816    8.3890 C   0  0  0  0  0  0  0  0  0  0  0  0
  -10.2874   -6.0400    8.8543 O   0  0  0  0  0  0  0  0  0  0  0  0
  -10.0772   -8.2783    8.2010 N   0  0  0  0  0  0  0  0  0  0  0  0
  -10.8847   -9.5750    8.0781 C   0  0  0  0  0  0  0  0  0  0  0  0
  -10.4007  -10.0262    6.7459 C   0  0  0  0  0  0  0  0  0  0  0  0
   -8.9713   -9.6173    6.6890 C   0  0  0  0  0  0  0  0  0  0  0  0
   -8.8080   -8.7842    8.0566 C   0  0  0  0  0  0  0  0  0  0  0  0
  -12.2540   -7.0064    8.0280 C   0  0  0  0  0  0  0  0  0  0  0  0
  -12.7405   -7.8983    7.0429 N   0  0  0  0  0  0  0  0  0  0  0  0
  -13.8145   -7.5381    6.1326 C   0  0  0  0  0  0  0  0  0  0  0  0
  -14.2319   -6.3867    6.1987 O   0  0  0  0  0  0  0  0  0  0  0  0
  -12.3670   -8.8632    6.9247 H   0  0  0  0  0  0  0  0  0  0  0  0
  -14.3714   -8.3942    5.2257 O   0  0  0  0  0  0  0  0  0  0  0  0
  -14.9415   -8.0033    4.0246 C   0  0  0  0  0  0  0  0  0  0  0  0
  -16.2014   -7.2661    4.0481 C   0  0  0  0  0  0  0  0  0  0  0  0
  -17.4031   -7.8862    4.0463 C   0  0  0  0  0  0  0  0  0  0  0  0
  -18.5815   -7.2155    4.0340 C   0  0  0  0  0  0  0  0  0  0  0  0
  -18.5821   -5.8207    4.0269 C   0  0  0  0  0  0  0  0  0  0  0  0
  -17.3690   -5.1731    4.0300 C   0  0  0  0  0  0  0  0  0  0  0  0
  -16.2023   -5.8630    4.0352 C   0  0  0  0  0  0  0  0  0  0  0  0
  -13.0992   -7.0629    9.2595 C   0  0  0  0  0  0  0  0  0  0  0  0
  -12.6217   -7.9132   10.3698 C   0  0  0  0  0  0  0  0  0  0  0  0
  -12.6743   -5.3623   11.0155 C   0  0  0  0  0  0  0  0  0  0  0  0
  -13.4651   -5.6921    9.7334 C   0  0  0  0  0  0  0  0  0  0  0  0
   -5.5877   -5.7014    7.0673 C   0  0  0  0  0  0  0  0  0  0  0  0
   -5.1570   -5.9840    5.6816 C   0  0  0  0  0  0  0  0  0  0  0  0
   -4.4159   -4.9642    4.9225 C   0  0  0  0  0  0  0  0  0  0  0  0
   -6.4732   -6.2454    4.9079 C   0  0  0  0  0  0  0  0  0  0  0  0
 61 62  1  0  0  0
 62 59  1  0  0  0
 59 60  1  0  0  0
 59 46  1  0  0  0
 46 47  1  0  0  0
 47 48  1  0  0  0
 48 49  2  0  0  0
 48 51  1  0  0  0
 51 52  1  0  0  0
 52 53  1  0  0  0
 53 54  2  0  0  0
 54 55  1  0  0  0
 55 56  2  0  0  0
 56 57  1  0  0  0
 57 58  2  0  0  0
 46 39  1  0  0  0
 39 40  2  0  0  0
 39 41  1  0  0  0
 41 42  1  0  0  0
 42 43  1  0  0  0
 43 44  1  0  0  0
 44 45  1  0  0  0
 45 35  1  0  0  0
 35 36  2  0  0  0
 35 37  1  0  0  0
 37  1  1  0  0  0
  1 63  1  0  0  0
 63 64  1  0  0  0
 64 65  1  0  0  0
 64 66  1  0  0  0
  1  2  1  0  0  0
  2  3  2  0  0  0
  2  4  1  0  0  0
  4  6  1  0  0  0
  6 32  1  0  0  0
 32 33  1  0  0  0
  6  7  1  0  0  0
  7  8  2  0  0  0
  7  9  1  0  0  0
  9 11  1  0  0  0
 11 28  1  0  0  0
 28 29  1  0  0  0
 29 30  1  0  0  0
 29 31  1  0  0  0
 11 12  1  0  0  0
 12 13  2  0  0  0
 12 14  1  0  0  0
 14 16  1  0  0  0
 16 21  1  0  0  0
 21 22  1  0  0  0
 22 23  2  0  0  0
 23 24  1  0  0  0
 24 25  2  0  0  0
 25 26  1  0  0  0
 26 27  2  0  0  0
 16 17  1  0  0  0
 17 18  1  0  0  0
 17 19  2  0  0  0
 58 53  1  0  0  0
 45 41  1  0  0  0
 27 22  1  0  0  0
 47 50  1  0  0  0
 37 38  1  0  0  0
  4  5  1  0  0  0
 33 34  1  0  0  0
  9 10  1  0  0  0
 14 15  1  0  0  0
 18 20  1  0  0  0
M  END
> <minimizedAffinity>
-6.44197

> <CNNscore>
0.1687842160

> <CNNaffinity>
7.5367517471

> <CNN_VS>
1.2720847130

> <CNNaffinity_variance>
0.1668218672

$$$$
[H]OC(=O)[C@@]([H])(N([H])C(=O)[C@@]([H])(N([H])C(=O)[C@@]([H])(N([H])C(=O)[C@@]([H])(N([H])C(=O)[C@@]1([H])N(C(=O)[C@@]([H])(N([H])C(=O)OC([H])([H])c2c([H])c([H])c([H])c([H])c2[H])[C@@]([H])(C([H])([H])[H])C([H])([H])C([H])([H])[H])C([H])([H])C([H])([H])C1([H])[H])C([H])([H])C([H])(C([H])([H])[H])C([H])([H])[H])C([H])([H])O[H])C([H])([H])C([H])(C([H])([H])[H])C([H])([H])[H])C([H])([H])c1c([H])c([H])c([H])c([H])c1[H]


 66 68  0  0  0  0  0  0  0  0999 V2000
   -6.0194   -7.0995    7.9824 C   0  0  0  0  0  0  0  0  0  0  0  0
   -5.1050   -6.0683    8.4221 C   0  0  0  0  0  0  0  0  0  0  0  0
   -4.9022   -5.7738    9.5997 O   0  0  0  0  0  0  0  0  0  0  0  0
   -4.4703   -5.4111    7.3438 N   0  0  0  0  0  0  0  0  0  0  0  0
   -4.6629   -5.8537    6.3516 H   0  0  0  0  0  0  0  0  0  0  0  0
   -3.5776   -4.2989    7.2588 C   0  0  0  0  0  0  0  0  0  0  0  0
   -3.4837   -4.0679    5.7152 C   0  0  0  0  0  0  0  0  0  0  0  0
   -4.4686   -4.5018    5.1406 O   0  0  0  0  0  0  0  0  0  0  0  0
   -2.4019   -3.4308    5.0975 N   0  0  0  0  0  0  0  0  0  0  0  0
   -3.0589   -3.7274    3.8931 H   0  0  0  0  0  0  0  0  0  0  0  0
   -1.3956   -2.8233    4.4323 C   0  0  0  0  0  0  0  0  0  0  0  0
   -1.9027   -1.7057    3.5154 C   0  0  0  0  0  0  0  0  0  0  0  0
   -1.0633   -1.1070    2.8411 O   0  0  0  0  0  0  0  0  0  0  0  0
   -3.2725   -1.4432    3.4936 N   0  0  0  0  0  0  0  0  0  0  0  0
   -3.9003   -2.0778    4.1231 H   0  0  0  0  0  0  0  0  0  0  0  0
   -4.0307   -0.4728    2.7760 C   0  0  0  0  0  0  0  0  0  0  0  0
   -4.2920   -0.9063    1.4135 C   0  0  0  0  0  0  0  0  0  0  0  0
   -5.3474   -0.3432    0.6472 O   0  0  0  0  0  0  0  0  0  0  0  0
   -3.6267   -1.7929    0.7923 O   0  0  0  0  0  0  0  0  0  0  0  0
   -6.2135   -0.0954    1.1196 H   0  0  0  0  0  0  0  0  0  0  0  0
   -3.2252    0.8262    2.8120 C   0  0  0  0  0  0  0  0  0  0  0  0
   -3.9397    1.9262    3.4440 C   0  0  0  0  0  0  0  0  0  0  0  0
   -4.5214    3.0041    2.8816 C   0  0  0  0  0  0  0  0  0  0  0  0
   -5.2264    3.9447    3.6434 C   0  0  0  0  0  0  0  0  0  0  0  0
   -5.3920    3.8560    5.0054 C   0  0  0  0  0  0  0  0  0  0  0  0
   -4.7803    2.7192    5.5815 C   0  0  0  0  0  0  0  0  0  0  0  0
   -4.0996    1.8219    4.8398 C   0  0  0  0  0  0  0  0  0  0  0  0
   -0.6862   -3.8953    3.6154 C   0  0  0  0  0  0  0  0  0  0  0  0
   -1.4870   -4.7942    2.7890 C   0  0  0  0  0  0  0  0  0  0  0  0
   -1.6193   -4.6206    1.3387 C   0  0  0  0  0  0  0  0  0  0  0  0
   -1.2600   -6.2703    3.1506 C   0  0  0  0  0  0  0  0  0  0  0  0
   -2.1443   -4.7987    7.6125 C   0  0  0  0  0  0  0  0  0  0  0  0
   -1.9858   -4.7238    8.9771 O   0  0  0  0  0  0  0  0  0  0  0  0
   -1.9225   -3.7637    9.2083 H   0  0  0  0  0  0  0  0  0  0  0  0
   -8.1098   -8.2625    8.2602 C   0  0  0  0  0  0  0  0  0  0  0  0
   -7.1780   -9.2318    8.4450 O   0  0  0  0  0  0  0  0  0  0  0  0
   -7.4448   -7.0305    8.0271 N   0  0  0  0  0  0  0  0  0  0  0  0
   -7.9633   -6.1699    7.8909 H   0  0  0  0  0  0  0  0  0  0  0  0
  -11.2893   -6.9288    8.5975 C   0  0  0  0  0  0  0  0  0  0  0  0
  -10.7319   -5.9090    9.0510 O   0  0  0  0  0  0  0  0  0  0  0  0
  -10.6420   -8.1690    8.4465 N   0  0  0  0  0  0  0  0  0  0  0  0
  -11.5219   -9.4187    8.3347 C   0  0  0  0  0  0  0  0  0  0  0  0
  -11.0424   -9.9252    7.0209 C   0  0  0  0  0  0  0  0  0  0  0  0
   -9.5908   -9.6015    6.9821 C   0  0  0  0  0  0  0  0  0  0  0  0
   -9.4024   -8.7508    8.3355 C   0  0  0  0  0  0  0  0  0  0  0  0
  -12.7373   -6.7764    8.2083 C   0  0  0  0  0  0  0  0  0  0  0  0
  -13.2984   -7.7486    7.3466 N   0  0  0  0  0  0  0  0  0  0  0  0
  -13.8329   -7.4100    6.0384 C   0  0  0  0  0  0  0  0  0  0  0  0
  -13.7020   -6.2468    5.6723 O   0  0  0  0  0  0  0  0  0  0  0  0
  -13.3718   -8.7544    7.6063 H   0  0  0  0  0  0  0  0  0  0  0  0
  -14.4588   -8.2988    5.2115 O   0  0  0  0  0  0  0  0  0  0  0  0
  -15.0788   -7.9596    4.0195 C   0  0  0  0  0  0  0  0  0  0  0  0
  -16.3074   -7.1721    4.0620 C   0  0  0  0  0  0  0  0  0  0  0  0
  -17.5331   -7.7431    4.0767 C   0  0  0  0  0  0  0  0  0  0  0  0
  -18.6835   -7.0253    4.0822 C   0  0  0  0  0  0  0  0  0  0  0  0
  -18.6277   -5.6317    4.0768 C   0  0  0  0  0  0  0  0  0  0  0  0
  -17.3895   -5.0336    4.0633 C   0  0  0  0  0  0  0  0  0  0  0  0
  -16.2517   -5.7701    4.0508 C   0  0  0  0  0  0  0  0  0  0  0  0
  -13.5873   -6.5898    9.4236 C   0  0  0  0  0  0  0  0  0  0  0  0
  -13.6178   -7.6947   10.4044 C   0  0  0  0  0  0  0  0  0  0  0  0
  -12.7188   -5.5156   11.4846 C   0  0  0  0  0  0  0  0  0  0  0  0
  -13.3150   -5.2751   10.0830 C   0  0  0  0  0  0  0  0  0  0  0  0
   -5.6095   -7.3115    6.4723 C   0  0  0  0  0  0  0  0  0  0  0  0
   -6.7241   -7.7652    5.6135 C   0  0  0  0  0  0  0  0  0  0  0  0
   -6.5230   -8.8895    4.6857 C   0  0  0  0  0  0  0  0  0  0  0  0
   -7.0783   -6.5311    4.7470 C   0  0  0  0  0  0  0  0  0  0  0  0
 61 62  1  0  0  0
 62 59  1  0  0  0
 59 60  1  0  0  0
 59 46  1  0  0  0
 46 47  1  0  0  0
 47 48  1  0  0  0
 48 49  2  0  0  0
 48 51  1  0  0  0
 51 52  1  0  0  0
 52 53  1  0  0  0
 53 54  2  0  0  0
 54 55  1  0  0  0
 55 56  2  0  0  0
 56 57  1  0  0  0
 57 58  2  0  0  0
 46 39  1  0  0  0
 39 40  2  0  0  0
 39 41  1  0  0  0
 41 42  1  0  0  0
 42 43  1  0  0  0
 43 44  1  0  0  0
 44 45  1  0  0  0
 45 35  1  0  0  0
 35 36  2  0  0  0
 35 37  1  0  0  0
 37  1  1  0  0  0
  1 63  1  0  0  0
 63 64  1  0  0  0
 64 65  1  0  0  0
 64 66  1  0  0  0
  1  2  1  0  0  0
  2  3  2  0  0  0
  2  4  1  0  0  0
  4  6  1  0  0  0
  6 32  1  0  0  0
 32 33  1  0  0  0
  6  7  1  0  0  0
  7  8  2  0  0  0
  7  9  1  0  0  0
  9 11  1  0  0  0
 11 28  1  0  0  0
 28 29  1  0  0  0
 29 30  1  0  0  0
 29 31  1  0  0  0
 11 12  1  0  0  0
 12 13  2  0  0  0
 12 14  1  0  0  0
 14 16  1  0  0  0
 16 21  1  0  0  0
 21 22  1  0  0  0
 22 23  2  0  0  0
 23 24  1  0  0  0
 24 25  2  0  0  0
 25 26  1  0  0  0
 26 27  2  0  0  0
 16 17  1  0  0  0
 17 18  1  0  0  0
 17 19  2  0  0  0
 58 53  1  0  0  0
 45 41  1  0  0  0
 27 22  1  0  0  0
 47 50  1  0  0  0
 37 38  1  0  0  0
  4  5  1  0  0  0
 33 34  1  0  0  0
  9 10  1  0  0  0
 14 15  1  0  0  0
 18 20  1  0  0  0
M  END
> <minimizedAffinity>
-7.73072

> <CNNscore>
0.1637000293

> <CNNaffinity>
7.2287406921

> <CNN_VS>
1.1833450794

> <CNNaffinity_variance>
0.0510310233

$$$$
[H]OC(=O)[C@@]([H])(N([H])C(=O)[C@@]([H])(N([H])C(=O)[C@@]([H])(N([H])C(=O)[C@@]([H])(N([H])C(=O)[C@@]1([H])N(C(=O)[C@@]([H])(N([H])C(=O)OC([H])([H])c2c([H])c([H])c([H])c([H])c2[H])[C@@]([H])(C([H])([H])[H])C([H])([H])C([H])([H])[H])C([H])([H])C([H])([H])C1([H])[H])C([H])([H])C([H])(C([H])([H])[H])C([H])([H])[H])C([H])([H])O[H])C([H])([H])C([H])(C([H])([H])[H])C([H])([H])[H])C([H])([H])c1c([H])c([H])c([H])c([H])c1[H]


 66 68  0  0  0  0  0  0  0  0999 V2000
   -5.2085   -7.2882    7.5364 C   0  0  0  0  0  0  0  0  0  0  0  0
   -4.7844   -5.9422    7.8548 C   0  0  0  0  0  0  0  0  0  0  0  0
   -4.8576   -5.4360    8.9742 O   0  0  0  0  0  0  0  0  0  0  0  0
   -4.2850   -5.2505    6.7280 N   0  0  0  0  0  0  0  0  0  0  0  0
   -4.1750   -5.8638    5.8174 H   0  0  0  0  0  0  0  0  0  0  0  0
   -3.8398   -3.9097    6.5156 C   0  0  0  0  0  0  0  0  0  0  0  0
   -3.4699   -3.9212    4.9965 C   0  0  0  0  0  0  0  0  0  0  0  0
   -3.2243   -5.0514    4.6078 O   0  0  0  0  0  0  0  0  0  0  0  0
   -3.4430   -2.7693    4.2028 N   0  0  0  0  0  0  0  0  0  0  0  0
   -2.9857   -3.6179    3.1826 H   0  0  0  0  0  0  0  0  0  0  0  0
   -3.3993   -1.7030    3.3749 C   0  0  0  0  0  0  0  0  0  0  0  0
   -4.1590   -0.5003    3.9434 C   0  0  0  0  0  0  0  0  0  0  0  0
   -5.0927   -0.7367    4.7115 O   0  0  0  0  0  0  0  0  0  0  0  0
   -3.7447    0.7774    3.5671 N   0  0  0  0  0  0  0  0  0  0  0  0
   -2.8797    0.8330    2.9023 H   0  0  0  0  0  0  0  0  0  0  0  0
   -4.2532    2.0657    3.9031 C   0  0  0  0  0  0  0  0  0  0  0  0
   -4.8350    2.7242    2.7452 C   0  0  0  0  0  0  0  0  0  0  0  0
   -6.0711    3.4188    2.8322 O   0  0  0  0  0  0  0  0  0  0  0  0
   -4.3154    2.7497    1.5859 O   0  0  0  0  0  0  0  0  0  0  0  0
   -6.7978    3.0452    3.4380 H   0  0  0  0  0  0  0  0  0  0  0  0
   -3.0818    2.8624    4.4782 C   0  0  0  0  0  0  0  0  0  0  0  0
   -3.2161    3.1311    5.9029 C   0  0  0  0  0  0  0  0  0  0  0  0
   -3.1718    4.3072    6.5597 C   0  0  0  0  0  0  0  0  0  0  0  0
   -3.3824    4.3896    7.9421 C   0  0  0  0  0  0  0  0  0  0  0  0
   -3.6534    3.3033    8.7402 C   0  0  0  0  0  0  0  0  0  0  0  0
   -3.7007    2.0773    8.0380 C   0  0  0  0  0  0  0  0  0  0  0  0
   -3.4917    2.0082    6.7076 C   0  0  0  0  0  0  0  0  0  0  0  0
   -4.0136   -2.1377    2.0507 C   0  0  0  0  0  0  0  0  0  0  0  0
   -3.1347   -2.6473    1.0018 C   0  0  0  0  0  0  0  0  0  0  0  0
   -3.6479   -3.1758   -0.2663 C   0  0  0  0  0  0  0  0  0  0  0  0
   -1.9202   -1.7350    0.7694 C   0  0  0  0  0  0  0  0  0  0  0  0
   -2.4491   -3.7459    7.1998 C   0  0  0  0  0  0  0  0  0  0  0  0
   -2.4818   -2.6113    7.9773 O   0  0  0  0  0  0  0  0  0  0  0  0
   -2.4900   -1.8381    7.3598 H   0  0  0  0  0  0  0  0  0  0  0  0
   -7.3808   -8.2114    8.0141 C   0  0  0  0  0  0  0  0  0  0  0  0
   -6.7729   -8.1809    9.2271 O   0  0  0  0  0  0  0  0  0  0  0  0
   -6.4949   -7.6682    7.0474 N   0  0  0  0  0  0  0  0  0  0  0  0
   -6.7691   -7.5747    6.0757 H   0  0  0  0  0  0  0  0  0  0  0  0
  -10.6107   -7.0582    8.5036 C   0  0  0  0  0  0  0  0  0  0  0  0
  -10.0917   -6.0511    9.0259 O   0  0  0  0  0  0  0  0  0  0  0  0
   -9.9106   -8.2514    8.2469 N   0  0  0  0  0  0  0  0  0  0  0  0
  -10.7346   -9.5288    8.0526 C   0  0  0  0  0  0  0  0  0  0  0  0
  -10.2579   -9.9101    6.6962 C   0  0  0  0  0  0  0  0  0  0  0  0
   -8.8236   -9.5166    6.6596 C   0  0  0  0  0  0  0  0  0  0  0  0
   -8.6481   -8.7642    8.0718 C   0  0  0  0  0  0  0  0  0  0  0  0
  -12.0714   -6.9446    8.1503 C   0  0  0  0  0  0  0  0  0  0  0  0
  -12.5598   -7.7382    7.0853 N   0  0  0  0  0  0  0  0  0  0  0  0
  -13.7736   -7.4020    6.3604 C   0  0  0  0  0  0  0  0  0  0  0  0
  -14.3201   -6.3450    6.6581 O   0  0  0  0  0  0  0  0  0  0  0  0
  -12.0864   -8.6112    6.7719 H   0  0  0  0  0  0  0  0  0  0  0  0
  -14.3263   -8.1824    5.3853 O   0  0  0  0  0  0  0  0  0  0  0  0
  -14.8099   -7.7048    4.1776 C   0  0  0  0  0  0  0  0  0  0  0  0
  -16.1153   -7.0518    4.1485 C   0  0  0  0  0  0  0  0  0  0  0  0
  -17.2711   -7.7479    4.0592 C   0  0  0  0  0  0  0  0  0  0  0  0
  -18.4889   -7.1548    3.9973 C   0  0  0  0  0  0  0  0  0  0  0  0
  -18.5817   -5.7635    4.0295 C   0  0  0  0  0  0  0  0  0  0  0  0
  -17.4164   -5.0392    4.1214 C   0  0  0  0  0  0  0  0  0  0  0  0
  -16.2086   -5.6520    4.1751 C   0  0  0  0  0  0  0  0  0  0  0  0
  -12.9180   -7.1137    9.3704 C   0  0  0  0  0  0  0  0  0  0  0  0
  -13.2429   -8.4951    9.7826 C   0  0  0  0  0  0  0  0  0  0  0  0
  -13.1072   -4.9402   10.5521 C   0  0  0  0  0  0  0  0  0  0  0  0
  -12.3929   -6.3063   10.5149 C   0  0  0  0  0  0  0  0  0  0  0  0
   -4.1467   -7.7455    6.4607 C   0  0  0  0  0  0  0  0  0  0  0  0
   -3.0700   -8.5941    7.0140 C   0  0  0  0  0  0  0  0  0  0  0  0
   -2.1599   -8.0501    8.0344 C   0  0  0  0  0  0  0  0  0  0  0  0
   -2.1957   -8.9649    5.7902 C   0  0  0  0  0  0  0  0  0  0  0  0
 61 62  1  0  0  0
 62 59  1  0  0  0
 59 60  1  0  0  0
 59 46  1  0  0  0
 46 47  1  0  0  0
 47 48  1  0  0  0
 48 49  2  0  0  0
 48 51  1  0  0  0
 51 52  1  0  0  0
 52 53  1  0  0  0
 53 54  2  0  0  0
 54 55  1  0  0  0
 55 56  2  0  0  0
 56 57  1  0  0  0
 57 58  2  0  0  0
 46 39  1  0  0  0
 39 40  2  0  0  0
 39 41  1  0  0  0
 41 42  1  0  0  0
 42 43  1  0  0  0
 43 44  1  0  0  0
 44 45  1  0  0  0
 45 35  1  0  0  0
 35 36  2  0  0  0
 35 37  1  0  0  0
 37  1  1  0  0  0
  1 63  1  0  0  0
 63 64  1  0  0  0
 64 65  1  0  0  0
 64 66  1  0  0  0
  1  2  1  0  0  0
  2  3  2  0  0  0
  2  4  1  0  0  0
  4  6  1  0  0  0
  6 32  1  0  0  0
 32 33  1  0  0  0
  6  7  1  0  0  0
  7  8  2  0  0  0
  7  9  1  0  0  0
  9 11  1  0  0  0
 11 28  1  0  0  0
 28 29  1  0  0  0
 29 30  1  0  0  0
 29 31  1  0  0  0
 11 12  1  0  0  0
 12 13  2  0  0  0
 12 14  1  0  0  0
 14 16  1  0  0  0
 16 21  1  0  0  0
 21 22  1  0  0  0
 22 23  2  0  0  0
 23 24  1  0  0  0
 24 25  2  0  0  0
 25 26  1  0  0  0
 26 27  2  0  0  0
 16 17  1  0  0  0
 17 18  1  0  0  0
 17 19  2  0  0  0
 58 53  1  0  0  0
 45 41  1  0  0  0
 27 22  1  0  0  0
 47 50  1  0  0  0
 37 38  1  0  0  0
  4  5  1  0  0  0
 33 34  1  0  0  0
  9 10  1  0  0  0
 14 15  1  0  0  0
 18 20  1  0  0  0
M  END
> <minimizedAffinity>
-7.88387

> <CNNscore>
0.1589646786

> <CNNaffinity>
7.2933845520

> <CNN_VS>
1.1593905687

> <CNNaffinity_variance>
0.0379912034

$$$$
[H]OC(=O)[C@@]([H])(N([H])C(=O)[C@@]([H])(N([H])C(=O)[C@@]([H])(N([H])C(=O)[C@@]([H])(N([H])C(=O)[C@@]1([H])N(C(=O)[C@@]([H])(N([H])C(=O)OC([H])([H])c2c([H])c([H])c([H])c([H])c2[H])[C@@]([H])(C([H])([H])[H])C([H])([H])C([H])([H])[H])C([H])([H])C([H])([H])C1([H])[H])C([H])([H])C([H])(C([H])([H])[H])C([H])([H])[H])C([H])([H])O[H])C([H])([H])C([H])(C([H])([H])[H])C([H])([H])[H])C([H])([H])c1c([H])c([H])c([H])c([H])c1[H]


 66 68  0  0  0  0  0  0  0  0999 V2000
   -5.2970   -7.4286    7.4916 C   0  0  0  0  0  0  0  0  0  0  0  0
   -4.8915   -6.0693    7.7760 C   0  0  0  0  0  0  0  0  0  0  0  0
   -4.9894   -5.5300    8.8778 O   0  0  0  0  0  0  0  0  0  0  0  0
   -4.3788   -5.4073    6.6374 N   0  0  0  0  0  0  0  0  0  0  0  0
   -4.2467   -6.0469    5.7482 H   0  0  0  0  0  0  0  0  0  0  0  0
   -3.9426   -4.0692    6.3918 C   0  0  0  0  0  0  0  0  0  0  0  0
   -3.3835   -4.1662    4.9349 C   0  0  0  0  0  0  0  0  0  0  0  0
   -3.1372   -5.3215    4.6298 O   0  0  0  0  0  0  0  0  0  0  0  0
   -3.2086   -3.0550    4.1028 N   0  0  0  0  0  0  0  0  0  0  0  0
   -2.6608   -3.9670    3.1872 H   0  0  0  0  0  0  0  0  0  0  0  0
   -3.0162   -2.0317    3.2425 C   0  0  0  0  0  0  0  0  0  0  0  0
   -3.8643   -0.8080    3.6035 C   0  0  0  0  0  0  0  0  0  0  0  0
   -4.6807   -0.9391    4.5167 O   0  0  0  0  0  0  0  0  0  0  0  0
   -3.6553    0.3714    2.8888 N   0  0  0  0  0  0  0  0  0  0  0  0
   -2.8735    0.3471    2.1263 H   0  0  0  0  0  0  0  0  0  0  0  0
   -4.2890    1.6452    2.9741 C   0  0  0  0  0  0  0  0  0  0  0  0
   -5.2844    1.8129    1.9281 C   0  0  0  0  0  0  0  0  0  0  0  0
   -5.4226    3.0412    1.2280 O   0  0  0  0  0  0  0  0  0  0  0  0
   -6.0953    0.9127    1.5450 O   0  0  0  0  0  0  0  0  0  0  0  0
   -5.2850    3.9104    1.7381 H   0  0  0  0  0  0  0  0  0  0  0  0
   -3.1805    2.6934    2.8738 C   0  0  0  0  0  0  0  0  0  0  0  0
   -2.0017    2.2147    2.1659 C   0  0  0  0  0  0  0  0  0  0  0  0
   -0.9749    1.4690    2.6201 C   0  0  0  0  0  0  0  0  0  0  0  0
    0.0590    1.0436    1.7762 C   0  0  0  0  0  0  0  0  0  0  0  0
    0.1195    1.3358    0.4340 C   0  0  0  0  0  0  0  0  0  0  0  0
   -0.9652    2.1149   -0.0295 C   0  0  0  0  0  0  0  0  0  0  0  0
   -1.9532    2.5235    0.7923 C   0  0  0  0  0  0  0  0  0  0  0  0
   -3.3837   -2.5377    1.8539 C   0  0  0  0  0  0  0  0  0  0  0  0
   -2.3882   -2.4538    0.7889 C   0  0  0  0  0  0  0  0  0  0  0  0
   -1.9480   -3.6286    0.0293 C   0  0  0  0  0  0  0  0  0  0  0  0
   -2.6334   -1.2549   -0.1405 C   0  0  0  0  0  0  0  0  0  0  0  0
   -2.6538   -3.8169    7.2312 C   0  0  0  0  0  0  0  0  0  0  0  0
   -1.7287   -4.7802    6.9012 O   0  0  0  0  0  0  0  0  0  0  0  0
   -2.0504   -5.6335    7.2855 H   0  0  0  0  0  0  0  0  0  0  0  0
   -7.4947   -8.3010    7.9481 C   0  0  0  0  0  0  0  0  0  0  0  0
   -6.9347   -8.1862    9.1789 O   0  0  0  0  0  0  0  0  0  0  0  0
   -6.5667   -7.8350    6.9806 N   0  0  0  0  0  0  0  0  0  0  0  0
   -6.8017   -7.8107    5.9946 H   0  0  0  0  0  0  0  0  0  0  0  0
  -10.7256   -7.1008    8.2994 C   0  0  0  0  0  0  0  0  0  0  0  0
  -10.2112   -6.0763    8.7916 O   0  0  0  0  0  0  0  0  0  0  0  0
  -10.0302   -8.3098    8.1136 N   0  0  0  0  0  0  0  0  0  0  0  0
  -10.8607   -9.5876    7.9524 C   0  0  0  0  0  0  0  0  0  0  0  0
  -10.3515  -10.0314    6.6271 C   0  0  0  0  0  0  0  0  0  0  0  0
   -8.9131   -9.6518    6.6126 C   0  0  0  0  0  0  0  0  0  0  0  0
   -8.7683   -8.8402    7.9951 C   0  0  0  0  0  0  0  0  0  0  0  0
  -12.1751   -6.9905    7.9020 C   0  0  0  0  0  0  0  0  0  0  0  0
  -12.6436   -7.8294    6.8631 N   0  0  0  0  0  0  0  0  0  0  0  0
  -14.0416   -7.8683    6.4681 C   0  0  0  0  0  0  0  0  0  0  0  0
  -14.7946   -7.0746    7.0225 O   0  0  0  0  0  0  0  0  0  0  0  0
  -12.0180   -8.4731    6.3352 H   0  0  0  0  0  0  0  0  0  0  0  0
  -14.5510   -8.7220    5.5315 O   0  0  0  0  0  0  0  0  0  0  0  0
  -14.9982   -8.3359    4.2780 C   0  0  0  0  0  0  0  0  0  0  0  0
  -16.1276   -7.4156    4.1839 C   0  0  0  0  0  0  0  0  0  0  0  0
  -17.4094   -7.8442    4.1447 C   0  0  0  0  0  0  0  0  0  0  0  0
  -18.4669   -7.0041    4.0236 C   0  0  0  0  0  0  0  0  0  0  0  0
  -18.2499   -5.6290    3.9378 C   0  0  0  0  0  0  0  0  0  0  0  0
  -16.9526   -5.1749    3.9774 C   0  0  0  0  0  0  0  0  0  0  0  0
  -15.9093   -6.0325    4.0918 C   0  0  0  0  0  0  0  0  0  0  0  0
  -13.0554   -7.0933    9.1056 C   0  0  0  0  0  0  0  0  0  0  0  0
  -12.6734   -8.0753   10.1416 C   0  0  0  0  0  0  0  0  0  0  0  0
  -12.5953   -5.6178   11.0465 C   0  0  0  0  0  0  0  0  0  0  0  0
  -13.3301   -5.7471    9.6970 C   0  0  0  0  0  0  0  0  0  0  0  0
   -4.2026   -7.9131    6.4616 C   0  0  0  0  0  0  0  0  0  0  0  0
   -3.0951   -8.6685    7.0847 C   0  0  0  0  0  0  0  0  0  0  0  0
   -2.2077   -8.0031    8.0518 C   0  0  0  0  0  0  0  0  0  0  0  0
   -2.2058   -9.1115    5.8964 C   0  0  0  0  0  0  0  0  0  0  0  0
 61 62  1  0  0  0
 62 59  1  0  0  0
 59 60  1  0  0  0
 59 46  1  0  0  0
 46 47  1  0  0  0
 47 48  1  0  0  0
 48 49  2  0  0  0
 48 51  1  0  0  0
 51 52  1  0  0  0
 52 53  1  0  0  0
 53 54  2  0  0  0
 54 55  1  0  0  0
 55 56  2  0  0  0
 56 57  1  0  0  0
 57 58  2  0  0  0
 46 39  1  0  0  0
 39 40  2  0  0  0
 39 41  1  0  0  0
 41 42  1  0  0  0
 42 43  1  0  0  0
 43 44  1  0  0  0
 44 45  1  0  0  0
 45 35  1  0  0  0
 35 36  2  0  0  0
 35 37  1  0  0  0
 37  1  1  0  0  0
  1 63  1  0  0  0
 63 64  1  0  0  0
 64 65  1  0  0  0
 64 66  1  0  0  0
  1  2  1  0  0  0
  2  3  2  0  0  0
  2  4  1  0  0  0
  4  6  1  0  0  0
  6 32  1  0  0  0
 32 33  1  0  0  0
  6  7  1  0  0  0
  7  8  2  0  0  0
  7  9  1  0  0  0
  9 11  1  0  0  0
 11 28  1  0  0  0
 28 29  1  0  0  0
 29 30  1  0  0  0
 29 31  1  0  0  0
 11 12  1  0  0  0
 12 13  2  0  0  0
 12 14  1  0  0  0
 14 16  1  0  0  0
 16 21  1  0  0  0
 21 22  1  0  0  0
 22 23  2  0  0  0
 23 24  1  0  0  0
 24 25  2  0  0  0
 25 26  1  0  0  0
 26 27  2  0  0  0
 16 17  1  0  0  0
 17 18  1  0  0  0
 17 19  2  0  0  0
 58 53  1  0  0  0
 45 41  1  0  0  0
 27 22  1  0  0  0
 47 50  1  0  0  0
 37 38  1  0  0  0
  4  5  1  0  0  0
 33 34  1  0  0  0
  9 10  1  0  0  0
 14 15  1  0  0  0
 18 20  1  0  0  0
M  END
> <minimizedAffinity>
-7.19589

> <CNNscore>
0.1497127861

> <CNNaffinity>
7.1053419113

> <CNN_VS>
1.0637605190

> <CNNaffinity_variance>
0.0478288271

$$$$
[H]OC(=O)[C@@]([H])(N([H])C(=O)[C@@]([H])(N([H])C(=O)[C@@]([H])(N([H])C(=O)[C@@]([H])(N([H])C(=O)[C@@]1([H])N(C(=O)[C@@]([H])(N([H])C(=O)OC([H])([H])c2c([H])c([H])c([H])c([H])c2[H])[C@@]([H])(C([H])([H])[H])C([H])([H])C([H])([H])[H])C([H])([H])C([H])([H])C1([H])[H])C([H])([H])C([H])(C([H])([H])[H])C([H])([H])[H])C([H])([H])O[H])C([H])([H])C([H])(C([H])([H])[H])C([H])([H])[H])C([H])([H])c1c([H])c([H])c([H])c([H])c1[H]


 66 68  0  0  0  0  0  0  0  0999 V2000
   -4.8002   -5.9250    6.0705 C   0  0  0  0  0  0  0  0  0  0  0  0
   -6.0653   -6.5192    5.6971 C   0  0  0  0  0  0  0  0  0  0  0  0
   -6.6266   -6.3393    4.6168 O   0  0  0  0  0  0  0  0  0  0  0  0
   -6.6081   -7.3270    6.7219 N   0  0  0  0  0  0  0  0  0  0  0  0
   -5.9444   -7.4863    7.5888 H   0  0  0  0  0  0  0  0  0  0  0  0
   -7.8403   -8.0354    6.8662 C   0  0  0  0  0  0  0  0  0  0  0  0
   -8.8053   -6.9182    7.3815 C   0  0  0  0  0  0  0  0  0  0  0  0
   -8.5048   -5.8271    6.9256 O   0  0  0  0  0  0  0  0  0  0  0  0
   -9.8773   -7.1664    8.2457 N   0  0  0  0  0  0  0  0  0  0  0  0
  -10.0691   -5.7761    8.2269 H   0  0  0  0  0  0  0  0  0  0  0  0
  -10.9310   -7.3296    9.0746 C   0  0  0  0  0  0  0  0  0  0  0  0
  -12.1682   -7.8529    8.3381 C   0  0  0  0  0  0  0  0  0  0  0  0
  -12.1991   -9.0560    8.0749 O   0  0  0  0  0  0  0  0  0  0  0  0
  -13.1788   -6.9449    8.0220 N   0  0  0  0  0  0  0  0  0  0  0  0
  -13.0262   -5.9133    8.3473 H   0  0  0  0  0  0  0  0  0  0  0  0
  -14.4157   -7.1190    7.3355 C   0  0  0  0  0  0  0  0  0  0  0  0
  -15.1136   -8.3085    7.7945 C   0  0  0  0  0  0  0  0  0  0  0  0
  -14.8203   -9.5914    7.2596 O   0  0  0  0  0  0  0  0  0  0  0  0
  -16.0162   -8.3224    8.6888 O   0  0  0  0  0  0  0  0  0  0  0  0
  -14.5913   -9.6660    6.2713 H   0  0  0  0  0  0  0  0  0  0  0  0
  -14.0820   -7.1980    5.8455 C   0  0  0  0  0  0  0  0  0  0  0  0
  -15.1342   -6.6624    4.9935 C   0  0  0  0  0  0  0  0  0  0  0  0
  -16.0585   -7.3159    4.2618 C   0  0  0  0  0  0  0  0  0  0  0  0
  -17.0455   -6.6339    3.5389 C   0  0  0  0  0  0  0  0  0  0  0  0
  -17.1649   -5.2644    3.5126 C   0  0  0  0  0  0  0  0  0  0  0  0
  -16.1919   -4.5921    4.2870 C   0  0  0  0  0  0  0  0  0  0  0  0
  -15.2428   -5.2580    4.9756 C   0  0  0  0  0  0  0  0  0  0  0  0
  -11.2239   -5.9723    9.7006 C   0  0  0  0  0  0  0  0  0  0  0  0
  -12.0700   -5.9144   10.8893 C   0  0  0  0  0  0  0  0  0  0  0  0
  -11.5294   -5.6532   12.2274 C   0  0  0  0  0  0  0  0  0  0  0  0
  -13.3565   -5.1101   10.6463 C   0  0  0  0  0  0  0  0  0  0  0  0
   -7.7188   -8.9733    8.1051 C   0  0  0  0  0  0  0  0  0  0  0  0
   -6.9733   -8.3270    9.0639 O   0  0  0  0  0  0  0  0  0  0  0  0
   -6.0388   -8.3076    8.7389 H   0  0  0  0  0  0  0  0  0  0  0  0
   -3.4679   -4.0993    5.2391 C   0  0  0  0  0  0  0  0  0  0  0  0
   -3.0298   -5.1661    4.5237 O   0  0  0  0  0  0  0  0  0  0  0  0
   -4.5079   -4.5279    6.1046 N   0  0  0  0  0  0  0  0  0  0  0  0
   -4.9924   -3.8741    6.7095 H   0  0  0  0  0  0  0  0  0  0  0  0
   -4.1372   -0.7002    5.2333 C   0  0  0  0  0  0  0  0  0  0  0  0
   -5.3440   -1.0142    5.1938 O   0  0  0  0  0  0  0  0  0  0  0  0
   -3.0885   -1.6012    4.9724 N   0  0  0  0  0  0  0  0  0  0  0  0
   -1.7249   -1.0117    4.5959 C   0  0  0  0  0  0  0  0  0  0  0  0
   -0.9003   -1.6252    5.6712 C   0  0  0  0  0  0  0  0  0  0  0  0
   -1.4859   -2.9748    5.8926 C   0  0  0  0  0  0  0  0  0  0  0  0
   -2.7784   -2.9390    4.9337 C   0  0  0  0  0  0  0  0  0  0  0  0
   -3.8358    0.7354    5.5792 C   0  0  0  0  0  0  0  0  0  0  0  0
   -4.4961    1.7476    4.8430 N   0  0  0  0  0  0  0  0  0  0  0  0
   -3.8772    2.4101    3.7073 C   0  0  0  0  0  0  0  0  0  0  0  0
   -2.7778    1.9944    3.3569 O   0  0  0  0  0  0  0  0  0  0  0  0
   -5.4529    2.0825    5.0813 H   0  0  0  0  0  0  0  0  0  0  0  0
   -4.4424    3.4481    3.0227 O   0  0  0  0  0  0  0  0  0  0  0  0
   -5.6418    3.3727    2.3325 C   0  0  0  0  0  0  0  0  0  0  0  0
   -5.7313    2.4995    1.1659 C   0  0  0  0  0  0  0  0  0  0  0  0
   -4.7784    2.4728    0.2068 C   0  0  0  0  0  0  0  0  0  0  0  0
   -4.8634    1.6923   -0.8987 C   0  0  0  0  0  0  0  0  0  0  0  0
   -5.9730    0.8663   -1.0771 C   0  0  0  0  0  0  0  0  0  0  0  0
   -6.9515    0.8795   -0.1110 C   0  0  0  0  0  0  0  0  0  0  0  0
   -6.8501    1.6726    0.9834 C   0  0  0  0  0  0  0  0  0  0  0  0
   -3.9893    0.9614    7.0487 C   0  0  0  0  0  0  0  0  0  0  0  0
   -3.2031    0.0960    7.9523 C   0  0  0  0  0  0  0  0  0  0  0  0
   -3.4266    2.5394    8.8788 C   0  0  0  0  0  0  0  0  0  0  0  0
   -3.8335    2.4077    7.3973 C   0  0  0  0  0  0  0  0  0  0  0  0
   -4.5652   -6.4865    7.5275 C   0  0  0  0  0  0  0  0  0  0  0  0
   -3.2395   -7.1134    7.7147 C   0  0  0  0  0  0  0  0  0  0  0  0
   -2.0341   -6.2719    7.7804 C   0  0  0  0  0  0  0  0  0  0  0  0
   -3.0680   -8.0411    6.4861 C   0  0  0  0  0  0  0  0  0  0  0  0
 61 62  1  0  0  0
 62 59  1  0  0  0
 59 60  1  0  0  0
 59 46  1  0  0  0
 46 47  1  0  0  0
 47 48  1  0  0  0
 48 49  2  0  0  0
 48 51  1  0  0  0
 51 52  1  0  0  0
 52 53  1  0  0  0
 53 54  2  0  0  0
 54 55  1  0  0  0
 55 56  2  0  0  0
 56 57  1  0  0  0
 57 58  2  0  0  0
 46 39  1  0  0  0
 39 40  2  0  0  0
 39 41  1  0  0  0
 41 42  1  0  0  0
 42 43  1  0  0  0
 43 44  1  0  0  0
 44 45  1  0  0  0
 45 35  1  0  0  0
 35 36  2  0  0  0
 35 37  1  0  0  0
 37  1  1  0  0  0
  1 63  1  0  0  0
 63 64  1  0  0  0
 64 65  1  0  0  0
 64 66  1  0  0  0
  1  2  1  0  0  0
  2  3  2  0  0  0
  2  4  1  0  0  0
  4  6  1  0  0  0
  6 32  1  0  0  0
 32 33  1  0  0  0
  6  7  1  0  0  0
  7  8  2  0  0  0
  7  9  1  0  0  0
  9 11  1  0  0  0
 11 28  1  0  0  0
 28 29  1  0  0  0
 29 30  1  0  0  0
 29 31  1  0  0  0
 11 12  1  0  0  0
 12 13  2  0  0  0
 12 14  1  0  0  0
 14 16  1  0  0  0
 16 21  1  0  0  0
 21 22  1  0  0  0
 22 23  2  0  0  0
 23 24  1  0  0  0
 24 25  2  0  0  0
 25 26  1  0  0  0
 26 27  2  0  0  0
 16 17  1  0  0  0
 17 18  1  0  0  0
 17 19  2  0  0  0
 58 53  1  0  0  0
 45 41  1  0  0  0
 27 22  1  0  0  0
 47 50  1  0  0  0
 37 38  1  0  0  0
  4  5  1  0  0  0
 33 34  1  0  0  0
  9 10  1  0  0  0
 14 15  1  0  0  0
 18 20  1  0  0  0
M  END
> <minimizedAffinity>
-8.03490

> <CNNscore>
0.1447931230

> <CNNaffinity>
7.2521905899

> <CNN_VS>
1.0500673056

> <CNNaffinity_variance>
0.1975651830

$$$$
[H]c1c([H])c([H])c(C2([H])C(C(=O)OC([H])([H])[H])=C(C([H])([H])[H])N([H])C(C([H])([H])[H])=C2C(=O)OC([H])([H])[H])c([H])c1[H]


 23 24  0  0  0  0  0  0  0  0999 V2000
  -14.5222   -8.6505    4.6434 C   0  0  0  0  0  0  0  0  0  0  0  0
  -14.8037   -9.7949    5.1969 C   0  0  0  0  0  0  0  0  0  0  0  0
  -15.4312  -10.9222    4.4028 C   0  0  0  0  0  0  0  0  0  0  0  0
  -14.5072  -10.0614    6.5709 N   0  0  0  0  0  0  0  0  0  0  0  0
  -13.8940   -9.0184    7.3126 C   0  0  0  0  0  0  0  0  0  0  0  0
  -13.5603   -9.2851    8.7700 C   0  0  0  0  0  0  0  0  0  0  0  0
  -13.6151   -7.8537    6.7878 C   0  0  0  0  0  0  0  0  0  0  0  0
  -13.9353   -7.5502    5.3926 C   0  0  0  0  0  0  0  0  0  0  0  0
  -14.7279  -10.9772    7.0162 H   0  0  0  0  0  0  0  0  0  0  0  0
  -14.7423   -6.2980    5.2710 C   0  0  0  0  0  0  0  0  0  0  0  0
  -14.2387   -5.1840    4.6536 C   0  0  0  0  0  0  0  0  0  0  0  0
  -14.9449   -4.0075    4.5177 C   0  0  0  0  0  0  0  0  0  0  0  0
  -16.2217   -3.9319    5.0222 C   0  0  0  0  0  0  0  0  0  0  0  0
  -16.7442   -5.0419    5.6460 C   0  0  0  0  0  0  0  0  0  0  0  0
  -16.0177   -6.2133    5.7715 C   0  0  0  0  0  0  0  0  0  0  0  0
  -14.8280   -8.4736    3.2045 C   0  0  0  0  0  0  0  0  0  0  0  0
  -13.9902   -8.8944    2.3342 O   0  0  0  0  0  0  0  0  0  0  0  0
  -17.2064   -7.8996    3.3106 C   0  0  0  0  0  0  0  0  0  0  0  0
  -15.9445   -7.8904    2.6811 O   0  0  0  0  0  0  0  0  0  0  0  0
  -12.9361   -6.8145    7.6176 C   0  0  0  0  0  0  0  0  0  0  0  0
  -11.7165   -6.6233    7.6704 O   0  0  0  0  0  0  0  0  0  0  0  0
  -13.7136   -5.9839    8.3983 O   0  0  0  0  0  0  0  0  0  0  0  0
  -13.4237   -5.7839    9.7900 C   0  0  0  0  0  0  0  0  0  0  0  0
 18 19  1  0  0  0
 19 16  1  0  0  0
 16 17  2  0  0  0
 16  1  1  0  0  0
  1  2  2  0  0  0
  2  3  1  0  0  0
  2  4  1  0  0  0
  4  5  1  0  0  0
  5  6  1  0  0  0
  5  7  2  0  0  0
  7  8  1  0  0  0
  8 10  1  0  0  0
 10 11  2  0  0  0
 11 12  1  0  0  0
 12 13  2  0  0  0
 13 14  1  0  0  0
 14 15  2  0  0  0
  7 20  1  0  0  0
 20 21  2  0  0  0
 20 22  1  0  0  0
 22 23  1  0  0  0
  8  1  1  0  0  0
 15 10  1  0  0  0
  4  9  1  0  0  0
M  END
> <minimizedAffinity>
2.06270

> <CNNscore>
0.5843365192

> <CNNaffinity>
6.0700883865

> <CNN_VS>
3.5469744205

> <CNNaffinity_variance>
0.6623947024

$$$$
[H]c1c([H])c([H])c(C2([H])C(C(=O)OC([H])([H])[H])=C(C([H])([H])[H])N([H])C(C([H])([H])[H])=C2C(=O)OC([H])([H])[H])c([H])c1[H]


 23 24  0  0  0  0  0  0  0  0999 V2000
  -13.4920   -9.0654    6.5510 C   0  0  0  0  0  0  0  0  0  0  0  0
  -13.6819   -9.9770    7.4609 C   0  0  0  0  0  0  0  0  0  0  0  0
  -14.0304  -11.4034    7.0880 C   0  0  0  0  0  0  0  0  0  0  0  0
  -13.5402   -9.6915    8.8557 N   0  0  0  0  0  0  0  0  0  0  0  0
  -13.1867   -8.3635    9.2098 C   0  0  0  0  0  0  0  0  0  0  0  0
  -13.0198   -8.0426   10.6847 C   0  0  0  0  0  0  0  0  0  0  0  0
  -13.0061   -7.4237    8.3188 C   0  0  0  0  0  0  0  0  0  0  0  0
  -13.1734   -7.6867    6.8890 C   0  0  0  0  0  0  0  0  0  0  0  0
  -13.6880  -10.4195    9.5864 H   0  0  0  0  0  0  0  0  0  0  0  0
  -14.1248   -6.7223    6.2576 C   0  0  0  0  0  0  0  0  0  0  0  0
  -13.6789   -5.6996    5.4632 C   0  0  0  0  0  0  0  0  0  0  0  0
  -14.5178   -4.7865    4.8602 C   0  0  0  0  0  0  0  0  0  0  0  0
  -15.8744   -4.8937    5.0559 C   0  0  0  0  0  0  0  0  0  0  0  0
  -16.3407   -5.9155    5.8515 C   0  0  0  0  0  0  0  0  0  0  0  0
  -15.4808   -6.8216    6.4475 C   0  0  0  0  0  0  0  0  0  0  0  0
  -13.6214   -9.4575    5.1281 C   0  0  0  0  0  0  0  0  0  0  0  0
  -12.5881   -9.8787    4.5025 O   0  0  0  0  0  0  0  0  0  0  0  0
  -14.9614   -8.5403    3.2948 C   0  0  0  0  0  0  0  0  0  0  0  0
  -14.7610   -9.4192    4.3794 O   0  0  0  0  0  0  0  0  0  0  0  0
  -12.5995   -6.0567    8.7609 C   0  0  0  0  0  0  0  0  0  0  0  0
  -11.4877   -5.5471    8.5845 O   0  0  0  0  0  0  0  0  0  0  0  0
  -13.5253   -5.2761    9.4223 O   0  0  0  0  0  0  0  0  0  0  0  0
  -13.1265   -4.3623   10.4553 C   0  0  0  0  0  0  0  0  0  0  0  0
 18 19  1  0  0  0
 19 16  1  0  0  0
 16 17  2  0  0  0
 16  1  1  0  0  0
  1  2  2  0  0  0
  2  3  1  0  0  0
  2  4  1  0  0  0
  4  5  1  0  0  0
  5  6  1  0  0  0
  5  7  2  0  0  0
  7  8  1  0  0  0
  8 10  1  0  0  0
 10 11  2  0  0  0
 11 12  1  0  0  0
 12 13  2  0  0  0
 13 14  1  0  0  0
 14 15  2  0  0  0
  7 20  1  0  0  0
 20 21  2  0  0  0
 20 22  1  0  0  0
 22 23  1  0  0  0
  8  1  1  0  0  0
 15 10  1  0  0  0
  4  9  1  0  0  0
M  END
> <minimizedAffinity>
2.01968

> <CNNscore>
0.5440731645

> <CNNaffinity>
5.9004545212

> <CNN_VS>
3.2102789879

> <CNNaffinity_variance>
0.5777619481

$$$$
[H]c1c([H])c([H])c(C2([H])C(C(=O)OC([H])([H])[H])=C(C([H])([H])[H])N([H])C(C([H])([H])[H])=C2C(=O)OC([H])([H])[H])c([H])c1[H]


 23 24  0  0  0  0  0  0  0  0999 V2000
  -14.2136   -7.8328    6.4197 C   0  0  0  0  0  0  0  0  0  0  0  0
  -13.7139   -8.9859    6.0795 C   0  0  0  0  0  0  0  0  0  0  0  0
  -12.4863   -9.5476    6.7671 C   0  0  0  0  0  0  0  0  0  0  0  0
  -14.3127   -9.7977    5.0649 N   0  0  0  0  0  0  0  0  0  0  0  0
  -15.4790   -9.2890    4.4365 C   0  0  0  0  0  0  0  0  0  0  0  0
  -16.1369  -10.1406    3.3649 C   0  0  0  0  0  0  0  0  0  0  0  0
  -15.9934   -8.1274    4.7458 C   0  0  0  0  0  0  0  0  0  0  0  0
  -15.3812   -7.2686    5.7603 C   0  0  0  0  0  0  0  0  0  0  0  0
  -13.9175  -10.7225    4.7926 H   0  0  0  0  0  0  0  0  0  0  0  0
  -15.1167   -5.8947    5.2343 C   0  0  0  0  0  0  0  0  0  0  0  0
  -15.8538   -4.8187    5.6521 C   0  0  0  0  0  0  0  0  0  0  0  0
  -15.6467   -3.5342    5.1956 C   0  0  0  0  0  0  0  0  0  0  0  0
  -14.6531   -3.3042    4.2735 C   0  0  0  0  0  0  0  0  0  0  0  0
  -13.9021   -4.3739    3.8422 C   0  0  0  0  0  0  0  0  0  0  0  0
  -14.1269   -5.6557    4.3136 C   0  0  0  0  0  0  0  0  0  0  0  0
  -13.5518   -7.0754    7.5076 C   0  0  0  0  0  0  0  0  0  0  0  0
  -12.3088   -6.7926    7.4017 O   0  0  0  0  0  0  0  0  0  0  0  0
  -13.4328   -6.3369    9.8396 C   0  0  0  0  0  0  0  0  0  0  0  0
  -14.1395   -6.6276    8.6543 O   0  0  0  0  0  0  0  0  0  0  0  0
  -17.2437   -7.6708    4.0692 C   0  0  0  0  0  0  0  0  0  0  0  0
  -18.3929   -7.9800    4.4017 O   0  0  0  0  0  0  0  0  0  0  0  0
  -17.1337   -6.8308    2.9800 O   0  0  0  0  0  0  0  0  0  0  0  0
  -17.7799   -5.5490    2.9601 C   0  0  0  0  0  0  0  0  0  0  0  0
 18 19  1  0  0  0
 19 16  1  0  0  0
 16 17  2  0  0  0
 16  1  1  0  0  0
  1  2  2  0  0  0
  2  3  1  0  0  0
  2  4  1  0  0  0
  4  5  1  0  0  0
  5  6  1  0  0  0
  5  7  2  0  0  0
  7  8  1  0  0  0
  8 10  1  0  0  0
 10 11  2  0  0  0
 11 12  1  0  0  0
 12 13  2  0  0  0
 13 14  1  0  0  0
 14 15  2  0  0  0
  7 20  1  0  0  0
 20 21  2  0  0  0
 20 22  1  0  0  0
 22 23  1  0  0  0
  8  1  1  0  0  0
 15 10  1  0  0  0
  4  9  1  0  0  0
M  END
> <minimizedAffinity>
-2.68765

> <CNNscore>
0.5289839506

> <CNNaffinity>
6.1433696747

> <CNN_VS>
3.2497439384

> <CNNaffinity_variance>
0.4141170979

$$$$
[H]c1c([H])c([H])c(C2([H])C(C(=O)OC([H])([H])[H])=C(C([H])([H])[H])N([H])C(C([H])([H])[H])=C2C(=O)OC([H])([H])[H])c([H])c1[H]


 23 24  0  0  0  0  0  0  0  0999 V2000
  -14.1704   -8.4326    5.3491 C   0  0  0  0  0  0  0  0  0  0  0  0
  -13.5409   -8.6216    6.4730 C   0  0  0  0  0  0  0  0  0  0  0  0
  -12.8246   -9.9238    6.7667 C   0  0  0  0  0  0  0  0  0  0  0  0
  -13.4632   -7.6029    7.4746 N   0  0  0  0  0  0  0  0  0  0  0  0
  -14.1091   -6.3710    7.1933 C   0  0  0  0  0  0  0  0  0  0  0  0
  -14.0285   -5.2722    8.2386 C   0  0  0  0  0  0  0  0  0  0  0  0
  -14.7625   -6.1587    6.0808 C   0  0  0  0  0  0  0  0  0  0  0  0
  -14.8785   -7.1961    5.0552 C   0  0  0  0  0  0  0  0  0  0  0  0
  -12.9574   -7.7495    8.3736 H   0  0  0  0  0  0  0  0  0  0  0  0
  -16.3036   -7.4439    4.6790 C   0  0  0  0  0  0  0  0  0  0  0  0
  -16.8381   -6.9206    3.5318 C   0  0  0  0  0  0  0  0  0  0  0  0
  -18.1459   -7.1218    3.1438 C   0  0  0  0  0  0  0  0  0  0  0  0
  -18.9692   -7.8845    3.9379 C   0  0  0  0  0  0  0  0  0  0  0  0
  -18.4491   -8.4186    5.0949 C   0  0  0  0  0  0  0  0  0  0  0  0
  -17.1330   -8.2041    5.4657 C   0  0  0  0  0  0  0  0  0  0  0  0
  -14.1680   -9.5278    4.3514 C   0  0  0  0  0  0  0  0  0  0  0  0
  -14.7861  -10.6152    4.6198 O   0  0  0  0  0  0  0  0  0  0  0  0
  -14.0670   -8.8255    2.0074 C   0  0  0  0  0  0  0  0  0  0  0  0
  -13.5582   -9.5087    3.1314 O   0  0  0  0  0  0  0  0  0  0  0  0
  -15.3875   -4.8250    5.8356 C   0  0  0  0  0  0  0  0  0  0  0  0
  -16.5663   -4.5327    6.0633 O   0  0  0  0  0  0  0  0  0  0  0  0
  -14.6037   -3.8167    5.3133 O   0  0  0  0  0  0  0  0  0  0  0  0
  -14.5071   -3.6070    3.8963 C   0  0  0  0  0  0  0  0  0  0  0  0
 18 19  1  0  0  0
 19 16  1  0  0  0
 16 17  2  0  0  0
 16  1  1  0  0  0
  1  2  2  0  0  0
  2  3  1  0  0  0
  2  4  1  0  0  0
  4  5  1  0  0  0
  5  6  1  0  0  0
  5  7  2  0  0  0
  7  8  1  0  0  0
  8 10  1  0  0  0
 10 11  2  0  0  0
 11 12  1  0  0  0
 12 13  2  0  0  0
 13 14  1  0  0  0
 14 15  2  0  0  0
  7 20  1  0  0  0
 20 21  2  0  0  0
 20 22  1  0  0  0
 22 23  1  0  0  0
  8  1  1  0  0  0
 15 10  1  0  0  0
  4  9  1  0  0  0
M  END
> <minimizedAffinity>
5.78968

> <CNNscore>
0.5060784817

> <CNNaffinity>
6.0480256081

> <CNN_VS>
3.0607755184

> <CNNaffinity_variance>
0.9452478290

$$$$
[H]c1c([H])c([H])c(C2([H])C(C(=O)OC([H])([H])[H])=C(C([H])([H])[H])N([H])C(C([H])([H])[H])=C2C(=O)OC([H])([H])[H])c([H])c1[H]


 23 24  0  0  0  0  0  0  0  0999 V2000
   -6.9642   -7.7932    8.0016 C   0  0  0  0  0  0  0  0  0  0  0  0
   -7.3762   -7.3499    6.8488 C   0  0  0  0  0  0  0  0  0  0  0  0
   -6.6511   -7.6977    5.5649 C   0  0  0  0  0  0  0  0  0  0  0  0
   -8.5499   -6.5407    6.7275 N   0  0  0  0  0  0  0  0  0  0  0  0
   -9.2489   -6.2346    7.9240 C   0  0  0  0  0  0  0  0  0  0  0  0
  -10.5041   -5.3866    7.8157 C   0  0  0  0  0  0  0  0  0  0  0  0
   -8.8494   -6.6518    9.0970 C   0  0  0  0  0  0  0  0  0  0  0  0
   -7.6365   -7.4567    9.2471 C   0  0  0  0  0  0  0  0  0  0  0  0
   -8.8844   -6.1872    5.8062 H   0  0  0  0  0  0  0  0  0  0  0  0
   -6.6978   -6.8599   10.2454 C   0  0  0  0  0  0  0  0  0  0  0  0
   -6.6230   -7.3384   11.5265 C   0  0  0  0  0  0  0  0  0  0  0  0
   -5.7734   -6.8207   12.4812 C   0  0  0  0  0  0  0  0  0  0  0  0
   -4.9522   -5.7700   12.1465 C   0  0  0  0  0  0  0  0  0  0  0  0
   -5.0138   -5.2760   10.8633 C   0  0  0  0  0  0  0  0  0  0  0  0
   -5.8743   -5.8108    9.9202 C   0  0  0  0  0  0  0  0  0  0  0  0
   -5.7611   -8.6573    8.0312 C   0  0  0  0  0  0  0  0  0  0  0  0
   -4.6051   -8.1124    8.0887 O   0  0  0  0  0  0  0  0  0  0  0  0
   -6.9031  -10.8214    7.9306 C   0  0  0  0  0  0  0  0  0  0  0  0
   -5.7443  -10.0209    8.0030 O   0  0  0  0  0  0  0  0  0  0  0  0
   -9.6545   -6.3221   10.3105 C   0  0  0  0  0  0  0  0  0  0  0  0
   -9.1948   -5.9709   11.4024 O   0  0  0  0  0  0  0  0  0  0  0  0
  -11.0295   -6.4071   10.2314 O   0  0  0  0  0  0  0  0  0  0  0  0
  -11.8718   -5.7773   11.2086 C   0  0  0  0  0  0  0  0  0  0  0  0
 18 19  1  0  0  0
 19 16  1  0  0  0
 16 17  2  0  0  0
 16  1  1  0  0  0
  1  2  2  0  0  0
  2  3  1  0  0  0
  2  4  1  0  0  0
  4  5  1  0  0  0
  5  6  1  0  0  0
  5  7  2  0  0  0
  7  8  1  0  0  0
  8 10  1  0  0  0
 10 11  2  0  0  0
 11 12  1  0  0  0
 12 13  2  0  0  0
 13 14  1  0  0  0
 14 15  2  0  0  0
  7 20  1  0  0  0
 20 21  2  0  0  0
 20 22  1  0  0  0
 22 23  1  0  0  0
  8  1  1  0  0  0
 15 10  1  0  0  0
  4  9  1  0  0  0
M  END
> <minimizedAffinity>
13.28993

> <CNNscore>
0.4938317537

> <CNNaffinity>
4.8596138954

> <CNN_VS>
2.3998315334

> <CNNaffinity_variance>
0.8444447517

$$$$
[H]c1c([H])c([H])c(C2([H])C(C(=O)OC([H])([H])[H])=C(C([H])([H])[H])N([H])C(C([H])([H])[H])=C2C(=O)OC([H])([H])[H])c([H])c1[H]


 23 24  0  0  0  0  0  0  0  0999 V2000
   -6.2139   -7.6157    8.7932 C   0  0  0  0  0  0  0  0  0  0  0  0
   -5.7840   -6.8947    9.7884 C   0  0  0  0  0  0  0  0  0  0  0  0
   -6.6745   -6.5707   10.9705 C   0  0  0  0  0  0  0  0  0  0  0  0
   -4.4431   -6.3982    9.8362 N   0  0  0  0  0  0  0  0  0  0  0  0
   -3.5960   -6.7218    8.7446 C   0  0  0  0  0  0  0  0  0  0  0  0
   -2.1651   -6.2144    8.7815 C   0  0  0  0  0  0  0  0  0  0  0  0
   -4.0051   -7.4297    7.7241 C   0  0  0  0  0  0  0  0  0  0  0  0
   -5.3801   -7.9235    7.6414 C   0  0  0  0  0  0  0  0  0  0  0  0
   -4.0947   -5.8239   10.6327 H   0  0  0  0  0  0  0  0  0  0  0  0
   -6.0330   -7.5268    6.3567 C   0  0  0  0  0  0  0  0  0  0  0  0
   -6.6061   -8.4583    5.5324 C   0  0  0  0  0  0  0  0  0  0  0  0
   -7.2191   -8.1402    4.3389 C   0  0  0  0  0  0  0  0  0  0  0  0
   -7.2665   -6.8250    3.9412 C   0  0  0  0  0  0  0  0  0  0  0  0
   -6.6957   -5.8749    4.7572 C   0  0  0  0  0  0  0  0  0  0  0  0
   -6.0851   -6.2162    5.9516 C   0  0  0  0  0  0  0  0  0  0  0  0
   -7.6056   -8.1214    8.8435 C   0  0  0  0  0  0  0  0  0  0  0  0
   -8.5706   -7.2832    8.8949 O   0  0  0  0  0  0  0  0  0  0  0  0
   -7.1541  -10.4965    8.4525 C   0  0  0  0  0  0  0  0  0  0  0  0
   -7.9909   -9.4299    8.8412 O   0  0  0  0  0  0  0  0  0  0  0  0
   -3.0486   -7.7633    6.6271 C   0  0  0  0  0  0  0  0  0  0  0  0
   -2.9175   -8.8748    6.1035 O   0  0  0  0  0  0  0  0  0  0  0  0
   -2.2330   -6.7635    6.1382 O   0  0  0  0  0  0  0  0  0  0  0  0
   -2.7263   -5.7895    5.2060 C   0  0  0  0  0  0  0  0  0  0  0  0
 18 19  1  0  0  0
 19 16  1  0  0  0
 16 17  2  0  0  0
 16  1  1  0  0  0
  1  2  2  0  0  0
  2  3  1  0  0  0
  2  4  1  0  0  0
  4  5  1  0  0  0
  5  6  1  0  0  0
  5  7  2  0  0  0
  7  8  1  0  0  0
  8 10  1  0  0  0
 10 11  2  0  0  0
 11 12  1  0  0  0
 12 13  2  0  0  0
 13 14  1  0  0  0
 14 15  2  0  0  0
  7 20  1  0  0  0
 20 21  2  0  0  0
 20 22  1  0  0  0
 22 23  1  0  0  0
  8  1  1  0  0  0
 15 10  1  0  0  0
  4  9  1  0  0  0
M  END
> <minimizedAffinity>
3.29756

> <CNNscore>
0.4775992036

> <CNNaffinity>
4.5044360161

> <CNN_VS>
2.1513149738

> <CNNaffinity_variance>
0.6420516968

$$$$
[H]c1c([H])c([H])c(C2([H])C(C(=O)OC([H])([H])[H])=C(C([H])([H])[H])N([H])C(C([H])([H])[H])=C2C(=O)OC([H])([H])[H])c([H])c1[H]


 23 24  0  0  0  0  0  0  0  0999 V2000
  -14.5037   -7.6823    7.4875 C   0  0  0  0  0  0  0  0  0  0  0  0
  -15.0187   -8.2842    8.5208 C   0  0  0  0  0  0  0  0  0  0  0  0
  -14.1430   -8.8850    9.6013 C   0  0  0  0  0  0  0  0  0  0  0  0
  -16.4336   -8.3824    8.7089 N   0  0  0  0  0  0  0  0  0  0  0  0
  -17.2588   -7.7971    7.7137 C   0  0  0  0  0  0  0  0  0  0  0  0
  -18.7637   -7.8800    7.9005 C   0  0  0  0  0  0  0  0  0  0  0  0
  -16.7700   -7.2011    6.6575 C   0  0  0  0  0  0  0  0  0  0  0  0
  -15.3269   -7.1140    6.4311 C   0  0  0  0  0  0  0  0  0  0  0  0
  -16.8491   -8.8603    9.5363 H   0  0  0  0  0  0  0  0  0  0  0  0
  -14.9467   -7.6373    5.0836 C   0  0  0  0  0  0  0  0  0  0  0  0
  -14.8202   -8.9812    4.8519 C   0  0  0  0  0  0  0  0  0  0  0  0
  -14.4719   -9.5103    3.6271 C   0  0  0  0  0  0  0  0  0  0  0  0
  -14.2362   -8.6589    2.5736 C   0  0  0  0  0  0  0  0  0  0  0  0
  -14.3587   -7.3049    2.7880 C   0  0  0  0  0  0  0  0  0  0  0  0
  -14.7095   -6.7949    4.0260 C   0  0  0  0  0  0  0  0  0  0  0  0
  -13.0280   -7.5928    7.3917 C   0  0  0  0  0  0  0  0  0  0  0  0
  -12.4324   -6.5780    7.8937 O   0  0  0  0  0  0  0  0  0  0  0  0
  -11.1363   -9.1459    7.4757 C   0  0  0  0  0  0  0  0  0  0  0  0
  -12.1991   -8.5045    6.8065 O   0  0  0  0  0  0  0  0  0  0  0  0
  -17.6973   -6.5752    5.6686 C   0  0  0  0  0  0  0  0  0  0  0  0
  -17.9267   -5.3653    5.5669 O   0  0  0  0  0  0  0  0  0  0  0  0
  -18.3644   -7.3947    4.7814 O   0  0  0  0  0  0  0  0  0  0  0  0
  -18.1778   -7.2655    3.3638 C   0  0  0  0  0  0  0  0  0  0  0  0
 18 19  1  0  0  0
 19 16  1  0  0  0
 16 17  2  0  0  0
 16  1  1  0  0  0
  1  2  2  0  0  0
  2  3  1  0  0  0
  2  4  1  0  0  0
  4  5  1  0  0  0
  5  6  1  0  0  0
  5  7  2  0  0  0
  7  8  1  0  0  0
  8 10  1  0  0  0
 10 11  2  0  0  0
 11 12  1  0  0  0
 12 13  2  0  0  0
 13 14  1  0  0  0
 14 15  2  0  0  0
  7 20  1  0  0  0
 20 21  2  0  0  0
 20 22  1  0  0  0
 22 23  1  0  0  0
  8  1  1  0  0  0
 15 10  1  0  0  0
  4  9  1  0  0  0
M  END
> <minimizedAffinity>
-1.08488

> <CNNscore>
0.4489310980

> <CNNaffinity>
5.9471406937

> <CNN_VS>
2.6698563099

> <CNNaffinity_variance>
0.3037874699

$$$$
[H]c1c([H])c([H])c(C2([H])C(C(=O)OC([H])([H])[H])=C(C([H])([H])[H])N([H])C(C([H])([H])[H])=C2C(=O)OC([H])([H])[H])c([H])c1[H]


 23 24  0  0  0  0  0  0  0  0999 V2000
  -15.5260   -7.3353    4.6376 C   0  0  0  0  0  0  0  0  0  0  0  0
  -14.5901   -7.9323    3.9574 C   0  0  0  0  0  0  0  0  0  0  0  0
  -14.4181   -7.6904    2.4717 C   0  0  0  0  0  0  0  0  0  0  0  0
  -13.6560   -8.8204    4.5784 N   0  0  0  0  0  0  0  0  0  0  0  0
  -13.7952   -9.0295    5.9751 C   0  0  0  0  0  0  0  0  0  0  0  0
  -12.8062   -9.9596    6.6557 C   0  0  0  0  0  0  0  0  0  0  0  0
  -14.7353   -8.4568    6.6806 C   0  0  0  0  0  0  0  0  0  0  0  0
  -15.7183   -7.5672    6.0610 C   0  0  0  0  0  0  0  0  0  0  0  0
  -12.9037   -9.2972    4.0377 H   0  0  0  0  0  0  0  0  0  0  0  0
  -17.1181   -7.9868    6.3748 C   0  0  0  0  0  0  0  0  0  0  0  0
  -17.8415   -8.7588    5.5051 C   0  0  0  0  0  0  0  0  0  0  0  0
  -19.1344   -9.1699    5.7511 C   0  0  0  0  0  0  0  0  0  0  0  0
  -19.7437   -8.7945    6.9251 C   0  0  0  0  0  0  0  0  0  0  0  0
  -19.0317   -8.0184    7.8112 C   0  0  0  0  0  0  0  0  0  0  0  0
  -17.7343   -7.6167    7.5444 C   0  0  0  0  0  0  0  0  0  0  0  0
  -16.4262   -6.4014    3.9215 C   0  0  0  0  0  0  0  0  0  0  0  0
  -16.0637   -5.1845    3.7660 O   0  0  0  0  0  0  0  0  0  0  0  0
  -18.8510   -6.0875    3.7832 C   0  0  0  0  0  0  0  0  0  0  0  0
  -17.6450   -6.7026    3.3882 O   0  0  0  0  0  0  0  0  0  0  0  0
  -14.8001   -8.6937    8.1534 C   0  0  0  0  0  0  0  0  0  0  0  0
  -15.6018   -9.4402    8.7250 O   0  0  0  0  0  0  0  0  0  0  0  0
  -13.8986   -8.0373    8.9661 O   0  0  0  0  0  0  0  0  0  0  0  0
  -13.7594   -6.6091    8.9221 C   0  0  0  0  0  0  0  0  0  0  0  0
 18 19  1  0  0  0
 19 16  1  0  0  0
 16 17  2  0  0  0
 16  1  1  0  0  0
  1  2  2  0  0  0
  2  3  1  0  0  0
  2  4  1  0  0  0
  4  5  1  0  0  0
  5  6  1  0  0  0
  5  7  2  0  0  0
  7  8  1  0  0  0
  8 10  1  0  0  0
 10 11  2  0  0  0
 11 12  1  0  0  0
 12 13  2  0  0  0
 13 14  1  0  0  0
 14 15  2  0  0  0
  7 20  1  0  0  0
 20 21  2  0  0  0
 20 22  1  0  0  0
 22 23  1  0  0  0
  8  1  1  0  0  0
 15 10  1  0  0  0
  4  9  1  0  0  0
M  END
> <minimizedAffinity>
0.85280

> <CNNscore>
0.4131386280

> <CNNaffinity>
5.7658271790

> <CNN_VS>
2.3820860386

> <CNNaffinity_variance>
0.2818147540

$$$$
[H]c1c([H])c([H])c(C2([H])C(C(=O)OC([H])([H])[H])=C(C([H])([H])[H])N([H])C(C([H])([H])[H])=C2C(=O)OC([H])([H])[H])c([H])c1[H]


 23 24  0  0  0  0  0  0  0  0999 V2000
  -14.4620   -7.8848    6.2895 C   0  0  0  0  0  0  0  0  0  0  0  0
  -13.9290   -9.0195    5.9379 C   0  0  0  0  0  0  0  0  0  0  0  0
  -12.7571   -9.6091    6.6956 C   0  0  0  0  0  0  0  0  0  0  0  0
  -14.4389   -9.7849    4.8419 N   0  0  0  0  0  0  0  0  0  0  0  0
  -15.5542   -9.2508    4.1456 C   0  0  0  0  0  0  0  0  0  0  0  0
  -16.1182  -10.0535    2.9864 C   0  0  0  0  0  0  0  0  0  0  0  0
  -16.0994   -8.1062    4.4656 C   0  0  0  0  0  0  0  0  0  0  0  0
  -15.5764   -7.2938    5.5647 C   0  0  0  0  0  0  0  0  0  0  0  0
  -14.0171  -10.6949    4.5600 H   0  0  0  0  0  0  0  0  0  0  0  0
  -15.2795   -5.8963    5.1257 C   0  0  0  0  0  0  0  0  0  0  0  0
  -14.1598   -5.6032    4.3935 C   0  0  0  0  0  0  0  0  0  0  0  0
  -13.8443   -4.3306    3.9666 C   0  0  0  0  0  0  0  0  0  0  0  0
  -14.6864   -3.2909    4.2835 C   0  0  0  0  0  0  0  0  0  0  0  0
  -15.8166   -3.5669    5.0189 C   0  0  0  0  0  0  0  0  0  0  0  0
  -16.1144   -4.8521    5.4375 C   0  0  0  0  0  0  0  0  0  0  0  0
  -13.8949   -7.1770    7.4610 C   0  0  0  0  0  0  0  0  0  0  0  0
  -14.6329   -6.9830    8.4877 O   0  0  0  0  0  0  0  0  0  0  0  0
  -11.8867   -6.6900    8.7755 C   0  0  0  0  0  0  0  0  0  0  0  0
  -12.6261   -6.6893    7.5745 O   0  0  0  0  0  0  0  0  0  0  0  0
  -17.2942   -7.6222    3.7122 C   0  0  0  0  0  0  0  0  0  0  0  0
  -17.2645   -6.9451    2.6790 O   0  0  0  0  0  0  0  0  0  0  0  0
  -18.5482   -7.9464    4.1879 O   0  0  0  0  0  0  0  0  0  0  0  0
  -18.7229   -8.9385    5.2108 C   0  0  0  0  0  0  0  0  0  0  0  0
 18 19  1  0  0  0
 19 16  1  0  0  0
 16 17  2  0  0  0
 16  1  1  0  0  0
  1  2  2  0  0  0
  2  3  1  0  0  0
  2  4  1  0  0  0
  4  5  1  0  0  0
  5  6  1  0  0  0
  5  7  2  0  0  0
  7  8  1  0  0  0
  8 10  1  0  0  0
 10 11  2  0  0  0
 11 12  1  0  0  0
 12 13  2  0  0  0
 13 14  1  0  0  0
 14 15  2  0  0  0
  7 20  1  0  0  0
 20 21  2  0  0  0
 20 22  1  0  0  0
 22 23  1  0  0  0
  8  1  1  0  0  0
 15 10  1  0  0  0
  4  9  1  0  0  0
M  END
> <minimizedAffinity>
-3.15160

> <CNNscore>
0.4129427671

> <CNNaffinity>
5.9525961876

> <CNN_VS>
2.4580814838

> <CNNaffinity_variance>
0.3121231198

$$$$
[H]c1c([H])c(-c2c(N([H])[H])nc(N([H])[H])nc2C([H])([H])C([H])([H])[H])c([H])c(C(F)(F)F)c1Cl


 25 26  0  0  0  0  0  0  0  0999 V2000
   -8.0355   -8.4895    6.4561 C   0  0  0  0  0  0  0  0  0  0  0  0
   -8.2578   -7.4659    7.3270 N   0  0  0  0  0  0  0  0  0  0  0  0
   -9.3513   -7.4127    8.0745 C   0  0  0  0  0  0  0  0  0  0  0  0
   -9.6282   -6.3627    9.0046 N   0  0  0  0  0  0  0  0  0  0  0  0
  -10.2532   -8.4011    7.9591 N   0  0  0  0  0  0  0  0  0  0  0  0
  -10.1096   -9.4380    7.1308 C   0  0  0  0  0  0  0  0  0  0  0  0
  -11.0962  -10.4518    7.0470 N   0  0  0  0  0  0  0  0  0  0  0  0
   -8.9558   -9.4901    6.3433 C   0  0  0  0  0  0  0  0  0  0  0  0
  -10.6368   -6.1536    9.2718 H   0  0  0  0  0  0  0  0  0  0  0  0
   -8.8449   -5.8122    9.4106 H   0  0  0  0  0  0  0  0  0  0  0  0
  -11.6423  -10.6227    6.1881 H   0  0  0  0  0  0  0  0  0  0  0  0
  -11.2748  -11.0387    7.8812 H   0  0  0  0  0  0  0  0  0  0  0  0
   -8.8112  -10.6034    5.4227 C   0  0  0  0  0  0  0  0  0  0  0  0
   -9.0281  -11.8997    5.8945 C   0  0  0  0  0  0  0  0  0  0  0  0
   -8.8952  -12.9989    5.0692 C   0  0  0  0  0  0  0  0  0  0  0  0
   -8.5392  -12.7821    3.7513 C   0  0  0  0  0  0  0  0  0  0  0  0
   -8.3520  -14.1595    2.6822 Cl  0  0  0  0  0  0  0  0  0  0  0  0
   -8.3134  -11.5244    3.2292 C   0  0  0  0  0  0  0  0  0  0  0  0
   -8.4555  -10.4516    4.0848 C   0  0  0  0  0  0  0  0  0  0  0  0
   -7.9366  -11.3602    1.7954 C   0  0  0  0  0  0  0  0  0  0  0  0
   -9.0833  -11.2567    1.0021 F   0  0  0  0  0  0  0  0  0  0  0  0
   -7.2838  -10.1440    1.6266 F   0  0  0  0  0  0  0  0  0  0  0  0
   -7.1934  -12.4027    1.3368 F   0  0  0  0  0  0  0  0  0  0  0  0
   -5.5713   -8.5951    6.5605 C   0  0  0  0  0  0  0  0  0  0  0  0
   -6.7686   -8.4745    5.6486 C   0  0  0  0  0  0  0  0  0  0  0  0
 24 25  1  0  0  0
 25  1  1  0  0  0
  1  2  2  0  0  0
  2  3  1  0  0  0
  3  4  1  0  0  0
  3  5  2  0  0  0
  5  6  1  0  0  0
  6  7  1  0  0  0
  6  8  2  0  0  0
  8 13  1  0  0  0
 13 14  2  0  0  0
 14 15  1  0  0  0
 15 16  2  0  0  0
 16 17  1  0  0  0
 16 18  1  0  0  0
 18 19  2  0  0  0
 18 20  1  0  0  0
 20 21  1  0  0  0
 20 22  1  0  0  0
 20 23  1  0  0  0
  8  1  1  0  0  0
 19 13  1  0  0  0
  4  9  1  0  0  0
  4 10  1  0  0  0
  7 11  1  0  0  0
  7 12  1  0  0  0
M  END
> <minimizedAffinity>
9.46702

> <CNNscore>
0.4753770232

> <CNNaffinity>
5.5991067886

> <CNN_VS>
2.6616866589

> <CNNaffinity_variance>
0.6473025680

$$$$
[H]c1c([H])c(-c2c(N([H])[H])nc(N([H])[H])nc2C([H])([H])C([H])([H])[H])c([H])c(C(F)(F)F)c1Cl


 25 26  0  0  0  0  0  0  0  0999 V2000
  -13.2437   -7.3731    9.3524 C   0  0  0  0  0  0  0  0  0  0  0  0
  -14.5903   -7.5643    9.4273 N   0  0  0  0  0  0  0  0  0  0  0  0
  -15.2499   -8.2436    8.4994 C   0  0  0  0  0  0  0  0  0  0  0  0
  -16.6605   -8.4742    8.5351 N   0  0  0  0  0  0  0  0  0  0  0  0
  -14.5584   -8.7504    7.4657 N   0  0  0  0  0  0  0  0  0  0  0  0
  -13.2392   -8.6080    7.3197 C   0  0  0  0  0  0  0  0  0  0  0  0
  -12.5606   -9.1614    6.2054 N   0  0  0  0  0  0  0  0  0  0  0  0
  -12.5473   -7.8901    8.2995 C   0  0  0  0  0  0  0  0  0  0  0  0
  -17.1828   -8.6605    7.6269 H   0  0  0  0  0  0  0  0  0  0  0  0
  -17.1640   -8.4568    9.4448 H   0  0  0  0  0  0  0  0  0  0  0  0
  -12.0878   -8.5760    5.4990 H   0  0  0  0  0  0  0  0  0  0  0  0
  -12.5434  -10.1911    6.0980 H   0  0  0  0  0  0  0  0  0  0  0  0
  -11.1167   -7.7118    8.1279 C   0  0  0  0  0  0  0  0  0  0  0  0
  -10.6011   -6.4149    8.0771 C   0  0  0  0  0  0  0  0  0  0  0  0
   -9.2508   -6.1822    7.9049 C   0  0  0  0  0  0  0  0  0  0  0  0
   -8.4138   -7.2755    7.7836 C   0  0  0  0  0  0  0  0  0  0  0  0
   -6.6956   -7.0111    7.5530 Cl  0  0  0  0  0  0  0  0  0  0  0  0
   -8.8661   -8.5789    7.8275 C   0  0  0  0  0  0  0  0  0  0  0  0
  -10.2212   -8.7707    8.0001 C   0  0  0  0  0  0  0  0  0  0  0  0
   -7.9075   -9.7140    7.6951 C   0  0  0  0  0  0  0  0  0  0  0  0
   -7.2421   -9.9297    8.9058 F   0  0  0  0  0  0  0  0  0  0  0  0
   -8.6141  -10.8904    7.4701 F   0  0  0  0  0  0  0  0  0  0  0  0
   -6.9756   -9.4897    6.7303 F   0  0  0  0  0  0  0  0  0  0  0  0
  -13.1106   -5.1832   10.4841 C   0  0  0  0  0  0  0  0  0  0  0  0
  -12.5734   -6.5937   10.4481 C   0  0  0  0  0  0  0  0  0  0  0  0
 24 25  1  0  0  0
 25  1  1  0  0  0
  1  2  2  0  0  0
  2  3  1  0  0  0
  3  4  1  0  0  0
  3  5  2  0  0  0
  5  6  1  0  0  0
  6  7  1  0  0  0
  6  8  2  0  0  0
  8 13  1  0  0  0
 13 14  2  0  0  0
 14 15  1  0  0  0
 15 16  2  0  0  0
 16 17  1  0  0  0
 16 18  1  0  0  0
 18 19  2  0  0  0
 18 20  1  0  0  0
 20 21  1  0  0  0
 20 22  1  0  0  0
 20 23  1  0  0  0
  8  1  1  0  0  0
 19 13  1  0  0  0
  4  9  1  0  0  0
  4 10  1  0  0  0
  7 11  1  0  0  0
  7 12  1  0  0  0
M  END
> <minimizedAffinity>
-7.89087

> <CNNscore>
0.3629648685

> <CNNaffinity>
6.3166728020

> <CNN_VS>
2.2927303314

> <CNNaffinity_variance>
0.1487862617

$$$$
[H]c1c([H])c(-c2c(N([H])[H])nc(N([H])[H])nc2C([H])([H])C([H])([H])[H])c([H])c(C(F)(F)F)c1Cl


 25 26  0  0  0  0  0  0  0  0999 V2000
  -13.8214   -7.5372    9.1938 C   0  0  0  0  0  0  0  0  0  0  0  0
  -15.1811   -7.6089    9.1550 N   0  0  0  0  0  0  0  0  0  0  0  0
  -15.8236   -8.0797    8.0953 C   0  0  0  0  0  0  0  0  0  0  0  0
  -17.2473   -8.1784    8.0077 N   0  0  0  0  0  0  0  0  0  0  0  0
  -15.1011   -8.4932    7.0413 N   0  0  0  0  0  0  0  0  0  0  0  0
  -13.7674   -8.4565    7.0010 C   0  0  0  0  0  0  0  0  0  0  0  0
  -13.0557   -8.9028    5.8597 N   0  0  0  0  0  0  0  0  0  0  0  0
  -13.0934   -7.9583    8.1198 C   0  0  0  0  0  0  0  0  0  0  0  0
  -17.7133   -8.1796    7.0511 H   0  0  0  0  0  0  0  0  0  0  0  0
  -17.8148   -8.2465    8.8764 H   0  0  0  0  0  0  0  0  0  0  0  0
  -12.4832   -8.2680    5.2815 H   0  0  0  0  0  0  0  0  0  0  0  0
  -13.1172   -9.9028    5.5979 H   0  0  0  0  0  0  0  0  0  0  0  0
  -11.6440   -7.8931    8.0665 C   0  0  0  0  0  0  0  0  0  0  0  0
  -11.0126   -6.6858    8.3727 C   0  0  0  0  0  0  0  0  0  0  0  0
   -9.6381   -6.5597    8.3291 C   0  0  0  0  0  0  0  0  0  0  0  0
   -8.8953   -7.6693    7.9720 C   0  0  0  0  0  0  0  0  0  0  0  0
   -7.1484   -7.5365    7.8971 Cl  0  0  0  0  0  0  0  0  0  0  0  0
   -9.4640   -8.8879    7.6603 C   0  0  0  0  0  0  0  0  0  0  0  0
  -10.8397   -8.9742    7.7146 C   0  0  0  0  0  0  0  0  0  0  0  0
   -8.6033  -10.0477    7.2874 C   0  0  0  0  0  0  0  0  0  0  0  0
   -9.3946  -11.1300    6.8903 F   0  0  0  0  0  0  0  0  0  0  0  0
   -7.8595   -9.7254    6.1576 F   0  0  0  0  0  0  0  0  0  0  0  0
   -7.8124  -10.4527    8.3169 F   0  0  0  0  0  0  0  0  0  0  0  0
  -13.2796   -5.4875   10.4586 C   0  0  0  0  0  0  0  0  0  0  0  0
  -13.1725   -6.9933   10.4350 C   0  0  0  0  0  0  0  0  0  0  0  0
 24 25  1  0  0  0
 25  1  1  0  0  0
  1  2  2  0  0  0
  2  3  1  0  0  0
  3  4  1  0  0  0
  3  5  2  0  0  0
  5  6  1  0  0  0
  6  7  1  0  0  0
  6  8  2  0  0  0
  8 13  1  0  0  0
 13 14  2  0  0  0
 14 15  1  0  0  0
 15 16  2  0  0  0
 16 17  1  0  0  0
 16 18  1  0  0  0
 18 19  2  0  0  0
 18 20  1  0  0  0
 20 21  1  0  0  0
 20 22  1  0  0  0
 20 23  1  0  0  0
  8  1  1  0  0  0
 19 13  1  0  0  0
  4  9  1  0  0  0
  4 10  1  0  0  0
  7 11  1  0  0  0
  7 12  1  0  0  0
M  END
> <minimizedAffinity>
-8.32295

> <CNNscore>
0.2991752326

> <CNNaffinity>
6.3142533302

> <CNN_VS>
1.8890682459

> <CNNaffinity_variance>
0.0947855711

$$$$
[H]c1c([H])c(-c2c(N([H])[H])nc(N([H])[H])nc2C([H])([H])C([H])([H])[H])c([H])c(C(F)(F)F)c1Cl


 25 26  0  0  0  0  0  0  0  0999 V2000
  -13.4334   -7.6388    7.8108 C   0  0  0  0  0  0  0  0  0  0  0  0
  -12.9523   -7.8048    9.0743 N   0  0  0  0  0  0  0  0  0  0  0  0
  -13.7472   -8.1254   10.0856 C   0  0  0  0  0  0  0  0  0  0  0  0
  -13.2902   -8.3141   11.4271 N   0  0  0  0  0  0  0  0  0  0  0  0
  -15.0579   -8.2879    9.8417 N   0  0  0  0  0  0  0  0  0  0  0  0
  -15.6070   -8.1441    8.6335 C   0  0  0  0  0  0  0  0  0  0  0  0
  -16.9985   -8.3239    8.4342 N   0  0  0  0  0  0  0  0  0  0  0  0
  -14.7658   -7.8047    7.5699 C   0  0  0  0  0  0  0  0  0  0  0  0
  -13.9700   -8.1793   12.2346 H   0  0  0  0  0  0  0  0  0  0  0  0
  -12.3003   -8.5792   11.6033 H   0  0  0  0  0  0  0  0  0  0  0  0
  -17.6188   -7.5545    8.1372 H   0  0  0  0  0  0  0  0  0  0  0  0
  -17.4043   -9.2626    8.5965 H   0  0  0  0  0  0  0  0  0  0  0  0
  -15.3661   -7.6218    6.2606 C   0  0  0  0  0  0  0  0  0  0  0  0
  -15.0741   -8.5421    5.2516 C   0  0  0  0  0  0  0  0  0  0  0  0
  -15.6064   -8.4147    3.9837 C   0  0  0  0  0  0  0  0  0  0  0  0
  -16.4441   -7.3435    3.7358 C   0  0  0  0  0  0  0  0  0  0  0  0
  -17.1263   -7.1494    2.1320 Cl  0  0  0  0  0  0  0  0  0  0  0  0
  -16.7690   -6.4040    4.6935 C   0  0  0  0  0  0  0  0  0  0  0  0
  -16.2173   -6.5650    5.9475 C   0  0  0  0  0  0  0  0  0  0  0  0
  -17.6840   -5.2740    4.3606 C   0  0  0  0  0  0  0  0  0  0  0  0
  -18.9387   -5.7620    3.9828 F   0  0  0  0  0  0  0  0  0  0  0  0
  -17.9304   -4.5271    5.5074 F   0  0  0  0  0  0  0  0  0  0  0  0
  -17.2030   -4.5046    3.3477 F   0  0  0  0  0  0  0  0  0  0  0  0
  -11.0464   -7.4817    7.2011 C   0  0  0  0  0  0  0  0  0  0  0  0
  -12.4635   -7.2784    6.7214 C   0  0  0  0  0  0  0  0  0  0  0  0
 24 25  1  0  0  0
 25  1  1  0  0  0
  1  2  2  0  0  0
  2  3  1  0  0  0
  3  4  1  0  0  0
  3  5  2  0  0  0
  5  6  1  0  0  0
  6  7  1  0  0  0
  6  8  2  0  0  0
  8 13  1  0  0  0
 13 14  2  0  0  0
 14 15  1  0  0  0
 15 16  2  0  0  0
 16 17  1  0  0  0
 16 18  1  0  0  0
 18 19  2  0  0  0
 18 20  1  0  0  0
 20 21  1  0  0  0
 20 22  1  0  0  0
 20 23  1  0  0  0
  8  1  1  0  0  0
 19 13  1  0  0  0
  4  9  1  0  0  0
  4 10  1  0  0  0
  7 11  1  0  0  0
  7 12  1  0  0  0
M  END
> <minimizedAffinity>
-4.73366

> <CNNscore>
0.2903670371

> <CNNaffinity>
6.3068852425

> <CNN_VS>
1.8313115835

> <CNNaffinity_variance>
0.1062453389

$$$$
[H]c1c([H])c(-c2c(N([H])[H])nc(N([H])[H])nc2C([H])([H])C([H])([H])[H])c([H])c(C(F)(F)F)c1Cl


 25 26  0  0  0  0  0  0  0  0999 V2000
  -10.6646   -7.0838    8.5918 C   0  0  0  0  0  0  0  0  0  0  0  0
   -9.3229   -7.2652    8.7417 N   0  0  0  0  0  0  0  0  0  0  0  0
   -8.7043   -8.3281    8.2465 C   0  0  0  0  0  0  0  0  0  0  0  0
   -7.2995   -8.5615    8.3740 N   0  0  0  0  0  0  0  0  0  0  0  0
   -9.4330   -9.2398    7.5821 N   0  0  0  0  0  0  0  0  0  0  0  0
  -10.7500   -9.1354    7.3918 C   0  0  0  0  0  0  0  0  0  0  0  0
  -11.4702  -10.1308    6.6854 N   0  0  0  0  0  0  0  0  0  0  0  0
  -11.3991   -8.0140    7.9164 C   0  0  0  0  0  0  0  0  0  0  0  0
   -6.9284   -9.5574    8.3222 H   0  0  0  0  0  0  0  0  0  0  0  0
   -6.6534   -7.7594    8.5174 H   0  0  0  0  0  0  0  0  0  0  0  0
  -12.1961  -10.7114    7.1337 H   0  0  0  0  0  0  0  0  0  0  0  0
  -11.2551  -10.2800    5.6836 H   0  0  0  0  0  0  0  0  0  0  0  0
  -12.8357   -7.9127    7.7331 C   0  0  0  0  0  0  0  0  0  0  0  0
  -13.6785   -8.4465    8.7103 C   0  0  0  0  0  0  0  0  0  0  0  0
  -15.0527   -8.3899    8.5863 C   0  0  0  0  0  0  0  0  0  0  0  0
  -15.5786   -7.7852    7.4601 C   0  0  0  0  0  0  0  0  0  0  0  0
  -17.3202   -7.7081    7.2696 Cl  0  0  0  0  0  0  0  0  0  0  0  0
  -14.7955   -7.2395    6.4629 C   0  0  0  0  0  0  0  0  0  0  0  0
  -13.4274   -7.3161    6.6225 C   0  0  0  0  0  0  0  0  0  0  0  0
  -15.4280   -6.5965    5.2749 C   0  0  0  0  0  0  0  0  0  0  0  0
  -14.4477   -6.0521    4.4396 F   0  0  0  0  0  0  0  0  0  0  0  0
  -16.0474   -7.5700    4.4988 F   0  0  0  0  0  0  0  0  0  0  0  0
  -16.2889   -5.6038    5.6255 F   0  0  0  0  0  0  0  0  0  0  0  0
  -11.7105   -6.1133   10.6064 C   0  0  0  0  0  0  0  0  0  0  0  0
  -11.2862   -5.8497    9.1817 C   0  0  0  0  0  0  0  0  0  0  0  0
 24 25  1  0  0  0
 25  1  1  0  0  0
  1  2  2  0  0  0
  2  3  1  0  0  0
  3  4  1  0  0  0
  3  5  2  0  0  0
  5  6  1  0  0  0
  6  7  1  0  0  0
  6  8  2  0  0  0
  8 13  1  0  0  0
 13 14  2  0  0  0
 14 15  1  0  0  0
 15 16  2  0  0  0
 16 17  1  0  0  0
 16 18  1  0  0  0
 18 19  2  0  0  0
 18 20  1  0  0  0
 20 21  1  0  0  0
 20 22  1  0  0  0
 20 23  1  0  0  0
  8  1  1  0  0  0
 19 13  1  0  0  0
  4  9  1  0  0  0
  4 10  1  0  0  0
  7 11  1  0  0  0
  7 12  1  0  0  0
M  END
> <minimizedAffinity>
-8.20984

> <CNNscore>
0.2510477006

> <CNNaffinity>
6.1600923538

> <CNN_VS>
1.5464770794

> <CNNaffinity_variance>
0.4402323663

$$$$
[H]c1c([H])c(-c2c(N([H])[H])nc(N([H])[H])nc2C([H])([H])C([H])([H])[H])c([H])c(C(F)(F)F)c1Cl


 25 26  0  0  0  0  0  0  0  0999 V2000
  -11.4813   -7.5984    8.4162 C   0  0  0  0  0  0  0  0  0  0  0  0
  -12.8078   -7.9071    8.3939 N   0  0  0  0  0  0  0  0  0  0  0  0
  -13.2548   -9.0174    7.8239 C   0  0  0  0  0  0  0  0  0  0  0  0
  -14.6351   -9.3872    7.7778 N   0  0  0  0  0  0  0  0  0  0  0  0
  -12.3644   -9.8491    7.2590 N   0  0  0  0  0  0  0  0  0  0  0  0
  -11.0496   -9.6194    7.2392 C   0  0  0  0  0  0  0  0  0  0  0  0
  -10.1551  -10.5308    6.6247 N   0  0  0  0  0  0  0  0  0  0  0  0
  -10.5821   -8.4471    7.8401 C   0  0  0  0  0  0  0  0  0  0  0  0
  -14.9765  -10.0380    7.0081 H   0  0  0  0  0  0  0  0  0  0  0  0
  -15.2932   -9.0178    8.4932 H   0  0  0  0  0  0  0  0  0  0  0  0
   -9.5949  -10.2816    5.7945 H   0  0  0  0  0  0  0  0  0  0  0  0
  -10.0653  -11.4817    7.0246 H   0  0  0  0  0  0  0  0  0  0  0  0
   -9.1551   -8.1832    7.7957 C   0  0  0  0  0  0  0  0  0  0  0  0
   -8.3698   -8.5406    8.8938 C   0  0  0  0  0  0  0  0  0  0  0  0
   -7.0092   -8.3053    8.9141 C   0  0  0  0  0  0  0  0  0  0  0  0
   -6.4380   -7.7018    7.8096 C   0  0  0  0  0  0  0  0  0  0  0  0
   -4.7141   -7.3802    7.8111 Cl  0  0  0  0  0  0  0  0  0  0  0  0
   -7.1633   -7.3281    6.6962 C   0  0  0  0  0  0  0  0  0  0  0  0
   -8.5197   -7.5792    6.7136 C   0  0  0  0  0  0  0  0  0  0  0  0
   -6.4833   -6.6849    5.5348 C   0  0  0  0  0  0  0  0  0  0  0  0
   -5.7423   -7.6325    4.8220 F   0  0  0  0  0  0  0  0  0  0  0  0
   -7.4399   -6.2369    4.6305 F   0  0  0  0  0  0  0  0  0  0  0  0
   -5.6425   -5.6876    5.9195 F   0  0  0  0  0  0  0  0  0  0  0  0
  -11.9197   -6.0628   10.2988 C   0  0  0  0  0  0  0  0  0  0  0  0
  -11.0589   -6.3213    9.0857 C   0  0  0  0  0  0  0  0  0  0  0  0
 24 25  1  0  0  0
 25  1  1  0  0  0
  1  2  2  0  0  0
  2  3  1  0  0  0
  3  4  1  0  0  0
  3  5  2  0  0  0
  5  6  1  0  0  0
  6  7  1  0  0  0
  6  8  2  0  0  0
  8 13  1  0  0  0
 13 14  2  0  0  0
 14 15  1  0  0  0
 15 16  2  0  0  0
 16 17  1  0  0  0
 16 18  1  0  0  0
 18 19  2  0  0  0
 18 20  1  0  0  0
 20 21  1  0  0  0
 20 22  1  0  0  0
 20 23  1  0  0  0
  8  1  1  0  0  0
 19 13  1  0  0  0
  4  9  1  0  0  0
  4 10  1  0  0  0
  7 11  1  0  0  0
  7 12  1  0  0  0
M  END
> <minimizedAffinity>
-7.08210

> <CNNscore>
0.2234226465

> <CNNaffinity>
6.0083794594

> <CNN_VS>
1.3424080610

> <CNNaffinity_variance>
0.1584070027

$$$$
[H]c1c([H])c(-c2c(N([H])[H])nc(N([H])[H])nc2C([H])([H])C([H])([H])[H])c([H])c(C(F)(F)F)c1Cl


 25 26  0  0  0  0  0  0  0  0999 V2000
  -13.5908   -7.9434    8.8524 C   0  0  0  0  0  0  0  0  0  0  0  0
  -14.9433   -7.8008    8.9296 N   0  0  0  0  0  0  0  0  0  0  0  0
  -15.7363   -8.1224    7.9171 C   0  0  0  0  0  0  0  0  0  0  0  0
  -17.1599   -7.9946    7.9506 N   0  0  0  0  0  0  0  0  0  0  0  0
  -15.1766   -8.6002    6.7937 N   0  0  0  0  0  0  0  0  0  0  0  0
  -13.8617   -8.7701    6.6389 C   0  0  0  0  0  0  0  0  0  0  0  0
  -13.3249   -9.2751    5.4285 N   0  0  0  0  0  0  0  0  0  0  0  0
  -13.0286   -8.4287    7.7082 C   0  0  0  0  0  0  0  0  0  0  0  0
  -17.6964   -7.8845    7.0383 H   0  0  0  0  0  0  0  0  0  0  0  0
  -17.6586   -8.0088    8.8630 H   0  0  0  0  0  0  0  0  0  0  0  0
  -12.7079   -8.7142    4.8203 H   0  0  0  0  0  0  0  0  0  0  0  0
  -13.5653  -10.2418    5.1458 H   0  0  0  0  0  0  0  0  0  0  0  0
  -11.5964   -8.5879    7.5314 C   0  0  0  0  0  0  0  0  0  0  0  0
  -11.0744   -9.8754    7.3897 C   0  0  0  0  0  0  0  0  0  0  0  0
   -9.7197  -10.0905    7.2292 C   0  0  0  0  0  0  0  0  0  0  0  0
   -8.8850   -8.9889    7.2114 C   0  0  0  0  0  0  0  0  0  0  0  0
   -7.1589   -9.2315    7.0202 Cl  0  0  0  0  0  0  0  0  0  0  0  0
   -9.3439   -7.6939    7.3454 C   0  0  0  0  0  0  0  0  0  0  0  0
  -10.7031   -7.5198    7.5044 C   0  0  0  0  0  0  0  0  0  0  0  0
   -8.3887   -6.5488    7.3124 C   0  0  0  0  0  0  0  0  0  0  0  0
   -7.9405   -6.3295    6.0062 F   0  0  0  0  0  0  0  0  0  0  0  0
   -9.0592   -5.3791    7.6528 F   0  0  0  0  0  0  0  0  0  0  0  0
   -7.3044   -6.7611    8.1053 F   0  0  0  0  0  0  0  0  0  0  0  0
  -12.8324   -6.0654   10.2639 C   0  0  0  0  0  0  0  0  0  0  0  0
  -12.7652   -7.5580   10.0471 C   0  0  0  0  0  0  0  0  0  0  0  0
 24 25  1  0  0  0
 25  1  1  0  0  0
  1  2  2  0  0  0
  2  3  1  0  0  0
  3  4  1  0  0  0
  3  5  2  0  0  0
  5  6  1  0  0  0
  6  7  1  0  0  0
  6  8  2  0  0  0
  8 13  1  0  0  0
 13 14  2  0  0  0
 14 15  1  0  0  0
 15 16  2  0  0  0
 16 17  1  0  0  0
 16 18  1  0  0  0
 18 19  2  0  0  0
 18 20  1  0  0  0
 20 21  1  0  0  0
 20 22  1  0  0  0
 20 23  1  0  0  0
  8  1  1  0  0  0
 19 13  1  0  0  0
  4  9  1  0  0  0
  4 10  1  0  0  0
  7 11  1  0  0  0
  7 12  1  0  0  0
M  END
> <minimizedAffinity>
-8.58458

> <CNNscore>
0.2190141529

> <CNNaffinity>
6.3333649635

> <CNN_VS>
1.3870965242

> <CNNaffinity_variance>
0.1620615572

$$$$
[H]c1c([H])c(-c2c(N([H])[H])nc(N([H])[H])nc2C([H])([H])C([H])([H])[H])c([H])c(C(F)(F)F)c1Cl


 25 26  0  0  0  0  0  0  0  0999 V2000
   -3.1211   -3.2051    7.6207 C   0  0  0  0  0  0  0  0  0  0  0  0
   -2.3844   -2.2489    8.2520 N   0  0  0  0  0  0  0  0  0  0  0  0
   -1.8437   -2.4603    9.4437 C   0  0  0  0  0  0  0  0  0  0  0  0
   -1.0603   -1.4910   10.1445 N   0  0  0  0  0  0  0  0  0  0  0  0
   -2.0356   -3.6531   10.0302 N   0  0  0  0  0  0  0  0  0  0  0  0
   -2.7431   -4.6414    9.4783 C   0  0  0  0  0  0  0  0  0  0  0  0
   -2.9167   -5.8799   10.1449 N   0  0  0  0  0  0  0  0  0  0  0  0
   -3.3128   -4.4144    8.2222 C   0  0  0  0  0  0  0  0  0  0  0  0
   -0.9886   -1.5446   11.2049 H   0  0  0  0  0  0  0  0  0  0  0  0
   -0.5693   -0.7428    9.6150 H   0  0  0  0  0  0  0  0  0  0  0  0
   -3.8411   -6.2138   10.4598 H   0  0  0  0  0  0  0  0  0  0  0  0
   -2.0827   -6.4671   10.3232 H   0  0  0  0  0  0  0  0  0  0  0  0
   -4.1047   -5.4790    7.6328 C   0  0  0  0  0  0  0  0  0  0  0  0
   -3.8110   -5.8961    6.3328 C   0  0  0  0  0  0  0  0  0  0  0  0
   -4.5359   -6.8964    5.7156 C   0  0  0  0  0  0  0  0  0  0  0  0
   -5.5691   -7.4809    6.4236 C   0  0  0  0  0  0  0  0  0  0  0  0
   -6.5145   -8.7463    5.6618 Cl  0  0  0  0  0  0  0  0  0  0  0  0
   -5.9041   -7.1110    7.7106 C   0  0  0  0  0  0  0  0  0  0  0  0
   -5.1574   -6.1079    8.2930 C   0  0  0  0  0  0  0  0  0  0  0  0
   -7.0286   -7.7867    8.4203 C   0  0  0  0  0  0  0  0  0  0  0  0
   -7.0269   -7.4367    9.7740 F   0  0  0  0  0  0  0  0  0  0  0  0
   -8.2381   -7.3013    7.9353 F   0  0  0  0  0  0  0  0  0  0  0  0
   -6.9530   -9.1416    8.3301 F   0  0  0  0  0  0  0  0  0  0  0  0
   -2.6358   -2.2707    5.3879 C   0  0  0  0  0  0  0  0  0  0  0  0
   -3.6961   -2.8845    6.2702 C   0  0  0  0  0  0  0  0  0  0  0  0
 24 25  1  0  0  0
 25  1  1  0  0  0
  1  2  2  0  0  0
  2  3  1  0  0  0
  3  4  1  0  0  0
  3  5  2  0  0  0
  5  6  1  0  0  0
  6  7  1  0  0  0
  6  8  2  0  0  0
  8 13  1  0  0  0
 13 14  2  0  0  0
 14 15  1  0  0  0
 15 16  2  0  0  0
 16 17  1  0  0  0
 16 18  1  0  0  0
 18 19  2  0  0  0
 18 20  1  0  0  0
 20 21  1  0  0  0
 20 22  1  0  0  0
 20 23  1  0  0  0
  8  1  1  0  0  0
 19 13  1  0  0  0
  4  9  1  0  0  0
  4 10  1  0  0  0
  7 11  1  0  0  0
  7 12  1  0  0  0
M  END
> <minimizedAffinity>
-3.98565

> <CNNscore>
0.2109142989

> <CNNaffinity>
4.7306776047

> <CNN_VS>
0.9977675676

> <CNNaffinity_variance>
0.4503630698

$$$$
[H]c1c([H])c(-c2c(N([H])[H])nc(N([H])[H])nc2C([H])([H])C([H])([H])[H])c([H])c(C(F)(F)F)c1Cl


 25 26  0  0  0  0  0  0  0  0999 V2000
  -15.6766   -5.5878    4.7264 C   0  0  0  0  0  0  0  0  0  0  0  0
  -16.8201   -5.0254    4.2451 N   0  0  0  0  0  0  0  0  0  0  0  0
  -18.0176   -5.4599    4.6119 C   0  0  0  0  0  0  0  0  0  0  0  0
  -19.2454   -4.9011    4.1382 N   0  0  0  0  0  0  0  0  0  0  0  0
  -18.0884   -6.4808    5.4815 N   0  0  0  0  0  0  0  0  0  0  0  0
  -17.0165   -7.0849    5.9991 C   0  0  0  0  0  0  0  0  0  0  0  0
  -17.1502   -8.1616    6.9108 N   0  0  0  0  0  0  0  0  0  0  0  0
  -15.7554   -6.6249    5.6090 C   0  0  0  0  0  0  0  0  0  0  0  0
  -20.1258   -5.4988    4.1376 H   0  0  0  0  0  0  0  0  0  0  0  0
  -19.2687   -3.9188    3.7977 H   0  0  0  0  0  0  0  0  0  0  0  0
  -16.8262   -9.1164    6.6907 H   0  0  0  0  0  0  0  0  0  0  0  0
  -17.5924   -7.9802    7.8293 H   0  0  0  0  0  0  0  0  0  0  0  0
  -14.5890   -7.2986    6.1507 C   0  0  0  0  0  0  0  0  0  0  0  0
  -14.1624   -8.4885    5.5571 C   0  0  0  0  0  0  0  0  0  0  0  0
  -13.0664   -9.1798    6.0344 C   0  0  0  0  0  0  0  0  0  0  0  0
  -12.3949   -8.6594    7.1247 C   0  0  0  0  0  0  0  0  0  0  0  0
  -11.0060   -9.5210    7.7600 Cl  0  0  0  0  0  0  0  0  0  0  0  0
  -12.7696   -7.4877    7.7511 C   0  0  0  0  0  0  0  0  0  0  0  0
  -13.8696   -6.8263    7.2456 C   0  0  0  0  0  0  0  0  0  0  0  0
  -11.9973   -6.9786    8.9213 C   0  0  0  0  0  0  0  0  0  0  0  0
  -12.6106   -5.8372    9.4466 F   0  0  0  0  0  0  0  0  0  0  0  0
  -12.0530   -7.9109    9.9515 F   0  0  0  0  0  0  0  0  0  0  0  0
  -10.7163   -6.6615    8.5928 F   0  0  0  0  0  0  0  0  0  0  0  0
  -14.4453   -3.5306    4.1381 C   0  0  0  0  0  0  0  0  0  0  0  0
  -14.3600   -5.0329    4.2614 C   0  0  0  0  0  0  0  0  0  0  0  0
 24 25  1  0  0  0
 25  1  1  0  0  0
  1  2  2  0  0  0
  2  3  1  0  0  0
  3  4  1  0  0  0
  3  5  2  0  0  0
  5  6  1  0  0  0
  6  7  1  0  0  0
  6  8  2  0  0  0
  8 13  1  0  0  0
 13 14  2  0  0  0
 14 15  1  0  0  0
 15 16  2  0  0  0
 16 17  1  0  0  0
 16 18  1  0  0  0
 18 19  2  0  0  0
 18 20  1  0  0  0
 20 21  1  0  0  0
 20 22  1  0  0  0
 20 23  1  0  0  0
  8  1  1  0  0  0
 19 13  1  0  0  0
  4  9  1  0  0  0
  4 10  1  0  0  0
  7 11  1  0  0  0
  7 12  1  0  0  0
M  END
> <minimizedAffinity>
-8.13304

> <CNNscore>
0.1984920651

> <CNNaffinity>
6.2669758797

> <CNN_VS>
1.2439450026

> <CNNaffinity_variance>
0.1565878093

$$$$
[H]c1nc(N([H])[H])c(O[C@@]([H])(c2c([H])c([H])c(F)c([H])c2C(F)(F)F)C([H])([H])[H])c([H])c1-c1c([H])c(F)c(F)c(C(F)(F)F)c1[H]


 35 37  0  0  0  0  0  0  0  0999 V2000
  -13.8185   -8.2879    6.8187 C   0  0  0  0  0  0  0  0  0  0  0  0
  -12.3961   -8.3136    6.6875 C   0  0  0  0  0  0  0  0  0  0  0  0
  -11.5561   -8.6873    7.6807 C   0  0  0  0  0  0  0  0  0  0  0  0
  -12.1190   -9.0616    8.8853 C   0  0  0  0  0  0  0  0  0  0  0  0
  -13.4705   -9.0389    9.0172 N   0  0  0  0  0  0  0  0  0  0  0  0
  -14.3155   -8.6733    8.0463 C   0  0  0  0  0  0  0  0  0  0  0  0
  -15.7283   -8.6892    8.2918 N   0  0  0  0  0  0  0  0  0  0  0  0
  -16.1969   -7.9332    8.8258 H   0  0  0  0  0  0  0  0  0  0  0  0
  -16.2841   -9.4756    7.9275 H   0  0  0  0  0  0  0  0  0  0  0  0
  -10.1058   -8.7215    7.5468 C   0  0  0  0  0  0  0  0  0  0  0  0
   -9.3685   -9.8174    7.9312 C   0  0  0  0  0  0  0  0  0  0  0  0
   -7.9999   -9.9192    7.8224 C   0  0  0  0  0  0  0  0  0  0  0  0
   -7.3041  -11.0092    8.2127 F   0  0  0  0  0  0  0  0  0  0  0  0
   -7.3086   -8.8767    7.3005 C   0  0  0  0  0  0  0  0  0  0  0  0
   -5.9614   -8.8530    7.1364 F   0  0  0  0  0  0  0  0  0  0  0  0
   -8.0047   -7.7356    6.8914 C   0  0  0  0  0  0  0  0  0  0  0  0
   -9.3797   -7.6607    7.0129 C   0  0  0  0  0  0  0  0  0  0  0  0
   -7.2548   -6.5883    6.3061 C   0  0  0  0  0  0  0  0  0  0  0  0
   -8.1821   -5.7110    5.7733 F   0  0  0  0  0  0  0  0  0  0  0  0
   -6.4295   -7.0423    5.2954 F   0  0  0  0  0  0  0  0  0  0  0  0
   -6.4924   -5.9749    7.2742 F   0  0  0  0  0  0  0  0  0  0  0  0
  -14.5183   -7.8970    5.7534 O   0  0  0  0  0  0  0  0  0  0  0  0
  -14.7287   -8.4464    3.5185 C   0  0  0  0  0  0  0  0  0  0  0  0
  -15.4635   -8.3721    4.8988 C   0  0  0  0  0  0  0  0  0  0  0  0
  -16.5295   -7.3411    4.7187 C   0  0  0  0  0  0  0  0  0  0  0  0
  -17.8176   -7.8203    4.4345 C   0  0  0  0  0  0  0  0  0  0  0  0
  -18.8476   -6.9131    4.1946 C   0  0  0  0  0  0  0  0  0  0  0  0
  -18.6015   -5.5880    4.2369 C   0  0  0  0  0  0  0  0  0  0  0  0
  -19.6032   -4.7247    4.0018 F   0  0  0  0  0  0  0  0  0  0  0  0
  -17.3331   -5.1391    4.5174 C   0  0  0  0  0  0  0  0  0  0  0  0
  -16.2594   -6.0179    4.7674 C   0  0  0  0  0  0  0  0  0  0  0  0
  -14.9354   -5.4687    5.0773 C   0  0  0  0  0  0  0  0  0  0  0  0
  -14.5396   -5.6287    6.3917 F   0  0  0  0  0  0  0  0  0  0  0  0
  -15.0354   -4.0429    4.9611 F   0  0  0  0  0  0  0  0  0  0  0  0
  -13.9608   -5.7830    4.1588 F   0  0  0  0  0  0  0  0  0  0  0  0
 23 24  1  0  0  0
 24 22  1  0  0  0
 22  1  1  0  0  0
  1  2  2  0  0  0
  2  3  1  0  0  0
  3  4  2  0  0  0
  4  5  1  0  0  0
  5  6  2  0  0  0
  6  7  1  0  0  0
  3 10  1  0  0  0
 10 11  2  0  0  0
 11 12  1  0  0  0
 12 13  1  0  0  0
 12 14  2  0  0  0
 14 15  1  0  0  0
 14 16  1  0  0  0
 16 17  2  0  0  0
 16 18  1  0  0  0
 18 19  1  0  0  0
 18 20  1  0  0  0
 18 21  1  0  0  0
 24 25  1  0  0  0
 25 26  2  0  0  0
 26 27  1  0  0  0
 27 28  2  0  0  0
 28 29  1  0  0  0
 28 30  1  0  0  0
 30 31  2  0  0  0
 31 32  1  0  0  0
 32 33  1  0  0  0
 32 34  1  0  0  0
 32 35  1  0  0  0
  6  1  1  0  0  0
 17 10  1  0  0  0
 31 25  1  0  0  0
  7  8  1  0  0  0
  7  9  1  0  0  0
M  END
> <minimizedAffinity>
-10.71992

> <CNNscore>
0.4474047124

> <CNNaffinity>
7.7139635086

> <CNN_VS>
3.4512636662

> <CNNaffinity_variance>
0.1652986705

$$$$
[H]c1nc(N([H])[H])c(O[C@@]([H])(c2c([H])c([H])c(F)c([H])c2C(F)(F)F)C([H])([H])[H])c([H])c1-c1c([H])c(F)c(F)c(C(F)(F)F)c1[H]


 35 37  0  0  0  0  0  0  0  0999 V2000
  -13.9531   -8.6852    6.7466 C   0  0  0  0  0  0  0  0  0  0  0  0
  -12.5295   -8.7263    6.6336 C   0  0  0  0  0  0  0  0  0  0  0  0
  -11.6877   -8.5924    7.6849 C   0  0  0  0  0  0  0  0  0  0  0  0
  -12.2501   -8.4046    8.9325 C   0  0  0  0  0  0  0  0  0  0  0  0
  -13.6027   -8.3640    9.0471 N   0  0  0  0  0  0  0  0  0  0  0  0
  -14.4494   -8.4953    8.0194 C   0  0  0  0  0  0  0  0  0  0  0  0
  -15.8632   -8.4400    8.2532 N   0  0  0  0  0  0  0  0  0  0  0  0
  -16.3570   -7.5388    8.3951 H   0  0  0  0  0  0  0  0  0  0  0  0
  -16.3940   -9.3219    8.2817 H   0  0  0  0  0  0  0  0  0  0  0  0
  -10.2360   -8.6415    7.5731 C   0  0  0  0  0  0  0  0  0  0  0  0
   -9.5168   -9.7488    7.9592 C   0  0  0  0  0  0  0  0  0  0  0  0
   -8.1479   -9.8647    7.8707 C   0  0  0  0  0  0  0  0  0  0  0  0
   -7.4702  -10.9657    8.2621 F   0  0  0  0  0  0  0  0  0  0  0  0
   -7.4372   -8.8254    7.3688 C   0  0  0  0  0  0  0  0  0  0  0  0
   -6.0874   -8.8152    7.2258 F   0  0  0  0  0  0  0  0  0  0  0  0
   -8.1144   -7.6732    6.9591 C   0  0  0  0  0  0  0  0  0  0  0  0
   -9.4902   -7.5842    7.0600 C   0  0  0  0  0  0  0  0  0  0  0  0
   -7.3429   -6.5292    6.3957 C   0  0  0  0  0  0  0  0  0  0  0  0
   -8.2529   -5.6304    5.8690 F   0  0  0  0  0  0  0  0  0  0  0  0
   -6.5172   -6.9812    5.3845 F   0  0  0  0  0  0  0  0  0  0  0  0
   -6.5784   -5.9414    7.3779 F   0  0  0  0  0  0  0  0  0  0  0  0
  -14.6547   -8.8320    5.6224 O   0  0  0  0  0  0  0  0  0  0  0  0
  -15.8988   -9.1946    3.7088 C   0  0  0  0  0  0  0  0  0  0  0  0
  -15.8183   -8.4085    5.0603 C   0  0  0  0  0  0  0  0  0  0  0  0
  -15.6843   -6.9728    4.6695 C   0  0  0  0  0  0  0  0  0  0  0  0
  -14.4054   -6.4093    4.7981 C   0  0  0  0  0  0  0  0  0  0  0  0
  -14.2206   -5.0587    4.5093 C   0  0  0  0  0  0  0  0  0  0  0  0
  -15.2660   -4.3062    4.1101 C   0  0  0  0  0  0  0  0  0  0  0  0
  -15.0740   -3.0052    3.8368 F   0  0  0  0  0  0  0  0  0  0  0  0
  -16.5103   -4.8773    3.9901 C   0  0  0  0  0  0  0  0  0  0  0  0
  -16.7463   -6.2387    4.2704 C   0  0  0  0  0  0  0  0  0  0  0  0
  -18.0969   -6.7855    4.1041 C   0  0  0  0  0  0  0  0  0  0  0  0
  -18.3615   -7.2919    2.8457 F   0  0  0  0  0  0  0  0  0  0  0  0
  -19.0088   -5.6818    4.1857 F   0  0  0  0  0  0  0  0  0  0  0  0
  -18.5102   -7.6007    5.1321 F   0  0  0  0  0  0  0  0  0  0  0  0
 23 24  1  0  0  0
 24 22  1  0  0  0
 22  1  1  0  0  0
  1  2  2  0  0  0
  2  3  1  0  0  0
  3  4  2  0  0  0
  4  5  1  0  0  0
  5  6  2  0  0  0
  6  7  1  0  0  0
  3 10  1  0  0  0
 10 11  2  0  0  0
 11 12  1  0  0  0
 12 13  1  0  0  0
 12 14  2  0  0  0
 14 15  1  0  0  0
 14 16  1  0  0  0
 16 17  2  0  0  0
 16 18  1  0  0  0
 18 19  1  0  0  0
 18 20  1  0  0  0
 18 21  1  0  0  0
 24 25  1  0  0  0
 25 26  2  0  0  0
 26 27  1  0  0  0
 27 28  2  0  0  0
 28 29  1  0  0  0
 28 30  1  0  0  0
 30 31  2  0  0  0
 31 32  1  0  0  0
 32 33  1  0  0  0
 32 34  1  0  0  0
 32 35  1  0  0  0
  6  1  1  0  0  0
 17 10  1  0  0  0
 31 25  1  0  0  0
  7  8  1  0  0  0
  7  9  1  0  0  0
M  END
> <minimizedAffinity>
-10.77412

> <CNNscore>
0.3908487260

> <CNNaffinity>
7.6169672012

> <CNN_VS>
2.9770820141

> <CNNaffinity_variance>
0.1243551746

$$$$
[H]c1nc(N([H])[H])c(O[C@@]([H])(c2c([H])c([H])c(F)c([H])c2C(F)(F)F)C([H])([H])[H])c([H])c1-c1c([H])c(F)c(F)c(C(F)(F)F)c1[H]


 35 37  0  0  0  0  0  0  0  0999 V2000
  -12.4465   -8.3325    7.8087 C   0  0  0  0  0  0  0  0  0  0  0  0
  -13.1662   -7.5577    6.8480 C   0  0  0  0  0  0  0  0  0  0  0  0
  -14.5170   -7.5200    6.7724 C   0  0  0  0  0  0  0  0  0  0  0  0
  -15.2283   -8.2794    7.6809 C   0  0  0  0  0  0  0  0  0  0  0  0
  -14.5505   -9.0188    8.5965 N   0  0  0  0  0  0  0  0  0  0  0  0
  -13.2164   -9.0673    8.6861 C   0  0  0  0  0  0  0  0  0  0  0  0
  -12.6020   -9.8802    9.6952 N   0  0  0  0  0  0  0  0  0  0  0  0
  -12.5169  -10.9086    9.5891 H   0  0  0  0  0  0  0  0  0  0  0  0
  -12.2408   -9.4240   10.5447 H   0  0  0  0  0  0  0  0  0  0  0  0
  -15.2531   -6.7249    5.7985 C   0  0  0  0  0  0  0  0  0  0  0  0
  -14.7668   -5.5288    5.3240 C   0  0  0  0  0  0  0  0  0  0  0  0
  -15.4049   -4.7351    4.3976 C   0  0  0  0  0  0  0  0  0  0  0  0
  -14.9020   -3.5625    3.9539 F   0  0  0  0  0  0  0  0  0  0  0  0
  -16.5992   -5.1426    3.9029 C   0  0  0  0  0  0  0  0  0  0  0  0
  -17.3256   -4.4555    2.9849 F   0  0  0  0  0  0  0  0  0  0  0  0
  -17.1430   -6.3511    4.3478 C   0  0  0  0  0  0  0  0  0  0  0  0
  -16.4802   -7.1279    5.2795 C   0  0  0  0  0  0  0  0  0  0  0  0
  -18.4504   -6.8133    3.8017 C   0  0  0  0  0  0  0  0  0  0  0  0
  -19.3738   -5.8067    4.0197 F   0  0  0  0  0  0  0  0  0  0  0  0
  -18.8556   -7.9512    4.4721 F   0  0  0  0  0  0  0  0  0  0  0  0
  -18.3325   -7.0945    2.4594 F   0  0  0  0  0  0  0  0  0  0  0  0
  -11.1156   -8.2707    7.7625 O   0  0  0  0  0  0  0  0  0  0  0  0
  -10.5768   -6.3872    8.9886 C   0  0  0  0  0  0  0  0  0  0  0  0
  -10.0719   -7.7803    8.4833 C   0  0  0  0  0  0  0  0  0  0  0  0
   -8.9364   -7.4734    7.5622 C   0  0  0  0  0  0  0  0  0  0  0  0
   -8.9987   -6.2461    6.8845 C   0  0  0  0  0  0  0  0  0  0  0  0
   -8.0043   -5.9216    5.9639 C   0  0  0  0  0  0  0  0  0  0  0  0
   -6.9942   -6.7842    5.7316 C   0  0  0  0  0  0  0  0  0  0  0  0
   -6.0433   -6.4595    4.8402 F   0  0  0  0  0  0  0  0  0  0  0  0
   -6.9513   -7.9809    6.4061 C   0  0  0  0  0  0  0  0  0  0  0  0
   -7.9335   -8.3530    7.3465 C   0  0  0  0  0  0  0  0  0  0  0  0
   -7.8152   -9.6386    8.0422 C   0  0  0  0  0  0  0  0  0  0  0  0
   -7.5351   -9.5387    9.3918 F   0  0  0  0  0  0  0  0  0  0  0  0
   -6.6393  -10.2833    7.5344 F   0  0  0  0  0  0  0  0  0  0  0  0
   -8.8112  -10.5395    7.7440 F   0  0  0  0  0  0  0  0  0  0  0  0
 23 24  1  0  0  0
 24 22  1  0  0  0
 22  1  1  0  0  0
  1  2  2  0  0  0
  2  3  1  0  0  0
  3  4  2  0  0  0
  4  5  1  0  0  0
  5  6  2  0  0  0
  6  7  1  0  0  0
  3 10  1  0  0  0
 10 11  2  0  0  0
 11 12  1  0  0  0
 12 13  1  0  0  0
 12 14  2  0  0  0
 14 15  1  0  0  0
 14 16  1  0  0  0
 16 17  2  0  0  0
 16 18  1  0  0  0
 18 19  1  0  0  0
 18 20  1  0  0  0
 18 21  1  0  0  0
 24 25  1  0  0  0
 25 26  2  0  0  0
 26 27  1  0  0  0
 27 28  2  0  0  0
 28 29  1  0  0  0
 28 30  1  0  0  0
 30 31  2  0  0  0
 31 32  1  0  0  0
 32 33  1  0  0  0
 32 34  1  0  0  0
 32 35  1  0  0  0
  6  1  1  0  0  0
 17 10  1  0  0  0
 31 25  1  0  0  0
  7  8  1  0  0  0
  7  9  1  0  0  0
M  END
> <minimizedAffinity>
-10.43894

> <CNNscore>
0.2727572918

> <CNNaffinity>
7.2378587723

> <CNN_VS>
1.9741787910

> <CNNaffinity_variance>
0.2538810074

$$$$
[H]c1nc(N([H])[H])c(O[C@@]([H])(c2c([H])c([H])c(F)c([H])c2C(F)(F)F)C([H])([H])[H])c([H])c1-c1c([H])c(F)c(F)c(C(F)(F)F)c1[H]


 35 37  0  0  0  0  0  0  0  0999 V2000
  -12.5299   -9.4084    6.9924 C   0  0  0  0  0  0  0  0  0  0  0  0
  -13.2127   -8.4403    6.1939 C   0  0  0  0  0  0  0  0  0  0  0  0
  -14.5098   -8.0979    6.3730 C   0  0  0  0  0  0  0  0  0  0  0  0
  -15.2017   -8.7289    7.3885 C   0  0  0  0  0  0  0  0  0  0  0  0
  -14.5589   -9.6507    8.1511 N   0  0  0  0  0  0  0  0  0  0  0  0
  -13.2777  -10.0005    7.9887 C   0  0  0  0  0  0  0  0  0  0  0  0
  -12.6956  -10.9850    8.8540 N   0  0  0  0  0  0  0  0  0  0  0  0
  -12.8694  -11.9989    8.7201 H   0  0  0  0  0  0  0  0  0  0  0  0
  -12.0931  -10.6689    9.6268 H   0  0  0  0  0  0  0  0  0  0  0  0
  -15.2060   -7.1057    5.5649 C   0  0  0  0  0  0  0  0  0  0  0  0
  -14.6318   -5.8960    5.2498 C   0  0  0  0  0  0  0  0  0  0  0  0
  -15.2289   -4.9204    4.4836 C   0  0  0  0  0  0  0  0  0  0  0  0
  -14.6391   -3.7401    4.1946 F   0  0  0  0  0  0  0  0  0  0  0  0
  -16.4718   -5.1473    3.9928 C   0  0  0  0  0  0  0  0  0  0  0  0
  -17.1660   -4.2707    3.2233 F   0  0  0  0  0  0  0  0  0  0  0  0
  -17.1054   -6.3599    4.2796 C   0  0  0  0  0  0  0  0  0  0  0  0
  -16.4819   -7.3216    5.0524 C   0  0  0  0  0  0  0  0  0  0  0  0
  -18.4676   -6.6233    3.7354 C   0  0  0  0  0  0  0  0  0  0  0  0
  -18.9402   -7.7781    4.3327 F   0  0  0  0  0  0  0  0  0  0  0  0
  -18.3905   -6.8198    2.3701 F   0  0  0  0  0  0  0  0  0  0  0  0
  -19.2979   -5.5565    3.9947 F   0  0  0  0  0  0  0  0  0  0  0  0
  -11.2507   -9.6426    6.6987 O   0  0  0  0  0  0  0  0  0  0  0  0
   -9.2375  -10.1387    7.7195 C   0  0  0  0  0  0  0  0  0  0  0  0
  -10.0241   -9.0820    6.8738 C   0  0  0  0  0  0  0  0  0  0  0  0
  -10.1496   -7.8867    7.7612 C   0  0  0  0  0  0  0  0  0  0  0  0
  -11.1871   -7.9186    8.7057 C   0  0  0  0  0  0  0  0  0  0  0  0
  -11.4005   -6.8122    9.5253 C   0  0  0  0  0  0  0  0  0  0  0  0
  -10.6130   -5.7241    9.4064 C   0  0  0  0  0  0  0  0  0  0  0  0
  -10.8310   -4.6637   10.2015 F   0  0  0  0  0  0  0  0  0  0  0  0
   -9.6020   -5.7130    8.4754 C   0  0  0  0  0  0  0  0  0  0  0  0
   -9.3473   -6.8080    7.6246 C   0  0  0  0  0  0  0  0  0  0  0  0
   -8.2401   -6.7337    6.6657 C   0  0  0  0  0  0  0  0  0  0  0  0
   -7.6442   -7.9475    6.3800 F   0  0  0  0  0  0  0  0  0  0  0  0
   -7.1771   -6.0167    7.3078 F   0  0  0  0  0  0  0  0  0  0  0  0
   -8.5010   -5.9648    5.5554 F   0  0  0  0  0  0  0  0  0  0  0  0
 23 24  1  0  0  0
 24 22  1  0  0  0
 22  1  1  0  0  0
  1  2  2  0  0  0
  2  3  1  0  0  0
  3  4  2  0  0  0
  4  5  1  0  0  0
  5  6  2  0  0  0
  6  7  1  0  0  0
  3 10  1  0  0  0
 10 11  2  0  0  0
 11 12  1  0  0  0
 12 13  1  0  0  0
 12 14  2  0  0  0
 14 15  1  0  0  0
 14 16  1  0  0  0
 16 17  2  0  0  0
 16 18  1  0  0  0
 18 19  1  0  0  0
 18 20  1  0  0  0
 18 21  1  0  0  0
 24 25  1  0  0  0
 25 26  2  0  0  0
 26 27  1  0  0  0
 27 28  2  0  0  0
 28 29  1  0  0  0
 28 30  1  0  0  0
 30 31  2  0  0  0
 31 32  1  0  0  0
 32 33  1  0  0  0
 32 34  1  0  0  0
 32 35  1  0  0  0
  6  1  1  0  0  0
 17 10  1  0  0  0
 31 25  1  0  0  0
  7  8  1  0  0  0
  7  9  1  0  0  0
M  END
> <minimizedAffinity>
-8.46070

> <CNNscore>
0.2597066462

> <CNNaffinity>
7.4687209129

> <CNN_VS>
1.9396764040

> <CNNaffinity_variance>
0.2455161512

$$$$
[H]c1nc(N([H])[H])c(O[C@@]([H])(c2c([H])c([H])c(F)c([H])c2C(F)(F)F)C([H])([H])[H])c([H])c1-c1c([H])c(F)c(F)c(C(F)(F)F)c1[H]


 35 37  0  0  0  0  0  0  0  0999 V2000
  -15.5017   -8.4104    6.6092 C   0  0  0  0  0  0  0  0  0  0  0  0
  -14.0806   -8.3434    6.7404 C   0  0  0  0  0  0  0  0  0  0  0  0
  -13.4466   -8.0042    7.8870 C   0  0  0  0  0  0  0  0  0  0  0  0
  -14.2300   -7.7069    8.9852 C   0  0  0  0  0  0  0  0  0  0  0  0
  -15.5816   -7.7681    8.8674 N   0  0  0  0  0  0  0  0  0  0  0  0
  -16.2247   -8.1021    7.7427 C   0  0  0  0  0  0  0  0  0  0  0  0
  -17.6583   -8.1387    7.7290 N   0  0  0  0  0  0  0  0  0  0  0  0
  -18.2246   -7.2725    7.6588 H   0  0  0  0  0  0  0  0  0  0  0  0
  -18.1296   -9.0519    7.7933 H   0  0  0  0  0  0  0  0  0  0  0  0
  -11.9977   -7.9425    8.0252 C   0  0  0  0  0  0  0  0  0  0  0  0
  -11.3761   -6.9051    8.6808 C   0  0  0  0  0  0  0  0  0  0  0  0
  -10.0153   -6.7913    8.8559 C   0  0  0  0  0  0  0  0  0  0  0  0
   -9.4349   -5.7569    9.5024 F   0  0  0  0  0  0  0  0  0  0  0  0
   -9.2108   -7.7605    8.3555 C   0  0  0  0  0  0  0  0  0  0  0  0
   -7.8577   -7.7679    8.4637 F   0  0  0  0  0  0  0  0  0  0  0  0
   -9.7862   -8.8403    7.6797 C   0  0  0  0  0  0  0  0  0  0  0  0
  -11.1563   -8.9286    7.5181 C   0  0  0  0  0  0  0  0  0  0  0  0
   -8.9108   -9.9167    7.1353 C   0  0  0  0  0  0  0  0  0  0  0  0
   -8.1095   -9.3506    6.1602 F   0  0  0  0  0  0  0  0  0  0  0  0
   -9.6912  -10.9024    6.5626 F   0  0  0  0  0  0  0  0  0  0  0  0
   -8.1509  -10.4668    8.1426 F   0  0  0  0  0  0  0  0  0  0  0  0
  -15.9843   -8.7596    5.4165 O   0  0  0  0  0  0  0  0  0  0  0  0
  -14.9024   -8.9007    3.3792 C   0  0  0  0  0  0  0  0  0  0  0  0
  -16.1021   -8.2622    4.1563 C   0  0  0  0  0  0  0  0  0  0  0  0
  -15.8185   -6.7956    4.1757 C   0  0  0  0  0  0  0  0  0  0  0  0
  -14.4674   -6.4236    4.2511 C   0  0  0  0  0  0  0  0  0  0  0  0
  -14.1330   -5.0735    4.3342 C   0  0  0  0  0  0  0  0  0  0  0  0
  -15.1044   -4.1383    4.3415 C   0  0  0  0  0  0  0  0  0  0  0  0
  -14.7681   -2.8405    4.4239 F   0  0  0  0  0  0  0  0  0  0  0  0
  -16.4217   -4.5234    4.2665 C   0  0  0  0  0  0  0  0  0  0  0  0
  -16.8089   -5.8763    4.1805 C   0  0  0  0  0  0  0  0  0  0  0  0
  -18.2329   -6.2140    4.0858 C   0  0  0  0  0  0  0  0  0  0  0  0
  -18.6406   -7.2292    4.9303 F   0  0  0  0  0  0  0  0  0  0  0  0
  -18.4410   -6.7935    2.7908 F   0  0  0  0  0  0  0  0  0  0  0  0
  -19.0749   -5.1263    4.0734 F   0  0  0  0  0  0  0  0  0  0  0  0
 23 24  1  0  0  0
 24 22  1  0  0  0
 22  1  1  0  0  0
  1  2  2  0  0  0
  2  3  1  0  0  0
  3  4  2  0  0  0
  4  5  1  0  0  0
  5  6  2  0  0  0
  6  7  1  0  0  0
  3 10  1  0  0  0
 10 11  2  0  0  0
 11 12  1  0  0  0
 12 13  1  0  0  0
 12 14  2  0  0  0
 14 15  1  0  0  0
 14 16  1  0  0  0
 16 17  2  0  0  0
 16 18  1  0  0  0
 18 19  1  0  0  0
 18 20  1  0  0  0
 18 21  1  0  0  0
 24 25  1  0  0  0
 25 26  2  0  0  0
 26 27  1  0  0  0
 27 28  2  0  0  0
 28 29  1  0  0  0
 28 30  1  0  0  0
 30 31  2  0  0  0
 31 32  1  0  0  0
 32 33  1  0  0  0
 32 34  1  0  0  0
 32 35  1  0  0  0
  6  1  1  0  0  0
 17 10  1  0  0  0
 31 25  1  0  0  0
  7  8  1  0  0  0
  7  9  1  0  0  0
M  END
> <minimizedAffinity>
-10.60427

> <CNNscore>
0.2420418411

> <CNNaffinity>
7.4005727768

> <CNN_VS>
1.7912482023

> <CNNaffinity_variance>
0.2685661614

$$$$
[H]c1nc(N([H])[H])c(O[C@@]([H])(c2c([H])c([H])c(F)c([H])c2C(F)(F)F)C([H])([H])[H])c([H])c1-c1c([H])c(F)c(F)c(C(F)(F)F)c1[H]


 35 37  0  0  0  0  0  0  0  0999 V2000
  -12.4944   -8.4761    7.7722 C   0  0  0  0  0  0  0  0  0  0  0  0
  -13.2102   -7.6385    6.8628 C   0  0  0  0  0  0  0  0  0  0  0  0
  -14.5602   -7.6101    6.7705 C   0  0  0  0  0  0  0  0  0  0  0  0
  -15.2746   -8.4445    7.6082 C   0  0  0  0  0  0  0  0  0  0  0  0
  -14.6004   -9.2438    8.4748 N   0  0  0  0  0  0  0  0  0  0  0  0
  -13.2672   -9.2841    8.5799 C   0  0  0  0  0  0  0  0  0  0  0  0
  -12.6568  -10.1646    9.5332 N   0  0  0  0  0  0  0  0  0  0  0  0
  -12.5577  -11.1809    9.3505 H   0  0  0  0  0  0  0  0  0  0  0  0
  -12.3129   -9.7704   10.4201 H   0  0  0  0  0  0  0  0  0  0  0  0
  -15.2925   -6.7515    5.8492 C   0  0  0  0  0  0  0  0  0  0  0  0
  -16.5941   -7.0166    5.4914 C   0  0  0  0  0  0  0  0  0  0  0  0
  -17.3455   -6.2423    4.6363 C   0  0  0  0  0  0  0  0  0  0  0  0
  -18.6217   -6.5320    4.3017 F   0  0  0  0  0  0  0  0  0  0  0  0
  -16.7828   -5.1333    4.0971 C   0  0  0  0  0  0  0  0  0  0  0  0
  -17.4159   -4.2867    3.2458 F   0  0  0  0  0  0  0  0  0  0  0  0
  -15.4623   -4.8127    4.4250 C   0  0  0  0  0  0  0  0  0  0  0  0
  -14.7310   -5.6089    5.2865 C   0  0  0  0  0  0  0  0  0  0  0  0
  -14.8382   -3.5893    3.8460 C   0  0  0  0  0  0  0  0  0  0  0  0
  -14.5478   -2.7329    4.8927 F   0  0  0  0  0  0  0  0  0  0  0  0
  -15.7330   -2.9730    2.9927 F   0  0  0  0  0  0  0  0  0  0  0  0
  -13.6995   -3.9214    3.1477 F   0  0  0  0  0  0  0  0  0  0  0  0
  -11.1638   -8.3962    7.7503 O   0  0  0  0  0  0  0  0  0  0  0  0
  -10.6847   -6.5180    9.0089 C   0  0  0  0  0  0  0  0  0  0  0  0
  -10.1402   -7.8908    8.4895 C   0  0  0  0  0  0  0  0  0  0  0  0
   -9.0029   -7.5429    7.5855 C   0  0  0  0  0  0  0  0  0  0  0  0
   -9.0809   -6.3011    6.9362 C   0  0  0  0  0  0  0  0  0  0  0  0
   -8.0849   -5.9381    6.0319 C   0  0  0  0  0  0  0  0  0  0  0  0
   -7.0582   -6.7776    5.7880 C   0  0  0  0  0  0  0  0  0  0  0  0
   -6.1060   -6.4158    4.9125 F   0  0  0  0  0  0  0  0  0  0  0  0
   -7.0001   -7.9890    6.4345 C   0  0  0  0  0  0  0  0  0  0  0  0
   -7.9833   -8.4000    7.3576 C   0  0  0  0  0  0  0  0  0  0  0  0
   -7.8484   -9.6994    8.0239 C   0  0  0  0  0  0  0  0  0  0  0  0
   -7.5934   -9.6268    9.3802 F   0  0  0  0  0  0  0  0  0  0  0  0
   -6.6502  -10.3058    7.5211 F   0  0  0  0  0  0  0  0  0  0  0  0
   -8.8191  -10.6140    7.6867 F   0  0  0  0  0  0  0  0  0  0  0  0
 23 24  1  0  0  0
 24 22  1  0  0  0
 22  1  1  0  0  0
  1  2  2  0  0  0
  2  3  1  0  0  0
  3  4  2  0  0  0
  4  5  1  0  0  0
  5  6  2  0  0  0
  6  7  1  0  0  0
  3 10  1  0  0  0
 10 11  2  0  0  0
 11 12  1  0  0  0
 12 13  1  0  0  0
 12 14  2  0  0  0
 14 15  1  0  0  0
 14 16  1  0  0  0
 16 17  2  0  0  0
 16 18  1  0  0  0
 18 19  1  0  0  0
 18 20  1  0  0  0
 18 21  1  0  0  0
 24 25  1  0  0  0
 25 26  2  0  0  0
 26 27  1  0  0  0
 27 28  2  0  0  0
 28 29  1  0  0  0
 28 30  1  0  0  0
 30 31  2  0  0  0
 31 32  1  0  0  0
 32 33  1  0  0  0
 32 34  1  0  0  0
 32 35  1  0  0  0
  6  1  1  0  0  0
 17 10  1  0  0  0
 31 25  1  0  0  0
  7  8  1  0  0  0
  7  9  1  0  0  0
M  END
> <minimizedAffinity>
-8.79862

> <CNNscore>
0.2348723710

> <CNNaffinity>
7.1235418320

> <CNN_VS>
1.6731231213

> <CNNaffinity_variance>
0.3894498348

$$$$
[H]c1nc(N([H])[H])c(O[C@@]([H])(c2c([H])c([H])c(F)c([H])c2C(F)(F)F)C([H])([H])[H])c([H])c1-c1c([H])c(F)c(F)c(C(F)(F)F)c1[H]


 35 37  0  0  0  0  0  0  0  0999 V2000
  -15.3082   -8.5270    6.5079 C   0  0  0  0  0  0  0  0  0  0  0  0
  -13.8955   -8.7240    6.4279 C   0  0  0  0  0  0  0  0  0  0  0  0
  -13.0537   -8.5655    7.4758 C   0  0  0  0  0  0  0  0  0  0  0  0
  -13.6049   -8.1904    8.6857 C   0  0  0  0  0  0  0  0  0  0  0  0
  -14.9471   -8.0009    8.7686 N   0  0  0  0  0  0  0  0  0  0  0  0
  -15.7936   -8.1538    7.7438 C   0  0  0  0  0  0  0  0  0  0  0  0
  -17.1963   -7.9310    7.9426 N   0  0  0  0  0  0  0  0  0  0  0  0
  -17.5959   -6.9744    7.9798 H   0  0  0  0  0  0  0  0  0  0  0  0
  -17.8152   -8.7464    8.0527 H   0  0  0  0  0  0  0  0  0  0  0  0
  -11.6139   -8.7731    7.3984 C   0  0  0  0  0  0  0  0  0  0  0  0
  -11.0738  -10.0083    7.1244 C   0  0  0  0  0  0  0  0  0  0  0  0
   -9.7259  -10.2706    7.0266 C   0  0  0  0  0  0  0  0  0  0  0  0
   -9.2266  -11.4969    6.7593 F   0  0  0  0  0  0  0  0  0  0  0  0
   -8.8493   -9.2529    7.2088 C   0  0  0  0  0  0  0  0  0  0  0  0
   -7.4997   -9.3787    7.1354 F   0  0  0  0  0  0  0  0  0  0  0  0
   -9.3401   -7.9745    7.4895 C   0  0  0  0  0  0  0  0  0  0  0  0
  -10.6993   -7.7401    7.5823 C   0  0  0  0  0  0  0  0  0  0  0  0
   -8.3847   -6.8467    7.6806 C   0  0  0  0  0  0  0  0  0  0  0  0
   -9.1282   -5.7049    7.9192 F   0  0  0  0  0  0  0  0  0  0  0  0
   -7.6416   -6.6697    6.5294 F   0  0  0  0  0  0  0  0  0  0  0  0
   -7.5372   -7.1142    8.7317 F   0  0  0  0  0  0  0  0  0  0  0  0
  -16.0111   -8.7202    5.3916 O   0  0  0  0  0  0  0  0  0  0  0  0
  -14.8778   -8.8852    3.3842 C   0  0  0  0  0  0  0  0  0  0  0  0
  -16.0989   -8.2407    4.1221 C   0  0  0  0  0  0  0  0  0  0  0  0
  -15.8210   -6.7728    4.1282 C   0  0  0  0  0  0  0  0  0  0  0  0
  -14.4710   -6.3950    4.1940 C   0  0  0  0  0  0  0  0  0  0  0  0
  -14.1416   -5.0429    4.2646 C   0  0  0  0  0  0  0  0  0  0  0  0
  -15.1167   -4.1115    4.2691 C   0  0  0  0  0  0  0  0  0  0  0  0
  -14.7851   -2.8118    4.3394 F   0  0  0  0  0  0  0  0  0  0  0  0
  -16.4328   -4.5023    4.2036 C   0  0  0  0  0  0  0  0  0  0  0  0
  -16.8150   -5.8574    4.1304 C   0  0  0  0  0  0  0  0  0  0  0  0
  -18.2381   -6.2015    4.0455 C   0  0  0  0  0  0  0  0  0  0  0  0
  -19.0977   -5.1250    4.1557 F   0  0  0  0  0  0  0  0  0  0  0  0
  -18.5553   -6.9652    5.2170 F   0  0  0  0  0  0  0  0  0  0  0  0
  -18.5535   -7.0652    3.0223 F   0  0  0  0  0  0  0  0  0  0  0  0
 23 24  1  0  0  0
 24 22  1  0  0  0
 22  1  1  0  0  0
  1  2  2  0  0  0
  2  3  1  0  0  0
  3  4  2  0  0  0
  4  5  1  0  0  0
  5  6  2  0  0  0
  6  7  1  0  0  0
  3 10  1  0  0  0
 10 11  2  0  0  0
 11 12  1  0  0  0
 12 13  1  0  0  0
 12 14  2  0  0  0
 14 15  1  0  0  0
 14 16  1  0  0  0
 16 17  2  0  0  0
 16 18  1  0  0  0
 18 19  1  0  0  0
 18 20  1  0  0  0
 18 21  1  0  0  0
 24 25  1  0  0  0
 25 26  2  0  0  0
 26 27  1  0  0  0
 27 28  2  0  0  0
 28 29  1  0  0  0
 28 30  1  0  0  0
 30 31  2  0  0  0
 31 32  1  0  0  0
 32 33  1  0  0  0
 32 34  1  0  0  0
 32 35  1  0  0  0
  6  1  1  0  0  0
 17 10  1  0  0  0
 31 25  1  0  0  0
  7  8  1  0  0  0
  7  9  1  0  0  0
M  END
> <minimizedAffinity>
-11.13471

> <CNNscore>
0.1996360570

> <CNNaffinity>
7.3399400711

> <CNN_VS>
1.4653166533

> <CNNaffinity_variance>
0.2924794257

$$$$
[H]c1nc(N([H])[H])c(O[C@@]([H])(c2c([H])c([H])c(F)c([H])c2C(F)(F)F)C([H])([H])[H])c([H])c1-c1c([H])c(F)c(F)c(C(F)(F)F)c1[H]


 35 37  0  0  0  0  0  0  0  0999 V2000
  -12.6733   -7.2266    8.8220 C   0  0  0  0  0  0  0  0  0  0  0  0
  -13.3456   -6.6397    7.7063 C   0  0  0  0  0  0  0  0  0  0  0  0
  -14.5601   -7.0414    7.2642 C   0  0  0  0  0  0  0  0  0  0  0  0
  -15.1730   -8.0798    7.9382 C   0  0  0  0  0  0  0  0  0  0  0  0
  -14.5392   -8.6426    8.9993 N   0  0  0  0  0  0  0  0  0  0  0  0
  -13.3397   -8.2579    9.4503 C   0  0  0  0  0  0  0  0  0  0  0  0
  -12.7618   -8.9200   10.5835 N   0  0  0  0  0  0  0  0  0  0  0  0
  -12.3040   -9.8469   10.4977 H   0  0  0  0  0  0  0  0  0  0  0  0
  -12.8087   -8.4580   11.5024 H   0  0  0  0  0  0  0  0  0  0  0  0
  -15.2508   -6.4396    6.1315 C   0  0  0  0  0  0  0  0  0  0  0  0
  -14.7653   -5.3181    5.4997 C   0  0  0  0  0  0  0  0  0  0  0  0
  -15.3614   -4.7065    4.4198 C   0  0  0  0  0  0  0  0  0  0  0  0
  -14.8607   -3.6029    3.8233 F   0  0  0  0  0  0  0  0  0  0  0  0
  -16.5097   -5.2308    3.9262 C   0  0  0  0  0  0  0  0  0  0  0  0
  -17.1917   -4.7262    2.8666 F   0  0  0  0  0  0  0  0  0  0  0  0
  -17.0503   -6.3712    4.5273 C   0  0  0  0  0  0  0  0  0  0  0  0
  -16.4303   -6.9643    5.6112 C   0  0  0  0  0  0  0  0  0  0  0  0
  -18.3067   -6.9616    3.9850 C   0  0  0  0  0  0  0  0  0  0  0  0
  -18.5990   -8.0853    4.7369 F   0  0  0  0  0  0  0  0  0  0  0  0
  -18.1118   -7.3362    2.6696 F   0  0  0  0  0  0  0  0  0  0  0  0
  -19.3300   -6.0433    4.0491 F   0  0  0  0  0  0  0  0  0  0  0  0
  -11.4800   -6.7257    9.1423 O   0  0  0  0  0  0  0  0  0  0  0  0
   -9.9921   -5.6971    7.7038 C   0  0  0  0  0  0  0  0  0  0  0  0
  -10.1758   -6.8279    8.7708 C   0  0  0  0  0  0  0  0  0  0  0  0
   -9.9736   -8.1059    8.0242 C   0  0  0  0  0  0  0  0  0  0  0  0
  -11.1330   -8.7456    7.5593 C   0  0  0  0  0  0  0  0  0  0  0  0
  -11.0231   -9.9724    6.9077 C   0  0  0  0  0  0  0  0  0  0  0  0
   -9.8102  -10.5338    6.7291 C   0  0  0  0  0  0  0  0  0  0  0  0
   -9.7189  -11.7176    6.1011 F   0  0  0  0  0  0  0  0  0  0  0  0
   -8.6869   -9.8909    7.1915 C   0  0  0  0  0  0  0  0  0  0  0  0
   -8.7476   -8.6488    7.8558 C   0  0  0  0  0  0  0  0  0  0  0  0
   -7.5065   -8.0113    8.3074 C   0  0  0  0  0  0  0  0  0  0  0  0
   -7.2792   -6.7553    7.7777 F   0  0  0  0  0  0  0  0  0  0  0  0
   -6.4213   -8.7729    7.7610 F   0  0  0  0  0  0  0  0  0  0  0  0
   -7.2863   -8.0937    9.6628 F   0  0  0  0  0  0  0  0  0  0  0  0
 23 24  1  0  0  0
 24 22  1  0  0  0
 22  1  1  0  0  0
  1  2  2  0  0  0
  2  3  1  0  0  0
  3  4  2  0  0  0
  4  5  1  0  0  0
  5  6  2  0  0  0
  6  7  1  0  0  0
  3 10  1  0  0  0
 10 11  2  0  0  0
 11 12  1  0  0  0
 12 13  1  0  0  0
 12 14  2  0  0  0
 14 15  1  0  0  0
 14 16  1  0  0  0
 16 17  2  0  0  0
 16 18  1  0  0  0
 18 19  1  0  0  0
 18 20  1  0  0  0
 18 21  1  0  0  0
 24 25  1  0  0  0
 25 26  2  0  0  0
 26 27  1  0  0  0
 27 28  2  0  0  0
 28 29  1  0  0  0
 28 30  1  0  0  0
 30 31  2  0  0  0
 31 32  1  0  0  0
 32 33  1  0  0  0
 32 34  1  0  0  0
 32 35  1  0  0  0
  6  1  1  0  0  0
 17 10  1  0  0  0
 31 25  1  0  0  0
  7  8  1  0  0  0
  7  9  1  0  0  0
M  END
> <minimizedAffinity>
-9.41488

> <CNNscore>
0.1869403571

> <CNNaffinity>
7.0423903465

> <CNN_VS>
1.3165069818

> <CNNaffinity_variance>
0.2118841410

$$$$
[H]c1nc(N([H])[H])c(O[C@@]([H])(c2c([H])c([H])c(F)c([H])c2C(F)(F)F)C([H])([H])[H])c([H])c1-c1c([H])c(F)c(F)c(C(F)(F)F)c1[H]


 35 37  0  0  0  0  0  0  0  0999 V2000
  -12.3742   -8.1314    6.7016 C   0  0  0  0  0  0  0  0  0  0  0  0
  -11.0636   -7.6257    6.9616 C   0  0  0  0  0  0  0  0  0  0  0  0
  -10.0309   -8.3935    7.3807 C   0  0  0  0  0  0  0  0  0  0  0  0
  -10.2716   -9.7412    7.5649 C   0  0  0  0  0  0  0  0  0  0  0  0
  -11.5154  -10.2286    7.3200 N   0  0  0  0  0  0  0  0  0  0  0  0
  -12.5470   -9.4847    6.9048 C   0  0  0  0  0  0  0  0  0  0  0  0
  -13.8200  -10.1030    6.6727 N   0  0  0  0  0  0  0  0  0  0  0  0
  -14.4583  -10.3453    7.4536 H   0  0  0  0  0  0  0  0  0  0  0  0
  -14.0989  -10.3105    5.7035 H   0  0  0  0  0  0  0  0  0  0  0  0
   -8.6918   -7.8814    7.6394 C   0  0  0  0  0  0  0  0  0  0  0  0
   -8.1547   -7.8649    8.9057 C   0  0  0  0  0  0  0  0  0  0  0  0
   -6.8947   -7.4058    9.2172 C   0  0  0  0  0  0  0  0  0  0  0  0
   -6.3971   -7.3998   10.4729 F   0  0  0  0  0  0  0  0  0  0  0  0
   -6.1088   -6.9324    8.2195 C   0  0  0  0  0  0  0  0  0  0  0  0
   -4.8496   -6.4561    8.3933 F   0  0  0  0  0  0  0  0  0  0  0  0
   -6.6011   -6.9250    6.9112 C   0  0  0  0  0  0  0  0  0  0  0  0
   -7.8709   -7.3919    6.6275 C   0  0  0  0  0  0  0  0  0  0  0  0
   -5.7406   -6.4166    5.8056 C   0  0  0  0  0  0  0  0  0  0  0  0
   -4.7214   -7.3321    5.6143 F   0  0  0  0  0  0  0  0  0  0  0  0
   -5.1936   -5.2005    6.1669 F   0  0  0  0  0  0  0  0  0  0  0  0
   -6.4846   -6.2573    4.6586 F   0  0  0  0  0  0  0  0  0  0  0  0
  -13.2920   -7.2548    6.2933 O   0  0  0  0  0  0  0  0  0  0  0  0
  -14.5562   -7.0727    8.2194 C   0  0  0  0  0  0  0  0  0  0  0  0
  -14.2772   -6.4678    6.8026 C   0  0  0  0  0  0  0  0  0  0  0  0
  -15.5358   -6.6891    6.0288 C   0  0  0  0  0  0  0  0  0  0  0  0
  -16.3462   -7.7548    6.4496 C   0  0  0  0  0  0  0  0  0  0  0  0
  -17.5045   -8.0566    5.7363 C   0  0  0  0  0  0  0  0  0  0  0  0
  -17.8374   -7.3267    4.6524 C   0  0  0  0  0  0  0  0  0  0  0  0
  -18.9557   -7.6298    3.9729 F   0  0  0  0  0  0  0  0  0  0  0  0
  -17.0304   -6.2868    4.2569 C   0  0  0  0  0  0  0  0  0  0  0  0
  -15.8496   -5.9433    4.9465 C   0  0  0  0  0  0  0  0  0  0  0  0
  -15.0451   -4.8100    4.4783 C   0  0  0  0  0  0  0  0  0  0  0  0
  -13.7555   -5.1359    4.1034 F   0  0  0  0  0  0  0  0  0  0  0  0
  -14.8265   -3.9558    5.6092 F   0  0  0  0  0  0  0  0  0  0  0  0
  -15.6923   -3.9825    3.5903 F   0  0  0  0  0  0  0  0  0  0  0  0
 23 24  1  0  0  0
 24 22  1  0  0  0
 22  1  1  0  0  0
  1  2  2  0  0  0
  2  3  1  0  0  0
  3  4  2  0  0  0
  4  5  1  0  0  0
  5  6  2  0  0  0
  6  7  1  0  0  0
  3 10  1  0  0  0
 10 11  2  0  0  0
 11 12  1  0  0  0
 12 13  1  0  0  0
 12 14  2  0  0  0
 14 15  1  0  0  0
 14 16  1  0  0  0
 16 17  2  0  0  0
 16 18  1  0  0  0
 18 19  1  0  0  0
 18 20  1  0  0  0
 18 21  1  0  0  0
 24 25  1  0  0  0
 25 26  2  0  0  0
 26 27  1  0  0  0
 27 28  2  0  0  0
 28 29  1  0  0  0
 28 30  1  0  0  0
 30 31  2  0  0  0
 31 32  1  0  0  0
 32 33  1  0  0  0
 32 34  1  0  0  0
 32 35  1  0  0  0
  6  1  1  0  0  0
 17 10  1  0  0  0
 31 25  1  0  0  0
  7  8  1  0  0  0
  7  9  1  0  0  0
M  END
> <minimizedAffinity>
-8.07664

> <CNNscore>
0.1663558185

> <CNNaffinity>
7.1926031113

> <CNN_VS>
1.1965314150

> <CNNaffinity_variance>
0.1029304639

$$$$
[H]c1nc(N([H])[H])c(C(=O)N([H])c2nc([H])c([H])c([H])c2N2C([H])([H])C([H])([H])C(N([H])[H])(C([H])([H])[H])C([H])([H])C2([H])[H])nc1-c1nc([H])c([H])c([H])c1OC(F)(F)F


 40 43  0  0  0  0  0  0  0  0999 V2000
  -13.6258   -8.5536    8.7741 N   0  0  0  0  0  0  0  0  0  0  0  0
  -12.3000   -9.1131    8.9206 C   0  0  0  0  0  0  0  0  0  0  0  0
  -11.8825   -9.4498   10.0525 O   0  0  0  0  0  0  0  0  0  0  0  0
  -13.9254   -8.2925    7.8307 H   0  0  0  0  0  0  0  0  0  0  0  0
  -11.4354   -9.2942    7.7733 C   0  0  0  0  0  0  0  0  0  0  0  0
  -10.2672   -8.6611    7.7078 N   0  0  0  0  0  0  0  0  0  0  0  0
   -9.3990   -8.7929    6.6402 C   0  0  0  0  0  0  0  0  0  0  0  0
   -9.8224   -9.6214    5.6533 C   0  0  0  0  0  0  0  0  0  0  0  0
  -11.0238  -10.2965    5.6789 N   0  0  0  0  0  0  0  0  0  0  0  0
  -11.8237  -10.1245    6.7466 C   0  0  0  0  0  0  0  0  0  0  0  0
  -13.0811  -10.7751    6.8681 N   0  0  0  0  0  0  0  0  0  0  0  0
  -13.0818  -11.6750    7.4091 H   0  0  0  0  0  0  0  0  0  0  0  0
  -13.9673  -10.4426    6.4782 H   0  0  0  0  0  0  0  0  0  0  0  0
   -8.1229   -8.1085    6.7334 C   0  0  0  0  0  0  0  0  0  0  0  0
   -8.1665   -6.7241    6.6681 N   0  0  0  0  0  0  0  0  0  0  0  0
   -7.0976   -5.9478    6.7931 C   0  0  0  0  0  0  0  0  0  0  0  0
   -5.8360   -6.4516    7.0012 C   0  0  0  0  0  0  0  0  0  0  0  0
   -5.7339   -7.8150    7.0709 C   0  0  0  0  0  0  0  0  0  0  0  0
   -6.8903   -8.6165    6.9305 C   0  0  0  0  0  0  0  0  0  0  0  0
   -6.6798   -9.9833    6.9871 O   0  0  0  0  0  0  0  0  0  0  0  0
   -7.2096  -10.6723    8.1262 C   0  0  0  0  0  0  0  0  0  0  0  0
   -8.5004  -11.0744    7.8050 F   0  0  0  0  0  0  0  0  0  0  0  0
   -7.2633   -9.7085    9.1419 F   0  0  0  0  0  0  0  0  0  0  0  0
   -6.4284  -11.6733    8.6128 F   0  0  0  0  0  0  0  0  0  0  0  0
  -14.3944   -7.2798   10.6853 C   0  0  0  0  0  0  0  0  0  0  0  0
  -15.2745   -7.1828   11.7679 C   0  0  0  0  0  0  0  0  0  0  0  0
  -16.1910   -8.1607   12.0409 C   0  0  0  0  0  0  0  0  0  0  0  0
  -16.2337   -9.2640   11.2158 C   0  0  0  0  0  0  0  0  0  0  0  0
  -15.3878   -9.3508   10.1797 N   0  0  0  0  0  0  0  0  0  0  0  0
  -14.4671   -8.3835    9.8933 C   0  0  0  0  0  0  0  0  0  0  0  0
  -10.0451   -4.3970    9.0461 C   0  0  0  0  0  0  0  0  0  0  0  0
  -10.9087   -5.5444    9.5756 C   0  0  0  0  0  0  0  0  0  0  0  0
  -10.1027   -6.7757    9.6169 N   0  0  0  0  0  0  0  0  0  0  0  0
  -12.0128   -5.7698    8.6030 C   0  0  0  0  0  0  0  0  0  0  0  0
  -13.3472   -5.4783    9.2431 C   0  0  0  0  0  0  0  0  0  0  0  0
  -13.4527   -6.2668   10.4334 N   0  0  0  0  0  0  0  0  0  0  0  0
  -12.4809   -5.9834   11.4846 C   0  0  0  0  0  0  0  0  0  0  0  0
  -11.3370   -5.1530   10.9585 C   0  0  0  0  0  0  0  0  0  0  0  0
  -10.7715   -7.5657    9.4657 H   0  0  0  0  0  0  0  0  0  0  0  0
   -9.4219   -6.7304    8.8445 H   0  0  0  0  0  0  0  0  0  0  0  0
 31 32  1  0  0  0
 32 33  1  0  0  0
 32 34  1  0  0  0
 34 35  1  0  0  0
 35 36  1  0  0  0
 36 37  1  0  0  0
 37 38  1  0  0  0
 36 25  1  0  0  0
 25 26  2  0  0  0
 26 27  1  0  0  0
 27 28  2  0  0  0
 28 29  1  0  0  0
 29 30  2  0  0  0
 30  1  1  0  0  0
  1  2  1  0  0  0
  2  3  2  0  0  0
  2  5  1  0  0  0
  5  6  2  0  0  0
  6  7  1  0  0  0
  7  8  2  0  0  0
  8  9  1  0  0  0
  9 10  2  0  0  0
 10 11  1  0  0  0
  7 14  1  0  0  0
 14 15  2  0  0  0
 15 16  1  0  0  0
 16 17  2  0  0  0
 17 18  1  0  0  0
 18 19  2  0  0  0
 19 20  1  0  0  0
 20 21  1  0  0  0
 21 22  1  0  0  0
 21 23  1  0  0  0
 21 24  1  0  0  0
 38 32  1  0  0  0
 30 25  1  0  0  0
 10  5  1  0  0  0
 19 14  1  0  0  0
 33 39  1  0  0  0
 33 40  1  0  0  0
  1  4  1  0  0  0
 11 12  1  0  0  0
 11 13  1  0  0  0
M  END
> <minimizedAffinity>
18.60310

> <CNNscore>
0.3922157586

> <CNNaffinity>
6.8348569870

> <CNN_VS>
2.6807386875

> <CNNaffinity_variance>
0.5177882314

$$$$
[H]c1nc(N([H])[H])c(C(=O)N([H])c2nc([H])c([H])c([H])c2N2C([H])([H])C([H])([H])C(N([H])[H])(C([H])([H])[H])C([H])([H])C2([H])[H])nc1-c1nc([H])c([H])c([H])c1OC(F)(F)F


 40 43  0  0  0  0  0  0  0  0999 V2000
  -15.1701   -9.2465    5.6448 N   0  0  0  0  0  0  0  0  0  0  0  0
  -14.0047   -8.4245    5.8861 C   0  0  0  0  0  0  0  0  0  0  0  0
  -13.5328   -7.7189    4.9650 O   0  0  0  0  0  0  0  0  0  0  0  0
  -15.5214   -9.8069    6.4261 H   0  0  0  0  0  0  0  0  0  0  0  0
  -13.3647   -8.3997    7.1847 C   0  0  0  0  0  0  0  0  0  0  0  0
  -12.0386   -8.3487    7.2776 N   0  0  0  0  0  0  0  0  0  0  0  0
  -11.3697   -8.3229    8.4871 C   0  0  0  0  0  0  0  0  0  0  0  0
  -12.1652   -8.3522    9.5852 C   0  0  0  0  0  0  0  0  0  0  0  0
  -13.5416   -8.4058    9.5362 N   0  0  0  0  0  0  0  0  0  0  0  0
  -14.1314   -8.4292    8.3274 C   0  0  0  0  0  0  0  0  0  0  0  0
  -15.5425   -8.4841    8.1701 N   0  0  0  0  0  0  0  0  0  0  0  0
  -16.0257   -7.5613    8.0377 H   0  0  0  0  0  0  0  0  0  0  0  0
  -16.1129   -9.3342    8.1755 H   0  0  0  0  0  0  0  0  0  0  0  0
   -9.9257   -8.1866    8.4447 C   0  0  0  0  0  0  0  0  0  0  0  0
   -9.1987   -9.3648    8.5233 N   0  0  0  0  0  0  0  0  0  0  0  0
   -7.8753   -9.4192    8.4431 C   0  0  0  0  0  0  0  0  0  0  0  0
   -7.0965   -8.2999    8.2726 C   0  0  0  0  0  0  0  0  0  0  0  0
   -7.7629   -7.1068    8.1918 C   0  0  0  0  0  0  0  0  0  0  0  0
   -9.1736   -7.0799    8.2842 C   0  0  0  0  0  0  0  0  0  0  0  0
   -9.7522   -5.8241    8.2201 O   0  0  0  0  0  0  0  0  0  0  0  0
  -10.6339   -5.4632    9.2902 C   0  0  0  0  0  0  0  0  0  0  0  0
  -11.9243   -5.7943    8.8948 F   0  0  0  0  0  0  0  0  0  0  0  0
  -10.5248   -4.0704    9.3976 F   0  0  0  0  0  0  0  0  0  0  0  0
  -10.2923   -5.9520   10.5123 F   0  0  0  0  0  0  0  0  0  0  0  0
  -16.4639   -8.1841    3.8946 C   0  0  0  0  0  0  0  0  0  0  0  0
  -17.0428   -8.2800    2.6251 C   0  0  0  0  0  0  0  0  0  0  0  0
  -16.9499   -9.4201    1.8754 C   0  0  0  0  0  0  0  0  0  0  0  0
  -16.2633  -10.4933    2.4016 C   0  0  0  0  0  0  0  0  0  0  0  0
  -15.7105  -10.3949    3.6187 N   0  0  0  0  0  0  0  0  0  0  0  0
  -15.7939   -9.2641    4.3800 C   0  0  0  0  0  0  0  0  0  0  0  0
  -18.2301   -3.5754    6.2515 C   0  0  0  0  0  0  0  0  0  0  0  0
  -17.9900   -4.6728    5.2119 C   0  0  0  0  0  0  0  0  0  0  0  0
  -18.8753   -4.4461    4.0576 N   0  0  0  0  0  0  0  0  0  0  0  0
  -18.3821   -5.9724    5.8226 C   0  0  0  0  0  0  0  0  0  0  0  0
  -17.1839   -6.8805    5.9450 C   0  0  0  0  0  0  0  0  0  0  0  0
  -16.5845   -7.0051    4.6508 N   0  0  0  0  0  0  0  0  0  0  0  0
  -16.0483   -5.7801    4.0662 C   0  0  0  0  0  0  0  0  0  0  0  0
  -16.5528   -4.5619    4.7984 C   0  0  0  0  0  0  0  0  0  0  0  0
  -19.0787   -5.3910    3.6577 H   0  0  0  0  0  0  0  0  0  0  0  0
  -19.7418   -4.0118    4.4081 H   0  0  0  0  0  0  0  0  0  0  0  0
 31 32  1  0  0  0
 32 33  1  0  0  0
 32 34  1  0  0  0
 34 35  1  0  0  0
 35 36  1  0  0  0
 36 37  1  0  0  0
 37 38  1  0  0  0
 36 25  1  0  0  0
 25 26  2  0  0  0
 26 27  1  0  0  0
 27 28  2  0  0  0
 28 29  1  0  0  0
 29 30  2  0  0  0
 30  1  1  0  0  0
  1  2  1  0  0  0
  2  3  2  0  0  0
  2  5  1  0  0  0
  5  6  2  0  0  0
  6  7  1  0  0  0
  7  8  2  0  0  0
  8  9  1  0  0  0
  9 10  2  0  0  0
 10 11  1  0  0  0
  7 14  1  0  0  0
 14 15  2  0  0  0
 15 16  1  0  0  0
 16 17  2  0  0  0
 17 18  1  0  0  0
 18 19  2  0  0  0
 19 20  1  0  0  0
 20 21  1  0  0  0
 21 22  1  0  0  0
 21 23  1  0  0  0
 21 24  1  0  0  0
 38 32  1  0  0  0
 30 25  1  0  0  0
 10  5  1  0  0  0
 19 14  1  0  0  0
 33 39  1  0  0  0
 33 40  1  0  0  0
  1  4  1  0  0  0
 11 12  1  0  0  0
 11 13  1  0  0  0
M  END
> <minimizedAffinity>
7.61862

> <CNNscore>
0.3785523772

> <CNNaffinity>
7.4134435654

> <CNN_VS>
2.8063766956

> <CNNaffinity_variance>
0.2709837556

$$$$
[H]c1nc(N([H])[H])c(C(=O)N([H])c2nc([H])c([H])c([H])c2N2C([H])([H])C([H])([H])C(N([H])[H])(C([H])([H])[H])C([H])([H])C2([H])[H])nc1-c1nc([H])c([H])c([H])c1OC(F)(F)F


 40 43  0  0  0  0  0  0  0  0999 V2000
  -13.1188   -6.4189    9.5042 N   0  0  0  0  0  0  0  0  0  0  0  0
  -13.8230   -7.6818    9.5421 C   0  0  0  0  0  0  0  0  0  0  0  0
  -13.4909   -8.5608   10.3702 O   0  0  0  0  0  0  0  0  0  0  0  0
  -13.4239   -5.7298    8.8113 H   0  0  0  0  0  0  0  0  0  0  0  0
  -14.9162   -7.9542    8.6325 C   0  0  0  0  0  0  0  0  0  0  0  0
  -14.7246   -7.8947    7.3174 N   0  0  0  0  0  0  0  0  0  0  0  0
  -15.7274   -8.1439    6.3991 C   0  0  0  0  0  0  0  0  0  0  0  0
  -16.9331   -8.4580    6.9350 C   0  0  0  0  0  0  0  0  0  0  0  0
  -17.1770   -8.5306    8.2896 N   0  0  0  0  0  0  0  0  0  0  0  0
  -16.1583   -8.2760    9.1305 C   0  0  0  0  0  0  0  0  0  0  0  0
  -16.3071   -8.3248   10.5428 N   0  0  0  0  0  0  0  0  0  0  0  0
  -16.0429   -9.2319   11.0010 H   0  0  0  0  0  0  0  0  0  0  0  0
  -16.6441   -7.5615   11.1360 H   0  0  0  0  0  0  0  0  0  0  0  0
  -15.3624   -8.1226    4.9948 C   0  0  0  0  0  0  0  0  0  0  0  0
  -14.2808   -8.9115    4.6333 N   0  0  0  0  0  0  0  0  0  0  0  0
  -13.8542   -9.0468    3.3840 C   0  0  0  0  0  0  0  0  0  0  0  0
  -14.4528   -8.4101    2.3234 C   0  0  0  0  0  0  0  0  0  0  0  0
  -15.5254   -7.6142    2.6237 C   0  0  0  0  0  0  0  0  0  0  0  0
  -15.9549   -7.4868    3.9649 C   0  0  0  0  0  0  0  0  0  0  0  0
  -17.0286   -6.6378    4.1698 O   0  0  0  0  0  0  0  0  0  0  0  0
  -16.7255   -5.2577    4.4071 C   0  0  0  0  0  0  0  0  0  0  0  0
  -17.4592   -4.8562    5.5169 F   0  0  0  0  0  0  0  0  0  0  0  0
  -17.1937   -4.5819    3.2724 F   0  0  0  0  0  0  0  0  0  0  0  0
  -15.4010   -4.9612    4.4888 F   0  0  0  0  0  0  0  0  0  0  0  0
  -10.7625   -6.4060   10.0640 C   0  0  0  0  0  0  0  0  0  0  0  0
   -9.7691   -6.1028   11.0006 C   0  0  0  0  0  0  0  0  0  0  0  0
  -10.0706   -5.5682   12.2228 C   0  0  0  0  0  0  0  0  0  0  0  0
  -11.3947   -5.3286   12.5219 C   0  0  0  0  0  0  0  0  0  0  0  0
  -12.3420   -5.6211   11.6199 N   0  0  0  0  0  0  0  0  0  0  0  0
  -12.0579   -6.1550   10.3953 C   0  0  0  0  0  0  0  0  0  0  0  0
   -8.8179   -9.5592    6.0403 C   0  0  0  0  0  0  0  0  0  0  0  0
   -8.9215   -8.7936    7.3616 C   0  0  0  0  0  0  0  0  0  0  0  0
   -7.8159   -9.2023    8.2438 N   0  0  0  0  0  0  0  0  0  0  0  0
  -10.1909   -9.1994    8.0248 C   0  0  0  0  0  0  0  0  0  0  0  0
  -11.1238   -8.0202    8.1442 C   0  0  0  0  0  0  0  0  0  0  0  0
  -10.4275   -6.9670    8.8192 N   0  0  0  0  0  0  0  0  0  0  0  0
   -9.2538   -6.4286    8.1392 C   0  0  0  0  0  0  0  0  0  0  0  0
   -8.8082   -7.3376    7.0213 C   0  0  0  0  0  0  0  0  0  0  0  0
   -8.1738   -9.1050    9.2219 H   0  0  0  0  0  0  0  0  0  0  0  0
   -7.5995  -10.1888    8.0384 H   0  0  0  0  0  0  0  0  0  0  0  0
 31 32  1  0  0  0
 32 33  1  0  0  0
 32 34  1  0  0  0
 34 35  1  0  0  0
 35 36  1  0  0  0
 36 37  1  0  0  0
 37 38  1  0  0  0
 36 25  1  0  0  0
 25 26  2  0  0  0
 26 27  1  0  0  0
 27 28  2  0  0  0
 28 29  1  0  0  0
 29 30  2  0  0  0
 30  1  1  0  0  0
  1  2  1  0  0  0
  2  3  2  0  0  0
  2  5  1  0  0  0
  5  6  2  0  0  0
  6  7  1  0  0  0
  7  8  2  0  0  0
  8  9  1  0  0  0
  9 10  2  0  0  0
 10 11  1  0  0  0
  7 14  1  0  0  0
 14 15  2  0  0  0
 15 16  1  0  0  0
 16 17  2  0  0  0
 17 18  1  0  0  0
 18 19  2  0  0  0
 19 20  1  0  0  0
 20 21  1  0  0  0
 21 22  1  0  0  0
 21 23  1  0  0  0
 21 24  1  0  0  0
 38 32  1  0  0  0
 30 25  1  0  0  0
 10  5  1  0  0  0
 19 14  1  0  0  0
 33 39  1  0  0  0
 33 40  1  0  0  0
  1  4  1  0  0  0
 11 12  1  0  0  0
 11 13  1  0  0  0
M  END
> <minimizedAffinity>
4.63446

> <CNNscore>
0.3704755902

> <CNNaffinity>
7.6383085251

> <CNN_VS>
2.8298068047

> <CNNaffinity_variance>
0.5850251317

$$$$
[H]c1nc(N([H])[H])c(C(=O)N([H])c2nc([H])c([H])c([H])c2N2C([H])([H])C([H])([H])C(N([H])[H])(C([H])([H])[H])C([H])([H])C2([H])[H])nc1-c1nc([H])c([H])c([H])c1OC(F)(F)F


 40 43  0  0  0  0  0  0  0  0999 V2000
  -15.3699   -8.7175    5.4903 N   0  0  0  0  0  0  0  0  0  0  0  0
  -14.9643   -8.5588    6.8696 C   0  0  0  0  0  0  0  0  0  0  0  0
  -15.7107   -7.9609    7.6784 O   0  0  0  0  0  0  0  0  0  0  0  0
  -14.7287   -9.2128    4.8646 H   0  0  0  0  0  0  0  0  0  0  0  0
  -13.6991   -9.0826    7.3404 C   0  0  0  0  0  0  0  0  0  0  0  0
  -12.5973   -8.3407    7.2666 N   0  0  0  0  0  0  0  0  0  0  0  0
  -11.3615   -8.7841    7.6989 C   0  0  0  0  0  0  0  0  0  0  0  0
  -11.3476  -10.0402    8.2104 C   0  0  0  0  0  0  0  0  0  0  0  0
  -12.4634  -10.8438    8.3057 N   0  0  0  0  0  0  0  0  0  0  0  0
  -13.6362  -10.3529    7.8664 C   0  0  0  0  0  0  0  0  0  0  0  0
  -14.8428  -11.1015    7.9209 N   0  0  0  0  0  0  0  0  0  0  0  0
  -15.4489  -10.9345    8.7619 H   0  0  0  0  0  0  0  0  0  0  0  0
  -15.1608  -11.7763    7.2198 H   0  0  0  0  0  0  0  0  0  0  0  0
  -10.2583   -7.8437    7.6337 C   0  0  0  0  0  0  0  0  0  0  0  0
   -9.0814   -8.3210    7.0770 N   0  0  0  0  0  0  0  0  0  0  0  0
   -7.9993   -7.5752    6.8935 C   0  0  0  0  0  0  0  0  0  0  0  0
   -7.9465   -6.2471    7.2424 C   0  0  0  0  0  0  0  0  0  0  0  0
   -9.0817   -5.7236    7.8005 C   0  0  0  0  0  0  0  0  0  0  0  0
  -10.2183   -6.5438    7.9869 C   0  0  0  0  0  0  0  0  0  0  0  0
  -11.3056   -5.9303    8.5845 O   0  0  0  0  0  0  0  0  0  0  0  0
  -11.4391   -6.0893   10.0022 C   0  0  0  0  0  0  0  0  0  0  0  0
  -12.2224   -7.2159   10.2219 F   0  0  0  0  0  0  0  0  0  0  0  0
  -12.1334   -4.9507   10.4322 F   0  0  0  0  0  0  0  0  0  0  0  0
  -10.2707   -6.0895   10.6977 F   0  0  0  0  0  0  0  0  0  0  0  0
  -16.7596   -6.9064    4.6812 C   0  0  0  0  0  0  0  0  0  0  0  0
  -18.0149   -6.4877    4.2287 C   0  0  0  0  0  0  0  0  0  0  0  0
  -19.0726   -7.3502    4.1388 C   0  0  0  0  0  0  0  0  0  0  0  0
  -18.8772   -8.6636    4.5083 C   0  0  0  0  0  0  0  0  0  0  0  0
  -17.6716   -9.0587    4.9408 N   0  0  0  0  0  0  0  0  0  0  0  0
  -16.6053   -8.2106    5.0365 C   0  0  0  0  0  0  0  0  0  0  0  0
  -13.5825   -2.4558    4.5687 C   0  0  0  0  0  0  0  0  0  0  0  0
  -14.6393   -3.4934    4.1823 C   0  0  0  0  0  0  0  0  0  0  0  0
  -15.4661   -2.9559    3.0891 N   0  0  0  0  0  0  0  0  0  0  0  0
  -15.5322   -3.6930    5.3565 C   0  0  0  0  0  0  0  0  0  0  0  0
  -15.4241   -5.1084    5.8667 C   0  0  0  0  0  0  0  0  0  0  0  0
  -15.6915   -5.9972    4.7767 N   0  0  0  0  0  0  0  0  0  0  0  0
  -14.7565   -5.9468    3.6573 C   0  0  0  0  0  0  0  0  0  0  0  0
  -13.8941   -4.7114    3.7242 C   0  0  0  0  0  0  0  0  0  0  0  0
  -16.4124   -3.3871    3.2019 H   0  0  0  0  0  0  0  0  0  0  0  0
  -15.5215   -1.9341    3.2117 H   0  0  0  0  0  0  0  0  0  0  0  0
 31 32  1  0  0  0
 32 33  1  0  0  0
 32 34  1  0  0  0
 34 35  1  0  0  0
 35 36  1  0  0  0
 36 37  1  0  0  0
 37 38  1  0  0  0
 36 25  1  0  0  0
 25 26  2  0  0  0
 26 27  1  0  0  0
 27 28  2  0  0  0
 28 29  1  0  0  0
 29 30  2  0  0  0
 30  1  1  0  0  0
  1  2  1  0  0  0
  2  3  2  0  0  0
  2  5  1  0  0  0
  5  6  2  0  0  0
  6  7  1  0  0  0
  7  8  2  0  0  0
  8  9  1  0  0  0
  9 10  2  0  0  0
 10 11  1  0  0  0
  7 14  1  0  0  0
 14 15  2  0  0  0
 15 16  1  0  0  0
 16 17  2  0  0  0
 17 18  1  0  0  0
 18 19  2  0  0  0
 19 20  1  0  0  0
 20 21  1  0  0  0
 21 22  1  0  0  0
 21 23  1  0  0  0
 21 24  1  0  0  0
 38 32  1  0  0  0
 30 25  1  0  0  0
 10  5  1  0  0  0
 19 14  1  0  0  0
 33 39  1  0  0  0
 33 40  1  0  0  0
  1  4  1  0  0  0
 11 12  1  0  0  0
 11 13  1  0  0  0
M  END
> <minimizedAffinity>
2.16816

> <CNNscore>
0.3478074670

> <CNNaffinity>
7.7104783058

> <CNN_VS>
2.6817619801

> <CNNaffinity_variance>
0.1351546198

$$$$
[H]c1nc(N([H])[H])c(C(=O)N([H])c2nc([H])c([H])c([H])c2N2C([H])([H])C([H])([H])C(N([H])[H])(C([H])([H])[H])C([H])([H])C2([H])[H])nc1-c1nc([H])c([H])c([H])c1OC(F)(F)F


 40 43  0  0  0  0  0  0  0  0999 V2000
   -9.4132   -8.1657    7.7407 N   0  0  0  0  0  0  0  0  0  0  0  0
  -10.7778   -8.6449    7.7591 C   0  0  0  0  0  0  0  0  0  0  0  0
  -11.0105   -9.8752    7.7924 O   0  0  0  0  0  0  0  0  0  0  0  0
   -9.2699   -7.1524    7.7134 H   0  0  0  0  0  0  0  0  0  0  0  0
  -11.8933   -7.7219    7.7397 C   0  0  0  0  0  0  0  0  0  0  0  0
  -12.7992   -7.7856    6.7676 N   0  0  0  0  0  0  0  0  0  0  0  0
  -13.8851   -6.9333    6.6941 C   0  0  0  0  0  0  0  0  0  0  0  0
  -13.9665   -6.0181    7.6918 C   0  0  0  0  0  0  0  0  0  0  0  0
  -13.0515   -5.9154    8.7174 N   0  0  0  0  0  0  0  0  0  0  0  0
  -12.0167   -6.7748    8.7307 C   0  0  0  0  0  0  0  0  0  0  0  0
  -11.0207   -6.7510    9.7440 N   0  0  0  0  0  0  0  0  0  0  0  0
  -11.1687   -7.4094   10.5484 H   0  0  0  0  0  0  0  0  0  0  0  0
  -10.1882   -6.1554    9.7511 H   0  0  0  0  0  0  0  0  0  0  0  0
  -14.8395   -7.1641    5.6257 C   0  0  0  0  0  0  0  0  0  0  0  0
  -15.0123   -8.4836    5.2360 N   0  0  0  0  0  0  0  0  0  0  0  0
  -15.8852   -8.8699    4.3142 C   0  0  0  0  0  0  0  0  0  0  0  0
  -16.7065   -7.9870    3.6550 C   0  0  0  0  0  0  0  0  0  0  0  0
  -16.5756   -6.6683    3.9987 C   0  0  0  0  0  0  0  0  0  0  0  0
  -15.6342   -6.2864    4.9821 C   0  0  0  0  0  0  0  0  0  0  0  0
  -15.5568   -4.9285    5.2390 O   0  0  0  0  0  0  0  0  0  0  0  0
  -14.8231   -4.1336    4.2995 C   0  0  0  0  0  0  0  0  0  0  0  0
  -14.3787   -3.0012    4.9713 F   0  0  0  0  0  0  0  0  0  0  0  0
  -15.7615   -3.7586    3.3289 F   0  0  0  0  0  0  0  0  0  0  0  0
  -13.8425   -4.7914    3.6252 F   0  0  0  0  0  0  0  0  0  0  0  0
   -7.0593   -8.6722    7.4786 C   0  0  0  0  0  0  0  0  0  0  0  0
   -6.0393   -9.6271    7.5387 C   0  0  0  0  0  0  0  0  0  0  0  0
   -6.2904  -10.9291    7.8738 C   0  0  0  0  0  0  0  0  0  0  0  0
   -7.5899  -11.2915    8.1568 C   0  0  0  0  0  0  0  0  0  0  0  0
   -8.5629  -10.3715    8.0977 N   0  0  0  0  0  0  0  0  0  0  0  0
   -8.3292   -9.0676    7.7650 C   0  0  0  0  0  0  0  0  0  0  0  0
   -4.9412   -4.1215    5.3064 C   0  0  0  0  0  0  0  0  0  0  0  0
   -5.0532   -5.5163    5.9267 C   0  0  0  0  0  0  0  0  0  0  0  0
   -3.7507   -6.1951    5.8259 N   0  0  0  0  0  0  0  0  0  0  0  0
   -6.0250   -6.2990    5.1151 C   0  0  0  0  0  0  0  0  0  0  0  0
   -7.2316   -6.6631    5.9439 C   0  0  0  0  0  0  0  0  0  0  0  0
   -6.7771   -7.3427    7.1191 N   0  0  0  0  0  0  0  0  0  0  0  0
   -5.9371   -6.5699    8.0285 C   0  0  0  0  0  0  0  0  0  0  0  0
   -5.4281   -5.3149    7.3647 C   0  0  0  0  0  0  0  0  0  0  0  0
   -3.9609   -7.2172    5.7530 H   0  0  0  0  0  0  0  0  0  0  0  0
   -3.2898   -5.8624    4.9662 H   0  0  0  0  0  0  0  0  0  0  0  0
 31 32  1  0  0  0
 32 33  1  0  0  0
 32 34  1  0  0  0
 34 35  1  0  0  0
 35 36  1  0  0  0
 36 37  1  0  0  0
 37 38  1  0  0  0
 36 25  1  0  0  0
 25 26  2  0  0  0
 26 27  1  0  0  0
 27 28  2  0  0  0
 28 29  1  0  0  0
 29 30  2  0  0  0
 30  1  1  0  0  0
  1  2  1  0  0  0
  2  3  2  0  0  0
  2  5  1  0  0  0
  5  6  2  0  0  0
  6  7  1  0  0  0
  7  8  2  0  0  0
  8  9  1  0  0  0
  9 10  2  0  0  0
 10 11  1  0  0  0
  7 14  1  0  0  0
 14 15  2  0  0  0
 15 16  1  0  0  0
 16 17  2  0  0  0
 17 18  1  0  0  0
 18 19  2  0  0  0
 19 20  1  0  0  0
 20 21  1  0  0  0
 21 22  1  0  0  0
 21 23  1  0  0  0
 21 24  1  0  0  0
 38 32  1  0  0  0
 30 25  1  0  0  0
 10  5  1  0  0  0
 19 14  1  0  0  0
 33 39  1  0  0  0
 33 40  1  0  0  0
  1  4  1  0  0  0
 11 12  1  0  0  0
 11 13  1  0  0  0
M  END
> <minimizedAffinity>
-0.83770

> <CNNscore>
0.3196543157

> <CNNaffinity>
7.3133177757

> <CNN_VS>
2.3377335072

> <CNNaffinity_variance>
0.5964248776

$$$$
[H]c1nc(N([H])[H])c(C(=O)N([H])c2nc([H])c([H])c([H])c2N2C([H])([H])C([H])([H])C(N([H])[H])(C([H])([H])[H])C([H])([H])C2([H])[H])nc1-c1nc([H])c([H])c([H])c1OC(F)(F)F


 40 43  0  0  0  0  0  0  0  0999 V2000
  -10.3193   -7.4803    8.7059 N   0  0  0  0  0  0  0  0  0  0  0  0
   -9.3274   -6.7333    7.9639 C   0  0  0  0  0  0  0  0  0  0  0  0
   -9.4231   -5.4883    7.8660 O   0  0  0  0  0  0  0  0  0  0  0  0
  -10.2014   -8.4958    8.7598 H   0  0  0  0  0  0  0  0  0  0  0  0
   -8.2136   -7.4022    7.3247 C   0  0  0  0  0  0  0  0  0  0  0  0
   -7.1014   -6.7297    7.0406 N   0  0  0  0  0  0  0  0  0  0  0  0
   -6.0053   -7.3116    6.4317 C   0  0  0  0  0  0  0  0  0  0  0  0
   -6.1408   -8.6294    6.1411 C   0  0  0  0  0  0  0  0  0  0  0  0
   -7.2736   -9.3649    6.4164 N   0  0  0  0  0  0  0  0  0  0  0  0
   -8.3058   -8.7388    7.0097 C   0  0  0  0  0  0  0  0  0  0  0  0
   -9.5164   -9.4080    7.3350 N   0  0  0  0  0  0  0  0  0  0  0  0
   -9.5874   -9.7777    8.3152 H   0  0  0  0  0  0  0  0  0  0  0  0
  -10.3078   -9.5548    6.7024 H   0  0  0  0  0  0  0  0  0  0  0  0
   -4.8278   -6.4829    6.2516 C   0  0  0  0  0  0  0  0  0  0  0  0
   -4.9991   -5.3358    5.4916 N   0  0  0  0  0  0  0  0  0  0  0  0
   -4.0391   -4.4447    5.2783 C   0  0  0  0  0  0  0  0  0  0  0  0
   -2.7740   -4.5796    5.7977 C   0  0  0  0  0  0  0  0  0  0  0  0
   -2.5478   -5.6975    6.5548 C   0  0  0  0  0  0  0  0  0  0  0  0
   -3.5892   -6.6313    6.7617 C   0  0  0  0  0  0  0  0  0  0  0  0
   -3.2541   -7.7418    7.5167 O   0  0  0  0  0  0  0  0  0  0  0  0
   -2.3650   -8.6895    6.9131 C   0  0  0  0  0  0  0  0  0  0  0  0
   -2.9031   -9.0368    5.6798 F   0  0  0  0  0  0  0  0  0  0  0  0
   -2.3914   -9.8047    7.7611 F   0  0  0  0  0  0  0  0  0  0  0  0
   -1.0619   -8.3055    6.8544 F   0  0  0  0  0  0  0  0  0  0  0  0
  -12.6527   -6.8384    8.8010 C   0  0  0  0  0  0  0  0  0  0  0  0
  -13.6715   -6.1747    9.4921 C   0  0  0  0  0  0  0  0  0  0  0  0
  -13.4357   -5.5228   10.6711 C   0  0  0  0  0  0  0  0  0  0  0  0
  -12.1534   -5.5309   11.1766 C   0  0  0  0  0  0  0  0  0  0  0  0
  -11.1815   -6.1691   10.5096 N   0  0  0  0  0  0  0  0  0  0  0  0
  -11.4001   -6.8248    9.3316 C   0  0  0  0  0  0  0  0  0  0  0  0
  -14.9966   -8.8717    4.2970 C   0  0  0  0  0  0  0  0  0  0  0  0
  -14.7808   -8.4307    5.7468 C   0  0  0  0  0  0  0  0  0  0  0  0
  -16.0674   -8.4753    6.4611 N   0  0  0  0  0  0  0  0  0  0  0  0
  -14.3325   -7.0114    5.7292 C   0  0  0  0  0  0  0  0  0  0  0  0
  -12.9346   -6.8930    6.2832 C   0  0  0  0  0  0  0  0  0  0  0  0
  -12.9182   -7.4905    7.5842 N   0  0  0  0  0  0  0  0  0  0  0  0
  -13.2076   -8.9197    7.6427 C   0  0  0  0  0  0  0  0  0  0  0  0
  -13.8137   -9.4053    6.3498 C   0  0  0  0  0  0  0  0  0  0  0  0
  -16.0171   -7.7327    7.1962 H   0  0  0  0  0  0  0  0  0  0  0  0
  -16.8107   -8.2563    5.7816 H   0  0  0  0  0  0  0  0  0  0  0  0
 31 32  1  0  0  0
 32 33  1  0  0  0
 32 34  1  0  0  0
 34 35  1  0  0  0
 35 36  1  0  0  0
 36 37  1  0  0  0
 37 38  1  0  0  0
 36 25  1  0  0  0
 25 26  2  0  0  0
 26 27  1  0  0  0
 27 28  2  0  0  0
 28 29  1  0  0  0
 29 30  2  0  0  0
 30  1  1  0  0  0
  1  2  1  0  0  0
  2  3  2  0  0  0
  2  5  1  0  0  0
  5  6  2  0  0  0
  6  7  1  0  0  0
  7  8  2  0  0  0
  8  9  1  0  0  0
  9 10  2  0  0  0
 10 11  1  0  0  0
  7 14  1  0  0  0
 14 15  2  0  0  0
 15 16  1  0  0  0
 16 17  2  0  0  0
 17 18  1  0  0  0
 18 19  2  0  0  0
 19 20  1  0  0  0
 20 21  1  0  0  0
 21 22  1  0  0  0
 21 23  1  0  0  0
 21 24  1  0  0  0
 38 32  1  0  0  0
 30 25  1  0  0  0
 10  5  1  0  0  0
 19 14  1  0  0  0
 33 39  1  0  0  0
 33 40  1  0  0  0
  1  4  1  0  0  0
 11 12  1  0  0  0
 11 13  1  0  0  0
M  END
> <minimizedAffinity>
-7.67500

> <CNNscore>
0.2932161391

> <CNNaffinity>
7.4026207924

> <CNN_VS>
2.1705679893

> <CNNaffinity_variance>
0.1212597638

$$$$
[H]c1nc(N([H])[H])c(C(=O)N([H])c2nc([H])c([H])c([H])c2N2C([H])([H])C([H])([H])C(N([H])[H])(C([H])([H])[H])C([H])([H])C2([H])[H])nc1-c1nc([H])c([H])c([H])c1OC(F)(F)F


 40 43  0  0  0  0  0  0  0  0999 V2000
  -10.1884   -7.3660    8.7882 N   0  0  0  0  0  0  0  0  0  0  0  0
   -9.2608   -6.5546    8.0310 C   0  0  0  0  0  0  0  0  0  0  0  0
   -9.4571   -5.3233    7.9113 O   0  0  0  0  0  0  0  0  0  0  0  0
   -9.9887   -8.3675    8.8599 H   0  0  0  0  0  0  0  0  0  0  0  0
   -8.0969   -7.1423    7.4014 C   0  0  0  0  0  0  0  0  0  0  0  0
   -7.0041   -6.4115    7.1976 N   0  0  0  0  0  0  0  0  0  0  0  0
   -5.8627   -6.9148    6.6020 C   0  0  0  0  0  0  0  0  0  0  0  0
   -5.9320   -8.2191    6.2364 C   0  0  0  0  0  0  0  0  0  0  0  0
   -7.0423   -9.0131    6.4273 N   0  0  0  0  0  0  0  0  0  0  0  0
   -8.1212   -8.4623    7.0121 C   0  0  0  0  0  0  0  0  0  0  0  0
   -9.3139   -9.1961    7.2533 N   0  0  0  0  0  0  0  0  0  0  0  0
   -9.4057   -9.6216    8.2088 H   0  0  0  0  0  0  0  0  0  0  0  0
  -10.0745   -9.3394    6.5832 H   0  0  0  0  0  0  0  0  0  0  0  0
   -4.7151   -6.0313    6.5130 C   0  0  0  0  0  0  0  0  0  0  0  0
   -4.5004   -5.4319    5.2811 N   0  0  0  0  0  0  0  0  0  0  0  0
   -3.5305   -4.5568    5.0481 C   0  0  0  0  0  0  0  0  0  0  0  0
   -2.6409   -4.1607    6.0178 C   0  0  0  0  0  0  0  0  0  0  0  0
   -2.8048   -4.7244    7.2545 C   0  0  0  0  0  0  0  0  0  0  0  0
   -3.8453   -5.6568    7.4718 C   0  0  0  0  0  0  0  0  0  0  0  0
   -3.9110   -6.1918    8.7466 O   0  0  0  0  0  0  0  0  0  0  0  0
   -3.9711   -5.2624    9.8355 C   0  0  0  0  0  0  0  0  0  0  0  0
   -2.7793   -5.3722   10.5416 F   0  0  0  0  0  0  0  0  0  0  0  0
   -5.0287   -5.7103   10.6382 F   0  0  0  0  0  0  0  0  0  0  0  0
   -4.2888   -3.9860    9.4908 F   0  0  0  0  0  0  0  0  0  0  0  0
  -12.5578   -6.8679    8.8495 C   0  0  0  0  0  0  0  0  0  0  0  0
  -13.6275   -6.2803    9.5325 C   0  0  0  0  0  0  0  0  0  0  0  0
  -13.4534   -5.6382   10.7275 C   0  0  0  0  0  0  0  0  0  0  0  0
  -12.1824   -5.5789   11.2577 C   0  0  0  0  0  0  0  0  0  0  0  0
  -11.1615   -6.1443   10.5984 N   0  0  0  0  0  0  0  0  0  0  0  0
  -11.3182   -6.7891    9.4046 C   0  0  0  0  0  0  0  0  0  0  0  0
  -14.6918   -8.9558    4.2668 C   0  0  0  0  0  0  0  0  0  0  0  0
  -14.5288   -8.5310    5.7282 C   0  0  0  0  0  0  0  0  0  0  0  0
  -15.8216   -8.6713    6.4185 N   0  0  0  0  0  0  0  0  0  0  0  0
  -14.1718   -7.0860    5.7454 C   0  0  0  0  0  0  0  0  0  0  0  0
  -12.7937   -6.8901    6.3265 C   0  0  0  0  0  0  0  0  0  0  0  0
  -12.7609   -7.5111    7.6160 N   0  0  0  0  0  0  0  0  0  0  0  0
  -12.9593   -8.9567    7.6424 C   0  0  0  0  0  0  0  0  0  0  0  0
  -13.5116   -9.4540    6.3300 C   0  0  0  0  0  0  0  0  0  0  0  0
  -15.8311   -7.9419    7.1682 H   0  0  0  0  0  0  0  0  0  0  0  0
  -16.5659   -8.4866    5.7300 H   0  0  0  0  0  0  0  0  0  0  0  0
 31 32  1  0  0  0
 32 33  1  0  0  0
 32 34  1  0  0  0
 34 35  1  0  0  0
 35 36  1  0  0  0
 36 37  1  0  0  0
 37 38  1  0  0  0
 36 25  1  0  0  0
 25 26  2  0  0  0
 26 27  1  0  0  0
 27 28  2  0  0  0
 28 29  1  0  0  0
 29 30  2  0  0  0
 30  1  1  0  0  0
  1  2  1  0  0  0
  2  3  2  0  0  0
  2  5  1  0  0  0
  5  6  2  0  0  0
  6  7  1  0  0  0
  7  8  2  0  0  0
  8  9  1  0  0  0
  9 10  2  0  0  0
 10 11  1  0  0  0
  7 14  1  0  0  0
 14 15  2  0  0  0
 15 16  1  0  0  0
 16 17  2  0  0  0
 17 18  1  0  0  0
 18 19  2  0  0  0
 19 20  1  0  0  0
 20 21  1  0  0  0
 21 22  1  0  0  0
 21 23  1  0  0  0
 21 24  1  0  0  0
 38 32  1  0  0  0
 30 25  1  0  0  0
 10  5  1  0  0  0
 19 14  1  0  0  0
 33 39  1  0  0  0
 33 40  1  0  0  0
  1  4  1  0  0  0
 11 12  1  0  0  0
 11 13  1  0  0  0
M  END
> <minimizedAffinity>
-7.36133

> <CNNscore>
0.2567384839

> <CNNaffinity>
7.2248687744

> <CNN_VS>
1.8549019098

> <CNNaffinity_variance>
0.2526289821

$$$$
[H]c1nc(N([H])[H])c(C(=O)N([H])c2nc([H])c([H])c([H])c2N2C([H])([H])C([H])([H])C(N([H])[H])(C([H])([H])[H])C([H])([H])C2([H])[H])nc1-c1nc([H])c([H])c([H])c1OC(F)(F)F


 40 43  0  0  0  0  0  0  0  0999 V2000
   -5.6016   -6.1609    7.0809 N   0  0  0  0  0  0  0  0  0  0  0  0
   -6.8053   -6.4291    6.3249 C   0  0  0  0  0  0  0  0  0  0  0  0
   -7.0017   -5.8501    5.2317 O   0  0  0  0  0  0  0  0  0  0  0  0
   -5.4826   -6.6564    7.9688 H   0  0  0  0  0  0  0  0  0  0  0  0
   -7.7992   -7.3632    6.8108 C   0  0  0  0  0  0  0  0  0  0  0  0
   -8.8691   -6.9225    7.4671 N   0  0  0  0  0  0  0  0  0  0  0  0
   -9.8516   -7.7636    7.9551 C   0  0  0  0  0  0  0  0  0  0  0  0
   -9.6499   -9.0833    7.7159 C   0  0  0  0  0  0  0  0  0  0  0  0
   -8.5572   -9.5842    7.0416 N   0  0  0  0  0  0  0  0  0  0  0  0
   -7.6363   -8.7124    6.5927 C   0  0  0  0  0  0  0  0  0  0  0  0
   -6.4752   -9.1280    5.8868 N   0  0  0  0  0  0  0  0  0  0  0  0
   -6.5439   -9.1092    4.8392 H   0  0  0  0  0  0  0  0  0  0  0  0
   -5.5961   -9.4375    6.3101 H   0  0  0  0  0  0  0  0  0  0  0  0
  -11.0045   -7.1447    8.5823 C   0  0  0  0  0  0  0  0  0  0  0  0
  -10.7334   -6.1801    9.5409 N   0  0  0  0  0  0  0  0  0  0  0  0
  -11.6718   -5.4815   10.1671 C   0  0  0  0  0  0  0  0  0  0  0  0
  -13.0127   -5.6526    9.9192 C   0  0  0  0  0  0  0  0  0  0  0  0
  -13.3382   -6.5962    8.9824 C   0  0  0  0  0  0  0  0  0  0  0  0
  -12.3164   -7.3276    8.3341 C   0  0  0  0  0  0  0  0  0  0  0  0
  -12.7474   -8.2780    7.4249 O   0  0  0  0  0  0  0  0  0  0  0  0
  -13.3779   -9.4472    7.9618 C   0  0  0  0  0  0  0  0  0  0  0  0
  -12.6940   -9.7926    9.1212 F   0  0  0  0  0  0  0  0  0  0  0  0
  -13.1832  -10.4423    6.9947 F   0  0  0  0  0  0  0  0  0  0  0  0
  -14.7246   -9.3555    8.1262 F   0  0  0  0  0  0  0  0  0  0  0  0
   -3.6086   -4.8185    7.3837 C   0  0  0  0  0  0  0  0  0  0  0  0
   -2.6831   -3.9298    6.8272 C   0  0  0  0  0  0  0  0  0  0  0  0
   -2.7876   -3.4975    5.5338 C   0  0  0  0  0  0  0  0  0  0  0  0
   -3.8397   -3.9610    4.7735 C   0  0  0  0  0  0  0  0  0  0  0  0
   -4.7231   -4.8128    5.3126 N   0  0  0  0  0  0  0  0  0  0  0  0
   -4.6332   -5.2542    6.6020 C   0  0  0  0  0  0  0  0  0  0  0  0
   -2.8812   -5.0665   12.7988 C   0  0  0  0  0  0  0  0  0  0  0  0
   -2.7151   -4.6697   11.3299 C   0  0  0  0  0  0  0  0  0  0  0  0
   -1.8308   -3.4958   11.2443 N   0  0  0  0  0  0  0  0  0  0  0  0
   -4.0499   -4.2576   10.8157 C   0  0  0  0  0  0  0  0  0  0  0  0
   -4.5061   -5.1929    9.7238 C   0  0  0  0  0  0  0  0  0  0  0  0
   -3.4863   -5.2379    8.7200 N   0  0  0  0  0  0  0  0  0  0  0  0
   -2.1941   -5.7741    9.1351 C   0  0  0  0  0  0  0  0  0  0  0  0
   -2.0922   -5.8453   10.6381 C   0  0  0  0  0  0  0  0  0  0  0  0
   -2.1369   -2.9628   10.3979 H   0  0  0  0  0  0  0  0  0  0  0  0
   -1.9761   -2.9315   12.0944 H   0  0  0  0  0  0  0  0  0  0  0  0
 31 32  1  0  0  0
 32 33  1  0  0  0
 32 34  1  0  0  0
 34 35  1  0  0  0
 35 36  1  0  0  0
 36 37  1  0  0  0
 37 38  1  0  0  0
 36 25  1  0  0  0
 25 26  2  0  0  0
 26 27  1  0  0  0
 27 28  2  0  0  0
 28 29  1  0  0  0
 29 30  2  0  0  0
 30  1  1  0  0  0
  1  2  1  0  0  0
  2  3  2  0  0  0
  2  5  1  0  0  0
  5  6  2  0  0  0
  6  7  1  0  0  0
  7  8  2  0  0  0
  8  9  1  0  0  0
  9 10  2  0  0  0
 10 11  1  0  0  0
  7 14  1  0  0  0
 14 15  2  0  0  0
 15 16  1  0  0  0
 16 17  2  0  0  0
 17 18  1  0  0  0
 18 19  2  0  0  0
 19 20  1  0  0  0
 20 21  1  0  0  0
 21 22  1  0  0  0
 21 23  1  0  0  0
 21 24  1  0  0  0
 38 32  1  0  0  0
 30 25  1  0  0  0
 10  5  1  0  0  0
 19 14  1  0  0  0
 33 39  1  0  0  0
 33 40  1  0  0  0
  1  4  1  0  0  0
 11 12  1  0  0  0
 11 13  1  0  0  0
M  END
> <minimizedAffinity>
-7.84798

> <CNNscore>
0.2367768437

> <CNNaffinity>
6.5636329651

> <CNN_VS>
1.5541162491

> <CNNaffinity_variance>
0.3246523738

$$$$
[H]c1nc(N([H])[H])c(C(=O)N([H])c2nc([H])c([H])c([H])c2N2C([H])([H])C([H])([H])C(N([H])[H])(C([H])([H])[H])C([H])([H])C2([H])[H])nc1-c1nc([H])c([H])c([H])c1OC(F)(F)F


 40 43  0  0  0  0  0  0  0  0999 V2000
  -11.9957   -7.6997    6.8112 N   0  0  0  0  0  0  0  0  0  0  0  0
  -11.5927   -9.0757    7.0024 C   0  0  0  0  0  0  0  0  0  0  0  0
  -12.4461   -9.9915    6.9577 O   0  0  0  0  0  0  0  0  0  0  0  0
  -11.2650   -6.9841    6.8561 H   0  0  0  0  0  0  0  0  0  0  0  0
  -10.2079   -9.4207    7.2473 C   0  0  0  0  0  0  0  0  0  0  0  0
   -9.3303   -8.4769    7.5775 N   0  0  0  0  0  0  0  0  0  0  0  0
   -7.9963   -8.7431    7.8233 C   0  0  0  0  0  0  0  0  0  0  0  0
   -7.6383  -10.0460    7.7051 C   0  0  0  0  0  0  0  0  0  0  0  0
   -8.5128  -11.0557    7.3651 N   0  0  0  0  0  0  0  0  0  0  0  0
   -9.7980  -10.7300    7.1380 C   0  0  0  0  0  0  0  0  0  0  0  0
  -10.7766  -11.6969    6.7821 N   0  0  0  0  0  0  0  0  0  0  0  0
  -11.3449  -12.0875    7.5739 H   0  0  0  0  0  0  0  0  0  0  0  0
  -10.9671  -12.0352    5.8349 H   0  0  0  0  0  0  0  0  0  0  0  0
   -7.1656   -7.6332    8.2519 C   0  0  0  0  0  0  0  0  0  0  0  0
   -6.6228   -7.7326    9.5240 N   0  0  0  0  0  0  0  0  0  0  0  0
   -5.7986   -6.8322   10.0444 C   0  0  0  0  0  0  0  0  0  0  0  0
   -5.4037   -5.7068    9.3616 C   0  0  0  0  0  0  0  0  0  0  0  0
   -5.9128   -5.5560    8.0998 C   0  0  0  0  0  0  0  0  0  0  0  0
   -6.7918   -6.5304    7.5733 C   0  0  0  0  0  0  0  0  0  0  0  0
   -7.2750   -6.2740    6.3019 O   0  0  0  0  0  0  0  0  0  0  0  0
   -6.5288   -6.8158    5.2053 C   0  0  0  0  0  0  0  0  0  0  0  0
   -5.3065   -6.1554    5.1681 F   0  0  0  0  0  0  0  0  0  0  0  0
   -7.2694   -6.4853    4.0626 F   0  0  0  0  0  0  0  0  0  0  0  0
   -6.4204   -8.1712    5.1916 F   0  0  0  0  0  0  0  0  0  0  0  0
  -14.1526   -6.8805    7.5478 C   0  0  0  0  0  0  0  0  0  0  0  0
  -15.4746   -6.5637    7.2193 C   0  0  0  0  0  0  0  0  0  0  0  0
  -15.9622   -6.7326    5.9526 C   0  0  0  0  0  0  0  0  0  0  0  0
  -15.1132   -7.2293    4.9871 C   0  0  0  0  0  0  0  0  0  0  0  0
  -13.8473   -7.5307    5.3082 N   0  0  0  0  0  0  0  0  0  0  0  0
  -13.3447   -7.3680    6.5677 C   0  0  0  0  0  0  0  0  0  0  0  0
  -11.1644   -5.7129   11.9774 C   0  0  0  0  0  0  0  0  0  0  0  0
  -11.5537   -6.1758   10.5714 C   0  0  0  0  0  0  0  0  0  0  0  0
  -10.3319   -6.3907    9.7786 N   0  0  0  0  0  0  0  0  0  0  0  0
  -12.3145   -5.0728    9.9231 C   0  0  0  0  0  0  0  0  0  0  0  0
  -13.7301   -5.5068    9.6350 C   0  0  0  0  0  0  0  0  0  0  0  0
  -13.6790   -6.7098    8.8604 N   0  0  0  0  0  0  0  0  0  0  0  0
  -13.0726   -7.8693    9.5067 C   0  0  0  0  0  0  0  0  0  0  0  0
  -12.3022   -7.4645   10.7384 C   0  0  0  0  0  0  0  0  0  0  0  0
  -10.5910   -6.1891    8.7855 H   0  0  0  0  0  0  0  0  0  0  0  0
   -9.6231   -5.7184   10.1071 H   0  0  0  0  0  0  0  0  0  0  0  0
 31 32  1  0  0  0
 32 33  1  0  0  0
 32 34  1  0  0  0
 34 35  1  0  0  0
 35 36  1  0  0  0
 36 37  1  0  0  0
 37 38  1  0  0  0
 36 25  1  0  0  0
 25 26  2  0  0  0
 26 27  1  0  0  0
 27 28  2  0  0  0
 28 29  1  0  0  0
 29 30  2  0  0  0
 30  1  1  0  0  0
  1  2  1  0  0  0
  2  3  2  0  0  0
  2  5  1  0  0  0
  5  6  2  0  0  0
  6  7  1  0  0  0
  7  8  2  0  0  0
  8  9  1  0  0  0
  9 10  2  0  0  0
 10 11  1  0  0  0
  7 14  1  0  0  0
 14 15  2  0  0  0
 15 16  1  0  0  0
 16 17  2  0  0  0
 17 18  1  0  0  0
 18 19  2  0  0  0
 19 20  1  0  0  0
 20 21  1  0  0  0
 21 22  1  0  0  0
 21 23  1  0  0  0
 21 24  1  0  0  0
 38 32  1  0  0  0
 30 25  1  0  0  0
 10  5  1  0  0  0
 19 14  1  0  0  0
 33 39  1  0  0  0
 33 40  1  0  0  0
  1  4  1  0  0  0
 11 12  1  0  0  0
 11 13  1  0  0  0
M  END
> <minimizedAffinity>
-0.41552

> <CNNscore>
0.2317573428

> <CNNaffinity>
7.2833213806

> <CNN_VS>
1.6879632473

> <CNNaffinity_variance>
0.2347416431

$$$$
[H]c1c([H])c(N([H])C(=O)N2C([H])([H])C([H])([H])OC3(C2([H])[H])C([H])([H])C([H])([H])N(C(=O)C2([H])C([H])([H])C2([H])[H])C([H])([H])C3([H])[H])c([H])c([H])c1OC(F)(F)F


 31 34  0  0  0  0  0  0  0  0999 V2000
  -15.6229   -6.5193    5.6893 N   0  0  0  0  0  0  0  0  0  0  0  0
  -15.7342   -7.7928    6.2806 C   0  0  0  0  0  0  0  0  0  0  0  0
  -16.8170   -8.3766    6.4176 O   0  0  0  0  0  0  0  0  0  0  0  0
  -14.5709   -8.4825    6.7600 N   0  0  0  0  0  0  0  0  0  0  0  0
  -14.6693   -9.7741    7.3627 C   0  0  0  0  0  0  0  0  0  0  0  0
  -13.5962   -9.9227    8.3825 C   0  0  0  0  0  0  0  0  0  0  0  0
  -12.3292   -9.6537    7.9846 O   0  0  0  0  0  0  0  0  0  0  0  0
  -12.1577   -8.8769    6.8834 C   0  0  0  0  0  0  0  0  0  0  0  0
  -10.8724   -8.0696    7.0841 C   0  0  0  0  0  0  0  0  0  0  0  0
   -9.8078   -9.0614    7.4896 C   0  0  0  0  0  0  0  0  0  0  0  0
   -9.7536  -10.0803    6.4594 N   0  0  0  0  0  0  0  0  0  0  0  0
  -10.4916   -9.8166    5.2538 C   0  0  0  0  0  0  0  0  0  0  0  0
  -11.9661   -9.6920    5.6400 C   0  0  0  0  0  0  0  0  0  0  0  0
   -9.0215  -11.2636    6.6227 C   0  0  0  0  0  0  0  0  0  0  0  0
   -8.3925  -11.4144    7.7323 O   0  0  0  0  0  0  0  0  0  0  0  0
  -13.2606   -7.8785    6.6415 C   0  0  0  0  0  0  0  0  0  0  0  0
  -14.6237   -6.0873    5.6120 H   0  0  0  0  0  0  0  0  0  0  0  0
  -19.0076   -4.3579    4.4655 C   0  0  0  0  0  0  0  0  0  0  0  0
  -18.8718   -4.8465    5.7460 C   0  0  0  0  0  0  0  0  0  0  0  0
  -17.7490   -5.5388    6.1052 C   0  0  0  0  0  0  0  0  0  0  0  0
  -16.7043   -5.7790    5.2054 C   0  0  0  0  0  0  0  0  0  0  0  0
  -16.8406   -5.2979    3.9462 C   0  0  0  0  0  0  0  0  0  0  0  0
  -17.9926   -4.5863    3.5753 C   0  0  0  0  0  0  0  0  0  0  0  0
  -20.1649   -3.6440    4.0959 O   0  0  0  0  0  0  0  0  0  0  0  0
  -19.5108   -2.2463    5.8109 F   0  0  0  0  0  0  0  0  0  0  0  0
  -20.5603   -2.5552    4.9451 C   0  0  0  0  0  0  0  0  0  0  0  0
  -20.8121   -1.4303    4.2136 F   0  0  0  0  0  0  0  0  0  0  0  0
  -21.6824   -2.9627    5.6360 F   0  0  0  0  0  0  0  0  0  0  0  0
   -8.9105  -12.3585    5.6223 C   0  0  0  0  0  0  0  0  0  0  0  0
   -9.5333  -13.6716    6.0487 C   0  0  0  0  0  0  0  0  0  0  0  0
   -8.0672  -13.5227    6.0205 C   0  0  0  0  0  0  0  0  0  0  0  0
 25 26  1  0  0  0
 26 27  1  0  0  0
 26 28  1  0  0  0
 26 24  1  0  0  0
 24 18  1  0  0  0
 18 19  2  0  0  0
 19 20  1  0  0  0
 20 21  2  0  0  0
 21  1  1  0  0  0
  1  2  1  0  0  0
  2  3  2  0  0  0
  2  4  1  0  0  0
  4  5  1  0  0  0
  5  6  1  0  0  0
  6  7  1  0  0  0
  7  8  1  0  0  0
  8  9  1  0  0  0
  9 10  1  0  0  0
 10 11  1  0  0  0
 11 12  1  0  0  0
 12 13  1  0  0  0
 11 14  1  0  0  0
 14 15  2  0  0  0
 14 29  1  0  0  0
 29 30  1  0  0  0
 30 31  1  0  0  0
  8 16  1  0  0  0
 21 22  1  0  0  0
 22 23  2  0  0  0
 23 18  1  0  0  0
 16  4  1  0  0  0
 13  8  1  0  0  0
 31 29  1  0  0  0
  1 17  1  0  0  0
M  END
> <minimizedAffinity>
21.41058

> <CNNscore>
0.4914919436

> <CNNaffinity>
6.4244813919

> <CNN_VS>
3.1575808525

> <CNNaffinity_variance>
1.0665092468

$$$$
[H]c1c([H])c(N([H])C(=O)N2C([H])([H])C([H])([H])OC3(C2([H])[H])C([H])([H])C([H])([H])N(C(=O)C2([H])C([H])([H])C2([H])[H])C([H])([H])C3([H])[H])c([H])c([H])c1OC(F)(F)F


 31 34  0  0  0  0  0  0  0  0999 V2000
  -13.9576   -6.0936    4.8002 N   0  0  0  0  0  0  0  0  0  0  0  0
  -14.5268   -7.3310    5.1588 C   0  0  0  0  0  0  0  0  0  0  0  0
  -15.7295   -7.5840    5.0118 O   0  0  0  0  0  0  0  0  0  0  0  0
  -13.7183   -8.3738    5.7225 N   0  0  0  0  0  0  0  0  0  0  0  0
  -14.2827   -9.6333    6.0916 C   0  0  0  0  0  0  0  0  0  0  0  0
  -13.5295  -10.1883    7.2485 C   0  0  0  0  0  0  0  0  0  0  0  0
  -12.1822  -10.2627    7.1255 O   0  0  0  0  0  0  0  0  0  0  0  0
  -11.5806   -9.4652    6.2051 C   0  0  0  0  0  0  0  0  0  0  0  0
  -10.1995   -9.0919    6.7505 C   0  0  0  0  0  0  0  0  0  0  0  0
   -9.5487  -10.3859    7.1783 C   0  0  0  0  0  0  0  0  0  0  0  0
   -9.5506  -11.2697    6.0287 N   0  0  0  0  0  0  0  0  0  0  0  0
   -9.9187  -10.6847    4.7678 C   0  0  0  0  0  0  0  0  0  0  0  0
  -11.3538  -10.1741    4.9038 C   0  0  0  0  0  0  0  0  0  0  0  0
   -9.2121  -12.6251    6.1331 C   0  0  0  0  0  0  0  0  0  0  0  0
   -8.8961  -13.0615    7.2991 O   0  0  0  0  0  0  0  0  0  0  0  0
  -12.3004   -8.1697    5.9306 C   0  0  0  0  0  0  0  0  0  0  0  0
  -12.8866   -5.9665    4.9671 H   0  0  0  0  0  0  0  0  0  0  0  0
  -16.2863   -3.0688    3.0527 C   0  0  0  0  0  0  0  0  0  0  0  0
  -16.7024   -4.3808    3.1004 C   0  0  0  0  0  0  0  0  0  0  0  0
  -15.9162   -5.3335    3.6863 C   0  0  0  0  0  0  0  0  0  0  0  0
  -14.6747   -5.0261    4.2544 C   0  0  0  0  0  0  0  0  0  0  0  0
  -14.2672   -3.7349    4.2056 C   0  0  0  0  0  0  0  0  0  0  0  0
  -15.0732   -2.7548    3.6048 C   0  0  0  0  0  0  0  0  0  0  0  0
  -17.0971   -2.0872    2.4491 O   0  0  0  0  0  0  0  0  0  0  0  0
  -15.3526   -1.7208    0.9845 F   0  0  0  0  0  0  0  0  0  0  0  0
  -16.4403   -1.1180    1.6170 C   0  0  0  0  0  0  0  0  0  0  0  0
  -17.2736   -0.6743    0.6309 F   0  0  0  0  0  0  0  0  0  0  0  0
  -16.0391   -0.0823    2.4349 F   0  0  0  0  0  0  0  0  0  0  0  0
   -9.1872  -13.6007    5.0107 C   0  0  0  0  0  0  0  0  0  0  0  0
   -9.2699  -15.0531    5.4320 C   0  0  0  0  0  0  0  0  0  0  0  0
   -7.9943  -14.4942    4.9495 C   0  0  0  0  0  0  0  0  0  0  0  0
 25 26  1  0  0  0
 26 27  1  0  0  0
 26 28  1  0  0  0
 26 24  1  0  0  0
 24 18  1  0  0  0
 18 19  2  0  0  0
 19 20  1  0  0  0
 20 21  2  0  0  0
 21  1  1  0  0  0
  1  2  1  0  0  0
  2  3  2  0  0  0
  2  4  1  0  0  0
  4  5  1  0  0  0
  5  6  1  0  0  0
  6  7  1  0  0  0
  7  8  1  0  0  0
  8  9  1  0  0  0
  9 10  1  0  0  0
 10 11  1  0  0  0
 11 12  1  0  0  0
 12 13  1  0  0  0
 11 14  1  0  0  0
 14 15  2  0  0  0
 14 29  1  0  0  0
 29 30  1  0  0  0
 30 31  1  0  0  0
  8 16  1  0  0  0
 21 22  1  0  0  0
 22 23  2  0  0  0
 23 18  1  0  0  0
 16  4  1  0  0  0
 13  8  1  0  0  0
 31 29  1  0  0  0
  1 17  1  0  0  0
M  END
> <minimizedAffinity>
32.33735

> <CNNscore>
0.4911125302

> <CNNaffinity>
6.1064667702

> <CNN_VS>
2.9989624023

> <CNNaffinity_variance>
0.7705897093

$$$$
[H]c1c([H])c(N([H])C(=O)N2C([H])([H])C([H])([H])OC3(C2([H])[H])C([H])([H])C([H])([H])N(C(=O)C2([H])C([H])([H])C2([H])[H])C([H])([H])C3([H])[H])c([H])c([H])c1OC(F)(F)F


 31 34  0  0  0  0  0  0  0  0999 V2000
  -12.1654   -6.0246    9.9464 N   0  0  0  0  0  0  0  0  0  0  0  0
  -12.0077   -6.9466    8.8934 C   0  0  0  0  0  0  0  0  0  0  0  0
  -11.1039   -7.7920    8.8715 O   0  0  0  0  0  0  0  0  0  0  0  0
  -12.9085   -6.9446    7.7765 N   0  0  0  0  0  0  0  0  0  0  0  0
  -12.7597   -7.8735    6.7012 C   0  0  0  0  0  0  0  0  0  0  0  0
  -13.2371   -7.2446    5.4401 C   0  0  0  0  0  0  0  0  0  0  0  0
  -14.4763   -6.6969    5.4577 O   0  0  0  0  0  0  0  0  0  0  0  0
  -15.0094   -6.3635    6.6619 C   0  0  0  0  0  0  0  0  0  0  0  0
  -15.8927   -5.1310    6.4499 C   0  0  0  0  0  0  0  0  0  0  0  0
  -16.7936   -5.4511    5.2807 C   0  0  0  0  0  0  0  0  0  0  0  0
  -17.4964   -6.6781    5.6018 N   0  0  0  0  0  0  0  0  0  0  0  0
  -17.3770   -7.1533    6.9537 C   0  0  0  0  0  0  0  0  0  0  0  0
  -15.8967   -7.4422    7.2063 C   0  0  0  0  0  0  0  0  0  0  0  0
  -18.2552   -7.3706    4.6493 C   0  0  0  0  0  0  0  0  0  0  0  0
  -18.3059   -6.8724    3.4665 O   0  0  0  0  0  0  0  0  0  0  0  0
  -13.9974   -5.9927    7.7155 C   0  0  0  0  0  0  0  0  0  0  0  0
  -12.9946   -5.3186    9.8756 H   0  0  0  0  0  0  0  0  0  0  0  0
   -9.7877   -5.5894   13.3791 C   0  0  0  0  0  0  0  0  0  0  0  0
  -10.9268   -4.8425   13.1752 C   0  0  0  0  0  0  0  0  0  0  0  0
  -11.6769   -5.0217   12.0465 C   0  0  0  0  0  0  0  0  0  0  0  0
  -11.3292   -5.9550   11.0634 C   0  0  0  0  0  0  0  0  0  0  0  0
  -10.2079   -6.6881   11.2659 C   0  0  0  0  0  0  0  0  0  0  0  0
   -9.4363   -6.5060   12.4246 C   0  0  0  0  0  0  0  0  0  0  0  0
   -9.0151   -5.4046   14.5429 O   0  0  0  0  0  0  0  0  0  0  0  0
   -8.6460   -3.1300   14.6558 F   0  0  0  0  0  0  0  0  0  0  0  0
   -8.0208   -4.3687   14.5096 C   0  0  0  0  0  0  0  0  0  0  0  0
   -7.1473   -4.4948   15.5513 F   0  0  0  0  0  0  0  0  0  0  0  0
   -7.3695   -4.4663   13.2977 F   0  0  0  0  0  0  0  0  0  0  0  0
  -19.0061   -8.6316    4.8902 C   0  0  0  0  0  0  0  0  0  0  0  0
  -18.8055   -9.2356    6.2646 C   0  0  0  0  0  0  0  0  0  0  0  0
  -18.1780   -9.8570    5.0845 C   0  0  0  0  0  0  0  0  0  0  0  0
 25 26  1  0  0  0
 26 27  1  0  0  0
 26 28  1  0  0  0
 26 24  1  0  0  0
 24 18  1  0  0  0
 18 19  2  0  0  0
 19 20  1  0  0  0
 20 21  2  0  0  0
 21  1  1  0  0  0
  1  2  1  0  0  0
  2  3  2  0  0  0
  2  4  1  0  0  0
  4  5  1  0  0  0
  5  6  1  0  0  0
  6  7  1  0  0  0
  7  8  1  0  0  0
  8  9  1  0  0  0
  9 10  1  0  0  0
 10 11  1  0  0  0
 11 12  1  0  0  0
 12 13  1  0  0  0
 11 14  1  0  0  0
 14 15  2  0  0  0
 14 29  1  0  0  0
 29 30  1  0  0  0
 30 31  1  0  0  0
  8 16  1  0  0  0
 21 22  1  0  0  0
 22 23  2  0  0  0
 23 18  1  0  0  0
 16  4  1  0  0  0
 13  8  1  0  0  0
 31 29  1  0  0  0
  1 17  1  0  0  0
M  END
> <minimizedAffinity>
16.02188

> <CNNscore>
0.4868259132

> <CNNaffinity>
6.5227537155

> <CNN_VS>
3.1754455566

> <CNNaffinity_variance>
1.4785410166

$$$$
[H]c1c([H])c(N([H])C(=O)N2C([H])([H])C([H])([H])OC3(C2([H])[H])C([H])([H])C([H])([H])N(C(=O)C2([H])C([H])([H])C2([H])[H])C([H])([H])C3([H])[H])c([H])c([H])c1OC(F)(F)F


 31 34  0  0  0  0  0  0  0  0999 V2000
  -10.7794   -7.4942    7.1844 N   0  0  0  0  0  0  0  0  0  0  0  0
  -11.3100   -8.6806    6.6417 C   0  0  0  0  0  0  0  0  0  0  0  0
  -10.6736   -9.7414    6.5973 O   0  0  0  0  0  0  0  0  0  0  0  0
  -12.6405   -8.7103    6.1053 N   0  0  0  0  0  0  0  0  0  0  0  0
  -13.1909   -9.9066    5.5510 C   0  0  0  0  0  0  0  0  0  0  0  0
  -14.1438   -9.5509    4.4651 C   0  0  0  0  0  0  0  0  0  0  0  0
  -15.1105   -8.6507    4.7668 O   0  0  0  0  0  0  0  0  0  0  0  0
  -14.9077   -7.8287    5.8291 C   0  0  0  0  0  0  0  0  0  0  0  0
  -15.5890   -6.4938    5.5161 C   0  0  0  0  0  0  0  0  0  0  0  0
  -16.9924   -6.8286    5.0695 C   0  0  0  0  0  0  0  0  0  0  0  0
  -17.6047   -7.6125    6.1245 N   0  0  0  0  0  0  0  0  0  0  0  0
  -16.8884   -7.6874    7.3691 C   0  0  0  0  0  0  0  0  0  0  0  0
  -15.5428   -8.3545    7.0811 C   0  0  0  0  0  0  0  0  0  0  0  0
  -18.8313   -8.2660    5.9481 C   0  0  0  0  0  0  0  0  0  0  0  0
  -19.4004   -8.1437    4.8031 O   0  0  0  0  0  0  0  0  0  0  0  0
  -13.4609   -7.5177    6.1151 C   0  0  0  0  0  0  0  0  0  0  0  0
  -11.4191   -6.6101    7.1798 H   0  0  0  0  0  0  0  0  0  0  0  0
   -6.8427   -7.0122    8.5615 C   0  0  0  0  0  0  0  0  0  0  0  0
   -7.3188   -6.3499    7.4516 C   0  0  0  0  0  0  0  0  0  0  0  0
   -8.6106   -6.5296    7.0418 C   0  0  0  0  0  0  0  0  0  0  0  0
   -9.4935   -7.3791    7.7181 C   0  0  0  0  0  0  0  0  0  0  0  0
   -9.0227   -8.0300    8.8092 C   0  0  0  0  0  0  0  0  0  0  0  0
   -7.6965   -7.8465    9.2320 C   0  0  0  0  0  0  0  0  0  0  0  0
   -5.5114   -6.8263    8.9837 O   0  0  0  0  0  0  0  0  0  0  0  0
   -3.2497   -6.8431    8.5285 F   0  0  0  0  0  0  0  0  0  0  0  0
   -4.5141   -6.6881    7.9594 C   0  0  0  0  0  0  0  0  0  0  0  0
   -4.6437   -7.6651    7.0147 F   0  0  0  0  0  0  0  0  0  0  0  0
   -4.6687   -5.4345    7.4052 F   0  0  0  0  0  0  0  0  0  0  0  0
  -19.5299   -9.0881    6.9718 C   0  0  0  0  0  0  0  0  0  0  0  0
  -20.0439  -10.4217    6.4704 C   0  0  0  0  0  0  0  0  0  0  0  0
  -20.9851   -9.3200    6.7401 C   0  0  0  0  0  0  0  0  0  0  0  0
 25 26  1  0  0  0
 26 27  1  0  0  0
 26 28  1  0  0  0
 26 24  1  0  0  0
 24 18  1  0  0  0
 18 19  2  0  0  0
 19 20  1  0  0  0
 20 21  2  0  0  0
 21  1  1  0  0  0
  1  2  1  0  0  0
  2  3  2  0  0  0
  2  4  1  0  0  0
  4  5  1  0  0  0
  5  6  1  0  0  0
  6  7  1  0  0  0
  7  8  1  0  0  0
  8  9  1  0  0  0
  9 10  1  0  0  0
 10 11  1  0  0  0
 11 12  1  0  0  0
 12 13  1  0  0  0
 11 14  1  0  0  0
 14 15  2  0  0  0
 14 29  1  0  0  0
 29 30  1  0  0  0
 30 31  1  0  0  0
  8 16  1  0  0  0
 21 22  1  0  0  0
 22 23  2  0  0  0
 23 18  1  0  0  0
 16  4  1  0  0  0
 13  8  1  0  0  0
 31 29  1  0  0  0
  1 17  1  0  0  0
M  END
> <minimizedAffinity>
0.99252

> <CNNscore>
0.3784964383

> <CNNaffinity>
6.6997098923

> <CNN_VS>
2.5358164310

> <CNNaffinity_variance>
1.7464504242

$$$$
[H]c1c([H])c(N([H])C(=O)N2C([H])([H])C([H])([H])OC3(C2([H])[H])C([H])([H])C([H])([H])N(C(=O)C2([H])C([H])([H])C2([H])[H])C([H])([H])C3([H])[H])c([H])c([H])c1OC(F)(F)F


 31 34  0  0  0  0  0  0  0  0999 V2000
  -13.4179   -8.8415    8.8346 N   0  0  0  0  0  0  0  0  0  0  0  0
  -14.2034   -9.2848    7.7529 C   0  0  0  0  0  0  0  0  0  0  0  0
  -14.8284  -10.3530    7.7709 O   0  0  0  0  0  0  0  0  0  0  0  0
  -14.3144   -8.4991    6.5573 N   0  0  0  0  0  0  0  0  0  0  0  0
  -15.1068   -8.9371    5.4521 C   0  0  0  0  0  0  0  0  0  0  0  0
  -14.5052   -8.4347    4.1875 C   0  0  0  0  0  0  0  0  0  0  0  0
  -14.2423   -7.1074    4.1172 O   0  0  0  0  0  0  0  0  0  0  0  0
  -14.1224   -6.4183    5.2817 C   0  0  0  0  0  0  0  0  0  0  0  0
  -13.0987   -5.3027    5.0543 C   0  0  0  0  0  0  0  0  0  0  0  0
  -13.5194   -4.5928    3.7893 C   0  0  0  0  0  0  0  0  0  0  0  0
  -14.8899   -4.1574    3.9752 N   0  0  0  0  0  0  0  0  0  0  0  0
  -15.4264   -4.2704    5.3045 C   0  0  0  0  0  0  0  0  0  0  0  0
  -15.4051   -5.7526    5.6802 C   0  0  0  0  0  0  0  0  0  0  0  0
  -15.6584   -3.6511    2.9189 C   0  0  0  0  0  0  0  0  0  0  0  0
  -15.0971   -3.5861    1.7654 O   0  0  0  0  0  0  0  0  0  0  0  0
  -13.6196   -7.2341    6.4451 C   0  0  0  0  0  0  0  0  0  0  0  0
  -12.9054   -7.8844    8.7239 H   0  0  0  0  0  0  0  0  0  0  0  0
  -13.0253  -10.7517   12.5526 C   0  0  0  0  0  0  0  0  0  0  0  0
  -13.7435   -9.5867   12.3977 C   0  0  0  0  0  0  0  0  0  0  0  0
  -13.8527   -9.0016   11.1670 C   0  0  0  0  0  0  0  0  0  0  0  0
  -13.2512   -9.5486   10.0280 C   0  0  0  0  0  0  0  0  0  0  0  0
  -12.5447  -10.6942   10.1830 C   0  0  0  0  0  0  0  0  0  0  0  0
  -12.4316  -11.2970   11.4459 C   0  0  0  0  0  0  0  0  0  0  0  0
  -12.9134  -11.3546   13.8212 O   0  0  0  0  0  0  0  0  0  0  0  0
  -11.3089  -11.8288   15.4098 F   0  0  0  0  0  0  0  0  0  0  0  0
  -11.9512  -10.7944   14.7285 C   0  0  0  0  0  0  0  0  0  0  0  0
  -10.9841  -10.1067   14.0535 F   0  0  0  0  0  0  0  0  0  0  0  0
  -12.6382   -9.9691   15.5942 F   0  0  0  0  0  0  0  0  0  0  0  0
  -17.0665   -3.1829    3.0187 C   0  0  0  0  0  0  0  0  0  0  0  0
  -17.9382   -3.5393    1.8325 C   0  0  0  0  0  0  0  0  0  0  0  0
  -17.4827   -2.1509    2.0254 C   0  0  0  0  0  0  0  0  0  0  0  0
 25 26  1  0  0  0
 26 27  1  0  0  0
 26 28  1  0  0  0
 26 24  1  0  0  0
 24 18  1  0  0  0
 18 19  2  0  0  0
 19 20  1  0  0  0
 20 21  2  0  0  0
 21  1  1  0  0  0
  1  2  1  0  0  0
  2  3  2  0  0  0
  2  4  1  0  0  0
  4  5  1  0  0  0
  5  6  1  0  0  0
  6  7  1  0  0  0
  7  8  1  0  0  0
  8  9  1  0  0  0
  9 10  1  0  0  0
 10 11  1  0  0  0
 11 12  1  0  0  0
 12 13  1  0  0  0
 11 14  1  0  0  0
 14 15  2  0  0  0
 14 29  1  0  0  0
 29 30  1  0  0  0
 30 31  1  0  0  0
  8 16  1  0  0  0
 21 22  1  0  0  0
 22 23  2  0  0  0
 23 18  1  0  0  0
 16  4  1  0  0  0
 13  8  1  0  0  0
 31 29  1  0  0  0
  1 17  1  0  0  0
M  END
> <minimizedAffinity>
41.66227

> <CNNscore>
0.3729734719

> <CNNaffinity>
6.0864272118

> <CNN_VS>
2.2700757980

> <CNNaffinity_variance>
0.7034470439

$$$$
[H]c1c([H])c(N([H])C(=O)N2C([H])([H])C([H])([H])OC3(C2([H])[H])C([H])([H])C([H])([H])N(C(=O)C2([H])C([H])([H])C2([H])[H])C([H])([H])C3([H])[H])c([H])c([H])c1OC(F)(F)F


 31 34  0  0  0  0  0  0  0  0999 V2000
  -12.1333   -6.3820    9.8302 N   0  0  0  0  0  0  0  0  0  0  0  0
  -12.4679   -7.6876    9.4213 C   0  0  0  0  0  0  0  0  0  0  0  0
  -12.1896   -8.6919   10.0890 O   0  0  0  0  0  0  0  0  0  0  0  0
  -13.1612   -7.9134    8.1854 N   0  0  0  0  0  0  0  0  0  0  0  0
  -13.5060   -9.2324    7.7580 C   0  0  0  0  0  0  0  0  0  0  0  0
  -13.4920   -9.2856    6.2712 C   0  0  0  0  0  0  0  0  0  0  0  0
  -14.2142   -8.3447    5.6161 O   0  0  0  0  0  0  0  0  0  0  0  0
  -14.5260   -7.2021    6.2814 C   0  0  0  0  0  0  0  0  0  0  0  0
  -14.5604   -6.0659    5.2558 C   0  0  0  0  0  0  0  0  0  0  0  0
  -15.4311   -6.5469    4.1192 C   0  0  0  0  0  0  0  0  0  0  0  0
  -16.7129   -6.9186    4.6861 N   0  0  0  0  0  0  0  0  0  0  0  0
  -16.9420   -6.5488    6.0567 C   0  0  0  0  0  0  0  0  0  0  0  0
  -15.8883   -7.2634    6.9039 C   0  0  0  0  0  0  0  0  0  0  0  0
  -17.6836   -7.6026    3.9429 C   0  0  0  0  0  0  0  0  0  0  0  0
  -17.3926   -7.8920    2.7257 O   0  0  0  0  0  0  0  0  0  0  0  0
  -13.5296   -6.7991    7.3381 C   0  0  0  0  0  0  0  0  0  0  0  0
  -12.4232   -5.5603    9.1731 H   0  0  0  0  0  0  0  0  0  0  0  0
   -9.8604   -5.5551   13.2619 C   0  0  0  0  0  0  0  0  0  0  0  0
   -9.2788   -5.8820   12.0570 C   0  0  0  0  0  0  0  0  0  0  0  0
  -10.0562   -6.1362   10.9616 C   0  0  0  0  0  0  0  0  0  0  0  0
  -11.4535   -6.0775   11.0121 C   0  0  0  0  0  0  0  0  0  0  0  0
  -12.0234   -5.7564   12.1986 C   0  0  0  0  0  0  0  0  0  0  0  0
  -11.2269   -5.4945   13.3247 C   0  0  0  0  0  0  0  0  0  0  0  0
   -9.0587   -5.2928   14.3905 O   0  0  0  0  0  0  0  0  0  0  0  0
   -7.2957   -5.5724   12.9289 F   0  0  0  0  0  0  0  0  0  0  0  0
   -7.6680   -5.0216   14.1555 C   0  0  0  0  0  0  0  0  0  0  0  0
   -7.4385   -3.6784   14.0705 F   0  0  0  0  0  0  0  0  0  0  0  0
   -6.9604   -5.5837   15.1976 F   0  0  0  0  0  0  0  0  0  0  0  0
  -19.0205   -8.0217    4.4419 C   0  0  0  0  0  0  0  0  0  0  0  0
  -19.0736   -8.3379    5.9221 C   0  0  0  0  0  0  0  0  0  0  0  0
  -19.1231   -9.4273    4.9305 C   0  0  0  0  0  0  0  0  0  0  0  0
 25 26  1  0  0  0
 26 27  1  0  0  0
 26 28  1  0  0  0
 26 24  1  0  0  0
 24 18  1  0  0  0
 18 19  2  0  0  0
 19 20  1  0  0  0
 20 21  2  0  0  0
 21  1  1  0  0  0
  1  2  1  0  0  0
  2  3  2  0  0  0
  2  4  1  0  0  0
  4  5  1  0  0  0
  5  6  1  0  0  0
  6  7  1  0  0  0
  7  8  1  0  0  0
  8  9  1  0  0  0
  9 10  1  0  0  0
 10 11  1  0  0  0
 11 12  1  0  0  0
 12 13  1  0  0  0
 11 14  1  0  0  0
 14 15  2  0  0  0
 14 29  1  0  0  0
 29 30  1  0  0  0
 30 31  1  0  0  0
  8 16  1  0  0  0
 21 22  1  0  0  0
 22 23  2  0  0  0
 23 18  1  0  0  0
 16  4  1  0  0  0
 13  8  1  0  0  0
 31 29  1  0  0  0
  1 17  1  0  0  0
M  END
> <minimizedAffinity>
4.16897

> <CNNscore>
0.3050526083

> <CNNaffinity>
6.3837471008

> <CNN_VS>
1.9473787546

> <CNNaffinity_variance>
0.2549855709

$$$$
[H]c1c([H])c(N([H])C(=O)N2C([H])([H])C([H])([H])OC3(C2([H])[H])C([H])([H])C([H])([H])N(C(=O)C2([H])C([H])([H])C2([H])[H])C([H])([H])C3([H])[H])c([H])c([H])c1OC(F)(F)F


 31 34  0  0  0  0  0  0  0  0999 V2000
  -15.4156   -5.8399    4.6290 N   0  0  0  0  0  0  0  0  0  0  0  0
  -16.7563   -6.2687    4.5815 C   0  0  0  0  0  0  0  0  0  0  0  0
  -17.7134   -5.4848    4.6229 O   0  0  0  0  0  0  0  0  0  0  0  0
  -17.0765   -7.6638    4.4810 N   0  0  0  0  0  0  0  0  0  0  0  0
  -18.4320   -8.1129    4.4327 C   0  0  0  0  0  0  0  0  0  0  0  0
  -18.5268   -9.4555    5.0667 C   0  0  0  0  0  0  0  0  0  0  0  0
  -17.6706  -10.4067    4.6216 O   0  0  0  0  0  0  0  0  0  0  0  0
  -16.5402  -10.0010    3.9869 C   0  0  0  0  0  0  0  0  0  0  0  0
  -15.4413  -11.0179    4.3068 C   0  0  0  0  0  0  0  0  0  0  0  0
  -16.0279  -12.3800    4.0209 C   0  0  0  0  0  0  0  0  0  0  0  0
  -16.4915  -12.3696    2.6470 N   0  0  0  0  0  0  0  0  0  0  0  0
  -16.1032  -11.2408    1.8453 C   0  0  0  0  0  0  0  0  0  0  0  0
  -16.7000   -9.9923    2.4964 C   0  0  0  0  0  0  0  0  0  0  0  0
  -17.2775  -13.4028    2.1203 C   0  0  0  0  0  0  0  0  0  0  0  0
  -17.5760  -14.3715    2.9091 O   0  0  0  0  0  0  0  0  0  0  0  0
  -16.0228   -8.6549    4.4252 C   0  0  0  0  0  0  0  0  0  0  0  0
  -14.6412   -6.6075    4.5848 H   0  0  0  0  0  0  0  0  0  0  0  0
  -14.2884   -1.8381    5.2129 C   0  0  0  0  0  0  0  0  0  0  0  0
  -14.5589   -2.6857    6.2642 C   0  0  0  0  0  0  0  0  0  0  0  0
  -14.9151   -3.9845    6.0297 C   0  0  0  0  0  0  0  0  0  0  0  0
  -15.0198   -4.5043    4.7345 C   0  0  0  0  0  0  0  0  0  0  0  0
  -14.7539   -3.6683    3.7019 C   0  0  0  0  0  0  0  0  0  0  0  0
  -14.3874   -2.3342    3.9406 C   0  0  0  0  0  0  0  0  0  0  0  0
  -13.9208   -0.4996    5.4551 O   0  0  0  0  0  0  0  0  0  0  0  0
  -13.3310   -1.1978    7.5734 F   0  0  0  0  0  0  0  0  0  0  0  0
  -13.7656   -0.1023    6.8266 C   0  0  0  0  0  0  0  0  0  0  0  0
  -12.8094    0.8641    6.9513 F   0  0  0  0  0  0  0  0  0  0  0  0
  -14.9933    0.3513    7.2620 F   0  0  0  0  0  0  0  0  0  0  0  0
  -17.7950  -13.4738    0.7278 C   0  0  0  0  0  0  0  0  0  0  0  0
  -19.2721  -13.7895    0.6163 C   0  0  0  0  0  0  0  0  0  0  0  0
  -18.2687  -14.8140    0.2756 C   0  0  0  0  0  0  0  0  0  0  0  0
 25 26  1  0  0  0
 26 27  1  0  0  0
 26 28  1  0  0  0
 26 24  1  0  0  0
 24 18  1  0  0  0
 18 19  2  0  0  0
 19 20  1  0  0  0
 20 21  2  0  0  0
 21  1  1  0  0  0
  1  2  1  0  0  0
  2  3  2  0  0  0
  2  4  1  0  0  0
  4  5  1  0  0  0
  5  6  1  0  0  0
  6  7  1  0  0  0
  7  8  1  0  0  0
  8  9  1  0  0  0
  9 10  1  0  0  0
 10 11  1  0  0  0
 11 12  1  0  0  0
 12 13  1  0  0  0
 11 14  1  0  0  0
 14 15  2  0  0  0
 14 29  1  0  0  0
 29 30  1  0  0  0
 30 31  1  0  0  0
  8 16  1  0  0  0
 21 22  1  0  0  0
 22 23  2  0  0  0
 23 18  1  0  0  0
 16  4  1  0  0  0
 13  8  1  0  0  0
 31 29  1  0  0  0
  1 17  1  0  0  0
M  END
> <minimizedAffinity>
49.48132

> <CNNscore>
0.2869620025

> <CNNaffinity>
6.0199537277

> <CNN_VS>
1.7274979353

> <CNNaffinity_variance>
0.8333422542

$$$$
[H]c1c([H])c(N([H])C(=O)N2C([H])([H])C([H])([H])OC3(C2([H])[H])C([H])([H])C([H])([H])N(C(=O)C2([H])C([H])([H])C2([H])[H])C([H])([H])C3([H])[H])c([H])c([H])c1OC(F)(F)F


 31 34  0  0  0  0  0  0  0  0999 V2000
  -15.6890   -6.4482    6.4227 N   0  0  0  0  0  0  0  0  0  0  0  0
  -16.6147   -7.1032    5.5875 C   0  0  0  0  0  0  0  0  0  0  0  0
  -17.1551   -8.1736    5.8944 O   0  0  0  0  0  0  0  0  0  0  0  0
  -16.9785   -6.5446    4.3168 N   0  0  0  0  0  0  0  0  0  0  0  0
  -17.9155   -7.1986    3.4592 C   0  0  0  0  0  0  0  0  0  0  0  0
  -17.5713   -6.9048    2.0419 C   0  0  0  0  0  0  0  0  0  0  0  0
  -17.4132   -5.6018    1.7056 O   0  0  0  0  0  0  0  0  0  0  0  0
  -17.1443   -4.7148    2.6987 C   0  0  0  0  0  0  0  0  0  0  0  0
  -16.2506   -3.6200    2.1097 C   0  0  0  0  0  0  0  0  0  0  0  0
  -16.9256   -3.1594    0.8396 C   0  0  0  0  0  0  0  0  0  0  0  0
  -18.2709   -2.7484    1.1914 N   0  0  0  0  0  0  0  0  0  0  0  0
  -18.5661   -2.6454    2.5949 C   0  0  0  0  0  0  0  0  0  0  0  0
  -18.3826   -4.0367    3.2026 C   0  0  0  0  0  0  0  0  0  0  0  0
  -19.2390   -2.4641    0.2194 C   0  0  0  0  0  0  0  0  0  0  0  0
  -18.8865   -2.5825   -1.0100 O   0  0  0  0  0  0  0  0  0  0  0  0
  -16.3987   -5.2945    3.8733 C   0  0  0  0  0  0  0  0  0  0  0  0
  -15.2676   -5.5075    6.0645 H   0  0  0  0  0  0  0  0  0  0  0  0
  -14.1899   -7.8334   10.0916 C   0  0  0  0  0  0  0  0  0  0  0  0
  -13.4058   -7.1498    9.1889 C   0  0  0  0  0  0  0  0  0  0  0  0
  -13.9363   -6.7092    8.0085 C   0  0  0  0  0  0  0  0  0  0  0  0
  -15.2760   -6.9279    7.6682 C   0  0  0  0  0  0  0  0  0  0  0  0
  -16.0452   -7.6011    8.5574 C   0  0  0  0  0  0  0  0  0  0  0  0
  -15.5025   -8.0542    9.7705 C   0  0  0  0  0  0  0  0  0  0  0  0
  -13.6428   -8.2870   11.3083 O   0  0  0  0  0  0  0  0  0  0  0  0
  -12.4768   -7.6405   13.1911 F   0  0  0  0  0  0  0  0  0  0  0  0
  -12.4780   -7.6031   11.7964 C   0  0  0  0  0  0  0  0  0  0  0  0
  -11.3355   -8.2266   11.3843 F   0  0  0  0  0  0  0  0  0  0  0  0
  -12.5373   -6.3080   11.3255 F   0  0  0  0  0  0  0  0  0  0  0  0
  -20.6380   -2.0374    0.4890 C   0  0  0  0  0  0  0  0  0  0  0  0
  -21.6696   -3.1406    0.3762 C   0  0  0  0  0  0  0  0  0  0  0  0
  -21.5754   -2.1059   -0.6692 C   0  0  0  0  0  0  0  0  0  0  0  0
 25 26  1  0  0  0
 26 27  1  0  0  0
 26 28  1  0  0  0
 26 24  1  0  0  0
 24 18  1  0  0  0
 18 19  2  0  0  0
 19 20  1  0  0  0
 20 21  2  0  0  0
 21  1  1  0  0  0
  1  2  1  0  0  0
  2  3  2  0  0  0
  2  4  1  0  0  0
  4  5  1  0  0  0
  5  6  1  0  0  0
  6  7  1  0  0  0
  7  8  1  0  0  0
  8  9  1  0  0  0
  9 10  1  0  0  0
 10 11  1  0  0  0
 11 12  1  0  0  0
 12 13  1  0  0  0
 11 14  1  0  0  0
 14 15  2  0  0  0
 14 29  1  0  0  0
 29 30  1  0  0  0
 30 31  1  0  0  0
  8 16  1  0  0  0
 21 22  1  0  0  0
 22 23  2  0  0  0
 23 18  1  0  0  0
 16  4  1  0  0  0
 13  8  1  0  0  0
 31 29  1  0  0  0
  1 17  1  0  0  0
M  END
> <minimizedAffinity>
59.18842

> <CNNscore>
0.2356457412

> <CNNaffinity>
5.9735288620

> <CNN_VS>
1.4076366425

> <CNNaffinity_variance>
0.5731495023

$$$$
[H]c1c([H])c(N([H])C(=O)N2C([H])([H])C([H])([H])OC3(C2([H])[H])C([H])([H])C([H])([H])N(C(=O)C2([H])C([H])([H])C2([H])[H])C([H])([H])C3([H])[H])c([H])c([H])c1OC(F)(F)F


 31 34  0  0  0  0  0  0  0  0999 V2000
  -11.1280   -4.7514    4.4476 N   0  0  0  0  0  0  0  0  0  0  0  0
   -9.9939   -5.2441    5.1219 C   0  0  0  0  0  0  0  0  0  0  0  0
   -8.8579   -5.2188    4.6310 O   0  0  0  0  0  0  0  0  0  0  0  0
  -10.1103   -5.8089    6.4357 N   0  0  0  0  0  0  0  0  0  0  0  0
   -8.9685   -6.3132    7.1309 C   0  0  0  0  0  0  0  0  0  0  0  0
   -9.3868   -7.4377    8.0106 C   0  0  0  0  0  0  0  0  0  0  0  0
  -10.4214   -7.2054    8.8543 O   0  0  0  0  0  0  0  0  0  0  0  0
  -11.2661   -6.1827    8.5614 C   0  0  0  0  0  0  0  0  0  0  0  0
  -12.6600   -6.5801    9.0546 C   0  0  0  0  0  0  0  0  0  0  0  0
  -12.4889   -7.0411   10.4827 C   0  0  0  0  0  0  0  0  0  0  0  0
  -11.8508   -5.9614   11.2104 N   0  0  0  0  0  0  0  0  0  0  0  0
  -11.7501   -4.6984   10.5305 C   0  0  0  0  0  0  0  0  0  0  0  0
  -10.8972   -4.9202    9.2806 C   0  0  0  0  0  0  0  0  0  0  0  0
  -11.3556   -6.1321   12.5097 C   0  0  0  0  0  0  0  0  0  0  0  0
  -11.4893   -7.2947   13.0391 O   0  0  0  0  0  0  0  0  0  0  0  0
  -11.3992   -5.8798    7.0909 C   0  0  0  0  0  0  0  0  0  0  0  0
  -12.0870   -4.8166    4.9643 H   0  0  0  0  0  0  0  0  0  0  0  0
  -11.0065   -2.8341    0.7145 C   0  0  0  0  0  0  0  0  0  0  0  0
  -10.6412   -2.1969    1.8796 C   0  0  0  0  0  0  0  0  0  0  0  0
  -10.6881   -2.8610    3.0736 C   0  0  0  0  0  0  0  0  0  0  0  0
  -11.1019   -4.1947    3.1665 C   0  0  0  0  0  0  0  0  0  0  0  0
  -11.4614   -4.8192    2.0191 C   0  0  0  0  0  0  0  0  0  0  0  0
  -11.4135   -4.1392    0.7918 C   0  0  0  0  0  0  0  0  0  0  0  0
  -10.9576   -2.1493   -0.5159 O   0  0  0  0  0  0  0  0  0  0  0  0
  -10.0152   -0.4925    0.7839 F   0  0  0  0  0  0  0  0  0  0  0  0
  -10.2980   -0.8735   -0.5281 C   0  0  0  0  0  0  0  0  0  0  0  0
   -9.1028   -0.9464   -1.1838 F   0  0  0  0  0  0  0  0  0  0  0  0
  -11.1500    0.0210   -1.1417 F   0  0  0  0  0  0  0  0  0  0  0  0
  -10.6894   -5.0836   13.3275 C   0  0  0  0  0  0  0  0  0  0  0  0
  -10.1105   -5.5751   14.6380 C   0  0  0  0  0  0  0  0  0  0  0  0
  -11.3397   -4.7618   14.6309 C   0  0  0  0  0  0  0  0  0  0  0  0
 25 26  1  0  0  0
 26 27  1  0  0  0
 26 28  1  0  0  0
 26 24  1  0  0  0
 24 18  1  0  0  0
 18 19  2  0  0  0
 19 20  1  0  0  0
 20 21  2  0  0  0
 21  1  1  0  0  0
  1  2  1  0  0  0
  2  3  2  0  0  0
  2  4  1  0  0  0
  4  5  1  0  0  0
  5  6  1  0  0  0
  6  7  1  0  0  0
  7  8  1  0  0  0
  8  9  1  0  0  0
  9 10  1  0  0  0
 10 11  1  0  0  0
 11 12  1  0  0  0
 12 13  1  0  0  0
 11 14  1  0  0  0
 14 15  2  0  0  0
 14 29  1  0  0  0
 29 30  1  0  0  0
 30 31  1  0  0  0
  8 16  1  0  0  0
 21 22  1  0  0  0
 22 23  2  0  0  0
 23 18  1  0  0  0
 16  4  1  0  0  0
 13  8  1  0  0  0
 31 29  1  0  0  0
  1 17  1  0  0  0
M  END
> <minimizedAffinity>
63.86142

> <CNNscore>
0.2224636823

> <CNNaffinity>
5.4288511276

> <CNN_VS>
1.2077221870

> <CNNaffinity_variance>
0.8912130594

$$$$
[H]Oc1c([H])c([H])c(F)c([H])c1-c1nc([H])c(N([H])[C@]([H])(c2c([H])c([H])c([H])c([H])c2[H])C([H])([H])O[H])c([H])c1-c1c([H])c([H])c2c(c(C([H])([H])[H])nn2[H])c1[H]


 38 42  0  0  0  0  0  0  0  0999 V2000
  -12.3342   -8.0619    7.6715 C   0  0  0  0  0  0  0  0  0  0  0  0
  -13.6772   -8.0838    7.3509 C   0  0  0  0  0  0  0  0  0  0  0  0
  -14.1315   -8.8103    6.2398 C   0  0  0  0  0  0  0  0  0  0  0  0
  -13.2078   -9.4975    5.4816 C   0  0  0  0  0  0  0  0  0  0  0  0
  -11.9189   -9.4715    5.7962 N   0  0  0  0  0  0  0  0  0  0  0  0
  -11.4784   -8.7642    6.8778 C   0  0  0  0  0  0  0  0  0  0  0  0
  -14.4881   -5.1048   11.8031 C   0  0  0  0  0  0  0  0  0  0  0  0
  -13.0201   -5.2530   11.7472 C   0  0  0  0  0  0  0  0  0  0  0  0
  -12.0476   -4.7863   12.5424 N   0  0  0  0  0  0  0  0  0  0  0  0
  -10.8433   -5.1630   12.1195 N   0  0  0  0  0  0  0  0  0  0  0  0
  -10.9754   -5.9109   11.0018 C   0  0  0  0  0  0  0  0  0  0  0  0
  -10.0594   -6.5425   10.1687 C   0  0  0  0  0  0  0  0  0  0  0  0
  -10.4880   -7.2537    9.0705 C   0  0  0  0  0  0  0  0  0  0  0  0
  -11.8378   -7.3231    8.8205 C   0  0  0  0  0  0  0  0  0  0  0  0
  -12.7488   -6.6767    9.6762 C   0  0  0  0  0  0  0  0  0  0  0  0
  -12.3288   -5.9720   10.7627 C   0  0  0  0  0  0  0  0  0  0  0  0
   -9.9012   -4.9451   12.5446 H   0  0  0  0  0  0  0  0  0  0  0  0
  -10.0644   -8.8169    7.1377 C   0  0  0  0  0  0  0  0  0  0  0  0
   -9.4892   -9.9637    7.6201 C   0  0  0  0  0  0  0  0  0  0  0  0
   -8.1091  -10.0057    7.8567 C   0  0  0  0  0  0  0  0  0  0  0  0
   -7.5301  -11.1330    8.3323 F   0  0  0  0  0  0  0  0  0  0  0  0
   -7.3197   -8.9117    7.6117 C   0  0  0  0  0  0  0  0  0  0  0  0
   -7.9068   -7.7687    7.1288 C   0  0  0  0  0  0  0  0  0  0  0  0
   -9.2754   -7.7274    6.8948 C   0  0  0  0  0  0  0  0  0  0  0  0
   -9.8248   -6.5488    6.4080 O   0  0  0  0  0  0  0  0  0  0  0  0
  -10.7853   -6.3793    6.2052 H   0  0  0  0  0  0  0  0  0  0  0  0
  -15.4974   -8.8337    5.9070 N   0  0  0  0  0  0  0  0  0  0  0  0
  -16.1505   -9.2103    6.6595 H   0  0  0  0  0  0  0  0  0  0  0  0
  -16.0876   -8.4039    4.6731 C   0  0  0  0  0  0  0  0  0  0  0  0
  -15.9331   -6.9228    4.5251 C   0  0  0  0  0  0  0  0  0  0  0  0
  -14.6835   -6.3422    4.5133 C   0  0  0  0  0  0  0  0  0  0  0  0
  -14.5464   -4.9850    4.3762 C   0  0  0  0  0  0  0  0  0  0  0  0
  -15.6517   -4.1713    4.2473 C   0  0  0  0  0  0  0  0  0  0  0  0
  -16.9252   -4.7542    4.2585 C   0  0  0  0  0  0  0  0  0  0  0  0
  -17.0347   -6.1099    4.3966 C   0  0  0  0  0  0  0  0  0  0  0  0
  -17.5612   -8.7113    4.5505 C   0  0  0  0  0  0  0  0  0  0  0  0
  -18.1171   -8.7684    5.8464 O   0  0  0  0  0  0  0  0  0  0  0  0
  -18.9860   -8.2504    5.8606 H   0  0  0  0  0  0  0  0  0  0  0  0
  7  8  1  0  0  0
  8  9  2  0  0  0
  9 10  1  0  0  0
 10 11  1  0  0  0
 11 12  2  0  0  0
 12 13  1  0  0  0
 13 14  2  0  0  0
 14 15  1  0  0  0
 15 16  2  0  0  0
 14  1  1  0  0  0
  1  2  2  0  0  0
  2  3  1  0  0  0
  3 27  1  0  0  0
 27 29  1  0  0  0
 29 36  1  0  0  0
 36 37  1  0  0  0
 29 30  1  0  0  0
 30 31  2  0  0  0
 31 32  1  0  0  0
 32 33  2  0  0  0
 33 34  1  0  0  0
 34 35  2  0  0  0
  3  4  2  0  0  0
  4  5  1  0  0  0
  5  6  2  0  0  0
  6 18  1  0  0  0
 18 19  2  0  0  0
 19 20  1  0  0  0
 20 21  1  0  0  0
 20 22  2  0  0  0
 22 23  1  0  0  0
 23 24  2  0  0  0
 24 25  1  0  0  0
 16  8  1  0  0  0
  6  1  1  0  0  0
 24 18  1  0  0  0
 16 11  1  0  0  0
 35 30  1  0  0  0
 10 17  1  0  0  0
 27 28  1  0  0  0
 37 38  1  0  0  0
 25 26  1  0  0  0
M  END
> <minimizedAffinity>
-0.73758

> <CNNscore>
0.5564295053

> <CNNaffinity>
7.7924370766

> <CNN_VS>
4.3359417915

> <CNNaffinity_variance>
0.3439484537

$$$$
[H]Oc1c([H])c([H])c(F)c([H])c1-c1nc([H])c(N([H])[C@]([H])(c2c([H])c([H])c([H])c([H])c2[H])C([H])([H])O[H])c([H])c1-c1c([H])c([H])c2c(c(C([H])([H])[H])nn2[H])c1[H]


 38 42  0  0  0  0  0  0  0  0999 V2000
  -13.3672   -8.0425    7.5038 C   0  0  0  0  0  0  0  0  0  0  0  0
  -14.6883   -8.1252    7.1101 C   0  0  0  0  0  0  0  0  0  0  0  0
  -15.0364   -8.7852    5.9218 C   0  0  0  0  0  0  0  0  0  0  0  0
  -14.0314   -9.3457    5.1626 C   0  0  0  0  0  0  0  0  0  0  0  0
  -12.7643   -9.2619    5.5478 N   0  0  0  0  0  0  0  0  0  0  0  0
  -12.4272   -8.6194    6.7044 C   0  0  0  0  0  0  0  0  0  0  0  0
   -8.6641   -6.5539    9.9770 C   0  0  0  0  0  0  0  0  0  0  0  0
   -9.9362   -6.2364   10.6560 C   0  0  0  0  0  0  0  0  0  0  0  0
  -10.1952   -5.6252   11.8202 N   0  0  0  0  0  0  0  0  0  0  0  0
  -11.5030   -5.5467   12.0541 N   0  0  0  0  0  0  0  0  0  0  0  0
  -12.1756   -6.1163   11.0299 C   0  0  0  0  0  0  0  0  0  0  0  0
  -13.5282   -6.3039   10.7703 C   0  0  0  0  0  0  0  0  0  0  0  0
  -13.9377   -6.9343    9.6168 C   0  0  0  0  0  0  0  0  0  0  0  0
  -12.9798   -7.3708    8.7330 C   0  0  0  0  0  0  0  0  0  0  0  0
  -11.6157   -7.1712    9.0143 C   0  0  0  0  0  0  0  0  0  0  0  0
  -11.2069   -6.5488   10.1540 C   0  0  0  0  0  0  0  0  0  0  0  0
  -11.9960   -5.1210   12.8856 H   0  0  0  0  0  0  0  0  0  0  0  0
  -11.0272   -8.6013    7.0355 C   0  0  0  0  0  0  0  0  0  0  0  0
  -10.4015   -9.7408    7.4700 C   0  0  0  0  0  0  0  0  0  0  0  0
   -9.0350   -9.7125    7.7768 C   0  0  0  0  0  0  0  0  0  0  0  0
   -8.4065  -10.8318    8.2061 F   0  0  0  0  0  0  0  0  0  0  0  0
   -8.3089   -8.5564    7.6486 C   0  0  0  0  0  0  0  0  0  0  0  0
   -8.9462   -7.4215    7.2127 C   0  0  0  0  0  0  0  0  0  0  0  0
  -10.3014   -7.4499    6.9090 C   0  0  0  0  0  0  0  0  0  0  0  0
  -10.9033   -6.2768    6.4736 O   0  0  0  0  0  0  0  0  0  0  0  0
  -11.8618   -6.1542    6.2314 H   0  0  0  0  0  0  0  0  0  0  0  0
  -16.3795   -8.8699    5.5146 N   0  0  0  0  0  0  0  0  0  0  0  0
  -16.6491   -9.7573    4.9908 H   0  0  0  0  0  0  0  0  0  0  0  0
  -17.4063   -7.8938    5.7351 C   0  0  0  0  0  0  0  0  0  0  0  0
  -17.0779   -6.6353    4.9949 C   0  0  0  0  0  0  0  0  0  0  0  0
  -17.8924   -6.1813    3.9804 C   0  0  0  0  0  0  0  0  0  0  0  0
  -17.5886   -5.0272    3.3057 C   0  0  0  0  0  0  0  0  0  0  0  0
  -16.4646   -4.2957    3.6249 C   0  0  0  0  0  0  0  0  0  0  0  0
  -15.6317   -4.7508    4.6549 C   0  0  0  0  0  0  0  0  0  0  0  0
  -15.9570   -5.9047    5.3121 C   0  0  0  0  0  0  0  0  0  0  0  0
  -17.6035   -7.5180    7.1846 C   0  0  0  0  0  0  0  0  0  0  0  0
  -18.4057   -8.5035    7.7986 O   0  0  0  0  0  0  0  0  0  0  0  0
  -18.0014   -8.7552    8.6912 H   0  0  0  0  0  0  0  0  0  0  0  0
  7  8  1  0  0  0
  8  9  2  0  0  0
  9 10  1  0  0  0
 10 11  1  0  0  0
 11 12  2  0  0  0
 12 13  1  0  0  0
 13 14  2  0  0  0
 14 15  1  0  0  0
 15 16  2  0  0  0
 14  1  1  0  0  0
  1  2  2  0  0  0
  2  3  1  0  0  0
  3 27  1  0  0  0
 27 29  1  0  0  0
 29 36  1  0  0  0
 36 37  1  0  0  0
 29 30  1  0  0  0
 30 31  2  0  0  0
 31 32  1  0  0  0
 32 33  2  0  0  0
 33 34  1  0  0  0
 34 35  2  0  0  0
  3  4  2  0  0  0
  4  5  1  0  0  0
  5  6  2  0  0  0
  6 18  1  0  0  0
 18 19  2  0  0  0
 19 20  1  0  0  0
 20 21  1  0  0  0
 20 22  2  0  0  0
 22 23  1  0  0  0
 23 24  2  0  0  0
 24 25  1  0  0  0
 16  8  1  0  0  0
  6  1  1  0  0  0
 24 18  1  0  0  0
 16 11  1  0  0  0
 35 30  1  0  0  0
 10 17  1  0  0  0
 27 28  1  0  0  0
 37 38  1  0  0  0
 25 26  1  0  0  0
M  END
> <minimizedAffinity>
0.35755

> <CNNscore>
0.3925365806

> <CNNaffinity>
7.4796743393

> <CNN_VS>
2.9360458851

> <CNNaffinity_variance>
0.2594041824

$$$$
[H]Oc1c([H])c([H])c(F)c([H])c1-c1nc([H])c(N([H])[C@]([H])(c2c([H])c([H])c([H])c([H])c2[H])C([H])([H])O[H])c([H])c1-c1c([H])c([H])c2c(c(C([H])([H])[H])nn2[H])c1[H]


 38 42  0  0  0  0  0  0  0  0999 V2000
  -13.2787   -7.2123    8.4473 C   0  0  0  0  0  0  0  0  0  0  0  0
  -14.6485   -7.1389    8.2881 C   0  0  0  0  0  0  0  0  0  0  0  0
  -15.2795   -7.8167    7.2340 C   0  0  0  0  0  0  0  0  0  0  0  0
  -14.5010   -8.5534    6.3669 C   0  0  0  0  0  0  0  0  0  0  0  0
  -13.1853   -8.6190    6.5266 N   0  0  0  0  0  0  0  0  0  0  0  0
  -12.5728   -7.9589    7.5529 C   0  0  0  0  0  0  0  0  0  0  0  0
  -12.4814   -8.0121   13.8489 C   0  0  0  0  0  0  0  0  0  0  0  0
  -11.8938   -6.8065   13.2314 C   0  0  0  0  0  0  0  0  0  0  0  0
  -11.1643   -5.8078   13.7475 N   0  0  0  0  0  0  0  0  0  0  0  0
  -10.8367   -4.9090   12.8224 N   0  0  0  0  0  0  0  0  0  0  0  0
  -11.3488   -5.2870   11.6304 C   0  0  0  0  0  0  0  0  0  0  0  0
  -11.3097   -4.7254   10.3595 C   0  0  0  0  0  0  0  0  0  0  0  0
  -11.9378   -5.3443    9.3022 C   0  0  0  0  0  0  0  0  0  0  0  0
  -12.6007   -6.5257    9.5341 C   0  0  0  0  0  0  0  0  0  0  0  0
  -12.6285   -7.0779   10.8280 C   0  0  0  0  0  0  0  0  0  0  0  0
  -12.0091   -6.4686   11.8762 C   0  0  0  0  0  0  0  0  0  0  0  0
  -10.2713   -4.0245   12.9387 H   0  0  0  0  0  0  0  0  0  0  0  0
  -11.1449   -8.1106    7.6428 C   0  0  0  0  0  0  0  0  0  0  0  0
  -10.3339   -7.0094    7.7339 C   0  0  0  0  0  0  0  0  0  0  0  0
   -8.9461   -7.1716    7.8337 C   0  0  0  0  0  0  0  0  0  0  0  0
   -8.1355   -6.0914    7.9249 F   0  0  0  0  0  0  0  0  0  0  0  0
   -8.3826   -8.4215    7.8421 C   0  0  0  0  0  0  0  0  0  0  0  0
   -9.2047   -9.5170    7.7502 C   0  0  0  0  0  0  0  0  0  0  0  0
  -10.5808   -9.3557    7.6507 C   0  0  0  0  0  0  0  0  0  0  0  0
  -11.3720  -10.4930    7.5580 O   0  0  0  0  0  0  0  0  0  0  0  0
  -12.3642  -10.5223    7.4738 H   0  0  0  0  0  0  0  0  0  0  0  0
  -16.6735   -7.7431    7.0655 N   0  0  0  0  0  0  0  0  0  0  0  0
  -17.2542   -7.8879    7.9466 H   0  0  0  0  0  0  0  0  0  0  0  0
  -17.3780   -7.4932    5.8421 C   0  0  0  0  0  0  0  0  0  0  0  0
  -16.5319   -7.9001    4.6766 C   0  0  0  0  0  0  0  0  0  0  0  0
  -16.6145   -9.1733    4.1562 C   0  0  0  0  0  0  0  0  0  0  0  0
  -15.8386   -9.5415    3.0877 C   0  0  0  0  0  0  0  0  0  0  0  0
  -14.9600   -8.6499    2.5102 C   0  0  0  0  0  0  0  0  0  0  0  0
  -14.8704   -7.3539    3.0337 C   0  0  0  0  0  0  0  0  0  0  0  0
  -15.6551   -7.0118    4.0997 C   0  0  0  0  0  0  0  0  0  0  0  0
  -17.7596   -6.0473    5.6306 C   0  0  0  0  0  0  0  0  0  0  0  0
  -18.4867   -5.9466    4.4252 O   0  0  0  0  0  0  0  0  0  0  0  0
  -19.3015   -5.3657    4.5739 H   0  0  0  0  0  0  0  0  0  0  0  0
  7  8  1  0  0  0
  8  9  2  0  0  0
  9 10  1  0  0  0
 10 11  1  0  0  0
 11 12  2  0  0  0
 12 13  1  0  0  0
 13 14  2  0  0  0
 14 15  1  0  0  0
 15 16  2  0  0  0
 14  1  1  0  0  0
  1  2  2  0  0  0
  2  3  1  0  0  0
  3 27  1  0  0  0
 27 29  1  0  0  0
 29 36  1  0  0  0
 36 37  1  0  0  0
 29 30  1  0  0  0
 30 31  2  0  0  0
 31 32  1  0  0  0
 32 33  2  0  0  0
 33 34  1  0  0  0
 34 35  2  0  0  0
  3  4  2  0  0  0
  4  5  1  0  0  0
  5  6  2  0  0  0
  6 18  1  0  0  0
 18 19  2  0  0  0
 19 20  1  0  0  0
 20 21  1  0  0  0
 20 22  2  0  0  0
 22 23  1  0  0  0
 23 24  2  0  0  0
 24 25  1  0  0  0
 16  8  1  0  0  0
  6  1  1  0  0  0
 24 18  1  0  0  0
 16 11  1  0  0  0
 35 30  1  0  0  0
 10 17  1  0  0  0
 27 28  1  0  0  0
 37 38  1  0  0  0
 25 26  1  0  0  0
M  END
> <minimizedAffinity>
3.60008

> <CNNscore>
0.3542093635

> <CNNaffinity>
7.3805518150

> <CNN_VS>
2.6142606735

> <CNNaffinity_variance>
0.4541182518

$$$$
[H]Oc1c([H])c([H])c(F)c([H])c1-c1nc([H])c(N([H])[C@]([H])(c2c([H])c([H])c([H])c([H])c2[H])C([H])([H])O[H])c([H])c1-c1c([H])c([H])c2c(c(C([H])([H])[H])nn2[H])c1[H]


 38 42  0  0  0  0  0  0  0  0999 V2000
   -9.6452   -8.2008    7.9375 C   0  0  0  0  0  0  0  0  0  0  0  0
   -8.4605   -8.7223    7.4561 C   0  0  0  0  0  0  0  0  0  0  0  0
   -7.2463   -8.0564    7.6822 C   0  0  0  0  0  0  0  0  0  0  0  0
   -7.2669   -6.8756    8.3934 C   0  0  0  0  0  0  0  0  0  0  0  0
   -8.4094   -6.3810    8.8527 N   0  0  0  0  0  0  0  0  0  0  0  0
   -9.5901   -7.0302    8.6319 C   0  0  0  0  0  0  0  0  0  0  0  0
  -14.6318   -8.2492   10.3005 C   0  0  0  0  0  0  0  0  0  0  0  0
  -14.4121   -9.1155    9.1253 C   0  0  0  0  0  0  0  0  0  0  0  0
  -15.2257   -9.9618    8.4789 N   0  0  0  0  0  0  0  0  0  0  0  0
  -14.6112  -10.5496    7.4552 N   0  0  0  0  0  0  0  0  0  0  0  0
  -13.3373  -10.1046    7.3829 C   0  0  0  0  0  0  0  0  0  0  0  0
  -12.2810  -10.3856    6.5242 C   0  0  0  0  0  0  0  0  0  0  0  0
  -11.0613   -9.7693    6.6914 C   0  0  0  0  0  0  0  0  0  0  0  0
  -10.9157   -8.8733    7.7234 C   0  0  0  0  0  0  0  0  0  0  0  0
  -11.9973   -8.6026    8.5817 C   0  0  0  0  0  0  0  0  0  0  0  0
  -13.2047   -9.2105    8.4200 C   0  0  0  0  0  0  0  0  0  0  0  0
  -15.0014  -11.2565    6.7743 H   0  0  0  0  0  0  0  0  0  0  0  0
  -10.7661   -6.4150    9.1872 C   0  0  0  0  0  0  0  0  0  0  0  0
  -11.9043   -6.2870    8.4343 C   0  0  0  0  0  0  0  0  0  0  0  0
  -13.0465   -5.6977    8.9913 C   0  0  0  0  0  0  0  0  0  0  0  0
  -14.1763   -5.5666    8.2574 F   0  0  0  0  0  0  0  0  0  0  0  0
  -13.0444   -5.2444   10.2853 C   0  0  0  0  0  0  0  0  0  0  0  0
  -11.8989   -5.3779   11.0298 C   0  0  0  0  0  0  0  0  0  0  0  0
  -10.7663   -5.9619   10.4769 C   0  0  0  0  0  0  0  0  0  0  0  0
   -9.6304   -6.0736   11.2676 O   0  0  0  0  0  0  0  0  0  0  0  0
   -8.7532   -6.4609   10.9975 H   0  0  0  0  0  0  0  0  0  0  0  0
   -6.0376   -8.5813    7.1918 N   0  0  0  0  0  0  0  0  0  0  0  0
   -5.8234   -9.5869    7.4699 H   0  0  0  0  0  0  0  0  0  0  0  0
   -5.0815   -7.9054    6.3643 C   0  0  0  0  0  0  0  0  0  0  0  0
   -3.7801   -7.7783    7.0921 C   0  0  0  0  0  0  0  0  0  0  0  0
   -2.7907   -8.7247    6.9372 C   0  0  0  0  0  0  0  0  0  0  0  0
   -1.5993   -8.6038    7.6047 C   0  0  0  0  0  0  0  0  0  0  0  0
   -1.3635   -7.5361    8.4442 C   0  0  0  0  0  0  0  0  0  0  0  0
   -2.3645   -6.5700    8.6068 C   0  0  0  0  0  0  0  0  0  0  0  0
   -3.5436   -6.7139    7.9298 C   0  0  0  0  0  0  0  0  0  0  0  0
   -5.4956   -6.5138    5.9484 C   0  0  0  0  0  0  0  0  0  0  0  0
   -6.5257   -6.6198    4.9895 O   0  0  0  0  0  0  0  0  0  0  0  0
   -7.2637   -5.9666    5.2181 H   0  0  0  0  0  0  0  0  0  0  0  0
  7  8  1  0  0  0
  8  9  2  0  0  0
  9 10  1  0  0  0
 10 11  1  0  0  0
 11 12  2  0  0  0
 12 13  1  0  0  0
 13 14  2  0  0  0
 14 15  1  0  0  0
 15 16  2  0  0  0
 14  1  1  0  0  0
  1  2  2  0  0  0
  2  3  1  0  0  0
  3 27  1  0  0  0
 27 29  1  0  0  0
 29 36  1  0  0  0
 36 37  1  0  0  0
 29 30  1  0  0  0
 30 31  2  0  0  0
 31 32  1  0  0  0
 32 33  2  0  0  0
 33 34  1  0  0  0
 34 35  2  0  0  0
  3  4  2  0  0  0
  4  5  1  0  0  0
  5  6  2  0  0  0
  6 18  1  0  0  0
 18 19  2  0  0  0
 19 20  1  0  0  0
 20 21  1  0  0  0
 20 22  2  0  0  0
 22 23  1  0  0  0
 23 24  2  0  0  0
 24 25  1  0  0  0
 16  8  1  0  0  0
  6  1  1  0  0  0
 24 18  1  0  0  0
 16 11  1  0  0  0
 35 30  1  0  0  0
 10 17  1  0  0  0
 27 28  1  0  0  0
 37 38  1  0  0  0
 25 26  1  0  0  0
M  END
> <minimizedAffinity>
-2.42181

> <CNNscore>
0.2744473815

> <CNNaffinity>
6.9160242081

> <CNN_VS>
1.8980847597

> <CNNaffinity_variance>
0.2014793456

$$$$
[H]Oc1c([H])c([H])c(F)c([H])c1-c1nc([H])c(N([H])[C@]([H])(c2c([H])c([H])c([H])c([H])c2[H])C([H])([H])O[H])c([H])c1-c1c([H])c([H])c2c(c(C([H])([H])[H])nn2[H])c1[H]


 38 42  0  0  0  0  0  0  0  0999 V2000
  -12.5814   -7.6779    7.4154 C   0  0  0  0  0  0  0  0  0  0  0  0
  -13.0370   -8.3334    6.2885 C   0  0  0  0  0  0  0  0  0  0  0  0
  -14.4121   -8.5210    6.0820 C   0  0  0  0  0  0  0  0  0  0  0  0
  -15.2908   -8.0366    7.0274 C   0  0  0  0  0  0  0  0  0  0  0  0
  -14.8451   -7.4078    8.1076 N   0  0  0  0  0  0  0  0  0  0  0  0
  -13.5067   -7.2259    8.3071 C   0  0  0  0  0  0  0  0  0  0  0  0
   -8.0161  -10.7711    7.6229 C   0  0  0  0  0  0  0  0  0  0  0  0
   -7.8820   -9.3192    7.8547 C   0  0  0  0  0  0  0  0  0  0  0  0
   -6.8136   -8.5556    8.1223 N   0  0  0  0  0  0  0  0  0  0  0  0
   -7.1470   -7.2747    8.2614 N   0  0  0  0  0  0  0  0  0  0  0  0
   -8.4801   -7.1380    8.0873 C   0  0  0  0  0  0  0  0  0  0  0  0
   -9.3347   -6.0425    8.1247 C   0  0  0  0  0  0  0  0  0  0  0  0
  -10.6847   -6.2013    7.9060 C   0  0  0  0  0  0  0  0  0  0  0  0
  -11.1631   -7.4642    7.6506 C   0  0  0  0  0  0  0  0  0  0  0  0
  -10.2814   -8.5602    7.6170 C   0  0  0  0  0  0  0  0  0  0  0  0
   -8.9460   -8.4072    7.8334 C   0  0  0  0  0  0  0  0  0  0  0  0
   -6.5184   -6.4528    8.4735 H   0  0  0  0  0  0  0  0  0  0  0  0
  -13.1336   -6.5178    9.5026 C   0  0  0  0  0  0  0  0  0  0  0  0
  -13.1221   -5.1473    9.5229 C   0  0  0  0  0  0  0  0  0  0  0  0
  -12.7692   -4.4701   10.6973 C   0  0  0  0  0  0  0  0  0  0  0  0
  -12.7550   -3.1169   10.7292 F   0  0  0  0  0  0  0  0  0  0  0  0
  -12.4335   -5.1601   11.8336 C   0  0  0  0  0  0  0  0  0  0  0  0
  -12.4485   -6.5324   11.8014 C   0  0  0  0  0  0  0  0  0  0  0  0
  -12.7980   -7.2035   10.6364 C   0  0  0  0  0  0  0  0  0  0  0  0
  -12.7970   -8.5919   10.6510 O   0  0  0  0  0  0  0  0  0  0  0  0
  -13.0172   -9.1951    9.8893 H   0  0  0  0  0  0  0  0  0  0  0  0
  -14.8814   -9.1903    4.9380 N   0  0  0  0  0  0  0  0  0  0  0  0
  -15.0044  -10.2438    5.0361 H   0  0  0  0  0  0  0  0  0  0  0  0
  -15.2082   -8.6009    3.6725 C   0  0  0  0  0  0  0  0  0  0  0  0
  -15.9679   -7.3293    3.8855 C   0  0  0  0  0  0  0  0  0  0  0  0
  -15.3058   -6.1339    4.0627 C   0  0  0  0  0  0  0  0  0  0  0  0
  -16.0057   -4.9711    4.2562 C   0  0  0  0  0  0  0  0  0  0  0  0
  -17.3841   -4.9699    4.2784 C   0  0  0  0  0  0  0  0  0  0  0  0
  -18.0642   -6.1812    4.0992 C   0  0  0  0  0  0  0  0  0  0  0  0
  -17.3428   -7.3266    3.9080 C   0  0  0  0  0  0  0  0  0  0  0  0
  -16.0526   -9.4786    2.7793 C   0  0  0  0  0  0  0  0  0  0  0  0
  -16.3702  -10.6605    3.4821 O   0  0  0  0  0  0  0  0  0  0  0  0
  -17.3531  -10.8673    3.3613 H   0  0  0  0  0  0  0  0  0  0  0  0
  7  8  1  0  0  0
  8  9  2  0  0  0
  9 10  1  0  0  0
 10 11  1  0  0  0
 11 12  2  0  0  0
 12 13  1  0  0  0
 13 14  2  0  0  0
 14 15  1  0  0  0
 15 16  2  0  0  0
 14  1  1  0  0  0
  1  2  2  0  0  0
  2  3  1  0  0  0
  3 27  1  0  0  0
 27 29  1  0  0  0
 29 36  1  0  0  0
 36 37  1  0  0  0
 29 30  1  0  0  0
 30 31  2  0  0  0
 31 32  1  0  0  0
 32 33  2  0  0  0
 33 34  1  0  0  0
 34 35  2  0  0  0
  3  4  2  0  0  0
  4  5  1  0  0  0
  5  6  2  0  0  0
  6 18  1  0  0  0
 18 19  2  0  0  0
 19 20  1  0  0  0
 20 21  1  0  0  0
 20 22  2  0  0  0
 22 23  1  0  0  0
 23 24  2  0  0  0
 24 25  1  0  0  0
 16  8  1  0  0  0
  6  1  1  0  0  0
 24 18  1  0  0  0
 16 11  1  0  0  0
 35 30  1  0  0  0
 10 17  1  0  0  0
 27 28  1  0  0  0
 37 38  1  0  0  0
 25 26  1  0  0  0
M  END
> <minimizedAffinity>
-4.50337

> <CNNscore>
0.2579722106

> <CNNaffinity>
7.3232126236

> <CNN_VS>
1.8891853094

> <CNNaffinity_variance>
0.1489997357

$$$$
[H]Oc1c([H])c([H])c(F)c([H])c1-c1nc([H])c(N([H])[C@]([H])(c2c([H])c([H])c([H])c([H])c2[H])C([H])([H])O[H])c([H])c1-c1c([H])c([H])c2c(c(C([H])([H])[H])nn2[H])c1[H]


 38 42  0  0  0  0  0  0  0  0999 V2000
  -13.9583   -8.1459    7.3049 C   0  0  0  0  0  0  0  0  0  0  0  0
  -13.0118   -8.2262    8.3073 C   0  0  0  0  0  0  0  0  0  0  0  0
  -11.6517   -8.0381    8.0182 C   0  0  0  0  0  0  0  0  0  0  0  0
  -11.2875   -7.7722    6.7154 C   0  0  0  0  0  0  0  0  0  0  0  0
  -12.2030   -7.6965    5.7578 N   0  0  0  0  0  0  0  0  0  0  0  0
  -13.5261   -7.8798    6.0408 C   0  0  0  0  0  0  0  0  0  0  0  0
  -18.6426   -8.2914    4.3913 C   0  0  0  0  0  0  0  0  0  0  0  0
  -18.7285   -8.4767    5.8536 C   0  0  0  0  0  0  0  0  0  0  0  0
  -19.7752   -8.6839    6.6644 N   0  0  0  0  0  0  0  0  0  0  0  0
  -19.3978   -8.7971    7.9356 N   0  0  0  0  0  0  0  0  0  0  0  0
  -18.0554   -8.6659    8.0170 C   0  0  0  0  0  0  0  0  0  0  0  0
  -17.1613   -8.6986    9.0808 C   0  0  0  0  0  0  0  0  0  0  0  0
  -15.8120   -8.5299    8.8652 C   0  0  0  0  0  0  0  0  0  0  0  0
  -15.3739   -8.3299    7.5779 C   0  0  0  0  0  0  0  0  0  0  0  0
  -16.2951   -8.3002    6.5148 C   0  0  0  0  0  0  0  0  0  0  0  0
  -17.6301   -8.4660    6.7240 C   0  0  0  0  0  0  0  0  0  0  0  0
  -20.0013   -8.9626    8.7865 H   0  0  0  0  0  0  0  0  0  0  0  0
  -14.4348   -7.7604    4.9318 C   0  0  0  0  0  0  0  0  0  0  0  0
  -14.7840   -8.8643    4.1981 C   0  0  0  0  0  0  0  0  0  0  0  0
  -15.6797   -8.7364    3.1288 C   0  0  0  0  0  0  0  0  0  0  0  0
  -16.0322   -9.8196    2.3977 F   0  0  0  0  0  0  0  0  0  0  0  0
  -16.2163   -7.5175    2.8024 C   0  0  0  0  0  0  0  0  0  0  0  0
  -15.8593   -6.4190    3.5442 C   0  0  0  0  0  0  0  0  0  0  0  0
  -14.9705   -6.5463    4.6042 C   0  0  0  0  0  0  0  0  0  0  0  0
  -14.6375   -5.4069    5.3245 O   0  0  0  0  0  0  0  0  0  0  0  0
  -14.0110   -5.3535    6.0972 H   0  0  0  0  0  0  0  0  0  0  0  0
  -10.6836   -8.1217    9.0343 N   0  0  0  0  0  0  0  0  0  0  0  0
  -10.3243   -9.1006    9.2516 H   0  0  0  0  0  0  0  0  0  0  0  0
  -10.1393   -7.0335    9.7928 C   0  0  0  0  0  0  0  0  0  0  0  0
  -11.2154   -6.0395   10.0986 C   0  0  0  0  0  0  0  0  0  0  0  0
  -12.3892   -6.4348   10.7025 C   0  0  0  0  0  0  0  0  0  0  0  0
  -13.3719   -5.5207   10.9821 C   0  0  0  0  0  0  0  0  0  0  0  0
  -13.2099   -4.1885   10.6667 C   0  0  0  0  0  0  0  0  0  0  0  0
  -12.0195   -3.7791   10.0526 C   0  0  0  0  0  0  0  0  0  0  0  0
  -11.0553   -4.7104    9.7844 C   0  0  0  0  0  0  0  0  0  0  0  0
   -9.0288   -6.2853    9.0943 C   0  0  0  0  0  0  0  0  0  0  0  0
   -9.3966   -6.0924    7.7456 O   0  0  0  0  0  0  0  0  0  0  0  0
   -9.2004   -5.1364    7.4790 H   0  0  0  0  0  0  0  0  0  0  0  0
  7  8  1  0  0  0
  8  9  2  0  0  0
  9 10  1  0  0  0
 10 11  1  0  0  0
 11 12  2  0  0  0
 12 13  1  0  0  0
 13 14  2  0  0  0
 14 15  1  0  0  0
 15 16  2  0  0  0
 14  1  1  0  0  0
  1  2  2  0  0  0
  2  3  1  0  0  0
  3 27  1  0  0  0
 27 29  1  0  0  0
 29 36  1  0  0  0
 36 37  1  0  0  0
 29 30  1  0  0  0
 30 31  2  0  0  0
 31 32  1  0  0  0
 32 33  2  0  0  0
 33 34  1  0  0  0
 34 35  2  0  0  0
  3  4  2  0  0  0
  4  5  1  0  0  0
  5  6  2  0  0  0
  6 18  1  0  0  0
 18 19  2  0  0  0
 19 20  1  0  0  0
 20 21  1  0  0  0
 20 22  2  0  0  0
 22 23  1  0  0  0
 23 24  2  0  0  0
 24 25  1  0  0  0
 16  8  1  0  0  0
  6  1  1  0  0  0
 24 18  1  0  0  0
 16 11  1  0  0  0
 35 30  1  0  0  0
 10 17  1  0  0  0
 27 28  1  0  0  0
 37 38  1  0  0  0
 25 26  1  0  0  0
M  END
> <minimizedAffinity>
7.34823

> <CNNscore>
0.2572326362

> <CNNaffinity>
6.8475427628

> <CNN_VS>
1.7614114285

> <CNNaffinity_variance>
0.5312877893

$$$$
[H]Oc1c([H])c([H])c(F)c([H])c1-c1nc([H])c(N([H])[C@]([H])(c2c([H])c([H])c([H])c([H])c2[H])C([H])([H])O[H])c([H])c1-c1c([H])c([H])c2c(c(C([H])([H])[H])nn2[H])c1[H]


 38 42  0  0  0  0  0  0  0  0999 V2000
  -13.4596   -8.4285    7.0270 C   0  0  0  0  0  0  0  0  0  0  0  0
  -14.2280   -8.9024    5.9819 C   0  0  0  0  0  0  0  0  0  0  0  0
  -15.5921   -8.5839    5.9005 C   0  0  0  0  0  0  0  0  0  0  0  0
  -16.1415   -7.7902    6.8848 C   0  0  0  0  0  0  0  0  0  0  0  0
  -15.3964   -7.3387    7.8858 N   0  0  0  0  0  0  0  0  0  0  0  0
  -14.0692   -7.6495    7.9635 C   0  0  0  0  0  0  0  0  0  0  0  0
   -8.7706   -5.6345    7.8391 C   0  0  0  0  0  0  0  0  0  0  0  0
   -8.6856   -7.0985    7.6679 C   0  0  0  0  0  0  0  0  0  0  0  0
   -7.6388   -7.9353    7.6684 N   0  0  0  0  0  0  0  0  0  0  0  0
   -8.0173   -9.1966    7.4758 N   0  0  0  0  0  0  0  0  0  0  0  0
   -9.3606   -9.2443    7.3369 C   0  0  0  0  0  0  0  0  0  0  0  0
  -10.2559  -10.2849    7.1188 C   0  0  0  0  0  0  0  0  0  0  0  0
  -11.6058  -10.0353    7.0147 C   0  0  0  0  0  0  0  0  0  0  0  0
  -12.0434   -8.7376    7.1318 C   0  0  0  0  0  0  0  0  0  0  0  0
  -11.1208   -7.6983    7.3524 C   0  0  0  0  0  0  0  0  0  0  0  0
   -9.7852   -7.9411    7.4553 C   0  0  0  0  0  0  0  0  0  0  0  0
   -7.4141  -10.0623    7.4288 H   0  0  0  0  0  0  0  0  0  0  0  0
  -13.3518   -7.0948    9.0805 C   0  0  0  0  0  0  0  0  0  0  0  0
  -13.1270   -5.7451    9.1604 C   0  0  0  0  0  0  0  0  0  0  0  0
  -12.4383   -5.2166   10.2597 C   0  0  0  0  0  0  0  0  0  0  0  0
  -12.2111   -3.8852   10.3496 F   0  0  0  0  0  0  0  0  0  0  0  0
  -11.9830   -6.0325   11.2633 C   0  0  0  0  0  0  0  0  0  0  0  0
  -12.2140   -7.3825   11.1725 C   0  0  0  0  0  0  0  0  0  0  0  0
  -12.8966   -7.9063   10.0818 C   0  0  0  0  0  0  0  0  0  0  0  0
  -13.1048   -9.2782   10.0325 O   0  0  0  0  0  0  0  0  0  0  0  0
  -13.5682   -9.7840    9.3101 H   0  0  0  0  0  0  0  0  0  0  0  0
  -16.3798   -9.0660    4.8404 N   0  0  0  0  0  0  0  0  0  0  0  0
  -16.4342  -10.1259    4.7492 H   0  0  0  0  0  0  0  0  0  0  0  0
  -17.1080   -8.2815    3.8864 C   0  0  0  0  0  0  0  0  0  0  0  0
  -16.6579   -6.8558    3.9521 C   0  0  0  0  0  0  0  0  0  0  0  0
  -17.5665   -5.8380    4.1449 C   0  0  0  0  0  0  0  0  0  0  0  0
  -17.1498   -4.5334    4.2058 C   0  0  0  0  0  0  0  0  0  0  0  0
  -15.8161   -4.2095    4.0759 C   0  0  0  0  0  0  0  0  0  0  0  0
  -14.8865   -5.2387    3.8796 C   0  0  0  0  0  0  0  0  0  0  0  0
  -15.3280   -6.5313    3.8226 C   0  0  0  0  0  0  0  0  0  0  0  0
  -18.6040   -8.2850    4.0938 C   0  0  0  0  0  0  0  0  0  0  0  0
  -18.9063   -9.1494    5.1676 O   0  0  0  0  0  0  0  0  0  0  0  0
  -19.5703   -8.6982    5.7832 H   0  0  0  0  0  0  0  0  0  0  0  0
  7  8  1  0  0  0
  8  9  2  0  0  0
  9 10  1  0  0  0
 10 11  1  0  0  0
 11 12  2  0  0  0
 12 13  1  0  0  0
 13 14  2  0  0  0
 14 15  1  0  0  0
 15 16  2  0  0  0
 14  1  1  0  0  0
  1  2  2  0  0  0
  2  3  1  0  0  0
  3 27  1  0  0  0
 27 29  1  0  0  0
 29 36  1  0  0  0
 36 37  1  0  0  0
 29 30  1  0  0  0
 30 31  2  0  0  0
 31 32  1  0  0  0
 32 33  2  0  0  0
 33 34  1  0  0  0
 34 35  2  0  0  0
  3  4  2  0  0  0
  4  5  1  0  0  0
  5  6  2  0  0  0
  6 18  1  0  0  0
 18 19  2  0  0  0
 19 20  1  0  0  0
 20 21  1  0  0  0
 20 22  2  0  0  0
 22 23  1  0  0  0
 23 24  2  0  0  0
 24 25  1  0  0  0
 16  8  1  0  0  0
  6  1  1  0  0  0
 24 18  1  0  0  0
 16 11  1  0  0  0
 35 30  1  0  0  0
 10 17  1  0  0  0
 27 28  1  0  0  0
 37 38  1  0  0  0
 25 26  1  0  0  0
M  END
> <minimizedAffinity>
-8.22630

> <CNNscore>
0.2085583359

> <CNNaffinity>
7.3384261131

> <CNN_VS>
1.5304899216

> <CNNaffinity_variance>
0.2117663324

$$$$
[H]Oc1c([H])c([H])c(F)c([H])c1-c1nc([H])c(N([H])[C@]([H])(c2c([H])c([H])c([H])c([H])c2[H])C([H])([H])O[H])c([H])c1-c1c([H])c([H])c2c(c(C([H])([H])[H])nn2[H])c1[H]


 38 42  0  0  0  0  0  0  0  0999 V2000
  -13.4076   -8.0605    7.3388 C   0  0  0  0  0  0  0  0  0  0  0  0
  -13.9979   -8.5055    6.1723 C   0  0  0  0  0  0  0  0  0  0  0  0
  -15.3933   -8.4806    6.0268 C   0  0  0  0  0  0  0  0  0  0  0  0
  -16.1546   -8.0028    7.0722 C   0  0  0  0  0  0  0  0  0  0  0  0
  -15.5798   -7.5770    8.1899 N   0  0  0  0  0  0  0  0  0  0  0  0
  -14.2219   -7.6018    8.3298 C   0  0  0  0  0  0  0  0  0  0  0  0
   -9.2609  -11.5968    6.4717 C   0  0  0  0  0  0  0  0  0  0  0  0
   -8.9359  -10.2694    7.0304 C   0  0  0  0  0  0  0  0  0  0  0  0
   -7.7695   -9.7173    7.3922 N   0  0  0  0  0  0  0  0  0  0  0  0
   -7.9334   -8.4803    7.8549 N   0  0  0  0  0  0  0  0  0  0  0  0
   -9.2452   -8.1585    7.8165 C   0  0  0  0  0  0  0  0  0  0  0  0
   -9.9534   -7.0175    8.1751 C   0  0  0  0  0  0  0  0  0  0  0  0
  -11.3210   -6.9676    8.0246 C   0  0  0  0  0  0  0  0  0  0  0  0
  -11.9648   -8.0690    7.5131 C   0  0  0  0  0  0  0  0  0  0  0  0
  -11.2296   -9.2144    7.1561 C   0  0  0  0  0  0  0  0  0  0  0  0
   -9.8772   -9.2677    7.3040 C   0  0  0  0  0  0  0  0  0  0  0  0
   -7.1980   -7.8099    8.2089 H   0  0  0  0  0  0  0  0  0  0  0  0
  -13.7030   -7.1024    9.5753 C   0  0  0  0  0  0  0  0  0  0  0  0
  -13.4610   -7.9569   10.6193 C   0  0  0  0  0  0  0  0  0  0  0  0
  -12.9436   -7.4593   11.8223 C   0  0  0  0  0  0  0  0  0  0  0  0
  -12.7000   -8.2939   12.8598 F   0  0  0  0  0  0  0  0  0  0  0  0
  -12.6735   -6.1235   11.9730 C   0  0  0  0  0  0  0  0  0  0  0  0
  -12.9199   -5.2773   10.9206 C   0  0  0  0  0  0  0  0  0  0  0  0
  -13.4334   -5.7710    9.7281 C   0  0  0  0  0  0  0  0  0  0  0  0
  -13.6683   -4.8768    8.6922 O   0  0  0  0  0  0  0  0  0  0  0  0
  -14.0394   -5.0920    7.7930 H   0  0  0  0  0  0  0  0  0  0  0  0
  -15.9998   -8.9351    4.8426 N   0  0  0  0  0  0  0  0  0  0  0  0
  -15.9422   -9.9841    4.6665 H   0  0  0  0  0  0  0  0  0  0  0  0
  -16.6802   -8.1364    3.8655 C   0  0  0  0  0  0  0  0  0  0  0  0
  -16.2784   -6.7024    4.0129 C   0  0  0  0  0  0  0  0  0  0  0  0
  -17.2228   -5.7259    4.2434 C   0  0  0  0  0  0  0  0  0  0  0  0
  -16.8503   -4.4136    4.3792 C   0  0  0  0  0  0  0  0  0  0  0  0
  -15.5263   -4.0406    4.2884 C   0  0  0  0  0  0  0  0  0  0  0  0
  -14.5605   -5.0275    4.0540 C   0  0  0  0  0  0  0  0  0  0  0  0
  -14.9581   -6.3289    3.9224 C   0  0  0  0  0  0  0  0  0  0  0  0
  -18.1865   -8.1879    3.9627 C   0  0  0  0  0  0  0  0  0  0  0  0
  -18.5397   -9.0996    4.9803 O   0  0  0  0  0  0  0  0  0  0  0  0
  -19.2594   -8.6897    5.5613 H   0  0  0  0  0  0  0  0  0  0  0  0
  7  8  1  0  0  0
  8  9  2  0  0  0
  9 10  1  0  0  0
 10 11  1  0  0  0
 11 12  2  0  0  0
 12 13  1  0  0  0
 13 14  2  0  0  0
 14 15  1  0  0  0
 15 16  2  0  0  0
 14  1  1  0  0  0
  1  2  2  0  0  0
  2  3  1  0  0  0
  3 27  1  0  0  0
 27 29  1  0  0  0
 29 36  1  0  0  0
 36 37  1  0  0  0
 29 30  1  0  0  0
 30 31  2  0  0  0
 31 32  1  0  0  0
 32 33  2  0  0  0
 33 34  1  0  0  0
 34 35  2  0  0  0
  3  4  2  0  0  0
  4  5  1  0  0  0
  5  6  2  0  0  0
  6 18  1  0  0  0
 18 19  2  0  0  0
 19 20  1  0  0  0
 20 21  1  0  0  0
 20 22  2  0  0  0
 22 23  1  0  0  0
 23 24  2  0  0  0
 24 25  1  0  0  0
 16  8  1  0  0  0
  6  1  1  0  0  0
 24 18  1  0  0  0
 16 11  1  0  0  0
 35 30  1  0  0  0
 10 17  1  0  0  0
 27 28  1  0  0  0
 37 38  1  0  0  0
 25 26  1  0  0  0
M  END
> <minimizedAffinity>
-3.46777

> <CNNscore>
0.2049941421

> <CNNaffinity>
7.2747793198

> <CNN_VS>
1.4912871122

> <CNNaffinity_variance>
0.1485862285

$$$$
[H]Oc1c([H])c([H])c(F)c([H])c1-c1nc([H])c(N([H])[C@]([H])(c2c([H])c([H])c([H])c([H])c2[H])C([H])([H])O[H])c([H])c1-c1c([H])c([H])c2c(c(C([H])([H])[H])nn2[H])c1[H]


 38 42  0  0  0  0  0  0  0  0999 V2000
  -13.9332   -6.2970    7.0962 C   0  0  0  0  0  0  0  0  0  0  0  0
  -14.9422   -5.5069    6.5816 C   0  0  0  0  0  0  0  0  0  0  0  0
  -15.3699   -5.6733    5.2556 C   0  0  0  0  0  0  0  0  0  0  0  0
  -14.7603   -6.6404    4.4850 C   0  0  0  0  0  0  0  0  0  0  0  0
  -13.7914   -7.3956    4.9868 N   0  0  0  0  0  0  0  0  0  0  0  0
  -13.3765   -7.2325    6.2773 C   0  0  0  0  0  0  0  0  0  0  0  0
  -13.3462   -9.5412   11.5215 C   0  0  0  0  0  0  0  0  0  0  0  0
  -12.9689   -8.1194   11.6481 C   0  0  0  0  0  0  0  0  0  0  0  0
  -12.4857   -7.4154   12.6810 N   0  0  0  0  0  0  0  0  0  0  0  0
  -12.2823   -6.1412   12.3555 N   0  0  0  0  0  0  0  0  0  0  0  0
  -12.6314   -5.9480   11.0645 C   0  0  0  0  0  0  0  0  0  0  0  0
  -12.6214   -4.8326   10.2352 C   0  0  0  0  0  0  0  0  0  0  0  0
  -13.0452   -4.9290    8.9289 C   0  0  0  0  0  0  0  0  0  0  0  0
  -13.4758   -6.1501    8.4679 C   0  0  0  0  0  0  0  0  0  0  0  0
  -13.4782   -7.2673    9.3234 C   0  0  0  0  0  0  0  0  0  0  0  0
  -13.0604   -7.1758   10.6159 C   0  0  0  0  0  0  0  0  0  0  0  0
  -11.9111   -5.3605   12.9625 H   0  0  0  0  0  0  0  0  0  0  0  0
  -12.3311   -8.1142    6.7242 C   0  0  0  0  0  0  0  0  0  0  0  0
  -11.1383   -7.6071    7.1702 C   0  0  0  0  0  0  0  0  0  0  0  0
  -10.1335   -8.4762    7.6145 C   0  0  0  0  0  0  0  0  0  0  0  0
   -8.9519   -7.9867    8.0577 F   0  0  0  0  0  0  0  0  0  0  0  0
  -10.3252   -9.8338    7.6107 C   0  0  0  0  0  0  0  0  0  0  0  0
  -11.5237  -10.3301    7.1618 C   0  0  0  0  0  0  0  0  0  0  0  0
  -12.5197   -9.4680    6.7208 C   0  0  0  0  0  0  0  0  0  0  0  0
  -13.7146  -10.0162    6.2740 O   0  0  0  0  0  0  0  0  0  0  0  0
  -14.5039   -9.5184    5.9252 H   0  0  0  0  0  0  0  0  0  0  0  0
  -16.3947   -4.8697    4.7257 N   0  0  0  0  0  0  0  0  0  0  0  0
  -16.0753   -4.0375    4.1426 H   0  0  0  0  0  0  0  0  0  0  0  0
  -17.8063   -5.0605    4.8892 C   0  0  0  0  0  0  0  0  0  0  0  0
  -18.1057   -6.5172    5.0566 C   0  0  0  0  0  0  0  0  0  0  0  0
  -18.0644   -7.1067    6.3014 C   0  0  0  0  0  0  0  0  0  0  0  0
  -18.3408   -8.4411    6.4505 C   0  0  0  0  0  0  0  0  0  0  0  0
  -18.6654   -9.2227    5.3623 C   0  0  0  0  0  0  0  0  0  0  0  0
  -18.7093   -8.6306    4.0938 C   0  0  0  0  0  0  0  0  0  0  0  0
  -18.4296   -7.2980    3.9720 C   0  0  0  0  0  0  0  0  0  0  0  0
  -18.6371   -4.5667    3.7286 C   0  0  0  0  0  0  0  0  0  0  0  0
  -19.9246   -4.2400    4.2053 O   0  0  0  0  0  0  0  0  0  0  0  0
  -20.2062   -3.3470    3.8222 H   0  0  0  0  0  0  0  0  0  0  0  0
  7  8  1  0  0  0
  8  9  2  0  0  0
  9 10  1  0  0  0
 10 11  1  0  0  0
 11 12  2  0  0  0
 12 13  1  0  0  0
 13 14  2  0  0  0
 14 15  1  0  0  0
 15 16  2  0  0  0
 14  1  1  0  0  0
  1  2  2  0  0  0
  2  3  1  0  0  0
  3 27  1  0  0  0
 27 29  1  0  0  0
 29 36  1  0  0  0
 36 37  1  0  0  0
 29 30  1  0  0  0
 30 31  2  0  0  0
 31 32  1  0  0  0
 32 33  2  0  0  0
 33 34  1  0  0  0
 34 35  2  0  0  0
  3  4  2  0  0  0
  4  5  1  0  0  0
  5  6  2  0  0  0
  6 18  1  0  0  0
 18 19  2  0  0  0
 19 20  1  0  0  0
 20 21  1  0  0  0
 20 22  2  0  0  0
 22 23  1  0  0  0
 23 24  2  0  0  0
 24 25  1  0  0  0
 16  8  1  0  0  0
  6  1  1  0  0  0
 24 18  1  0  0  0
 16 11  1  0  0  0
 35 30  1  0  0  0
 10 17  1  0  0  0
 27 28  1  0  0  0
 37 38  1  0  0  0
 25 26  1  0  0  0
M  END
> <minimizedAffinity>
6.05492

> <CNNscore>
0.1988331825

> <CNNaffinity>
6.7679505348

> <CNN_VS>
1.3456931114

> <CNNaffinity_variance>
0.1749036908

$$$$
[H]c1c([H])c([H])c(C([H])([H])[C@@]2([H])C(=O)N([H])[C@@]([H])(C([H])([H])c3c([H])n([H])c4c([H])c([H])c([H])c([H])c34)C(=O)N([H])[C@]([H])(C([H])([H])c3c([H])n([H])c4c([H])c([H])c([H])c([H])c34)C(=O)N([H])[C@@]([H])(C([H])([H])c3c([H])c([H])c([H])c([H])c3[H])C(=O)N([H])[C@@]([H])(C([H])(C([H])([H])[H])C([H])([H])[H])C(=O)N([H])[C@]([H])(C([H])([H])c3c([H])c([H])c([H])c([H])c3[H])C(=O)N3C([H])([H])C([H])([H])C([H])([H])[C@@]3([H])C(=O)N2[H])c([H])c1[H]


 83 91  0  0  0  0  0  0  0  0999 V2000
   -3.3290   -7.0294    8.4971 C   0  0  0  0  0  0  0  0  0  0  0  0
   -4.6441   -6.7861    7.9269 N   0  0  0  0  0  0  0  0  0  0  0  0
   -5.1543   -6.6719    6.6599 C   0  0  0  0  0  0  0  0  0  0  0  0
   -5.9084   -7.6671    6.2638 O   0  0  0  0  0  0  0  0  0  0  0  0
   -5.0692   -5.6644    5.5802 C   0  0  0  0  0  0  0  0  0  0  0  0
   -6.2641   -5.6784    4.7445 N   0  0  0  0  0  0  0  0  0  0  0  0
   -7.5381   -6.1430    5.0256 C   0  0  0  0  0  0  0  0  0  0  0  0
   -8.0305   -7.0566    4.2634 O   0  0  0  0  0  0  0  0  0  0  0  0
   -8.4628   -5.7423    6.1065 C   0  0  0  0  0  0  0  0  0  0  0  0
   -9.3337   -6.8439    6.4935 N   0  0  0  0  0  0  0  0  0  0  0  0
   -9.7374   -7.1898    7.7839 C   0  0  0  0  0  0  0  0  0  0  0  0
  -10.9627   -7.2783    8.0383 O   0  0  0  0  0  0  0  0  0  0  0  0
   -8.8317   -7.4846    8.9595 C   0  0  0  0  0  0  0  0  0  0  0  0
   -9.4793   -6.9860   10.1338 N   0  0  0  0  0  0  0  0  0  0  0  0
   -9.0441   -6.0262   11.0718 C   0  0  0  0  0  0  0  0  0  0  0  0
   -9.6247   -4.8677   11.0531 O   0  0  0  0  0  0  0  0  0  0  0  0
   -7.9985   -6.1410   12.1040 C   0  0  0  0  0  0  0  0  0  0  0  0
   -7.0793   -5.0252   11.9873 N   0  0  0  0  0  0  0  0  0  0  0  0
   -5.9129   -4.9169   12.8380 C   0  0  0  0  0  0  0  0  0  0  0  0
   -5.6914   -3.7204   13.2471 O   0  0  0  0  0  0  0  0  0  0  0  0
   -5.0449   -5.9748   13.2368 C   0  0  0  0  0  0  0  0  0  0  0  0
   -4.7335   -5.7765   14.7529 C   0  0  0  0  0  0  0  0  0  0  0  0
   -3.5856   -6.6926   15.0460 C   0  0  0  0  0  0  0  0  0  0  0  0
   -3.3472   -7.3066   13.6937 C   0  0  0  0  0  0  0  0  0  0  0  0
   -3.7406   -6.1935   12.7487 N   0  0  0  0  0  0  0  0  0  0  0  0
   -2.9434   -5.6490   11.7417 C   0  0  0  0  0  0  0  0  0  0  0  0
   -1.8071   -6.2265   11.5163 O   0  0  0  0  0  0  0  0  0  0  0  0
   -3.1792   -4.4883   10.8581 C   0  0  0  0  0  0  0  0  0  0  0  0
   -2.8246   -4.6769    9.4798 N   0  0  0  0  0  0  0  0  0  0  0  0
   -2.5720   -5.7570    8.6722 C   0  0  0  0  0  0  0  0  0  0  0  0
   -1.5197   -5.6800    7.9348 O   0  0  0  0  0  0  0  0  0  0  0  0
   -5.3846   -6.6805    8.7316 H   0  0  0  0  0  0  0  0  0  0  0  0
   -6.0896   -5.2658    3.7800 H   0  0  0  0  0  0  0  0  0  0  0  0
   -9.6714   -7.4087    5.6485 H   0  0  0  0  0  0  0  0  0  0  0  0
  -10.4563   -7.4093   10.2927 H   0  0  0  0  0  0  0  0  0  0  0  0
   -7.1934   -4.2480   11.3042 H   0  0  0  0  0  0  0  0  0  0  0  0
   -2.7459   -3.7177    8.9774 H   0  0  0  0  0  0  0  0  0  0  0  0
   -1.2175   -8.4011    8.4888 C   0  0  0  0  0  0  0  0  0  0  0  0
   -2.5789   -8.1525    7.9042 C   0  0  0  0  0  0  0  0  0  0  0  0
   -2.3904   -8.1529    6.4232 C   0  0  0  0  0  0  0  0  0  0  0  0
   -4.5833   -4.3225    5.9535 C   0  0  0  0  0  0  0  0  0  0  0  0
   -3.3426   -3.9425    5.1744 C   0  0  0  0  0  0  0  0  0  0  0  0
   -2.5370   -2.9078    5.5914 C   0  0  0  0  0  0  0  0  0  0  0  0
   -1.4203   -2.5453    4.8718 C   0  0  0  0  0  0  0  0  0  0  0  0
   -1.0687   -3.2118    3.7002 C   0  0  0  0  0  0  0  0  0  0  0  0
   -1.9078   -4.2525    3.3115 C   0  0  0  0  0  0  0  0  0  0  0  0
   -3.0123   -4.6070    4.0284 C   0  0  0  0  0  0  0  0  0  0  0  0
   -9.3305   -4.5907    5.7044 C   0  0  0  0  0  0  0  0  0  0  0  0
  -10.4465   -4.8359    4.8183 C   0  0  0  0  0  0  0  0  0  0  0  0
  -10.4458   -4.4554    3.4779 C   0  0  0  0  0  0  0  0  0  0  0  0
  -11.6347   -4.8040    2.9765 N   0  0  0  0  0  0  0  0  0  0  0  0
  -12.4061   -5.3898    3.9149 C   0  0  0  0  0  0  0  0  0  0  0  0
  -13.6922   -5.9244    3.8715 C   0  0  0  0  0  0  0  0  0  0  0  0
  -14.2663   -6.4954    4.9840 C   0  0  0  0  0  0  0  0  0  0  0  0
  -13.5326   -6.5253    6.1486 C   0  0  0  0  0  0  0  0  0  0  0  0
  -12.2704   -5.9942    6.1735 C   0  0  0  0  0  0  0  0  0  0  0  0
  -11.6646   -5.4147    5.0822 C   0  0  0  0  0  0  0  0  0  0  0  0
  -11.9999   -4.6757    1.9921 H   0  0  0  0  0  0  0  0  0  0  0  0
   -8.7456   -8.9938    8.9362 C   0  0  0  0  0  0  0  0  0  0  0  0
   -9.6198   -9.6833    8.0105 C   0  0  0  0  0  0  0  0  0  0  0  0
   -9.2176  -10.4709    6.9462 C   0  0  0  0  0  0  0  0  0  0  0  0
  -10.3246  -10.9838    6.3428 N   0  0  0  0  0  0  0  0  0  0  0  0
  -11.4295  -10.5489    6.9874 C   0  0  0  0  0  0  0  0  0  0  0  0
  -12.7589  -10.7884    6.7355 C   0  0  0  0  0  0  0  0  0  0  0  0
  -13.7031  -10.2017    7.5412 C   0  0  0  0  0  0  0  0  0  0  0  0
  -13.3100   -9.3905    8.5792 C   0  0  0  0  0  0  0  0  0  0  0  0
  -11.9833   -9.1729    8.8038 C   0  0  0  0  0  0  0  0  0  0  0  0
  -10.9898   -9.7393    8.0239 C   0  0  0  0  0  0  0  0  0  0  0  0
  -10.3056  -11.6195    5.5081 H   0  0  0  0  0  0  0  0  0  0  0  0
   -8.5719   -6.3244   13.4771 C   0  0  0  0  0  0  0  0  0  0  0  0
   -9.2228   -5.1873   14.1022 C   0  0  0  0  0  0  0  0  0  0  0  0
  -10.6027   -5.1767   14.3173 C   0  0  0  0  0  0  0  0  0  0  0  0
  -11.2343   -4.0997   14.9260 C   0  0  0  0  0  0  0  0  0  0  0  0
  -10.4913   -3.0108   15.3319 C   0  0  0  0  0  0  0  0  0  0  0  0
   -9.1425   -2.9896   15.1371 C   0  0  0  0  0  0  0  0  0  0  0  0
   -8.5372   -4.0880   14.5227 C   0  0  0  0  0  0  0  0  0  0  0  0
   -2.5614   -3.2219   11.4440 C   0  0  0  0  0  0  0  0  0  0  0  0
   -2.3992   -2.1449   10.4860 C   0  0  0  0  0  0  0  0  0  0  0  0
   -1.2656   -1.9991    9.7341 C   0  0  0  0  0  0  0  0  0  0  0  0
   -1.1469   -0.9622    8.8072 C   0  0  0  0  0  0  0  0  0  0  0  0
   -2.1932   -0.0651    8.6454 C   0  0  0  0  0  0  0  0  0  0  0  0
   -3.3410   -0.2032    9.3993 C   0  0  0  0  0  0  0  0  0  0  0  0
   -3.4153   -1.2315   10.2939 C   0  0  0  0  0  0  0  0  0  0  0  0
 38 39  1  0  0  0
 39 40  1  0  0  0
 39  1  1  0  0  0
  1  2  1  0  0  0
  2  3  1  0  0  0
  3  4  2  0  0  0
  3  5  1  0  0  0
  5 41  1  0  0  0
 41 42  1  0  0  0
 42 43  2  0  0  0
 43 44  1  0  0  0
 44 45  2  0  0  0
 45 46  1  0  0  0
 46 47  2  0  0  0
  5  6  1  0  0  0
  6  7  1  0  0  0
  7  8  2  0  0  0
  7  9  1  0  0  0
  9 48  1  0  0  0
 48 49  1  0  0  0
 49 50  2  0  0  0
 50 51  1  0  0  0
 51 52  1  0  0  0
 52 53  2  0  0  0
 53 54  1  0  0  0
 54 55  2  0  0  0
 55 56  1  0  0  0
 56 57  2  0  0  0
  9 10  1  0  0  0
 10 11  1  0  0  0
 11 12  2  0  0  0
 11 13  1  0  0  0
 13 59  1  0  0  0
 59 60  1  0  0  0
 60 61  2  0  0  0
 61 62  1  0  0  0
 62 63  1  0  0  0
 63 64  2  0  0  0
 64 65  1  0  0  0
 65 66  2  0  0  0
 66 67  1  0  0  0
 67 68  2  0  0  0
 13 14  1  0  0  0
 14 15  1  0  0  0
 15 16  2  0  0  0
 15 17  1  0  0  0
 17 70  1  0  0  0
 70 71  1  0  0  0
 71 72  2  0  0  0
 72 73  1  0  0  0
 73 74  2  0  0  0
 74 75  1  0  0  0
 75 76  2  0  0  0
 17 18  1  0  0  0
 18 19  1  0  0  0
 19 20  2  0  0  0
 19 21  1  0  0  0
 21 22  1  0  0  0
 22 23  1  0  0  0
 23 24  1  0  0  0
 24 25  1  0  0  0
 25 26  1  0  0  0
 26 27  2  0  0  0
 26 28  1  0  0  0
 28 77  1  0  0  0
 77 78  1  0  0  0
 78 79  2  0  0  0
 79 80  1  0  0  0
 80 81  2  0  0  0
 81 82  1  0  0  0
 82 83  2  0  0  0
 28 29  1  0  0  0
 29 30  1  0  0  0
 30 31  2  0  0  0
 30  1  1  0  0  0
 47 42  1  0  0  0
 57 49  1  0  0  0
 68 60  1  0  0  0
 76 71  1  0  0  0
 25 21  1  0  0  0
 83 78  1  0  0  0
 57 52  1  0  0  0
 68 63  1  0  0  0
  2 32  1  0  0  0
  6 33  1  0  0  0
 51 58  1  0  0  0
 10 34  1  0  0  0
 62 69  1  0  0  0
 14 35  1  0  0  0
 18 36  1  0  0  0
 29 37  1  0  0  0
M  END
> <minimizedAffinity>
42.58867

> <CNNscore>
0.3190289140

> <CNNaffinity>
7.8572592735

> <CNN_VS>
2.5066928864

> <CNNaffinity_variance>
0.8214119077

$$$$
[H]c1c([H])c([H])c(C([H])([H])[C@@]2([H])C(=O)N([H])[C@@]([H])(C([H])([H])c3c([H])n([H])c4c([H])c([H])c([H])c([H])c34)C(=O)N([H])[C@]([H])(C([H])([H])c3c([H])n([H])c4c([H])c([H])c([H])c([H])c34)C(=O)N([H])[C@@]([H])(C([H])([H])c3c([H])c([H])c([H])c([H])c3[H])C(=O)N([H])[C@@]([H])(C([H])(C([H])([H])[H])C([H])([H])[H])C(=O)N([H])[C@]([H])(C([H])([H])c3c([H])c([H])c([H])c([H])c3[H])C(=O)N3C([H])([H])C([H])([H])C([H])([H])[C@@]3([H])C(=O)N2[H])c([H])c1[H]


 83 91  0  0  0  0  0  0  0  0999 V2000
  -10.7974   -5.2277    8.9403 C   0  0  0  0  0  0  0  0  0  0  0  0
  -11.9056   -6.1384    8.7031 N   0  0  0  0  0  0  0  0  0  0  0  0
  -13.2022   -6.2343    9.1373 C   0  0  0  0  0  0  0  0  0  0  0  0
  -14.1184   -5.9576    8.2429 O   0  0  0  0  0  0  0  0  0  0  0  0
  -13.8587   -6.5903   10.4141 C   0  0  0  0  0  0  0  0  0  0  0  0
  -15.1762   -7.1736   10.1901 N   0  0  0  0  0  0  0  0  0  0  0  0
  -15.6937   -7.7898    9.0629 C   0  0  0  0  0  0  0  0  0  0  0  0
  -16.7630   -7.2970    8.5414 O   0  0  0  0  0  0  0  0  0  0  0  0
  -15.1944   -8.9723    8.3306 C   0  0  0  0  0  0  0  0  0  0  0  0
  -15.5403   -8.9044    6.9172 N   0  0  0  0  0  0  0  0  0  0  0  0
  -14.7434   -9.2742    5.8328 C   0  0  0  0  0  0  0  0  0  0  0  0
  -15.1839  -10.1095    5.0068 O   0  0  0  0  0  0  0  0  0  0  0  0
  -13.3535   -8.7624    5.5238 C   0  0  0  0  0  0  0  0  0  0  0  0
  -12.6136   -9.8487    4.9586 N   0  0  0  0  0  0  0  0  0  0  0  0
  -11.4187  -10.4576    5.3964 C   0  0  0  0  0  0  0  0  0  0  0  0
  -11.5073  -11.6436    5.9113 O   0  0  0  0  0  0  0  0  0  0  0  0
  -10.0402   -9.9378    5.3563 C   0  0  0  0  0  0  0  0  0  0  0  0
   -9.4417  -10.0527    6.6723 N   0  0  0  0  0  0  0  0  0  0  0  0
   -8.1079   -9.5575    6.9399 C   0  0  0  0  0  0  0  0  0  0  0  0
   -7.4172  -10.3371    7.6906 O   0  0  0  0  0  0  0  0  0  0  0  0
   -7.5341   -8.3446    6.4590 C   0  0  0  0  0  0  0  0  0  0  0  0
   -6.0718   -8.6631    6.0173 C   0  0  0  0  0  0  0  0  0  0  0  0
   -5.4132   -7.3308    5.8332 C   0  0  0  0  0  0  0  0  0  0  0  0
   -6.5359   -6.3961    6.1914 C   0  0  0  0  0  0  0  0  0  0  0  0
   -7.3075   -7.1839    7.2262 N   0  0  0  0  0  0  0  0  0  0  0  0
   -7.6255   -6.7576    8.5159 C   0  0  0  0  0  0  0  0  0  0  0  0
   -7.3379   -5.5318    8.8162 O   0  0  0  0  0  0  0  0  0  0  0  0
   -8.2549   -7.4873    9.6362 C   0  0  0  0  0  0  0  0  0  0  0  0
   -9.2555   -6.7600   10.3648 N   0  0  0  0  0  0  0  0  0  0  0  0
  -10.0092   -5.6361   10.1381 C   0  0  0  0  0  0  0  0  0  0  0  0
  -10.0626   -4.7850   11.1024 O   0  0  0  0  0  0  0  0  0  0  0  0
  -11.5988   -6.9214    7.9961 H   0  0  0  0  0  0  0  0  0  0  0  0
  -15.8074   -7.0894   11.0418 H   0  0  0  0  0  0  0  0  0  0  0  0
  -16.5296   -8.5254    6.7605 H   0  0  0  0  0  0  0  0  0  0  0  0
  -13.0709  -10.2605    4.0752 H   0  0  0  0  0  0  0  0  0  0  0  0
   -9.9165  -10.4880    7.4901 H   0  0  0  0  0  0  0  0  0  0  0  0
   -9.4443   -7.2367   11.3218 H   0  0  0  0  0  0  0  0  0  0  0  0
   -9.9781   -2.8510    9.0806 C   0  0  0  0  0  0  0  0  0  0  0  0
  -11.1231   -3.7927    8.8381 C   0  0  0  0  0  0  0  0  0  0  0  0
  -12.2531   -3.2793    9.6679 C   0  0  0  0  0  0  0  0  0  0  0  0
  -13.0322   -7.2815   11.4218 C   0  0  0  0  0  0  0  0  0  0  0  0
  -12.3658   -6.3015   12.3631 C   0  0  0  0  0  0  0  0  0  0  0  0
  -11.3810   -6.7150   13.2308 C   0  0  0  0  0  0  0  0  0  0  0  0
  -10.7892   -5.8299   14.1042 C   0  0  0  0  0  0  0  0  0  0  0  0
  -11.1660   -4.4893   14.1392 C   0  0  0  0  0  0  0  0  0  0  0  0
  -12.1646   -4.1096   13.2465 C   0  0  0  0  0  0  0  0  0  0  0  0
  -12.7468   -4.9906   12.3838 C   0  0  0  0  0  0  0  0  0  0  0  0
  -15.7523  -10.2486    8.8787 C   0  0  0  0  0  0  0  0  0  0  0  0
  -17.1873  -10.3953    8.9785 C   0  0  0  0  0  0  0  0  0  0  0  0
  -17.8103  -11.0261   10.0534 C   0  0  0  0  0  0  0  0  0  0  0  0
  -19.1230  -11.0107    9.8028 N   0  0  0  0  0  0  0  0  0  0  0  0
  -19.3872  -10.4050    8.6271 C   0  0  0  0  0  0  0  0  0  0  0  0
  -20.5794  -10.1382    7.9569 C   0  0  0  0  0  0  0  0  0  0  0  0
  -20.5880   -9.4757    6.7509 C   0  0  0  0  0  0  0  0  0  0  0  0
  -19.3807   -9.0805    6.2202 C   0  0  0  0  0  0  0  0  0  0  0  0
  -18.2185   -9.3519    6.8921 C   0  0  0  0  0  0  0  0  0  0  0  0
  -18.1708  -10.0126    8.0983 C   0  0  0  0  0  0  0  0  0  0  0  0
  -19.9126  -11.3965   10.3914 H   0  0  0  0  0  0  0  0  0  0  0  0
  -13.6251   -7.6593    4.5263 C   0  0  0  0  0  0  0  0  0  0  0  0
  -14.6686   -6.7146    4.8657 C   0  0  0  0  0  0  0  0  0  0  0  0
  -14.5234   -5.5972    5.6689 C   0  0  0  0  0  0  0  0  0  0  0  0
  -15.7122   -4.9357    5.7117 N   0  0  0  0  0  0  0  0  0  0  0  0
  -16.6203   -5.5951    4.9593 C   0  0  0  0  0  0  0  0  0  0  0  0
  -17.9436   -5.3174    4.7151 C   0  0  0  0  0  0  0  0  0  0  0  0
  -18.6644   -6.1708    3.9169 C   0  0  0  0  0  0  0  0  0  0  0  0
  -18.0586   -7.2808    3.3776 C   0  0  0  0  0  0  0  0  0  0  0  0
  -16.7437   -7.5285    3.6380 C   0  0  0  0  0  0  0  0  0  0  0  0
  -15.9702   -6.7019    4.4344 C   0  0  0  0  0  0  0  0  0  0  0  0
  -15.8804   -4.0501    6.2489 H   0  0  0  0  0  0  0  0  0  0  0  0
   -9.2305  -10.5559    4.2562 C   0  0  0  0  0  0  0  0  0  0  0  0
   -9.0162  -11.9913    4.2906 C   0  0  0  0  0  0  0  0  0  0  0  0
   -8.5920  -12.6830    3.1538 C   0  0  0  0  0  0  0  0  0  0  0  0
   -8.3714  -14.0542    3.1786 C   0  0  0  0  0  0  0  0  0  0  0  0
   -8.5722  -14.7586    4.3474 C   0  0  0  0  0  0  0  0  0  0  0  0
   -8.9856  -14.1136    5.4747 C   0  0  0  0  0  0  0  0  0  0  0  0
   -9.1982  -12.7345    5.4174 C   0  0  0  0  0  0  0  0  0  0  0  0
   -7.1981   -8.0923   10.5558 C   0  0  0  0  0  0  0  0  0  0  0  0
   -6.3494   -7.1126   11.2068 C   0  0  0  0  0  0  0  0  0  0  0  0
   -5.3170   -6.4925   10.5578 C   0  0  0  0  0  0  0  0  0  0  0  0
   -4.5292   -5.5403   11.2067 C   0  0  0  0  0  0  0  0  0  0  0  0
   -4.7958   -5.2173   12.5298 C   0  0  0  0  0  0  0  0  0  0  0  0
   -5.8349   -5.8374   13.1936 C   0  0  0  0  0  0  0  0  0  0  0  0
   -6.5803   -6.7623   12.5213 C   0  0  0  0  0  0  0  0  0  0  0  0
 38 39  1  0  0  0
 39 40  1  0  0  0
 39  1  1  0  0  0
  1  2  1  0  0  0
  2  3  1  0  0  0
  3  4  2  0  0  0
  3  5  1  0  0  0
  5 41  1  0  0  0
 41 42  1  0  0  0
 42 43  2  0  0  0
 43 44  1  0  0  0
 44 45  2  0  0  0
 45 46  1  0  0  0
 46 47  2  0  0  0
  5  6  1  0  0  0
  6  7  1  0  0  0
  7  8  2  0  0  0
  7  9  1  0  0  0
  9 48  1  0  0  0
 48 49  1  0  0  0
 49 50  2  0  0  0
 50 51  1  0  0  0
 51 52  1  0  0  0
 52 53  2  0  0  0
 53 54  1  0  0  0
 54 55  2  0  0  0
 55 56  1  0  0  0
 56 57  2  0  0  0
  9 10  1  0  0  0
 10 11  1  0  0  0
 11 12  2  0  0  0
 11 13  1  0  0  0
 13 59  1  0  0  0
 59 60  1  0  0  0
 60 61  2  0  0  0
 61 62  1  0  0  0
 62 63  1  0  0  0
 63 64  2  0  0  0
 64 65  1  0  0  0
 65 66  2  0  0  0
 66 67  1  0  0  0
 67 68  2  0  0  0
 13 14  1  0  0  0
 14 15  1  0  0  0
 15 16  2  0  0  0
 15 17  1  0  0  0
 17 70  1  0  0  0
 70 71  1  0  0  0
 71 72  2  0  0  0
 72 73  1  0  0  0
 73 74  2  0  0  0
 74 75  1  0  0  0
 75 76  2  0  0  0
 17 18  1  0  0  0
 18 19  1  0  0  0
 19 20  2  0  0  0
 19 21  1  0  0  0
 21 22  1  0  0  0
 22 23  1  0  0  0
 23 24  1  0  0  0
 24 25  1  0  0  0
 25 26  1  0  0  0
 26 27  2  0  0  0
 26 28  1  0  0  0
 28 77  1  0  0  0
 77 78  1  0  0  0
 78 79  2  0  0  0
 79 80  1  0  0  0
 80 81  2  0  0  0
 81 82  1  0  0  0
 82 83  2  0  0  0
 28 29  1  0  0  0
 29 30  1  0  0  0
 30 31  2  0  0  0
 30  1  1  0  0  0
 47 42  1  0  0  0
 57 49  1  0  0  0
 68 60  1  0  0  0
 76 71  1  0  0  0
 25 21  1  0  0  0
 83 78  1  0  0  0
 57 52  1  0  0  0
 68 63  1  0  0  0
  2 32  1  0  0  0
  6 33  1  0  0  0
 51 58  1  0  0  0
 10 34  1  0  0  0
 62 69  1  0  0  0
 14 35  1  0  0  0
 18 36  1  0  0  0
 29 37  1  0  0  0
M  END
> <minimizedAffinity>
61.94455

> <CNNscore>
0.2454436123

> <CNNaffinity>
7.7721962929

> <CNN_VS>
1.9076359272

> <CNNaffinity_variance>
2.7355077267

$$$$
[H]c1c([H])c([H])c(C([H])([H])[C@@]2([H])C(=O)N([H])[C@@]([H])(C([H])([H])c3c([H])n([H])c4c([H])c([H])c([H])c([H])c34)C(=O)N([H])[C@]([H])(C([H])([H])c3c([H])n([H])c4c([H])c([H])c([H])c([H])c34)C(=O)N([H])[C@@]([H])(C([H])([H])c3c([H])c([H])c([H])c([H])c3[H])C(=O)N([H])[C@@]([H])(C([H])(C([H])([H])[H])C([H])([H])[H])C(=O)N([H])[C@]([H])(C([H])([H])c3c([H])c([H])c([H])c([H])c3[H])C(=O)N3C([H])([H])C([H])([H])C([H])([H])[C@@]3([H])C(=O)N2[H])c([H])c1[H]


 83 91  0  0  0  0  0  0  0  0999 V2000
   -7.8619   -6.0054    6.9298 C   0  0  0  0  0  0  0  0  0  0  0  0
   -6.5246   -6.1417    7.4837 N   0  0  0  0  0  0  0  0  0  0  0  0
   -5.2986   -6.5153    6.9977 C   0  0  0  0  0  0  0  0  0  0  0  0
   -4.4213   -5.5499    6.8781 O   0  0  0  0  0  0  0  0  0  0  0  0
   -4.6864   -7.7881    6.5585 C   0  0  0  0  0  0  0  0  0  0  0  0
   -3.2430   -7.7834    6.7658 N   0  0  0  0  0  0  0  0  0  0  0  0
   -2.4727   -7.0181    7.6254 C   0  0  0  0  0  0  0  0  0  0  0  0
   -1.5439   -6.2860    7.1158 O   0  0  0  0  0  0  0  0  0  0  0  0
   -2.5487   -6.9009    9.0966 C   0  0  0  0  0  0  0  0  0  0  0  0
   -2.1100   -5.5867    9.5463 N   0  0  0  0  0  0  0  0  0  0  0  0
   -2.6683   -4.8108   10.5632 C   0  0  0  0  0  0  0  0  0  0  0  0
   -1.9367   -4.4153   11.5025 O   0  0  0  0  0  0  0  0  0  0  0  0
   -4.1124   -4.3716   10.6678 C   0  0  0  0  0  0  0  0  0  0  0  0
   -4.4604   -4.3731   12.0555 N   0  0  0  0  0  0  0  0  0  0  0  0
   -5.4687   -5.0866   12.7372 C   0  0  0  0  0  0  0  0  0  0  0  0
   -5.0950   -6.0644   13.5012 O   0  0  0  0  0  0  0  0  0  0  0  0
   -6.9284   -4.8847   12.7157 C   0  0  0  0  0  0  0  0  0  0  0  0
   -7.5863   -6.1435   12.4223 N   0  0  0  0  0  0  0  0  0  0  0  0
   -9.0242   -6.2267   12.2761 C   0  0  0  0  0  0  0  0  0  0  0  0
   -9.5308   -7.2732   12.8205 O   0  0  0  0  0  0  0  0  0  0  0  0
   -9.8718   -5.2894   11.6169 C   0  0  0  0  0  0  0  0  0  0  0  0
  -11.1381   -5.0979   12.5084 C   0  0  0  0  0  0  0  0  0  0  0  0
  -12.1274   -4.3786   11.6443 C   0  0  0  0  0  0  0  0  0  0  0  0
  -11.3521   -4.2404   10.3628 C   0  0  0  0  0  0  0  0  0  0  0  0
  -10.4860   -5.4799   10.3624 N   0  0  0  0  0  0  0  0  0  0  0  0
  -10.4194   -6.4368    9.3495 C   0  0  0  0  0  0  0  0  0  0  0  0
  -11.0680   -6.1825    8.2586 O   0  0  0  0  0  0  0  0  0  0  0  0
   -9.7131   -7.7341    9.3045 C   0  0  0  0  0  0  0  0  0  0  0  0
   -9.0293   -8.0248    8.0761 N   0  0  0  0  0  0  0  0  0  0  0  0
   -8.6072   -7.2951    6.9935 C   0  0  0  0  0  0  0  0  0  0  0  0
   -8.8841   -7.7857    5.8361 O   0  0  0  0  0  0  0  0  0  0  0  0
   -6.5321   -5.8636    8.5465 H   0  0  0  0  0  0  0  0  0  0  0  0
   -2.7410   -8.4829    6.1416 H   0  0  0  0  0  0  0  0  0  0  0  0
   -1.2584   -5.2356    8.9999 H   0  0  0  0  0  0  0  0  0  0  0  0
   -3.8275   -3.7399   12.6533 H   0  0  0  0  0  0  0  0  0  0  0  0
   -7.0836   -7.0471   12.3019 H   0  0  0  0  0  0  0  0  0  0  0  0
   -8.8006   -9.0843    8.0150 H   0  0  0  0  0  0  0  0  0  0  0  0
   -9.3310   -5.1152    5.0890 C   0  0  0  0  0  0  0  0  0  0  0  0
   -7.9477   -5.2705    5.6538 C   0  0  0  0  0  0  0  0  0  0  0  0
   -7.0990   -5.7481    4.5223 C   0  0  0  0  0  0  0  0  0  0  0  0
   -5.3709   -9.0328    6.9566 C   0  0  0  0  0  0  0  0  0  0  0  0
   -6.4114   -9.4466    5.9384 C   0  0  0  0  0  0  0  0  0  0  0  0
   -7.5307  -10.1505    6.3196 C   0  0  0  0  0  0  0  0  0  0  0  0
   -8.4675  -10.5480    5.3917 C   0  0  0  0  0  0  0  0  0  0  0  0
   -8.3146  -10.2520    4.0392 C   0  0  0  0  0  0  0  0  0  0  0  0
   -7.1703   -9.5386    3.6932 C   0  0  0  0  0  0  0  0  0  0  0  0
   -6.2462   -9.1475    4.6166 C   0  0  0  0  0  0  0  0  0  0  0  0
   -1.7043   -7.9271    9.7856 C   0  0  0  0  0  0  0  0  0  0  0  0
   -1.6050   -9.2490    9.2081 C   0  0  0  0  0  0  0  0  0  0  0  0
   -1.6608  -10.4137    9.9709 C   0  0  0  0  0  0  0  0  0  0  0  0
   -1.5052  -11.4372    9.1256 N   0  0  0  0  0  0  0  0  0  0  0  0
   -1.3527  -11.0028    7.8579 C   0  0  0  0  0  0  0  0  0  0  0  0
   -1.1770  -11.6763    6.6507 C   0  0  0  0  0  0  0  0  0  0  0  0
   -1.0607  -10.9932    5.4620 C   0  0  0  0  0  0  0  0  0  0  0  0
   -1.1232   -9.6183    5.4961 C   0  0  0  0  0  0  0  0  0  0  0  0
   -1.2954   -8.9727    6.6917 C   0  0  0  0  0  0  0  0  0  0  0  0
   -1.4142   -9.6217    7.8993 C   0  0  0  0  0  0  0  0  0  0  0  0
   -1.4920  -12.4734    9.3378 H   0  0  0  0  0  0  0  0  0  0  0  0
   -4.0751   -2.9806   10.0766 C   0  0  0  0  0  0  0  0  0  0  0  0
   -3.4584   -2.8412    8.7740 C   0  0  0  0  0  0  0  0  0  0  0  0
   -2.8910   -3.8607    8.0302 C   0  0  0  0  0  0  0  0  0  0  0  0
   -2.4617   -3.3467    6.8452 N   0  0  0  0  0  0  0  0  0  0  0  0
   -2.7357   -2.0244    6.8038 C   0  0  0  0  0  0  0  0  0  0  0  0
   -2.4790   -1.0925    5.8272 C   0  0  0  0  0  0  0  0  0  0  0  0
   -2.8474    0.2125    6.0419 C   0  0  0  0  0  0  0  0  0  0  0  0
   -3.4623    0.5662    7.2195 C   0  0  0  0  0  0  0  0  0  0  0  0
   -3.7039   -0.3816    8.1688 C   0  0  0  0  0  0  0  0  0  0  0  0
   -3.3548   -1.7109    8.0045 C   0  0  0  0  0  0  0  0  0  0  0  0
   -1.9942   -3.9053    6.0898 H   0  0  0  0  0  0  0  0  0  0  0  0
   -7.4273   -4.2041   13.9549 C   0  0  0  0  0  0  0  0  0  0  0  0
   -8.8215   -4.3834   14.3175 C   0  0  0  0  0  0  0  0  0  0  0  0
   -9.6431   -3.2855   14.5821 C   0  0  0  0  0  0  0  0  0  0  0  0
  -10.9817   -3.4446   14.9174 C   0  0  0  0  0  0  0  0  0  0  0  0
  -11.5224   -4.7112   14.9929 C   0  0  0  0  0  0  0  0  0  0  0  0
  -10.7478   -5.8039   14.7402 C   0  0  0  0  0  0  0  0  0  0  0  0
   -9.4059   -5.6106   14.4053 C   0  0  0  0  0  0  0  0  0  0  0  0
  -10.6341   -8.8722    9.7347 C   0  0  0  0  0  0  0  0  0  0  0  0
  -11.8769   -8.9413    8.9900 C   0  0  0  0  0  0  0  0  0  0  0  0
  -11.9638   -9.5461    7.7660 C   0  0  0  0  0  0  0  0  0  0  0  0
  -13.1789   -9.6122    7.0820 C   0  0  0  0  0  0  0  0  0  0  0  0
  -14.3160   -9.0560    7.6507 C   0  0  0  0  0  0  0  0  0  0  0  0
  -14.2389   -8.4432    8.8850 C   0  0  0  0  0  0  0  0  0  0  0  0
  -13.0310   -8.4013    9.5193 C   0  0  0  0  0  0  0  0  0  0  0  0
 38 39  1  0  0  0
 39 40  1  0  0  0
 39  1  1  0  0  0
  1  2  1  0  0  0
  2  3  1  0  0  0
  3  4  2  0  0  0
  3  5  1  0  0  0
  5 41  1  0  0  0
 41 42  1  0  0  0
 42 43  2  0  0  0
 43 44  1  0  0  0
 44 45  2  0  0  0
 45 46  1  0  0  0
 46 47  2  0  0  0
  5  6  1  0  0  0
  6  7  1  0  0  0
  7  8  2  0  0  0
  7  9  1  0  0  0
  9 48  1  0  0  0
 48 49  1  0  0  0
 49 50  2  0  0  0
 50 51  1  0  0  0
 51 52  1  0  0  0
 52 53  2  0  0  0
 53 54  1  0  0  0
 54 55  2  0  0  0
 55 56  1  0  0  0
 56 57  2  0  0  0
  9 10  1  0  0  0
 10 11  1  0  0  0
 11 12  2  0  0  0
 11 13  1  0  0  0
 13 59  1  0  0  0
 59 60  1  0  0  0
 60 61  2  0  0  0
 61 62  1  0  0  0
 62 63  1  0  0  0
 63 64  2  0  0  0
 64 65  1  0  0  0
 65 66  2  0  0  0
 66 67  1  0  0  0
 67 68  2  0  0  0
 13 14  1  0  0  0
 14 15  1  0  0  0
 15 16  2  0  0  0
 15 17  1  0  0  0
 17 70  1  0  0  0
 70 71  1  0  0  0
 71 72  2  0  0  0
 72 73  1  0  0  0
 73 74  2  0  0  0
 74 75  1  0  0  0
 75 76  2  0  0  0
 17 18  1  0  0  0
 18 19  1  0  0  0
 19 20  2  0  0  0
 19 21  1  0  0  0
 21 22  1  0  0  0
 22 23  1  0  0  0
 23 24  1  0  0  0
 24 25  1  0  0  0
 25 26  1  0  0  0
 26 27  2  0  0  0
 26 28  1  0  0  0
 28 77  1  0  0  0
 77 78  1  0  0  0
 78 79  2  0  0  0
 79 80  1  0  0  0
 80 81  2  0  0  0
 81 82  1  0  0  0
 82 83  2  0  0  0
 28 29  1  0  0  0
 29 30  1  0  0  0
 30 31  2  0  0  0
 30  1  1  0  0  0
 47 42  1  0  0  0
 57 49  1  0  0  0
 68 60  1  0  0  0
 76 71  1  0  0  0
 25 21  1  0  0  0
 83 78  1  0  0  0
 57 52  1  0  0  0
 68 63  1  0  0  0
  2 32  1  0  0  0
  6 33  1  0  0  0
 51 58  1  0  0  0
 10 34  1  0  0  0
 62 69  1  0  0  0
 14 35  1  0  0  0
 18 36  1  0  0  0
 29 37  1  0  0  0
M  END
> <minimizedAffinity>
32.09615

> <CNNscore>
0.2243288010

> <CNNaffinity>
7.7395734787

> <CNN_VS>
1.7362092733

> <CNNaffinity_variance>
0.5752784014

$$$$
[H]c1c([H])c([H])c(C([H])([H])[C@@]2([H])C(=O)N([H])[C@@]([H])(C([H])([H])c3c([H])n([H])c4c([H])c([H])c([H])c([H])c34)C(=O)N([H])[C@]([H])(C([H])([H])c3c([H])n([H])c4c([H])c([H])c([H])c([H])c34)C(=O)N([H])[C@@]([H])(C([H])([H])c3c([H])c([H])c([H])c([H])c3[H])C(=O)N([H])[C@@]([H])(C([H])(C([H])([H])[H])C([H])([H])[H])C(=O)N([H])[C@]([H])(C([H])([H])c3c([H])c([H])c([H])c([H])c3[H])C(=O)N3C([H])([H])C([H])([H])C([H])([H])[C@@]3([H])C(=O)N2[H])c([H])c1[H]


 83 91  0  0  0  0  0  0  0  0999 V2000
   -8.5563   -7.5401    6.2849 C   0  0  0  0  0  0  0  0  0  0  0  0
   -8.3023   -7.2294    7.6823 N   0  0  0  0  0  0  0  0  0  0  0  0
   -7.2479   -6.7195    8.3943 C   0  0  0  0  0  0  0  0  0  0  0  0
   -7.4118   -5.5030    8.8516 O   0  0  0  0  0  0  0  0  0  0  0  0
   -5.9149   -7.2173    8.7987 C   0  0  0  0  0  0  0  0  0  0  0  0
   -5.4729   -6.6018   10.0445 N   0  0  0  0  0  0  0  0  0  0  0  0
   -6.2134   -6.0008   11.0488 C   0  0  0  0  0  0  0  0  0  0  0  0
   -5.9498   -4.7753   11.3438 O   0  0  0  0  0  0  0  0  0  0  0  0
   -7.3047   -6.5635   11.8712 C   0  0  0  0  0  0  0  0  0  0  0  0
   -8.2449   -5.5297   12.2821 N   0  0  0  0  0  0  0  0  0  0  0  0
   -9.6353   -5.6295   12.3501 C   0  0  0  0  0  0  0  0  0  0  0  0
  -10.2153   -5.3648   13.4306 O   0  0  0  0  0  0  0  0  0  0  0  0
  -10.5627   -6.0348   11.2255 C   0  0  0  0  0  0  0  0  0  0  0  0
  -11.6343   -6.7856   11.8042 N   0  0  0  0  0  0  0  0  0  0  0  0
  -12.0571   -8.1072   11.5498 C   0  0  0  0  0  0  0  0  0  0  0  0
  -11.8117   -8.9976   12.4590 O   0  0  0  0  0  0  0  0  0  0  0  0
  -12.7588   -8.6497   10.3728 C   0  0  0  0  0  0  0  0  0  0  0  0
  -12.0466   -9.8125    9.8788 N   0  0  0  0  0  0  0  0  0  0  0  0
  -12.4787  -10.5113    8.6868 C   0  0  0  0  0  0  0  0  0  0  0  0
  -12.3996  -11.7885    8.7894 O   0  0  0  0  0  0  0  0  0  0  0  0
  -12.9611   -9.9253    7.4803 C   0  0  0  0  0  0  0  0  0  0  0  0
  -14.1910  -10.7644    7.0133 C   0  0  0  0  0  0  0  0  0  0  0  0
  -14.4579  -10.3287    5.6055 C   0  0  0  0  0  0  0  0  0  0  0  0
  -13.3695   -9.3107    5.4018 C   0  0  0  0  0  0  0  0  0  0  0  0
  -12.2491   -9.8437    6.2664 N   0  0  0  0  0  0  0  0  0  0  0  0
  -10.9481  -10.1226    5.8474 C   0  0  0  0  0  0  0  0  0  0  0  0
  -10.6361   -9.7844    4.6376 O   0  0  0  0  0  0  0  0  0  0  0  0
   -9.8266  -10.7587    6.5696 C   0  0  0  0  0  0  0  0  0  0  0  0
   -8.5446  -10.1367    6.3942 N   0  0  0  0  0  0  0  0  0  0  0  0
   -8.1000   -8.9184    5.9462 C   0  0  0  0  0  0  0  0  0  0  0  0
   -7.1304   -8.9448    5.0998 O   0  0  0  0  0  0  0  0  0  0  0  0
   -9.1915   -7.4644    8.2831 H   0  0  0  0  0  0  0  0  0  0  0  0
   -4.4164   -6.6349   10.1610 H   0  0  0  0  0  0  0  0  0  0  0  0
   -7.7514   -4.6189   12.5542 H   0  0  0  0  0  0  0  0  0  0  0  0
  -12.1726   -6.2429   12.5624 H   0  0  0  0  0  0  0  0  0  0  0  0
  -11.2013  -10.2131   10.3357 H   0  0  0  0  0  0  0  0  0  0  0  0
   -7.7533  -10.8145    6.6990 H   0  0  0  0  0  0  0  0  0  0  0  0
   -6.7465   -6.0688    5.3364 C   0  0  0  0  0  0  0  0  0  0  0  0
   -8.1906   -6.4826    5.3238 C   0  0  0  0  0  0  0  0  0  0  0  0
   -8.9764   -5.2137    5.3596 C   0  0  0  0  0  0  0  0  0  0  0  0
   -5.6866   -8.6717    8.7046 C   0  0  0  0  0  0  0  0  0  0  0  0
   -4.5138   -8.9944    7.8040 C   0  0  0  0  0  0  0  0  0  0  0  0
   -4.4455   -8.4887    6.5261 C   0  0  0  0  0  0  0  0  0  0  0  0
   -3.3908   -8.7994    5.6969 C   0  0  0  0  0  0  0  0  0  0  0  0
   -2.3598   -9.6340    6.1221 C   0  0  0  0  0  0  0  0  0  0  0  0
   -2.4645  -10.1251    7.4205 C   0  0  0  0  0  0  0  0  0  0  0  0
   -3.5113   -9.8137    8.2372 C   0  0  0  0  0  0  0  0  0  0  0  0
   -6.7884   -7.2318   13.1072 C   0  0  0  0  0  0  0  0  0  0  0  0
   -5.5858   -6.7195   13.7253 C   0  0  0  0  0  0  0  0  0  0  0  0
   -4.4542   -7.5031   13.9423 C   0  0  0  0  0  0  0  0  0  0  0  0
   -3.5568   -6.7248   14.5549 N   0  0  0  0  0  0  0  0  0  0  0  0
   -4.0414   -5.4809   14.7467 C   0  0  0  0  0  0  0  0  0  0  0  0
   -3.4877   -4.3366   15.3176 C   0  0  0  0  0  0  0  0  0  0  0  0
   -4.1933   -3.1571   15.3812 C   0  0  0  0  0  0  0  0  0  0  0  0
   -5.4686   -3.1362   14.8628 C   0  0  0  0  0  0  0  0  0  0  0  0
   -5.9974   -4.2705   14.3063 C   0  0  0  0  0  0  0  0  0  0  0  0
   -5.3227   -5.4672   14.2261 C   0  0  0  0  0  0  0  0  0  0  0  0
   -2.5799   -6.9705   14.8777 H   0  0  0  0  0  0  0  0  0  0  0  0
  -11.0143   -4.7005   10.6765 C   0  0  0  0  0  0  0  0  0  0  0  0
  -12.1521   -4.7143    9.7811 C   0  0  0  0  0  0  0  0  0  0  0  0
  -13.2849   -3.9278    9.8944 C   0  0  0  0  0  0  0  0  0  0  0  0
  -14.1048   -4.1929    8.8408 N   0  0  0  0  0  0  0  0  0  0  0  0
  -13.5331   -5.1286    8.0513 C   0  0  0  0  0  0  0  0  0  0  0  0
  -13.9875   -5.7156    6.8951 C   0  0  0  0  0  0  0  0  0  0  0  0
  -13.2109   -6.6699    6.2858 C   0  0  0  0  0  0  0  0  0  0  0  0
  -12.0008   -7.0219    6.8351 C   0  0  0  0  0  0  0  0  0  0  0  0
  -11.5774   -6.4208    7.9829 C   0  0  0  0  0  0  0  0  0  0  0  0
  -12.3190   -5.4528    8.6379 C   0  0  0  0  0  0  0  0  0  0  0  0
  -15.0333   -3.7314    8.6796 H   0  0  0  0  0  0  0  0  0  0  0  0
  -14.2153   -8.8871   10.6377 C   0  0  0  0  0  0  0  0  0  0  0  0
  -15.1604   -8.5766    9.5805 C   0  0  0  0  0  0  0  0  0  0  0  0
  -14.8325   -7.6777    8.5632 C   0  0  0  0  0  0  0  0  0  0  0  0
  -15.7241   -7.3829    7.5396 C   0  0  0  0  0  0  0  0  0  0  0  0
  -16.9641   -7.9865    7.5172 C   0  0  0  0  0  0  0  0  0  0  0  0
  -17.3152   -8.8690    8.4948 C   0  0  0  0  0  0  0  0  0  0  0  0
  -16.3964   -9.1445    9.5098 C   0  0  0  0  0  0  0  0  0  0  0  0
   -9.7816  -12.2591    6.2951 C   0  0  0  0  0  0  0  0  0  0  0  0
   -9.1777  -12.6102    5.0239 C   0  0  0  0  0  0  0  0  0  0  0  0
   -8.8759  -13.9019    4.6892 C   0  0  0  0  0  0  0  0  0  0  0  0
   -8.3116  -14.2097    3.4502 C   0  0  0  0  0  0  0  0  0  0  0  0
   -8.0518  -13.1914    2.5439 C   0  0  0  0  0  0  0  0  0  0  0  0
   -8.3522  -11.8849    2.8720 C   0  0  0  0  0  0  0  0  0  0  0  0
   -8.9034  -11.6284    4.0941 C   0  0  0  0  0  0  0  0  0  0  0  0
 38 39  1  0  0  0
 39 40  1  0  0  0
 39  1  1  0  0  0
  1  2  1  0  0  0
  2  3  1  0  0  0
  3  4  2  0  0  0
  3  5  1  0  0  0
  5 41  1  0  0  0
 41 42  1  0  0  0
 42 43  2  0  0  0
 43 44  1  0  0  0
 44 45  2  0  0  0
 45 46  1  0  0  0
 46 47  2  0  0  0
  5  6  1  0  0  0
  6  7  1  0  0  0
  7  8  2  0  0  0
  7  9  1  0  0  0
  9 48  1  0  0  0
 48 49  1  0  0  0
 49 50  2  0  0  0
 50 51  1  0  0  0
 51 52  1  0  0  0
 52 53  2  0  0  0
 53 54  1  0  0  0
 54 55  2  0  0  0
 55 56  1  0  0  0
 56 57  2  0  0  0
  9 10  1  0  0  0
 10 11  1  0  0  0
 11 12  2  0  0  0
 11 13  1  0  0  0
 13 59  1  0  0  0
 59 60  1  0  0  0
 60 61  2  0  0  0
 61 62  1  0  0  0
 62 63  1  0  0  0
 63 64  2  0  0  0
 64 65  1  0  0  0
 65 66  2  0  0  0
 66 67  1  0  0  0
 67 68  2  0  0  0
 13 14  1  0  0  0
 14 15  1  0  0  0
 15 16  2  0  0  0
 15 17  1  0  0  0
 17 70  1  0  0  0
 70 71  1  0  0  0
 71 72  2  0  0  0
 72 73  1  0  0  0
 73 74  2  0  0  0
 74 75  1  0  0  0
 75 76  2  0  0  0
 17 18  1  0  0  0
 18 19  1  0  0  0
 19 20  2  0  0  0
 19 21  1  0  0  0
 21 22  1  0  0  0
 22 23  1  0  0  0
 23 24  1  0  0  0
 24 25  1  0  0  0
 25 26  1  0  0  0
 26 27  2  0  0  0
 26 28  1  0  0  0
 28 77  1  0  0  0
 77 78  1  0  0  0
 78 79  2  0  0  0
 79 80  1  0  0  0
 80 81  2  0  0  0
 81 82  1  0  0  0
 82 83  2  0  0  0
 28 29  1  0  0  0
 29 30  1  0  0  0
 30 31  2  0  0  0
 30  1  1  0  0  0
 47 42  1  0  0  0
 57 49  1  0  0  0
 68 60  1  0  0  0
 76 71  1  0  0  0
 25 21  1  0  0  0
 83 78  1  0  0  0
 57 52  1  0  0  0
 68 63  1  0  0  0
  2 32  1  0  0  0
  6 33  1  0  0  0
 51 58  1  0  0  0
 10 34  1  0  0  0
 62 69  1  0  0  0
 14 35  1  0  0  0
 18 36  1  0  0  0
 29 37  1  0  0  0
M  END
> <minimizedAffinity>
59.16661

> <CNNscore>
0.2080805451

> <CNNaffinity>
7.3109755516

> <CNN_VS>
1.5212718248

> <CNNaffinity_variance>
3.5126159191

$$$$
[H]c1c([H])c([H])c(C([H])([H])[C@@]2([H])C(=O)N([H])[C@@]([H])(C([H])([H])c3c([H])n([H])c4c([H])c([H])c([H])c([H])c34)C(=O)N([H])[C@]([H])(C([H])([H])c3c([H])n([H])c4c([H])c([H])c([H])c([H])c34)C(=O)N([H])[C@@]([H])(C([H])([H])c3c([H])c([H])c([H])c([H])c3[H])C(=O)N([H])[C@@]([H])(C([H])(C([H])([H])[H])C([H])([H])[H])C(=O)N([H])[C@]([H])(C([H])([H])c3c([H])c([H])c([H])c([H])c3[H])C(=O)N3C([H])([H])C([H])([H])C([H])([H])[C@@]3([H])C(=O)N2[H])c([H])c1[H]


 83 91  0  0  0  0  0  0  0  0999 V2000
  -14.6113   -6.7945    5.3116 C   0  0  0  0  0  0  0  0  0  0  0  0
  -13.6755   -7.4556    6.2066 N   0  0  0  0  0  0  0  0  0  0  0  0
  -13.7763   -8.1731    7.3701 C   0  0  0  0  0  0  0  0  0  0  0  0
  -13.5388   -9.4569    7.2633 O   0  0  0  0  0  0  0  0  0  0  0  0
  -14.0954   -7.8514    8.7782 C   0  0  0  0  0  0  0  0  0  0  0  0
  -13.4430   -8.7777    9.6962 N   0  0  0  0  0  0  0  0  0  0  0  0
  -12.3284   -9.5774    9.5065 C   0  0  0  0  0  0  0  0  0  0  0  0
  -12.4613  -10.8481    9.6678 O   0  0  0  0  0  0  0  0  0  0  0  0
  -10.9521   -9.1907    9.1321 C   0  0  0  0  0  0  0  0  0  0  0  0
  -10.2881  -10.2521    8.3875 N   0  0  0  0  0  0  0  0  0  0  0  0
   -9.4436  -10.1113    7.2853 C   0  0  0  0  0  0  0  0  0  0  0  0
   -8.2940  -10.6120    7.3278 O   0  0  0  0  0  0  0  0  0  0  0  0
   -9.7673   -9.3973    5.9912 C   0  0  0  0  0  0  0  0  0  0  0  0
   -8.5650   -8.7687    5.5372 N   0  0  0  0  0  0  0  0  0  0  0  0
   -8.2931   -7.4081    5.2819 C   0  0  0  0  0  0  0  0  0  0  0  0
   -7.5271   -6.7851    6.1212 O   0  0  0  0  0  0  0  0  0  0  0  0
   -8.7591   -6.5584    4.1716 C   0  0  0  0  0  0  0  0  0  0  0  0
   -9.3403   -5.3414    4.7053 N   0  0  0  0  0  0  0  0  0  0  0  0
   -9.9391   -4.3485    3.8384 C   0  0  0  0  0  0  0  0  0  0  0  0
   -9.6640   -3.1422    4.1809 O   0  0  0  0  0  0  0  0  0  0  0  0
  -10.7588   -4.5925    2.6981 C   0  0  0  0  0  0  0  0  0  0  0  0
  -10.3011   -3.6100    1.5756 C   0  0  0  0  0  0  0  0  0  0  0  0
  -11.3760   -3.6677    0.5343 C   0  0  0  0  0  0  0  0  0  0  0  0
  -12.3325   -4.6493    1.1538 C   0  0  0  0  0  0  0  0  0  0  0  0
  -12.1538   -4.3992    2.6344 N   0  0  0  0  0  0  0  0  0  0  0  0
  -13.1636   -4.0819    3.5431 C   0  0  0  0  0  0  0  0  0  0  0  0
  -14.3808   -4.1204    3.1044 O   0  0  0  0  0  0  0  0  0  0  0  0
  -13.0820   -3.6966    4.9673 C   0  0  0  0  0  0  0  0  0  0  0  0
  -14.0499   -4.3108    5.8317 N   0  0  0  0  0  0  0  0  0  0  0  0
  -14.8848   -5.3967    5.7522 C   0  0  0  0  0  0  0  0  0  0  0  0
  -16.1043   -5.2022    6.1156 O   0  0  0  0  0  0  0  0  0  0  0  0
  -12.6515   -7.3393    5.8259 H   0  0  0  0  0  0  0  0  0  0  0  0
  -13.9281   -8.8212   10.6416 H   0  0  0  0  0  0  0  0  0  0  0  0
  -10.5091  -11.2227    8.7825 H   0  0  0  0  0  0  0  0  0  0  0  0
   -7.7514   -9.4594    5.3957 H   0  0  0  0  0  0  0  0  0  0  0  0
   -9.3643   -5.1054    5.7189 H   0  0  0  0  0  0  0  0  0  0  0  0
  -14.1162   -3.7662    6.7685 H   0  0  0  0  0  0  0  0  0  0  0  0
  -16.5850   -7.0527    3.7698 C   0  0  0  0  0  0  0  0  0  0  0  0
  -15.7892   -7.5931    4.9236 C   0  0  0  0  0  0  0  0  0  0  0  0
  -16.7856   -7.9174    5.9870 C   0  0  0  0  0  0  0  0  0  0  0  0
  -14.0300   -6.4312    9.1718 C   0  0  0  0  0  0  0  0  0  0  0  0
  -12.6039   -5.9249    9.1960 C   0  0  0  0  0  0  0  0  0  0  0  0
  -11.7292   -6.2307    8.1787 C   0  0  0  0  0  0  0  0  0  0  0  0
  -10.4248   -5.7903    8.2098 C   0  0  0  0  0  0  0  0  0  0  0  0
   -9.9472   -5.0223    9.2693 C   0  0  0  0  0  0  0  0  0  0  0  0
  -10.8618   -4.7336   10.2784 C   0  0  0  0  0  0  0  0  0  0  0  0
  -12.1525   -5.1724   10.2420 C   0  0  0  0  0  0  0  0  0  0  0  0
  -10.1120   -8.8761   10.3304 C   0  0  0  0  0  0  0  0  0  0  0  0
   -8.7556   -8.4177   10.1290 C   0  0  0  0  0  0  0  0  0  0  0  0
   -7.9283   -8.9202    9.1267 C   0  0  0  0  0  0  0  0  0  0  0  0
   -6.7498   -8.3025    9.2522 N   0  0  0  0  0  0  0  0  0  0  0  0
   -6.7657   -7.4271   10.2781 C   0  0  0  0  0  0  0  0  0  0  0  0
   -5.8018   -6.5567   10.7830 C   0  0  0  0  0  0  0  0  0  0  0  0
   -6.0725   -5.7334   11.8518 C   0  0  0  0  0  0  0  0  0  0  0  0
   -7.3283   -5.7920   12.4129 C   0  0  0  0  0  0  0  0  0  0  0  0
   -8.2631   -6.6542   11.9046 C   0  0  0  0  0  0  0  0  0  0  0  0
   -8.0285   -7.4924   10.8387 C   0  0  0  0  0  0  0  0  0  0  0  0
   -5.8750   -8.4235    8.6701 H   0  0  0  0  0  0  0  0  0  0  0  0
  -10.2086  -10.5308    5.0934 C   0  0  0  0  0  0  0  0  0  0  0  0
   -9.2834  -10.9417    4.0581 C   0  0  0  0  0  0  0  0  0  0  0  0
   -8.5450  -10.0984    3.2468 C   0  0  0  0  0  0  0  0  0  0  0  0
   -7.7580  -10.8560    2.4348 N   0  0  0  0  0  0  0  0  0  0  0  0
   -7.9683  -12.1643    2.6992 C   0  0  0  0  0  0  0  0  0  0  0  0
   -7.4177  -13.2869    2.1295 C   0  0  0  0  0  0  0  0  0  0  0  0
   -7.8218  -14.5220    2.5724 C   0  0  0  0  0  0  0  0  0  0  0  0
   -8.7625  -14.6183    3.5702 C   0  0  0  0  0  0  0  0  0  0  0  0
   -9.2896  -13.4858    4.1158 C   0  0  0  0  0  0  0  0  0  0  0  0
   -8.9180  -12.2162    3.7084 C   0  0  0  0  0  0  0  0  0  0  0  0
   -7.0939  -10.4684    1.7208 H   0  0  0  0  0  0  0  0  0  0  0  0
   -7.6928   -6.3309    3.1425 C   0  0  0  0  0  0  0  0  0  0  0  0
   -6.6477   -5.3695    3.4439 C   0  0  0  0  0  0  0  0  0  0  0  0
   -5.9531   -4.7177    2.4225 C   0  0  0  0  0  0  0  0  0  0  0  0
   -4.9602   -3.7865    2.6993 C   0  0  0  0  0  0  0  0  0  0  0  0
   -4.6453   -3.4908    4.0092 C   0  0  0  0  0  0  0  0  0  0  0  0
   -5.3046   -4.1089    5.0296 C   0  0  0  0  0  0  0  0  0  0  0  0
   -6.2980   -5.0398    4.7184 C   0  0  0  0  0  0  0  0  0  0  0  0
  -13.0528   -2.1787    5.1213 C   0  0  0  0  0  0  0  0  0  0  0  0
  -14.2250   -1.6276    5.7741 C   0  0  0  0  0  0  0  0  0  0  0  0
  -15.4919   -1.8384    5.3028 C   0  0  0  0  0  0  0  0  0  0  0  0
  -16.6016   -1.3093    5.9641 C   0  0  0  0  0  0  0  0  0  0  0  0
  -16.4183   -0.5578    7.1162 C   0  0  0  0  0  0  0  0  0  0  0  0
  -15.1442   -0.3391    7.5997 C   0  0  0  0  0  0  0  0  0  0  0  0
  -14.0873   -0.8750    6.9223 C   0  0  0  0  0  0  0  0  0  0  0  0
 38 39  1  0  0  0
 39 40  1  0  0  0
 39  1  1  0  0  0
  1  2  1  0  0  0
  2  3  1  0  0  0
  3  4  2  0  0  0
  3  5  1  0  0  0
  5 41  1  0  0  0
 41 42  1  0  0  0
 42 43  2  0  0  0
 43 44  1  0  0  0
 44 45  2  0  0  0
 45 46  1  0  0  0
 46 47  2  0  0  0
  5  6  1  0  0  0
  6  7  1  0  0  0
  7  8  2  0  0  0
  7  9  1  0  0  0
  9 48  1  0  0  0
 48 49  1  0  0  0
 49 50  2  0  0  0
 50 51  1  0  0  0
 51 52  1  0  0  0
 52 53  2  0  0  0
 53 54  1  0  0  0
 54 55  2  0  0  0
 55 56  1  0  0  0
 56 57  2  0  0  0
  9 10  1  0  0  0
 10 11  1  0  0  0
 11 12  2  0  0  0
 11 13  1  0  0  0
 13 59  1  0  0  0
 59 60  1  0  0  0
 60 61  2  0  0  0
 61 62  1  0  0  0
 62 63  1  0  0  0
 63 64  2  0  0  0
 64 65  1  0  0  0
 65 66  2  0  0  0
 66 67  1  0  0  0
 67 68  2  0  0  0
 13 14  1  0  0  0
 14 15  1  0  0  0
 15 16  2  0  0  0
 15 17  1  0  0  0
 17 70  1  0  0  0
 70 71  1  0  0  0
 71 72  2  0  0  0
 72 73  1  0  0  0
 73 74  2  0  0  0
 74 75  1  0  0  0
 75 76  2  0  0  0
 17 18  1  0  0  0
 18 19  1  0  0  0
 19 20  2  0  0  0
 19 21  1  0  0  0
 21 22  1  0  0  0
 22 23  1  0  0  0
 23 24  1  0  0  0
 24 25  1  0  0  0
 25 26  1  0  0  0
 26 27  2  0  0  0
 26 28  1  0  0  0
 28 77  1  0  0  0
 77 78  1  0  0  0
 78 79  2  0  0  0
 79 80  1  0  0  0
 80 81  2  0  0  0
 81 82  1  0  0  0
 82 83  2  0  0  0
 28 29  1  0  0  0
 29 30  1  0  0  0
 30 31  2  0  0  0
 30  1  1  0  0  0
 47 42  1  0  0  0
 57 49  1  0  0  0
 68 60  1  0  0  0
 76 71  1  0  0  0
 25 21  1  0  0  0
 83 78  1  0  0  0
 57 52  1  0  0  0
 68 63  1  0  0  0
  2 32  1  0  0  0
  6 33  1  0  0  0
 51 58  1  0  0  0
 10 34  1  0  0  0
 62 69  1  0  0  0
 14 35  1  0  0  0
 18 36  1  0  0  0
 29 37  1  0  0  0
M  END
> <minimizedAffinity>
113.74249

> <CNNscore>
0.2070413232

> <CNNaffinity>
7.5169382095

> <CNN_VS>
1.5563168526

> <CNNaffinity_variance>
7.9599990845

$$$$
[H]c1c([H])c([H])c(C([H])([H])[C@@]2([H])C(=O)N([H])[C@@]([H])(C([H])([H])c3c([H])n([H])c4c([H])c([H])c([H])c([H])c34)C(=O)N([H])[C@]([H])(C([H])([H])c3c([H])n([H])c4c([H])c([H])c([H])c([H])c34)C(=O)N([H])[C@@]([H])(C([H])([H])c3c([H])c([H])c([H])c([H])c3[H])C(=O)N([H])[C@@]([H])(C([H])(C([H])([H])[H])C([H])([H])[H])C(=O)N([H])[C@]([H])(C([H])([H])c3c([H])c([H])c([H])c([H])c3[H])C(=O)N3C([H])([H])C([H])([H])C([H])([H])[C@@]3([H])C(=O)N2[H])c([H])c1[H]


 83 91  0  0  0  0  0  0  0  0999 V2000
  -13.1190   -8.4168    5.4957 C   0  0  0  0  0  0  0  0  0  0  0  0
  -13.5892   -7.4052    6.4281 N   0  0  0  0  0  0  0  0  0  0  0  0
  -14.7979   -7.0734    6.9830 C   0  0  0  0  0  0  0  0  0  0  0  0
  -14.9264   -7.3442    8.2581 O   0  0  0  0  0  0  0  0  0  0  0  0
  -16.0473   -6.4565    6.4867 C   0  0  0  0  0  0  0  0  0  0  0  0
  -16.7419   -5.7355    7.5470 N   0  0  0  0  0  0  0  0  0  0  0  0
  -16.2536   -5.2175    8.7349 C   0  0  0  0  0  0  0  0  0  0  0  0
  -16.7815   -5.6273    9.8356 O   0  0  0  0  0  0  0  0  0  0  0  0
  -15.1775   -4.2281    8.9519 C   0  0  0  0  0  0  0  0  0  0  0  0
  -14.5091   -4.4444   10.2279 N   0  0  0  0  0  0  0  0  0  0  0  0
  -13.1432   -4.3418   10.4953 C   0  0  0  0  0  0  0  0  0  0  0  0
  -12.7550   -3.5775   11.4114 O   0  0  0  0  0  0  0  0  0  0  0  0
  -12.0304   -5.0768    9.7807 C   0  0  0  0  0  0  0  0  0  0  0  0
  -10.9088   -4.1914    9.7109 N   0  0  0  0  0  0  0  0  0  0  0  0
  -10.2119   -3.6966    8.5885 C   0  0  0  0  0  0  0  0  0  0  0  0
  -10.3848   -2.4496    8.2811 O   0  0  0  0  0  0  0  0  0  0  0  0
   -9.2864   -4.4005    7.6830 C   0  0  0  0  0  0  0  0  0  0  0  0
   -9.6981   -4.1862    6.3089 N   0  0  0  0  0  0  0  0  0  0  0  0
   -9.0033   -4.8169    5.2065 C   0  0  0  0  0  0  0  0  0  0  0  0
   -8.8455   -4.0421    4.1950 O   0  0  0  0  0  0  0  0  0  0  0  0
   -8.5060   -6.1520    5.1614 C   0  0  0  0  0  0  0  0  0  0  0  0
   -7.0913   -6.1011    4.5050 C   0  0  0  0  0  0  0  0  0  0  0  0
   -6.7516   -7.5235    4.1822 C   0  0  0  0  0  0  0  0  0  0  0  0
   -7.9849   -8.2367    4.6647 C   0  0  0  0  0  0  0  0  0  0  0  0
   -9.0741   -7.2144    4.4295 N   0  0  0  0  0  0  0  0  0  0  0  0
  -10.2390   -7.4092    3.6870 C   0  0  0  0  0  0  0  0  0  0  0  0
  -10.4674   -8.6089    3.2579 O   0  0  0  0  0  0  0  0  0  0  0  0
  -11.2927   -6.4514    3.2922 C   0  0  0  0  0  0  0  0  0  0  0  0
  -12.6414   -6.9263    3.4210 N   0  0  0  0  0  0  0  0  0  0  0  0
  -13.2578   -7.9572    4.0844 C   0  0  0  0  0  0  0  0  0  0  0  0
  -14.0987   -8.6501    3.3990 O   0  0  0  0  0  0  0  0  0  0  0  0
  -12.7474   -6.7778    6.7519 H   0  0  0  0  0  0  0  0  0  0  0  0
  -17.7784   -5.6130    7.3428 H   0  0  0  0  0  0  0  0  0  0  0  0
  -15.1975   -4.7027   11.0066 H   0  0  0  0  0  0  0  0  0  0  0  0
  -10.5775   -3.8481   10.6760 H   0  0  0  0  0  0  0  0  0  0  0  0
  -10.4974   -3.5804    6.0300 H   0  0  0  0  0  0  0  0  0  0  0  0
  -13.3168   -6.2996    2.8469 H   0  0  0  0  0  0  0  0  0  0  0  0
  -13.4588  -10.2310    7.2083 C   0  0  0  0  0  0  0  0  0  0  0  0
  -13.5677   -9.7939    5.7752 C   0  0  0  0  0  0  0  0  0  0  0  0
  -12.9635  -10.8952    4.9684 C   0  0  0  0  0  0  0  0  0  0  0  0
  -15.9778   -5.7511    5.1929 C   0  0  0  0  0  0  0  0  0  0  0  0
  -15.8208   -4.2575    5.3804 C   0  0  0  0  0  0  0  0  0  0  0  0
  -14.6215   -3.7198    5.7878 C   0  0  0  0  0  0  0  0  0  0  0  0
  -14.4826   -2.3634    5.9811 C   0  0  0  0  0  0  0  0  0  0  0  0
  -15.5486   -1.4915    5.7714 C   0  0  0  0  0  0  0  0  0  0  0  0
  -16.7445   -2.0731    5.3596 C   0  0  0  0  0  0  0  0  0  0  0  0
  -16.8759   -3.4171    5.1696 C   0  0  0  0  0  0  0  0  0  0  0  0
  -15.6952   -2.8237    8.9373 C   0  0  0  0  0  0  0  0  0  0  0  0
  -17.1251   -2.6086    8.9336 C   0  0  0  0  0  0  0  0  0  0  0  0
  -18.0130   -3.4145    9.6433 C   0  0  0  0  0  0  0  0  0  0  0  0
  -19.2414   -2.9537    9.3886 N   0  0  0  0  0  0  0  0  0  0  0  0
  -19.2009   -1.8942    8.5550 C   0  0  0  0  0  0  0  0  0  0  0  0
  -20.1997   -1.0814    8.0224 C   0  0  0  0  0  0  0  0  0  0  0  0
  -19.8957   -0.0284    7.1905 C   0  0  0  0  0  0  0  0  0  0  0  0
  -18.5709    0.2033    6.8963 C   0  0  0  0  0  0  0  0  0  0  0  0
  -17.6023   -0.6062    7.4278 C   0  0  0  0  0  0  0  0  0  0  0  0
  -17.8683   -1.6682    8.2616 C   0  0  0  0  0  0  0  0  0  0  0  0
  -20.1692   -3.3109    9.7497 H   0  0  0  0  0  0  0  0  0  0  0  0
  -11.7844   -6.2607   10.6882 C   0  0  0  0  0  0  0  0  0  0  0  0
  -12.2306   -6.1355   12.0600 C   0  0  0  0  0  0  0  0  0  0  0  0
  -13.2111   -6.8990   12.6685 C   0  0  0  0  0  0  0  0  0  0  0  0
  -13.3127   -6.5175   13.9711 N   0  0  0  0  0  0  0  0  0  0  0  0
  -12.4256   -5.5292   14.2200 C   0  0  0  0  0  0  0  0  0  0  0  0
  -12.1759   -4.8275   15.3746 C   0  0  0  0  0  0  0  0  0  0  0  0
  -11.2197   -3.8424   15.3589 C   0  0  0  0  0  0  0  0  0  0  0  0
  -10.5314   -3.5738   14.1996 C   0  0  0  0  0  0  0  0  0  0  0  0
  -10.8017   -4.2880   13.0704 C   0  0  0  0  0  0  0  0  0  0  0  0
  -11.7539   -5.2918   13.0302 C   0  0  0  0  0  0  0  0  0  0  0  0
  -13.9802   -6.9379   14.6631 H   0  0  0  0  0  0  0  0  0  0  0  0
   -7.8524   -4.0583    7.9560 C   0  0  0  0  0  0  0  0  0  0  0  0
   -7.0626   -3.5111    6.8679 C   0  0  0  0  0  0  0  0  0  0  0  0
   -7.1120   -2.1506    6.5562 C   0  0  0  0  0  0  0  0  0  0  0  0
   -6.3509   -1.6138    5.5256 C   0  0  0  0  0  0  0  0  0  0  0  0
   -5.5235   -2.4339    4.7871 C   0  0  0  0  0  0  0  0  0  0  0  0
   -5.4517   -3.7662    5.0658 C   0  0  0  0  0  0  0  0  0  0  0  0
   -6.2291   -4.2751    6.1084 C   0  0  0  0  0  0  0  0  0  0  0  0
  -11.0147   -5.8743    1.9072 C   0  0  0  0  0  0  0  0  0  0  0  0
  -11.7768   -4.6789    1.6004 C   0  0  0  0  0  0  0  0  0  0  0  0
  -12.9913   -4.7266    0.9724 C   0  0  0  0  0  0  0  0  0  0  0  0
  -13.7090   -3.5591    0.7071 C   0  0  0  0  0  0  0  0  0  0  0  0
  -13.1838   -2.3314    1.0849 C   0  0  0  0  0  0  0  0  0  0  0  0
  -11.9591   -2.2725    1.7186 C   0  0  0  0  0  0  0  0  0  0  0  0
  -11.2910   -3.4383    1.9590 C   0  0  0  0  0  0  0  0  0  0  0  0
 38 39  1  0  0  0
 39 40  1  0  0  0
 39  1  1  0  0  0
  1  2  1  0  0  0
  2  3  1  0  0  0
  3  4  2  0  0  0
  3  5  1  0  0  0
  5 41  1  0  0  0
 41 42  1  0  0  0
 42 43  2  0  0  0
 43 44  1  0  0  0
 44 45  2  0  0  0
 45 46  1  0  0  0
 46 47  2  0  0  0
  5  6  1  0  0  0
  6  7  1  0  0  0
  7  8  2  0  0  0
  7  9  1  0  0  0
  9 48  1  0  0  0
 48 49  1  0  0  0
 49 50  2  0  0  0
 50 51  1  0  0  0
 51 52  1  0  0  0
 52 53  2  0  0  0
 53 54  1  0  0  0
 54 55  2  0  0  0
 55 56  1  0  0  0
 56 57  2  0  0  0
  9 10  1  0  0  0
 10 11  1  0  0  0
 11 12  2  0  0  0
 11 13  1  0  0  0
 13 59  1  0  0  0
 59 60  1  0  0  0
 60 61  2  0  0  0
 61 62  1  0  0  0
 62 63  1  0  0  0
 63 64  2  0  0  0
 64 65  1  0  0  0
 65 66  2  0  0  0
 66 67  1  0  0  0
 67 68  2  0  0  0
 13 14  1  0  0  0
 14 15  1  0  0  0
 15 16  2  0  0  0
 15 17  1  0  0  0
 17 70  1  0  0  0
 70 71  1  0  0  0
 71 72  2  0  0  0
 72 73  1  0  0  0
 73 74  2  0  0  0
 74 75  1  0  0  0
 75 76  2  0  0  0
 17 18  1  0  0  0
 18 19  1  0  0  0
 19 20  2  0  0  0
 19 21  1  0  0  0
 21 22  1  0  0  0
 22 23  1  0  0  0
 23 24  1  0  0  0
 24 25  1  0  0  0
 25 26  1  0  0  0
 26 27  2  0  0  0
 26 28  1  0  0  0
 28 77  1  0  0  0
 77 78  1  0  0  0
 78 79  2  0  0  0
 79 80  1  0  0  0
 80 81  2  0  0  0
 81 82  1  0  0  0
 82 83  2  0  0  0
 28 29  1  0  0  0
 29 30  1  0  0  0
 30 31  2  0  0  0
 30  1  1  0  0  0
 47 42  1  0  0  0
 57 49  1  0  0  0
 68 60  1  0  0  0
 76 71  1  0  0  0
 25 21  1  0  0  0
 83 78  1  0  0  0
 57 52  1  0  0  0
 68 63  1  0  0  0
  2 32  1  0  0  0
  6 33  1  0  0  0
 51 58  1  0  0  0
 10 34  1  0  0  0
 62 69  1  0  0  0
 14 35  1  0  0  0
 18 36  1  0  0  0
 29 37  1  0  0  0
M  END
> <minimizedAffinity>
320.18124

> <CNNscore>
0.1875034273

> <CNNaffinity>
5.9049391747

> <CNN_VS>
1.1071963310

> <CNNaffinity_variance>
12.2706003189

$$$$
[H]c1c([H])c([H])c(C([H])([H])[C@@]2([H])C(=O)N([H])[C@@]([H])(C([H])([H])c3c([H])n([H])c4c([H])c([H])c([H])c([H])c34)C(=O)N([H])[C@]([H])(C([H])([H])c3c([H])n([H])c4c([H])c([H])c([H])c([H])c34)C(=O)N([H])[C@@]([H])(C([H])([H])c3c([H])c([H])c([H])c([H])c3[H])C(=O)N([H])[C@@]([H])(C([H])(C([H])([H])[H])C([H])([H])[H])C(=O)N([H])[C@]([H])(C([H])([H])c3c([H])c([H])c([H])c([H])c3[H])C(=O)N3C([H])([H])C([H])([H])C([H])([H])[C@@]3([H])C(=O)N2[H])c([H])c1[H]


 83 91  0  0  0  0  0  0  0  0999 V2000
   -7.3248   -7.4667    5.1996 C   0  0  0  0  0  0  0  0  0  0  0  0
   -8.2138   -7.0561    6.2742 N   0  0  0  0  0  0  0  0  0  0  0  0
   -9.5685   -6.9042    6.4180 C   0  0  0  0  0  0  0  0  0  0  0  0
  -10.1582   -7.7936    7.1777 O   0  0  0  0  0  0  0  0  0  0  0  0
  -10.5774   -5.9469    5.9144 C   0  0  0  0  0  0  0  0  0  0  0  0
  -11.6946   -5.8147    6.8421 N   0  0  0  0  0  0  0  0  0  0  0  0
  -11.7591   -6.0885    8.1981 C   0  0  0  0  0  0  0  0  0  0  0  0
  -12.6335   -6.9434    8.6016 O   0  0  0  0  0  0  0  0  0  0  0  0
  -10.9506   -5.5342    9.3040 C   0  0  0  0  0  0  0  0  0  0  0  0
  -10.8157   -6.4923   10.3929 N   0  0  0  0  0  0  0  0  0  0  0  0
   -9.6783   -6.7447   11.1613 C   0  0  0  0  0  0  0  0  0  0  0  0
   -9.7516   -6.6537   12.4104 O   0  0  0  0  0  0  0  0  0  0  0  0
   -8.3114   -7.1331   10.6417 C   0  0  0  0  0  0  0  0  0  0  0  0
   -7.3397   -6.5185   11.4931 N   0  0  0  0  0  0  0  0  0  0  0  0
   -6.3099   -5.6053   11.1832 C   0  0  0  0  0  0  0  0  0  0  0  0
   -6.4652   -4.3777   11.5684 O   0  0  0  0  0  0  0  0  0  0  0  0
   -5.0431   -5.8390   10.4673 C   0  0  0  0  0  0  0  0  0  0  0  0
   -4.9044   -4.8666    9.4001 N   0  0  0  0  0  0  0  0  0  0  0  0
   -3.7789   -4.9011    8.4901 C   0  0  0  0  0  0  0  0  0  0  0  0
   -3.3125   -3.7373    8.2140 O   0  0  0  0  0  0  0  0  0  0  0  0
   -3.1808   -6.0597    7.9142 C   0  0  0  0  0  0  0  0  0  0  0  0
   -1.6337   -5.8679    7.9803 C   0  0  0  0  0  0  0  0  0  0  0  0
   -1.0634   -6.9281    7.0895 C   0  0  0  0  0  0  0  0  0  0  0  0
   -2.3145   -7.6042    6.5995 C   0  0  0  0  0  0  0  0  0  0  0  0
   -3.3162   -6.4717    6.5729 N   0  0  0  0  0  0  0  0  0  0  0  0
   -4.0755   -6.0707    5.4735 C   0  0  0  0  0  0  0  0  0  0  0  0
   -4.0051   -6.8075    4.4116 O   0  0  0  0  0  0  0  0  0  0  0  0
   -4.9766   -4.9116    5.3053 C   0  0  0  0  0  0  0  0  0  0  0  0
   -6.2178   -5.1836    4.6371 N   0  0  0  0  0  0  0  0  0  0  0  0
   -6.9446   -6.3091    4.3407 C   0  0  0  0  0  0  0  0  0  0  0  0
   -7.3827   -6.3995    3.1336 O   0  0  0  0  0  0  0  0  0  0  0  0
   -7.6277   -6.8269    7.1747 H   0  0  0  0  0  0  0  0  0  0  0  0
  -12.5759   -5.4557    6.3674 H   0  0  0  0  0  0  0  0  0  0  0  0
  -11.7258   -7.0258   10.5775 H   0  0  0  0  0  0  0  0  0  0  0  0
   -7.4447   -6.7962   12.5279 H   0  0  0  0  0  0  0  0  0  0  0  0
   -5.5846   -4.0990    9.2220 H   0  0  0  0  0  0  0  0  0  0  0  0
   -6.6714   -4.2583    4.2957 H   0  0  0  0  0  0  0  0  0  0  0  0
   -7.9292   -9.9058    5.3582 C   0  0  0  0  0  0  0  0  0  0  0  0
   -7.7158   -8.6989    4.4894 C   0  0  0  0  0  0  0  0  0  0  0  0
   -6.8441   -9.1564    3.3670 C   0  0  0  0  0  0  0  0  0  0  0  0
  -10.0752   -4.6772    5.3557 C   0  0  0  0  0  0  0  0  0  0  0  0
  -10.7538   -4.3377    4.0462 C   0  0  0  0  0  0  0  0  0  0  0  0
  -10.3886   -3.2200    3.3314 C   0  0  0  0  0  0  0  0  0  0  0  0
  -11.0201   -2.8965    2.1512 C   0  0  0  0  0  0  0  0  0  0  0  0
  -12.0475   -3.6873    1.6418 C   0  0  0  0  0  0  0  0  0  0  0  0
  -12.3878   -4.8090    2.3929 C   0  0  0  0  0  0  0  0  0  0  0  0
  -11.7586   -5.1244    3.5610 C   0  0  0  0  0  0  0  0  0  0  0  0
  -11.5508   -4.2830    9.8655 C   0  0  0  0  0  0  0  0  0  0  0  0
  -12.1619   -4.3306   11.1750 C   0  0  0  0  0  0  0  0  0  0  0  0
  -13.5419   -4.3116   11.3668 C   0  0  0  0  0  0  0  0  0  0  0  0
  -13.7490   -4.3341   12.6870 N   0  0  0  0  0  0  0  0  0  0  0  0
  -12.5821   -4.3677   13.3624 C   0  0  0  0  0  0  0  0  0  0  0  0
  -12.2877   -4.4138   14.7237 C   0  0  0  0  0  0  0  0  0  0  0  0
  -10.9877   -4.4605   15.1721 C   0  0  0  0  0  0  0  0  0  0  0  0
   -9.9788   -4.4610   14.2352 C   0  0  0  0  0  0  0  0  0  0  0  0
  -10.2864   -4.4144   12.9014 C   0  0  0  0  0  0  0  0  0  0  0  0
  -11.5733   -4.3658   12.4162 C   0  0  0  0  0  0  0  0  0  0  0  0
  -14.6673   -4.3294   13.2119 H   0  0  0  0  0  0  0  0  0  0  0  0
   -8.3290   -8.6396   10.7681 C   0  0  0  0  0  0  0  0  0  0  0  0
   -8.3067   -9.3984    9.5351 C   0  0  0  0  0  0  0  0  0  0  0  0
   -7.2004  -10.0199    8.9833 C   0  0  0  0  0  0  0  0  0  0  0  0
   -7.5870  -10.6707    7.8521 N   0  0  0  0  0  0  0  0  0  0  0  0
   -8.9113  -10.4862    7.6583 C   0  0  0  0  0  0  0  0  0  0  0  0
   -9.7347  -10.9344    6.6537 C   0  0  0  0  0  0  0  0  0  0  0  0
  -11.0622  -10.5851    6.6783 C   0  0  0  0  0  0  0  0  0  0  0  0
  -11.5455   -9.7995    7.6977 C   0  0  0  0  0  0  0  0  0  0  0  0
  -10.7035   -9.3712    8.6803 C   0  0  0  0  0  0  0  0  0  0  0  0
   -9.3576   -9.6939    8.7053 C   0  0  0  0  0  0  0  0  0  0  0  0
   -6.9439  -11.2276    7.2377 H   0  0  0  0  0  0  0  0  0  0  0  0
   -3.8680   -5.9046   11.3961 C   0  0  0  0  0  0  0  0  0  0  0  0
   -2.9054   -6.9742   11.2040 C   0  0  0  0  0  0  0  0  0  0  0  0
   -2.0694   -7.3853   12.2445 C   0  0  0  0  0  0  0  0  0  0  0  0
   -1.1537   -8.4161   12.0758 C   0  0  0  0  0  0  0  0  0  0  0  0
   -1.0600   -9.0557   10.8573 C   0  0  0  0  0  0  0  0  0  0  0  0
   -1.8617   -8.6790    9.8214 C   0  0  0  0  0  0  0  0  0  0  0  0
   -2.7724   -7.6395   10.0230 C   0  0  0  0  0  0  0  0  0  0  0  0
   -4.2359   -3.7297    4.6864 C   0  0  0  0  0  0  0  0  0  0  0  0
   -3.6562   -2.8208    5.6569 C   0  0  0  0  0  0  0  0  0  0  0  0
   -2.3042   -2.6876    5.8181 C   0  0  0  0  0  0  0  0  0  0  0  0
   -1.7767   -1.7906    6.7485 C   0  0  0  0  0  0  0  0  0  0  0  0
   -2.6352   -1.0225    7.5223 C   0  0  0  0  0  0  0  0  0  0  0  0
   -4.0008   -1.1497    7.3677 C   0  0  0  0  0  0  0  0  0  0  0  0
   -4.4740   -2.0385    6.4461 C   0  0  0  0  0  0  0  0  0  0  0  0
 38 39  1  0  0  0
 39 40  1  0  0  0
 39  1  1  0  0  0
  1  2  1  0  0  0
  2  3  1  0  0  0
  3  4  2  0  0  0
  3  5  1  0  0  0
  5 41  1  0  0  0
 41 42  1  0  0  0
 42 43  2  0  0  0
 43 44  1  0  0  0
 44 45  2  0  0  0
 45 46  1  0  0  0
 46 47  2  0  0  0
  5  6  1  0  0  0
  6  7  1  0  0  0
  7  8  2  0  0  0
  7  9  1  0  0  0
  9 48  1  0  0  0
 48 49  1  0  0  0
 49 50  2  0  0  0
 50 51  1  0  0  0
 51 52  1  0  0  0
 52 53  2  0  0  0
 53 54  1  0  0  0
 54 55  2  0  0  0
 55 56  1  0  0  0
 56 57  2  0  0  0
  9 10  1  0  0  0
 10 11  1  0  0  0
 11 12  2  0  0  0
 11 13  1  0  0  0
 13 59  1  0  0  0
 59 60  1  0  0  0
 60 61  2  0  0  0
 61 62  1  0  0  0
 62 63  1  0  0  0
 63 64  2  0  0  0
 64 65  1  0  0  0
 65 66  2  0  0  0
 66 67  1  0  0  0
 67 68  2  0  0  0
 13 14  1  0  0  0
 14 15  1  0  0  0
 15 16  2  0  0  0
 15 17  1  0  0  0
 17 70  1  0  0  0
 70 71  1  0  0  0
 71 72  2  0  0  0
 72 73  1  0  0  0
 73 74  2  0  0  0
 74 75  1  0  0  0
 75 76  2  0  0  0
 17 18  1  0  0  0
 18 19  1  0  0  0
 19 20  2  0  0  0
 19 21  1  0  0  0
 21 22  1  0  0  0
 22 23  1  0  0  0
 23 24  1  0  0  0
 24 25  1  0  0  0
 25 26  1  0  0  0
 26 27  2  0  0  0
 26 28  1  0  0  0
 28 77  1  0  0  0
 77 78  1  0  0  0
 78 79  2  0  0  0
 79 80  1  0  0  0
 80 81  2  0  0  0
 81 82  1  0  0  0
 82 83  2  0  0  0
 28 29  1  0  0  0
 29 30  1  0  0  0
 30 31  2  0  0  0
 30  1  1  0  0  0
 47 42  1  0  0  0
 57 49  1  0  0  0
 68 60  1  0  0  0
 76 71  1  0  0  0
 25 21  1  0  0  0
 83 78  1  0  0  0
 57 52  1  0  0  0
 68 63  1  0  0  0
  2 32  1  0  0  0
  6 33  1  0  0  0
 51 58  1  0  0  0
 10 34  1  0  0  0
 62 69  1  0  0  0
 14 35  1  0  0  0
 18 36  1  0  0  0
 29 37  1  0  0  0
M  END
> <minimizedAffinity>
87.96268

> <CNNscore>
0.1718048453

> <CNNaffinity>
7.2604494095

> <CNN_VS>
1.2473803759

> <CNNaffinity_variance>
3.0308213234

$$$$
[H]c1c([H])c([H])c(C([H])([H])[C@@]2([H])C(=O)N([H])[C@@]([H])(C([H])([H])c3c([H])n([H])c4c([H])c([H])c([H])c([H])c34)C(=O)N([H])[C@]([H])(C([H])([H])c3c([H])n([H])c4c([H])c([H])c([H])c([H])c34)C(=O)N([H])[C@@]([H])(C([H])([H])c3c([H])c([H])c([H])c([H])c3[H])C(=O)N([H])[C@@]([H])(C([H])(C([H])([H])[H])C([H])([H])[H])C(=O)N([H])[C@]([H])(C([H])([H])c3c([H])c([H])c([H])c([H])c3[H])C(=O)N3C([H])([H])C([H])([H])C([H])([H])[C@@]3([H])C(=O)N2[H])c([H])c1[H]


 83 91  0  0  0  0  0  0  0  0999 V2000
   -9.5557  -11.0166    6.5914 C   0  0  0  0  0  0  0  0  0  0  0  0
  -10.5097  -10.0052    7.0165 N   0  0  0  0  0  0  0  0  0  0  0  0
  -11.8663   -9.9597    7.2071 C   0  0  0  0  0  0  0  0  0  0  0  0
  -12.2585   -9.8897    8.4550 O   0  0  0  0  0  0  0  0  0  0  0  0
  -13.0520   -9.9658    6.3227 C   0  0  0  0  0  0  0  0  0  0  0  0
  -14.1717   -9.2556    6.9295 N   0  0  0  0  0  0  0  0  0  0  0  0
  -14.1770   -8.2928    7.9250 C   0  0  0  0  0  0  0  0  0  0  0  0
  -14.8551   -8.5313    8.9933 O   0  0  0  0  0  0  0  0  0  0  0  0
  -13.4999   -6.9797    7.9602 C   0  0  0  0  0  0  0  0  0  0  0  0
  -13.1687   -6.5914    9.3245 N   0  0  0  0  0  0  0  0  0  0  0  0
  -12.0031   -5.9633    9.7658 C   0  0  0  0  0  0  0  0  0  0  0  0
  -12.0926   -4.8891   10.4076 O   0  0  0  0  0  0  0  0  0  0  0  0
  -10.5858   -6.4484    9.5529 C   0  0  0  0  0  0  0  0  0  0  0  0
   -9.7618   -5.2935    9.3681 N   0  0  0  0  0  0  0  0  0  0  0  0
   -8.9436   -4.9276    8.2786 C   0  0  0  0  0  0  0  0  0  0  0  0
   -9.3495   -3.9512    7.5292 O   0  0  0  0  0  0  0  0  0  0  0  0
   -7.6565   -5.5013    7.8473 C   0  0  0  0  0  0  0  0  0  0  0  0
   -7.7229   -5.8320    6.4367 N   0  0  0  0  0  0  0  0  0  0  0  0
   -6.6154   -6.4729    5.7595 C   0  0  0  0  0  0  0  0  0  0  0  0
   -6.4004   -6.0063    4.5830 O   0  0  0  0  0  0  0  0  0  0  0  0
   -5.7908   -7.5176    6.2697 C   0  0  0  0  0  0  0  0  0  0  0  0
   -4.3169   -7.1780    5.8863 C   0  0  0  0  0  0  0  0  0  0  0  0
   -3.5401   -8.4321    6.1446 C   0  0  0  0  0  0  0  0  0  0  0  0
   -4.6244   -9.3544    6.6304 C   0  0  0  0  0  0  0  0  0  0  0  0
   -5.8390   -8.8690    5.8715 N   0  0  0  0  0  0  0  0  0  0  0  0
   -6.6658   -9.6450    5.0589 C   0  0  0  0  0  0  0  0  0  0  0  0
   -6.4451  -10.9204    5.0452 O   0  0  0  0  0  0  0  0  0  0  0  0
   -7.7874   -9.2503    4.1816 C   0  0  0  0  0  0  0  0  0  0  0  0
   -8.9459  -10.0963    4.2386 N   0  0  0  0  0  0  0  0  0  0  0  0
   -9.4241  -11.0452    5.1067 C   0  0  0  0  0  0  0  0  0  0  0  0
   -9.8350  -12.1437    4.5759 O   0  0  0  0  0  0  0  0  0  0  0  0
   -9.9831   -9.0666    7.2372 H   0  0  0  0  0  0  0  0  0  0  0  0
  -15.1086   -9.5525    6.5233 H   0  0  0  0  0  0  0  0  0  0  0  0
  -13.9484   -6.8380   10.0160 H   0  0  0  0  0  0  0  0  0  0  0  0
   -9.8062   -4.6031   10.1930 H   0  0  0  0  0  0  0  0  0  0  0  0
   -8.5475   -5.6354    5.8325 H   0  0  0  0  0  0  0  0  0  0  0  0
   -9.5816   -9.9217    3.3760 H   0  0  0  0  0  0  0  0  0  0  0  0
   -9.0791  -13.4879    6.5171 C   0  0  0  0  0  0  0  0  0  0  0  0
   -9.6836  -12.3275    7.2554 C   0  0  0  0  0  0  0  0  0  0  0  0
  -11.0525  -12.7698    7.6547 C   0  0  0  0  0  0  0  0  0  0  0  0
  -12.8240   -9.6704    4.8954 C   0  0  0  0  0  0  0  0  0  0  0  0
  -14.0896   -9.1933    4.2162 C   0  0  0  0  0  0  0  0  0  0  0  0
  -15.2789   -9.8633    4.3895 C   0  0  0  0  0  0  0  0  0  0  0  0
  -16.4269   -9.4446    3.7544 C   0  0  0  0  0  0  0  0  0  0  0  0
  -16.4235   -8.3315    2.9169 C   0  0  0  0  0  0  0  0  0  0  0  0
  -15.2020   -7.6804    2.7674 C   0  0  0  0  0  0  0  0  0  0  0  0
  -14.0686   -8.0997    3.3991 C   0  0  0  0  0  0  0  0  0  0  0  0
  -14.3457   -5.8962    7.3673 C   0  0  0  0  0  0  0  0  0  0  0  0
  -15.6028   -6.2539    6.7488 C   0  0  0  0  0  0  0  0  0  0  0  0
  -16.4363   -7.2510    7.2513 C   0  0  0  0  0  0  0  0  0  0  0  0
  -17.4812   -7.3356    6.4222 N   0  0  0  0  0  0  0  0  0  0  0  0
  -17.3734   -6.4495    5.4111 C   0  0  0  0  0  0  0  0  0  0  0  0
  -18.2012   -6.1561    4.3293 C   0  0  0  0  0  0  0  0  0  0  0  0
  -17.8721   -5.1737    3.4238 C   0  0  0  0  0  0  0  0  0  0  0  0
  -16.6965   -4.4834    3.6156 C   0  0  0  0  0  0  0  0  0  0  0  0
  -15.8944   -4.7856    4.6838 C   0  0  0  0  0  0  0  0  0  0  0  0
  -16.1900   -5.7613    5.6083 C   0  0  0  0  0  0  0  0  0  0  0  0
  -18.3189   -7.9789    6.4783 H   0  0  0  0  0  0  0  0  0  0  0  0
  -10.2910   -7.1754   10.8453 C   0  0  0  0  0  0  0  0  0  0  0  0
   -9.9557   -6.3578   11.9924 C   0  0  0  0  0  0  0  0  0  0  0  0
  -10.8569   -5.7568   12.8534 C   0  0  0  0  0  0  0  0  0  0  0  0
  -10.1613   -5.1155   13.8318 N   0  0  0  0  0  0  0  0  0  0  0  0
   -8.8368   -5.2854   13.6261 C   0  0  0  0  0  0  0  0  0  0  0  0
   -7.7585   -4.8164   14.3370 C   0  0  0  0  0  0  0  0  0  0  0  0
   -6.4928   -5.1198   13.8999 C   0  0  0  0  0  0  0  0  0  0  0  0
   -6.3227   -5.8814   12.7681 C   0  0  0  0  0  0  0  0  0  0  0  0
   -7.4127   -6.3324   12.0850 C   0  0  0  0  0  0  0  0  0  0  0  0
   -8.7102   -6.0574   12.4811 C   0  0  0  0  0  0  0  0  0  0  0  0
  -10.6009   -4.5785   14.6189 H   0  0  0  0  0  0  0  0  0  0  0  0
   -6.4925   -4.6333    8.2214 C   0  0  0  0  0  0  0  0  0  0  0  0
   -5.2221   -5.2784    8.4993 C   0  0  0  0  0  0  0  0  0  0  0  0
   -4.0212   -4.7283    8.0456 C   0  0  0  0  0  0  0  0  0  0  0  0
   -2.7989   -5.3299    8.3166 C   0  0  0  0  0  0  0  0  0  0  0  0
   -2.7584   -6.4972    9.0503 C   0  0  0  0  0  0  0  0  0  0  0  0
   -3.9123   -7.0599    9.5083 C   0  0  0  0  0  0  0  0  0  0  0  0
   -5.1250   -6.4305    9.2194 C   0  0  0  0  0  0  0  0  0  0  0  0
   -7.3080   -9.0254    2.7504 C   0  0  0  0  0  0  0  0  0  0  0  0
   -7.3804  -10.2053    1.9099 C   0  0  0  0  0  0  0  0  0  0  0  0
   -8.1538  -11.2867    2.2321 C   0  0  0  0  0  0  0  0  0  0  0  0
   -8.2166  -12.4005    1.3929 C   0  0  0  0  0  0  0  0  0  0  0  0
   -7.4837  -12.4124    0.2146 C   0  0  0  0  0  0  0  0  0  0  0  0
   -6.7000  -11.3264   -0.1194 C   0  0  0  0  0  0  0  0  0  0  0  0
   -6.6679  -10.2581    0.7295 C   0  0  0  0  0  0  0  0  0  0  0  0
 38 39  1  0  0  0
 39 40  1  0  0  0
 39  1  1  0  0  0
  1  2  1  0  0  0
  2  3  1  0  0  0
  3  4  2  0  0  0
  3  5  1  0  0  0
  5 41  1  0  0  0
 41 42  1  0  0  0
 42 43  2  0  0  0
 43 44  1  0  0  0
 44 45  2  0  0  0
 45 46  1  0  0  0
 46 47  2  0  0  0
  5  6  1  0  0  0
  6  7  1  0  0  0
  7  8  2  0  0  0
  7  9  1  0  0  0
  9 48  1  0  0  0
 48 49  1  0  0  0
 49 50  2  0  0  0
 50 51  1  0  0  0
 51 52  1  0  0  0
 52 53  2  0  0  0
 53 54  1  0  0  0
 54 55  2  0  0  0
 55 56  1  0  0  0
 56 57  2  0  0  0
  9 10  1  0  0  0
 10 11  1  0  0  0
 11 12  2  0  0  0
 11 13  1  0  0  0
 13 59  1  0  0  0
 59 60  1  0  0  0
 60 61  2  0  0  0
 61 62  1  0  0  0
 62 63  1  0  0  0
 63 64  2  0  0  0
 64 65  1  0  0  0
 65 66  2  0  0  0
 66 67  1  0  0  0
 67 68  2  0  0  0
 13 14  1  0  0  0
 14 15  1  0  0  0
 15 16  2  0  0  0
 15 17  1  0  0  0
 17 70  1  0  0  0
 70 71  1  0  0  0
 71 72  2  0  0  0
 72 73  1  0  0  0
 73 74  2  0  0  0
 74 75  1  0  0  0
 75 76  2  0  0  0
 17 18  1  0  0  0
 18 19  1  0  0  0
 19 20  2  0  0  0
 19 21  1  0  0  0
 21 22  1  0  0  0
 22 23  1  0  0  0
 23 24  1  0  0  0
 24 25  1  0  0  0
 25 26  1  0  0  0
 26 27  2  0  0  0
 26 28  1  0  0  0
 28 77  1  0  0  0
 77 78  1  0  0  0
 78 79  2  0  0  0
 79 80  1  0  0  0
 80 81  2  0  0  0
 81 82  1  0  0  0
 82 83  2  0  0  0
 28 29  1  0  0  0
 29 30  1  0  0  0
 30 31  2  0  0  0
 30  1  1  0  0  0
 47 42  1  0  0  0
 57 49  1  0  0  0
 68 60  1  0  0  0
 76 71  1  0  0  0
 25 21  1  0  0  0
 83 78  1  0  0  0
 57 52  1  0  0  0
 68 63  1  0  0  0
  2 32  1  0  0  0
  6 33  1  0  0  0
 51 58  1  0  0  0
 10 34  1  0  0  0
 62 69  1  0  0  0
 14 35  1  0  0  0
 18 36  1  0  0  0
 29 37  1  0  0  0
M  END
> <minimizedAffinity>
59.52647

> <CNNscore>
0.1669208258

> <CNNaffinity>
7.3747396469

> <CNN_VS>
1.2309976816

> <CNNaffinity_variance>
3.9909529686

$$$$
[H]c1c([H])c([H])c(C([H])([H])[C@@]2([H])C(=O)N([H])[C@@]([H])(C([H])([H])c3c([H])n([H])c4c([H])c([H])c([H])c([H])c34)C(=O)N([H])[C@]([H])(C([H])([H])c3c([H])n([H])c4c([H])c([H])c([H])c([H])c34)C(=O)N([H])[C@@]([H])(C([H])([H])c3c([H])c([H])c([H])c([H])c3[H])C(=O)N([H])[C@@]([H])(C([H])(C([H])([H])[H])C([H])([H])[H])C(=O)N([H])[C@]([H])(C([H])([H])c3c([H])c([H])c([H])c([H])c3[H])C(=O)N3C([H])([H])C([H])([H])C([H])([H])[C@@]3([H])C(=O)N2[H])c([H])c1[H]


 83 91  0  0  0  0  0  0  0  0999 V2000
   -8.1924   -6.0550    7.1812 C   0  0  0  0  0  0  0  0  0  0  0  0
   -6.8337   -6.2833    7.6455 N   0  0  0  0  0  0  0  0  0  0  0  0
   -5.6637   -6.7102    7.0730 C   0  0  0  0  0  0  0  0  0  0  0  0
   -4.7408   -5.7925    6.9244 O   0  0  0  0  0  0  0  0  0  0  0  0
   -5.1547   -8.0014    6.5614 C   0  0  0  0  0  0  0  0  0  0  0  0
   -3.7035   -8.0843    6.6772 N   0  0  0  0  0  0  0  0  0  0  0  0
   -2.8385   -7.3905    7.5069 C   0  0  0  0  0  0  0  0  0  0  0  0
   -1.9020   -6.6965    6.9596 O   0  0  0  0  0  0  0  0  0  0  0  0
   -2.8169   -7.3146    8.9826 C   0  0  0  0  0  0  0  0  0  0  0  0
   -2.2757   -6.0417    9.4392 N   0  0  0  0  0  0  0  0  0  0  0  0
   -2.7243   -5.2673   10.5101 C   0  0  0  0  0  0  0  0  0  0  0  0
   -1.9145   -4.9428   11.4117 O   0  0  0  0  0  0  0  0  0  0  0  0
   -4.1312   -4.7508   10.7177 C   0  0  0  0  0  0  0  0  0  0  0  0
   -4.3927   -4.7756   12.1241 N   0  0  0  0  0  0  0  0  0  0  0  0
   -5.3969   -5.4518   12.8485 C   0  0  0  0  0  0  0  0  0  0  0  0
   -5.0343   -6.4722   13.5604 O   0  0  0  0  0  0  0  0  0  0  0  0
   -6.8409   -5.1674   12.9248 C   0  0  0  0  0  0  0  0  0  0  0  0
   -7.5877   -6.3776   12.6395 N   0  0  0  0  0  0  0  0  0  0  0  0
   -9.0343   -6.3751   12.5823 C   0  0  0  0  0  0  0  0  0  0  0  0
   -9.5664   -7.4077   13.1289 O   0  0  0  0  0  0  0  0  0  0  0  0
   -9.8649   -5.3717   12.0037 C   0  0  0  0  0  0  0  0  0  0  0  0
  -11.0607   -5.1368   12.9784 C   0  0  0  0  0  0  0  0  0  0  0  0
  -12.0578   -4.3366   12.1985 C   0  0  0  0  0  0  0  0  0  0  0  0
  -11.3561   -4.2028   10.8747 C   0  0  0  0  0  0  0  0  0  0  0  0
  -10.5652   -5.4886   10.7859 N   0  0  0  0  0  0  0  0  0  0  0  0
  -10.6168   -6.4160    9.7451 C   0  0  0  0  0  0  0  0  0  0  0  0
  -11.3155   -6.0920    8.7047 O   0  0  0  0  0  0  0  0  0  0  0  0
   -9.9913   -7.7490    9.6202 C   0  0  0  0  0  0  0  0  0  0  0  0
   -9.4024   -8.0397    8.3435 N   0  0  0  0  0  0  0  0  0  0  0  0
   -9.0060   -7.3019    7.2567 C   0  0  0  0  0  0  0  0  0  0  0  0
   -9.3818   -7.7403    6.1062 O   0  0  0  0  0  0  0  0  0  0  0  0
   -6.7596   -6.0382    8.7139 H   0  0  0  0  0  0  0  0  0  0  0  0
   -3.2824   -8.7914    6.0036 H   0  0  0  0  0  0  0  0  0  0  0  0
   -1.4404   -5.7224    8.8499 H   0  0  0  0  0  0  0  0  0  0  0  0
   -3.6885   -4.1977   12.6977 H   0  0  0  0  0  0  0  0  0  0  0  0
   -7.1467   -7.3039   12.4629 H   0  0  0  0  0  0  0  0  0  0  0  0
   -9.2399   -9.1081    8.2393 H   0  0  0  0  0  0  0  0  0  0  0  0
   -9.6994   -5.1866    5.3606 C   0  0  0  0  0  0  0  0  0  0  0  0
   -8.3137   -5.2774    5.9337 C   0  0  0  0  0  0  0  0  0  0  0  0
   -7.4275   -5.6564    4.7936 C   0  0  0  0  0  0  0  0  0  0  0  0
   -5.8847   -9.2172    6.9680 C   0  0  0  0  0  0  0  0  0  0  0  0
   -6.8569   -9.6670    5.8989 C   0  0  0  0  0  0  0  0  0  0  0  0
   -6.6373   -9.3668    4.5740 C   0  0  0  0  0  0  0  0  0  0  0  0
   -7.5321   -9.7552    3.6020 C   0  0  0  0  0  0  0  0  0  0  0  0
   -8.6872  -10.4634    3.9255 C   0  0  0  0  0  0  0  0  0  0  0  0
   -8.8737  -10.7483    5.2754 C   0  0  0  0  0  0  0  0  0  0  0  0
   -7.9839  -10.3612    6.2335 C   0  0  0  0  0  0  0  0  0  0  0  0
   -1.9928   -8.4075    9.5886 C   0  0  0  0  0  0  0  0  0  0  0  0
   -1.6377   -9.5465    8.7718 C   0  0  0  0  0  0  0  0  0  0  0  0
   -1.3228   -9.4382    7.4188 C   0  0  0  0  0  0  0  0  0  0  0  0
   -1.0807  -10.6765    6.9779 N   0  0  0  0  0  0  0  0  0  0  0  0
   -1.2196  -11.5817    7.9680 C   0  0  0  0  0  0  0  0  0  0  0  0
   -1.0613  -12.9657    8.0021 C   0  0  0  0  0  0  0  0  0  0  0  0
   -1.2472  -13.6775    9.1649 C   0  0  0  0  0  0  0  0  0  0  0  0
   -1.5954  -12.9826   10.3012 C   0  0  0  0  0  0  0  0  0  0  0  0
   -1.7477  -11.6225   10.2493 C   0  0  0  0  0  0  0  0  0  0  0  0
   -1.5714  -10.8778    9.1055 C   0  0  0  0  0  0  0  0  0  0  0  0
   -0.8111  -10.9904    6.0045 H   0  0  0  0  0  0  0  0  0  0  0  0
   -4.0497   -3.3466   10.1635 C   0  0  0  0  0  0  0  0  0  0  0  0
   -3.3828   -3.1858    8.8884 C   0  0  0  0  0  0  0  0  0  0  0  0
   -3.4171   -4.0820    7.8346 C   0  0  0  0  0  0  0  0  0  0  0  0
   -2.7111   -3.5578    6.7956 N   0  0  0  0  0  0  0  0  0  0  0  0
   -2.2220   -2.3491    7.1495 C   0  0  0  0  0  0  0  0  0  0  0  0
   -1.4462   -1.4616    6.4435 C   0  0  0  0  0  0  0  0  0  0  0  0
   -1.0602   -0.2908    7.0479 C   0  0  0  0  0  0  0  0  0  0  0  0
   -1.4512   -0.0245    8.3386 C   0  0  0  0  0  0  0  0  0  0  0  0
   -2.2215   -0.9248    9.0125 C   0  0  0  0  0  0  0  0  0  0  0  0
   -2.6397   -2.1193    8.4518 C   0  0  0  0  0  0  0  0  0  0  0  0
   -2.5787   -4.0311    5.8685 H   0  0  0  0  0  0  0  0  0  0  0  0
   -7.2222   -4.4983   14.2112 C   0  0  0  0  0  0  0  0  0  0  0  0
   -6.4685   -3.3271   14.6206 C   0  0  0  0  0  0  0  0  0  0  0  0
   -5.0719   -3.3374   14.6307 C   0  0  0  0  0  0  0  0  0  0  0  0
   -4.3404   -2.2185   15.0082 C   0  0  0  0  0  0  0  0  0  0  0  0
   -4.9979   -1.0654   15.3829 C   0  0  0  0  0  0  0  0  0  0  0  0
   -6.3603   -1.0220   15.3836 C   0  0  0  0  0  0  0  0  0  0  0  0
   -7.0669   -2.1634   14.9985 C   0  0  0  0  0  0  0  0  0  0  0  0
  -10.9486   -8.8462   10.0765 C   0  0  0  0  0  0  0  0  0  0  0  0
  -12.2056   -8.8732    9.3532 C   0  0  0  0  0  0  0  0  0  0  0  0
  -12.3672   -9.5806    8.1935 C   0  0  0  0  0  0  0  0  0  0  0  0
  -13.5952   -9.6015    7.5300 C   0  0  0  0  0  0  0  0  0  0  0  0
  -14.6684   -8.8941    8.0532 C   0  0  0  0  0  0  0  0  0  0  0  0
  -14.5156   -8.1769    9.2224 C   0  0  0  0  0  0  0  0  0  0  0  0
  -13.2977   -8.1840    9.8389 C   0  0  0  0  0  0  0  0  0  0  0  0
 38 39  1  0  0  0
 39 40  1  0  0  0
 39  1  1  0  0  0
  1  2  1  0  0  0
  2  3  1  0  0  0
  3  4  2  0  0  0
  3  5  1  0  0  0
  5 41  1  0  0  0
 41 42  1  0  0  0
 42 43  2  0  0  0
 43 44  1  0  0  0
 44 45  2  0  0  0
 45 46  1  0  0  0
 46 47  2  0  0  0
  5  6  1  0  0  0
  6  7  1  0  0  0
  7  8  2  0  0  0
  7  9  1  0  0  0
  9 48  1  0  0  0
 48 49  1  0  0  0
 49 50  2  0  0  0
 50 51  1  0  0  0
 51 52  1  0  0  0
 52 53  2  0  0  0
 53 54  1  0  0  0
 54 55  2  0  0  0
 55 56  1  0  0  0
 56 57  2  0  0  0
  9 10  1  0  0  0
 10 11  1  0  0  0
 11 12  2  0  0  0
 11 13  1  0  0  0
 13 59  1  0  0  0
 59 60  1  0  0  0
 60 61  2  0  0  0
 61 62  1  0  0  0
 62 63  1  0  0  0
 63 64  2  0  0  0
 64 65  1  0  0  0
 65 66  2  0  0  0
 66 67  1  0  0  0
 67 68  2  0  0  0
 13 14  1  0  0  0
 14 15  1  0  0  0
 15 16  2  0  0  0
 15 17  1  0  0  0
 17 70  1  0  0  0
 70 71  1  0  0  0
 71 72  2  0  0  0
 72 73  1  0  0  0
 73 74  2  0  0  0
 74 75  1  0  0  0
 75 76  2  0  0  0
 17 18  1  0  0  0
 18 19  1  0  0  0
 19 20  2  0  0  0
 19 21  1  0  0  0
 21 22  1  0  0  0
 22 23  1  0  0  0
 23 24  1  0  0  0
 24 25  1  0  0  0
 25 26  1  0  0  0
 26 27  2  0  0  0
 26 28  1  0  0  0
 28 77  1  0  0  0
 77 78  1  0  0  0
 78 79  2  0  0  0
 79 80  1  0  0  0
 80 81  2  0  0  0
 81 82  1  0  0  0
 82 83  2  0  0  0
 28 29  1  0  0  0
 29 30  1  0  0  0
 30 31  2  0  0  0
 30  1  1  0  0  0
 47 42  1  0  0  0
 57 49  1  0  0  0
 68 60  1  0  0  0
 76 71  1  0  0  0
 25 21  1  0  0  0
 83 78  1  0  0  0
 57 52  1  0  0  0
 68 63  1  0  0  0
  2 32  1  0  0  0
  6 33  1  0  0  0
 51 58  1  0  0  0
 10 34  1  0  0  0
 62 69  1  0  0  0
 14 35  1  0  0  0
 18 36  1  0  0  0
 29 37  1  0  0  0
M  END
> <minimizedAffinity>
28.26087

> <CNNscore>
0.1655531973

> <CNNaffinity>
7.5546073914

> <CNN_VS>
1.2506893873

> <CNNaffinity_variance>
0.5564952493

$$$$
[H]c1nc(C([H])([H])[H])oc1-c1c(N([H])[H])nc([H])c(-c2c([H])c(S(=O)(=O)N([H])C([H])([H])C3([H])C([H])([H])C3([H])[H])c([H])c([H])c2C([H])([H])[H])c1[H]


 31 34  0  0  0  0  0  0  0  0999 V2000
  -12.9618   -8.3219    6.2750 C   0  0  0  0  0  0  0  0  0  0  0  0
  -13.9862   -7.4740    5.8399 C   0  0  0  0  0  0  0  0  0  0  0  0
  -14.8531   -7.8513    4.8305 C   0  0  0  0  0  0  0  0  0  0  0  0
  -14.6626   -9.0967    4.2742 C   0  0  0  0  0  0  0  0  0  0  0  0
  -13.6566   -9.9532    4.6879 C   0  0  0  0  0  0  0  0  0  0  0  0
  -12.7904   -9.5446    5.7155 C   0  0  0  0  0  0  0  0  0  0  0  0
  -11.7305  -10.4608    6.1756 C   0  0  0  0  0  0  0  0  0  0  0  0
  -11.8292   -6.3647    9.2154 C   0  0  0  0  0  0  0  0  0  0  0  0
  -12.5950   -6.8866    8.2024 C   0  0  0  0  0  0  0  0  0  0  0  0
  -12.0952   -7.8276    7.3200 C   0  0  0  0  0  0  0  0  0  0  0  0
  -10.7865   -8.2589    7.4585 C   0  0  0  0  0  0  0  0  0  0  0  0
  -10.0558   -7.7437    8.4462 N   0  0  0  0  0  0  0  0  0  0  0  0
  -10.5334   -6.8166    9.3224 C   0  0  0  0  0  0  0  0  0  0  0  0
   -9.7276   -6.2876   10.3641 N   0  0  0  0  0  0  0  0  0  0  0  0
   -9.4312   -5.2960   10.3637 H   0  0  0  0  0  0  0  0  0  0  0  0
   -9.4160   -6.8842   11.1527 H   0  0  0  0  0  0  0  0  0  0  0  0
  -14.6362   -4.2730   12.7360 C   0  0  0  0  0  0  0  0  0  0  0  0
  -13.6166   -4.4823   11.6604 C   0  0  0  0  0  0  0  0  0  0  0  0
  -12.8071   -3.4917   11.2335 N   0  0  0  0  0  0  0  0  0  0  0  0
  -12.0418   -4.0493   10.2783 C   0  0  0  0  0  0  0  0  0  0  0  0
  -12.3869   -5.3746   10.1271 C   0  0  0  0  0  0  0  0  0  0  0  0
  -13.3524   -5.5821   10.9959 O   0  0  0  0  0  0  0  0  0  0  0  0
  -16.1416   -6.8029    4.2729 S   0  0  0  0  0  0  0  0  0  0  0  0
  -16.4377   -5.7206    5.2934 O   0  0  0  0  0  0  0  0  0  0  0  0
  -15.7777   -6.0973    3.0009 O   0  0  0  0  0  0  0  0  0  0  0  0
  -17.5734   -7.7063    4.0448 N   0  0  0  0  0  0  0  0  0  0  0  0
  -17.6180   -8.5625    4.6242 H   0  0  0  0  0  0  0  0  0  0  0  0
  -18.7482   -6.9224    4.3443 C   0  0  0  0  0  0  0  0  0  0  0  0
  -18.5014   -5.4735    3.9788 C   0  0  0  0  0  0  0  0  0  0  0  0
  -19.6951   -4.5589    4.1764 C   0  0  0  0  0  0  0  0  0  0  0  0
  -18.4333   -4.4150    4.9886 C   0  0  0  0  0  0  0  0  0  0  0  0
 17 18  1  0  0  0
 18 19  2  0  0  0
 19 20  1  0  0  0
 20 21  2  0  0  0
 21 22  1  0  0  0
 21  8  1  0  0  0
  8  9  2  0  0  0
  9 10  1  0  0  0
 10 11  2  0  0  0
 11 12  1  0  0  0
 12 13  2  0  0  0
 13 14  1  0  0  0
 10  1  1  0  0  0
  1  2  2  0  0  0
  2  3  1  0  0  0
  3  4  2  0  0  0
  4  5  1  0  0  0
  5  6  2  0  0  0
  6  7  1  0  0  0
  3 23  1  0  0  0
 23 24  2  0  0  0
 23 25  2  0  0  0
 23 26  1  0  0  0
 26 28  1  0  0  0
 28 29  1  0  0  0
 29 30  1  0  0  0
 30 31  1  0  0  0
 22 18  1  0  0  0
 13  8  1  0  0  0
  6  1  1  0  0  0
 31 29  1  0  0  0
 14 15  1  0  0  0
 14 16  1  0  0  0
 26 27  1  0  0  0
M  END
> <minimizedAffinity>
6.19390

> <CNNscore>
0.4308807254

> <CNNaffinity>
6.8495817184

> <CNN_VS>
2.9513528347

> <CNNaffinity_variance>
1.0166862011

$$$$
[H]c1nc(C([H])([H])[H])oc1-c1c(N([H])[H])nc([H])c(-c2c([H])c(S(=O)(=O)N([H])C([H])([H])C3([H])C([H])([H])C3([H])[H])c([H])c([H])c2C([H])([H])[H])c1[H]


 31 34  0  0  0  0  0  0  0  0999 V2000
  -14.3883   -8.8554    4.4353 C   0  0  0  0  0  0  0  0  0  0  0  0
  -13.5551   -9.2232    3.3732 C   0  0  0  0  0  0  0  0  0  0  0  0
  -13.9646   -9.0935    2.0586 C   0  0  0  0  0  0  0  0  0  0  0  0
  -15.2271   -8.5871    1.8429 C   0  0  0  0  0  0  0  0  0  0  0  0
  -16.0694   -8.2160    2.8771 C   0  0  0  0  0  0  0  0  0  0  0  0
  -15.6277   -8.3581    4.2030 C   0  0  0  0  0  0  0  0  0  0  0  0
  -16.5117   -7.9445    5.3084 C   0  0  0  0  0  0  0  0  0  0  0  0
  -11.9473   -9.2690    7.1976 C   0  0  0  0  0  0  0  0  0  0  0  0
  -12.5068   -9.0805    5.9580 C   0  0  0  0  0  0  0  0  0  0  0  0
  -13.8774   -9.0496    5.7727 C   0  0  0  0  0  0  0  0  0  0  0  0
  -14.7128   -9.2124    6.8651 C   0  0  0  0  0  0  0  0  0  0  0  0
  -14.1555   -9.3942    8.0614 N   0  0  0  0  0  0  0  0  0  0  0  0
  -12.8083   -9.4273    8.2598 C   0  0  0  0  0  0  0  0  0  0  0  0
  -12.2470   -9.6232    9.5485 N   0  0  0  0  0  0  0  0  0  0  0  0
  -11.7257  -10.4862    9.7822 H   0  0  0  0  0  0  0  0  0  0  0  0
  -12.3464   -8.9040   10.2885 H   0  0  0  0  0  0  0  0  0  0  0  0
   -7.3316   -7.9372    8.4506 C   0  0  0  0  0  0  0  0  0  0  0  0
   -8.4996   -8.7010    7.9099 C   0  0  0  0  0  0  0  0  0  0  0  0
   -8.3586   -9.8960    7.3008 N   0  0  0  0  0  0  0  0  0  0  0  0
   -9.6053  -10.2656    6.9572 C   0  0  0  0  0  0  0  0  0  0  0  0
  -10.4995   -9.2967    7.3573 C   0  0  0  0  0  0  0  0  0  0  0  0
   -9.7680   -8.3669    7.9324 O   0  0  0  0  0  0  0  0  0  0  0  0
  -12.9349   -9.5486    0.7159 S   0  0  0  0  0  0  0  0  0  0  0  0
  -13.5986  -10.6118   -0.1382 O   0  0  0  0  0  0  0  0  0  0  0  0
  -12.6555   -8.3890   -0.1928 O   0  0  0  0  0  0  0  0  0  0  0  0
  -11.4650  -10.1947    1.2989 N   0  0  0  0  0  0  0  0  0  0  0  0
  -11.5931  -10.9491    1.9955 H   0  0  0  0  0  0  0  0  0  0  0  0
  -10.6595  -10.7307    0.2273 C   0  0  0  0  0  0  0  0  0  0  0  0
   -9.6765  -11.7398    0.7834 C   0  0  0  0  0  0  0  0  0  0  0  0
   -8.2775  -11.6453    0.2054 C   0  0  0  0  0  0  0  0  0  0  0  0
   -8.5665  -11.3489    1.6549 C   0  0  0  0  0  0  0  0  0  0  0  0
 17 18  1  0  0  0
 18 19  2  0  0  0
 19 20  1  0  0  0
 20 21  2  0  0  0
 21 22  1  0  0  0
 21  8  1  0  0  0
  8  9  2  0  0  0
  9 10  1  0  0  0
 10 11  2  0  0  0
 11 12  1  0  0  0
 12 13  2  0  0  0
 13 14  1  0  0  0
 10  1  1  0  0  0
  1  2  2  0  0  0
  2  3  1  0  0  0
  3  4  2  0  0  0
  4  5  1  0  0  0
  5  6  2  0  0  0
  6  7  1  0  0  0
  3 23  1  0  0  0
 23 24  2  0  0  0
 23 25  2  0  0  0
 23 26  1  0  0  0
 26 28  1  0  0  0
 28 29  1  0  0  0
 29 30  1  0  0  0
 30 31  1  0  0  0
 22 18  1  0  0  0
 13  8  1  0  0  0
  6  1  1  0  0  0
 31 29  1  0  0  0
 14 15  1  0  0  0
 14 16  1  0  0  0
 26 27  1  0  0  0
M  END
> <minimizedAffinity>
21.17602

> <CNNscore>
0.4053972960

> <CNNaffinity>
6.4571824074

> <CNN_VS>
2.6177241802

> <CNNaffinity_variance>
0.5610805750

$$$$
[H]c1nc(C([H])([H])[H])oc1-c1c(N([H])[H])nc([H])c(-c2c([H])c(S(=O)(=O)N([H])C([H])([H])C3([H])C([H])([H])C3([H])[H])c([H])c([H])c2C([H])([H])[H])c1[H]


 31 34  0  0  0  0  0  0  0  0999 V2000
   -8.9976   -7.6089    7.2788 C   0  0  0  0  0  0  0  0  0  0  0  0
   -8.0122   -6.8349    6.6562 C   0  0  0  0  0  0  0  0  0  0  0  0
   -6.6670   -7.1005    6.8371 C   0  0  0  0  0  0  0  0  0  0  0  0
   -6.3421   -8.1590    7.6561 C   0  0  0  0  0  0  0  0  0  0  0  0
   -7.2990   -8.9393    8.2825 C   0  0  0  0  0  0  0  0  0  0  0  0
   -8.6582   -8.6474    8.0810 C   0  0  0  0  0  0  0  0  0  0  0  0
   -9.6824   -9.4880    8.7281 C   0  0  0  0  0  0  0  0  0  0  0  0
  -12.6695   -7.3941    7.7586 C   0  0  0  0  0  0  0  0  0  0  0  0
  -11.3404   -7.6981    7.9209 C   0  0  0  0  0  0  0  0  0  0  0  0
  -10.3741   -7.2378    7.0444 C   0  0  0  0  0  0  0  0  0  0  0  0
  -10.7527   -6.4476    5.9720 C   0  0  0  0  0  0  0  0  0  0  0  0
  -12.0457   -6.1610    5.8277 N   0  0  0  0  0  0  0  0  0  0  0  0
  -13.0087   -6.6068    6.6817 C   0  0  0  0  0  0  0  0  0  0  0  0
  -14.3783   -6.2828    6.4989 N   0  0  0  0  0  0  0  0  0  0  0  0
  -15.0732   -7.0074    6.2473 H   0  0  0  0  0  0  0  0  0  0  0  0
  -14.7160   -5.3093    6.6134 H   0  0  0  0  0  0  0  0  0  0  0  0
  -16.8464   -9.3678    9.5770 C   0  0  0  0  0  0  0  0  0  0  0  0
  -15.4845   -8.7558    9.4726 C   0  0  0  0  0  0  0  0  0  0  0  0
  -14.7295   -8.4906   10.5581 N   0  0  0  0  0  0  0  0  0  0  0  0
  -13.5942   -7.9549   10.0751 C   0  0  0  0  0  0  0  0  0  0  0  0
  -13.6615   -7.8959    8.7002 C   0  0  0  0  0  0  0  0  0  0  0  0
  -14.8368   -8.3981    8.3894 O   0  0  0  0  0  0  0  0  0  0  0  0
   -5.4193   -6.1422    6.0655 S   0  0  0  0  0  0  0  0  0  0  0  0
   -4.2475   -7.0121    5.6524 O   0  0  0  0  0  0  0  0  0  0  0  0
   -5.9159   -5.4794    4.8155 O   0  0  0  0  0  0  0  0  0  0  0  0
   -4.8318   -4.9626    7.1524 N   0  0  0  0  0  0  0  0  0  0  0  0
   -4.7191   -5.3121    8.1197 H   0  0  0  0  0  0  0  0  0  0  0  0
   -3.5523   -4.4436    6.7305 C   0  0  0  0  0  0  0  0  0  0  0  0
   -3.7284   -3.0498    6.1647 C   0  0  0  0  0  0  0  0  0  0  0  0
   -2.4943   -2.1723    6.2484 C   0  0  0  0  0  0  0  0  0  0  0  0
   -3.0698   -2.6206    4.9292 C   0  0  0  0  0  0  0  0  0  0  0  0
 17 18  1  0  0  0
 18 19  2  0  0  0
 19 20  1  0  0  0
 20 21  2  0  0  0
 21 22  1  0  0  0
 21  8  1  0  0  0
  8  9  2  0  0  0
  9 10  1  0  0  0
 10 11  2  0  0  0
 11 12  1  0  0  0
 12 13  2  0  0  0
 13 14  1  0  0  0
 10  1  1  0  0  0
  1  2  2  0  0  0
  2  3  1  0  0  0
  3  4  2  0  0  0
  4  5  1  0  0  0
  5  6  2  0  0  0
  6  7  1  0  0  0
  3 23  1  0  0  0
 23 24  2  0  0  0
 23 25  2  0  0  0
 23 26  1  0  0  0
 26 28  1  0  0  0
 28 29  1  0  0  0
 29 30  1  0  0  0
 30 31  1  0  0  0
 22 18  1  0  0  0
 13  8  1  0  0  0
  6  1  1  0  0  0
 31 29  1  0  0  0
 14 15  1  0  0  0
 14 16  1  0  0  0
 26 27  1  0  0  0
M  END
> <minimizedAffinity>
8.01780

> <CNNscore>
0.4003798962

> <CNNaffinity>
6.3679175377

> <CNN_VS>
2.5495860577

> <CNNaffinity_variance>
0.9706389308

$$$$
[H]c1nc(C([H])([H])[H])oc1-c1c(N([H])[H])nc([H])c(-c2c([H])c(S(=O)(=O)N([H])C([H])([H])C3([H])C([H])([H])C3([H])[H])c([H])c([H])c2C([H])([H])[H])c1[H]


 31 34  0  0  0  0  0  0  0  0999 V2000
  -14.5968   -7.1549    5.7880 C   0  0  0  0  0  0  0  0  0  0  0  0
  -14.2459   -8.3046    6.5040 C   0  0  0  0  0  0  0  0  0  0  0  0
  -13.0104   -8.4236    7.1141 C   0  0  0  0  0  0  0  0  0  0  0  0
  -12.1431   -7.3616    6.9850 C   0  0  0  0  0  0  0  0  0  0  0  0
  -12.4678   -6.2138    6.2822 C   0  0  0  0  0  0  0  0  0  0  0  0
  -13.7298   -6.1193    5.6726 C   0  0  0  0  0  0  0  0  0  0  0  0
  -14.0899   -4.8908    4.9408 C   0  0  0  0  0  0  0  0  0  0  0  0
  -17.9441   -5.9210    4.7716 C   0  0  0  0  0  0  0  0  0  0  0  0
  -16.6900   -6.0093    5.3235 C   0  0  0  0  0  0  0  0  0  0  0  0
  -15.9021   -7.1359    5.1688 C   0  0  0  0  0  0  0  0  0  0  0  0
  -16.3871   -8.2070    4.4373 C   0  0  0  0  0  0  0  0  0  0  0  0
  -17.6055   -8.1067    3.9078 N   0  0  0  0  0  0  0  0  0  0  0  0
  -18.3931   -7.0047    4.0515 C   0  0  0  0  0  0  0  0  0  0  0  0
  -19.6874   -6.9304    3.4740 N   0  0  0  0  0  0  0  0  0  0  0  0
  -20.5384   -6.9100    4.0627 H   0  0  0  0  0  0  0  0  0  0  0  0
  -19.8113   -6.8947    2.4453 H   0  0  0  0  0  0  0  0  0  0  0  0
  -21.5225   -2.5283    4.1942 C   0  0  0  0  0  0  0  0  0  0  0  0
  -20.3115   -3.2555    4.6890 C   0  0  0  0  0  0  0  0  0  0  0  0
  -19.5365   -2.7714    5.6809 N   0  0  0  0  0  0  0  0  0  0  0  0
  -18.5630   -3.6847    5.8449 C   0  0  0  0  0  0  0  0  0  0  0  0
  -18.7478   -4.7197    4.9544 C   0  0  0  0  0  0  0  0  0  0  0  0
  -19.8293   -4.4034    4.2757 O   0  0  0  0  0  0  0  0  0  0  0  0
  -12.5536   -9.8555    8.0149 S   0  0  0  0  0  0  0  0  0  0  0  0
  -12.4884   -9.5611    9.5013 O   0  0  0  0  0  0  0  0  0  0  0  0
  -13.5494  -10.9638    7.8461 O   0  0  0  0  0  0  0  0  0  0  0  0
  -11.0065  -10.3871    7.5231 N   0  0  0  0  0  0  0  0  0  0  0  0
  -10.8757  -10.3835    6.4967 H   0  0  0  0  0  0  0  0  0  0  0  0
   -9.9600   -9.5722    8.0932 C   0  0  0  0  0  0  0  0  0  0  0  0
   -8.9155   -9.2717    7.0384 C   0  0  0  0  0  0  0  0  0  0  0  0
   -8.3988   -7.8458    7.0478 C   0  0  0  0  0  0  0  0  0  0  0  0
   -7.5134   -9.0203    7.3784 C   0  0  0  0  0  0  0  0  0  0  0  0
 17 18  1  0  0  0
 18 19  2  0  0  0
 19 20  1  0  0  0
 20 21  2  0  0  0
 21 22  1  0  0  0
 21  8  1  0  0  0
  8  9  2  0  0  0
  9 10  1  0  0  0
 10 11  2  0  0  0
 11 12  1  0  0  0
 12 13  2  0  0  0
 13 14  1  0  0  0
 10  1  1  0  0  0
  1  2  2  0  0  0
  2  3  1  0  0  0
  3  4  2  0  0  0
  4  5  1  0  0  0
  5  6  2  0  0  0
  6  7  1  0  0  0
  3 23  1  0  0  0
 23 24  2  0  0  0
 23 25  2  0  0  0
 23 26  1  0  0  0
 26 28  1  0  0  0
 28 29  1  0  0  0
 29 30  1  0  0  0
 30 31  1  0  0  0
 22 18  1  0  0  0
 13  8  1  0  0  0
  6  1  1  0  0  0
 31 29  1  0  0  0
 14 15  1  0  0  0
 14 16  1  0  0  0
 26 27  1  0  0  0
M  END
> <minimizedAffinity>
5.99456

> <CNNscore>
0.3372718692

> <CNNaffinity>
6.7558584213

> <CNN_VS>
2.2785611153

> <CNNaffinity_variance>
0.9558953047

$$$$
[H]c1nc(C([H])([H])[H])oc1-c1c(N([H])[H])nc([H])c(-c2c([H])c(S(=O)(=O)N([H])C([H])([H])C3([H])C([H])([H])C3([H])[H])c([H])c([H])c2C([H])([H])[H])c1[H]


 31 34  0  0  0  0  0  0  0  0999 V2000
  -11.8692   -7.4018    7.9110 C   0  0  0  0  0  0  0  0  0  0  0  0
  -10.5483   -7.7003    7.5594 C   0  0  0  0  0  0  0  0  0  0  0  0
   -9.4832   -7.2677    8.3284 C   0  0  0  0  0  0  0  0  0  0  0  0
   -9.7813   -6.5312    9.4534 C   0  0  0  0  0  0  0  0  0  0  0  0
  -11.0798   -6.2236    9.8219 C   0  0  0  0  0  0  0  0  0  0  0  0
  -12.1428   -6.6761    9.0227 C   0  0  0  0  0  0  0  0  0  0  0  0
  -13.5291   -6.3701    9.4214 C   0  0  0  0  0  0  0  0  0  0  0  0
  -14.7852   -7.3368    5.6192 C   0  0  0  0  0  0  0  0  0  0  0  0
  -13.7673   -6.9571    6.4588 C   0  0  0  0  0  0  0  0  0  0  0  0
  -12.9105   -7.8803    7.0312 C   0  0  0  0  0  0  0  0  0  0  0  0
  -13.0799   -9.2262    6.7524 C   0  0  0  0  0  0  0  0  0  0  0  0
  -14.0717   -9.5792    5.9360 N   0  0  0  0  0  0  0  0  0  0  0  0
  -14.9234   -8.6825    5.3651 C   0  0  0  0  0  0  0  0  0  0  0  0
  -15.9706   -9.0926    4.4994 N   0  0  0  0  0  0  0  0  0  0  0  0
  -16.9638   -8.9948    4.7732 H   0  0  0  0  0  0  0  0  0  0  0  0
  -15.7644   -9.5012    3.5691 H   0  0  0  0  0  0  0  0  0  0  0  0
  -18.9112   -4.9355    4.2558 C   0  0  0  0  0  0  0  0  0  0  0  0
  -17.4746   -5.3082    4.4494 C   0  0  0  0  0  0  0  0  0  0  0  0
  -16.4645   -4.5544    3.9695 N   0  0  0  0  0  0  0  0  0  0  0  0
  -15.3410   -5.1976    4.3343 C   0  0  0  0  0  0  0  0  0  0  0  0
  -15.6699   -6.3383    5.0336 C   0  0  0  0  0  0  0  0  0  0  0  0
  -16.9846   -6.3535    5.0725 O   0  0  0  0  0  0  0  0  0  0  0  0
   -7.8227   -7.6321    7.9038 S   0  0  0  0  0  0  0  0  0  0  0  0
   -7.0477   -8.1121    9.1159 O   0  0  0  0  0  0  0  0  0  0  0  0
   -7.7338   -8.7273    6.8835 O   0  0  0  0  0  0  0  0  0  0  0  0
   -7.0479   -6.2280    7.3154 N   0  0  0  0  0  0  0  0  0  0  0  0
   -7.4339   -5.3500    7.7036 H   0  0  0  0  0  0  0  0  0  0  0  0
   -5.6337   -6.2419    7.6058 C   0  0  0  0  0  0  0  0  0  0  0  0
   -4.8885   -6.9292    6.4806 C   0  0  0  0  0  0  0  0  0  0  0  0
   -3.3804   -6.7772    6.5349 C   0  0  0  0  0  0  0  0  0  0  0  0
   -4.0570   -8.1136    6.7050 C   0  0  0  0  0  0  0  0  0  0  0  0
 17 18  1  0  0  0
 18 19  2  0  0  0
 19 20  1  0  0  0
 20 21  2  0  0  0
 21 22  1  0  0  0
 21  8  1  0  0  0
  8  9  2  0  0  0
  9 10  1  0  0  0
 10 11  2  0  0  0
 11 12  1  0  0  0
 12 13  2  0  0  0
 13 14  1  0  0  0
 10  1  1  0  0  0
  1  2  2  0  0  0
  2  3  1  0  0  0
  3  4  2  0  0  0
  4  5  1  0  0  0
  5  6  2  0  0  0
  6  7  1  0  0  0
  3 23  1  0  0  0
 23 24  2  0  0  0
 23 25  2  0  0  0
 23 26  1  0  0  0
 26 28  1  0  0  0
 28 29  1  0  0  0
 29 30  1  0  0  0
 30 31  1  0  0  0
 22 18  1  0  0  0
 13  8  1  0  0  0
  6  1  1  0  0  0
 31 29  1  0  0  0
 14 15  1  0  0  0
 14 16  1  0  0  0
 26 27  1  0  0  0
M  END
> <minimizedAffinity>
-9.05888

> <CNNscore>
0.3059890568

> <CNNaffinity>
6.9637184143

> <CNN_VS>
2.1308217049

> <CNNaffinity_variance>
0.2655372322

$$$$
[H]c1nc(C([H])([H])[H])oc1-c1c(N([H])[H])nc([H])c(-c2c([H])c(S(=O)(=O)N([H])C([H])([H])C3([H])C([H])([H])C3([H])[H])c([H])c([H])c2C([H])([H])[H])c1[H]


 31 34  0  0  0  0  0  0  0  0999 V2000
  -12.2849   -7.2154    8.0381 C   0  0  0  0  0  0  0  0  0  0  0  0
  -11.0393   -7.1307    7.4067 C   0  0  0  0  0  0  0  0  0  0  0  0
   -9.9260   -6.6503    8.0720 C   0  0  0  0  0  0  0  0  0  0  0  0
  -10.0989   -6.2598    9.3813 C   0  0  0  0  0  0  0  0  0  0  0  0
  -11.3210   -6.3345   10.0275 C   0  0  0  0  0  0  0  0  0  0  0  0
  -12.4353   -6.8268    9.3280 C   0  0  0  0  0  0  0  0  0  0  0  0
  -13.7349   -6.9291   10.0171 C   0  0  0  0  0  0  0  0  0  0  0  0
  -15.2587   -7.1911    5.8209 C   0  0  0  0  0  0  0  0  0  0  0  0
  -14.1853   -6.7971    6.5811 C   0  0  0  0  0  0  0  0  0  0  0  0
  -13.3912   -7.7102    7.2516 C   0  0  0  0  0  0  0  0  0  0  0  0
  -13.6827   -9.0607    7.1562 C   0  0  0  0  0  0  0  0  0  0  0  0
  -14.7271   -9.4277    6.4150 N   0  0  0  0  0  0  0  0  0  0  0  0
  -15.5182   -8.5409    5.7494 C   0  0  0  0  0  0  0  0  0  0  0  0
  -16.6242   -8.9658    4.9679 N   0  0  0  0  0  0  0  0  0  0  0  0
  -17.5961   -8.7464    5.2477 H   0  0  0  0  0  0  0  0  0  0  0  0
  -16.4838   -9.5079    4.0953 H   0  0  0  0  0  0  0  0  0  0  0  0
  -19.2053   -4.6061    4.2748 C   0  0  0  0  0  0  0  0  0  0  0  0
  -17.8021   -5.0903    4.4668 C   0  0  0  0  0  0  0  0  0  0  0  0
  -16.7519   -4.5191    3.8426 N   0  0  0  0  0  0  0  0  0  0  0  0
  -15.6766   -5.2134    4.2556 C   0  0  0  0  0  0  0  0  0  0  0  0
  -16.0746   -6.2028    5.1280 C   0  0  0  0  0  0  0  0  0  0  0  0
  -17.3810   -6.0794    5.2186 O   0  0  0  0  0  0  0  0  0  0  0  0
   -8.3583   -6.5373    7.2975 S   0  0  0  0  0  0  0  0  0  0  0  0
   -8.2675   -7.4882    6.1194 O   0  0  0  0  0  0  0  0  0  0  0  0
   -8.1008   -5.1638    6.7537 O   0  0  0  0  0  0  0  0  0  0  0  0
   -7.1276   -6.9624    8.4032 N   0  0  0  0  0  0  0  0  0  0  0  0
   -7.4501   -6.9995    9.3857 H   0  0  0  0  0  0  0  0  0  0  0  0
   -6.5548   -8.2500    8.0895 C   0  0  0  0  0  0  0  0  0  0  0  0
   -7.4125   -9.3483    8.6828 C   0  0  0  0  0  0  0  0  0  0  0  0
   -8.4583   -9.9132    7.7407 C   0  0  0  0  0  0  0  0  0  0  0  0
   -7.3059  -10.7424    8.2475 C   0  0  0  0  0  0  0  0  0  0  0  0
 17 18  1  0  0  0
 18 19  2  0  0  0
 19 20  1  0  0  0
 20 21  2  0  0  0
 21 22  1  0  0  0
 21  8  1  0  0  0
  8  9  2  0  0  0
  9 10  1  0  0  0
 10 11  2  0  0  0
 11 12  1  0  0  0
 12 13  2  0  0  0
 13 14  1  0  0  0
 10  1  1  0  0  0
  1  2  2  0  0  0
  2  3  1  0  0  0
  3  4  2  0  0  0
  4  5  1  0  0  0
  5  6  2  0  0  0
  6  7  1  0  0  0
  3 23  1  0  0  0
 23 24  2  0  0  0
 23 25  2  0  0  0
 23 26  1  0  0  0
 26 28  1  0  0  0
 28 29  1  0  0  0
 29 30  1  0  0  0
 30 31  1  0  0  0
 22 18  1  0  0  0
 13  8  1  0  0  0
  6  1  1  0  0  0
 31 29  1  0  0  0
 14 15  1  0  0  0
 14 16  1  0  0  0
 26 27  1  0  0  0
M  END
> <minimizedAffinity>
-5.47830

> <CNNscore>
0.2794036865

> <CNNaffinity>
6.9077248573

> <CNN_VS>
1.9300438166

> <CNNaffinity_variance>
0.3172009587

$$$$
[H]c1nc(C([H])([H])[H])oc1-c1c(N([H])[H])nc([H])c(-c2c([H])c(S(=O)(=O)N([H])C([H])([H])C3([H])C([H])([H])C3([H])[H])c([H])c([H])c2C([H])([H])[H])c1[H]


 31 34  0  0  0  0  0  0  0  0999 V2000
   -6.4550   -6.7513    7.0987 C   0  0  0  0  0  0  0  0  0  0  0  0
   -5.7418   -6.3857    8.2456 C   0  0  0  0  0  0  0  0  0  0  0  0
   -4.6225   -5.5769    8.1701 C   0  0  0  0  0  0  0  0  0  0  0  0
   -4.2425   -5.1486    6.9175 C   0  0  0  0  0  0  0  0  0  0  0  0
   -4.9321   -5.4966    5.7685 C   0  0  0  0  0  0  0  0  0  0  0  0
   -6.0659   -6.3191    5.8743 C   0  0  0  0  0  0  0  0  0  0  0  0
   -6.8174   -6.6757    4.6567 C   0  0  0  0  0  0  0  0  0  0  0  0
   -9.9120   -7.8193    7.9162 C   0  0  0  0  0  0  0  0  0  0  0  0
   -8.7867   -7.0592    7.7135 C   0  0  0  0  0  0  0  0  0  0  0  0
   -7.5973   -7.6171    7.2800 C   0  0  0  0  0  0  0  0  0  0  0  0
   -7.5349   -8.9800    7.0420 C   0  0  0  0  0  0  0  0  0  0  0  0
   -8.6348   -9.7043    7.2429 N   0  0  0  0  0  0  0  0  0  0  0  0
   -9.8127   -9.1698    7.6696 C   0  0  0  0  0  0  0  0  0  0  0  0
  -10.9665   -9.9706    7.8741 N   0  0  0  0  0  0  0  0  0  0  0  0
  -11.3530  -10.1246    8.8217 H   0  0  0  0  0  0  0  0  0  0  0  0
  -11.4510  -10.4216    7.0761 H   0  0  0  0  0  0  0  0  0  0  0  0
  -13.1261   -5.2061   10.6529 C   0  0  0  0  0  0  0  0  0  0  0  0
  -12.5316   -6.0590    9.5762 C   0  0  0  0  0  0  0  0  0  0  0  0
  -13.2633   -6.5337    8.5476 N   0  0  0  0  0  0  0  0  0  0  0  0
  -12.4002   -7.2439    7.7996 C   0  0  0  0  0  0  0  0  0  0  0  0
  -11.1485   -7.1995    8.3738 C   0  0  0  0  0  0  0  0  0  0  0  0
  -11.2894   -6.4628    9.4543 O   0  0  0  0  0  0  0  0  0  0  0  0
   -3.7171   -5.1088    9.5954 S   0  0  0  0  0  0  0  0  0  0  0  0
   -2.6830   -6.1607    9.9485 O   0  0  0  0  0  0  0  0  0  0  0  0
   -2.9645   -3.8292    9.3847 O   0  0  0  0  0  0  0  0  0  0  0  0
   -4.7703   -4.9481   10.9307 N   0  0  0  0  0  0  0  0  0  0  0  0
   -5.6819   -5.4189   10.7965 H   0  0  0  0  0  0  0  0  0  0  0  0
   -4.1830   -5.4828   12.1364 C   0  0  0  0  0  0  0  0  0  0  0  0
   -3.9033   -4.3571   13.1103 C   0  0  0  0  0  0  0  0  0  0  0  0
   -2.5712   -4.4580   13.8283 C   0  0  0  0  0  0  0  0  0  0  0  0
   -2.8755   -3.3449   12.8582 C   0  0  0  0  0  0  0  0  0  0  0  0
 17 18  1  0  0  0
 18 19  2  0  0  0
 19 20  1  0  0  0
 20 21  2  0  0  0
 21 22  1  0  0  0
 21  8  1  0  0  0
  8  9  2  0  0  0
  9 10  1  0  0  0
 10 11  2  0  0  0
 11 12  1  0  0  0
 12 13  2  0  0  0
 13 14  1  0  0  0
 10  1  1  0  0  0
  1  2  2  0  0  0
  2  3  1  0  0  0
  3  4  2  0  0  0
  4  5  1  0  0  0
  5  6  2  0  0  0
  6  7  1  0  0  0
  3 23  1  0  0  0
 23 24  2  0  0  0
 23 25  2  0  0  0
 23 26  1  0  0  0
 26 28  1  0  0  0
 28 29  1  0  0  0
 29 30  1  0  0  0
 30 31  1  0  0  0
 22 18  1  0  0  0
 13  8  1  0  0  0
  6  1  1  0  0  0
 31 29  1  0  0  0
 14 15  1  0  0  0
 14 16  1  0  0  0
 26 27  1  0  0  0
M  END
> <minimizedAffinity>
-6.71049

> <CNNscore>
0.2584838271

> <CNNaffinity>
6.2318539619

> <CNN_VS>
1.6108334064

> <CNNaffinity_variance>
0.1524773091

$$$$
[H]c1nc(C([H])([H])[H])oc1-c1c(N([H])[H])nc([H])c(-c2c([H])c(S(=O)(=O)N([H])C([H])([H])C3([H])C([H])([H])C3([H])[H])c([H])c([H])c2C([H])([H])[H])c1[H]


 31 34  0  0  0  0  0  0  0  0999 V2000
  -15.8302   -7.2897    6.9677 C   0  0  0  0  0  0  0  0  0  0  0  0
  -15.9046   -6.4725    5.8344 C   0  0  0  0  0  0  0  0  0  0  0  0
  -17.1069   -6.2414    5.1912 C   0  0  0  0  0  0  0  0  0  0  0  0
  -18.2251   -6.8509    5.7155 C   0  0  0  0  0  0  0  0  0  0  0  0
  -18.1766   -7.6632    6.8356 C   0  0  0  0  0  0  0  0  0  0  0  0
  -16.9421   -7.8806    7.4696 C   0  0  0  0  0  0  0  0  0  0  0  0
  -16.8872   -8.7272    8.6757 C   0  0  0  0  0  0  0  0  0  0  0  0
  -13.2440   -8.2069    9.4637 C   0  0  0  0  0  0  0  0  0  0  0  0
  -14.4481   -7.9999    8.8371 C   0  0  0  0  0  0  0  0  0  0  0  0
  -14.5248   -7.4867    7.5547 C   0  0  0  0  0  0  0  0  0  0  0  0
  -13.3573   -7.1719    6.8796 C   0  0  0  0  0  0  0  0  0  0  0  0
  -12.1968   -7.3784    7.5003 N   0  0  0  0  0  0  0  0  0  0  0  0
  -12.1049   -7.8825    8.7624 C   0  0  0  0  0  0  0  0  0  0  0  0
  -10.8516   -8.0902    9.3950 N   0  0  0  0  0  0  0  0  0  0  0  0
  -10.5634   -7.5278   10.2146 H   0  0  0  0  0  0  0  0  0  0  0  0
  -10.1931   -8.8128    9.0498 H   0  0  0  0  0  0  0  0  0  0  0  0
  -12.7354  -11.3984   13.2326 C   0  0  0  0  0  0  0  0  0  0  0  0
  -12.9741  -10.1506   12.4412 C   0  0  0  0  0  0  0  0  0  0  0  0
  -13.2766   -8.9739   13.0265 N   0  0  0  0  0  0  0  0  0  0  0  0
  -13.4164   -8.1017   12.0122 C   0  0  0  0  0  0  0  0  0  0  0  0
  -13.1991   -8.7487   10.8154 C   0  0  0  0  0  0  0  0  0  0  0  0
  -12.9335   -9.9956   11.1392 O   0  0  0  0  0  0  0  0  0  0  0  0
  -17.2192   -5.2211    3.7711 S   0  0  0  0  0  0  0  0  0  0  0  0
  -18.5582   -4.5103    3.7207 O   0  0  0  0  0  0  0  0  0  0  0  0
  -16.1707   -4.1492    3.7682 O   0  0  0  0  0  0  0  0  0  0  0  0
  -17.0818   -6.1695    2.3570 N   0  0  0  0  0  0  0  0  0  0  0  0
  -16.2593   -5.9292    1.7771 H   0  0  0  0  0  0  0  0  0  0  0  0
  -16.9924   -7.5763    2.6690 C   0  0  0  0  0  0  0  0  0  0  0  0
  -15.6662   -7.8667    3.3402 C   0  0  0  0  0  0  0  0  0  0  0  0
  -15.5377   -9.2672    3.9081 C   0  0  0  0  0  0  0  0  0  0  0  0
  -14.6843   -8.7868    2.7621 C   0  0  0  0  0  0  0  0  0  0  0  0
 17 18  1  0  0  0
 18 19  2  0  0  0
 19 20  1  0  0  0
 20 21  2  0  0  0
 21 22  1  0  0  0
 21  8  1  0  0  0
  8  9  2  0  0  0
  9 10  1  0  0  0
 10 11  2  0  0  0
 11 12  1  0  0  0
 12 13  2  0  0  0
 13 14  1  0  0  0
 10  1  1  0  0  0
  1  2  2  0  0  0
  2  3  1  0  0  0
  3  4  2  0  0  0
  4  5  1  0  0  0
  5  6  2  0  0  0
  6  7  1  0  0  0
  3 23  1  0  0  0
 23 24  2  0  0  0
 23 25  2  0  0  0
 23 26  1  0  0  0
 26 28  1  0  0  0
 28 29  1  0  0  0
 29 30  1  0  0  0
 30 31  1  0  0  0
 22 18  1  0  0  0
 13  8  1  0  0  0
  6  1  1  0  0  0
 31 29  1  0  0  0
 14 15  1  0  0  0
 14 16  1  0  0  0
 26 27  1  0  0  0
M  END
> <minimizedAffinity>
8.00008

> <CNNscore>
0.2471199632

> <CNNaffinity>
6.4051995277

> <CNN_VS>
1.5828527212

> <CNNaffinity_variance>
0.2636595368

$$$$
[H]c1nc(C([H])([H])[H])oc1-c1c(N([H])[H])nc([H])c(-c2c([H])c(S(=O)(=O)N([H])C([H])([H])C3([H])C([H])([H])C3([H])[H])c([H])c([H])c2C([H])([H])[H])c1[H]


 31 34  0  0  0  0  0  0  0  0999 V2000
   -8.8961   -7.8767    7.8540 C   0  0  0  0  0  0  0  0  0  0  0  0
   -7.7482   -7.0865    7.9786 C   0  0  0  0  0  0  0  0  0  0  0  0
   -6.5212   -7.5204    7.5107 C   0  0  0  0  0  0  0  0  0  0  0  0
   -6.4805   -8.7629    6.9180 C   0  0  0  0  0  0  0  0  0  0  0  0
   -7.6026   -9.5627    6.7830 C   0  0  0  0  0  0  0  0  0  0  0  0
   -8.8364   -9.0969    7.2669 C   0  0  0  0  0  0  0  0  0  0  0  0
  -10.0392   -9.9347    7.1068 C   0  0  0  0  0  0  0  0  0  0  0  0
  -12.5082   -7.0853    8.1475 C   0  0  0  0  0  0  0  0  0  0  0  0
  -11.3023   -7.5670    7.7012 C   0  0  0  0  0  0  0  0  0  0  0  0
  -10.1257   -7.3439    8.3939 C   0  0  0  0  0  0  0  0  0  0  0  0
  -10.1599   -6.6154    9.5711 C   0  0  0  0  0  0  0  0  0  0  0  0
  -11.3371   -6.1547    9.9916 N   0  0  0  0  0  0  0  0  0  0  0  0
  -12.5037   -6.3657    9.3208 C   0  0  0  0  0  0  0  0  0  0  0  0
  -13.7416   -5.8603    9.7967 N   0  0  0  0  0  0  0  0  0  0  0  0
  -14.2498   -5.1161    9.2877 H   0  0  0  0  0  0  0  0  0  0  0  0
  -14.1673   -6.2260   10.6684 H   0  0  0  0  0  0  0  0  0  0  0  0
  -16.5575   -6.3397    5.3734 C   0  0  0  0  0  0  0  0  0  0  0  0
  -15.4851   -6.9948    6.1864 C   0  0  0  0  0  0  0  0  0  0  0  0
  -15.4709   -8.3225    6.4228 N   0  0  0  0  0  0  0  0  0  0  0  0
  -14.3760   -8.5346    7.1746 C   0  0  0  0  0  0  0  0  0  0  0  0
  -13.7286   -7.3381    7.3931 C   0  0  0  0  0  0  0  0  0  0  0  0
  -14.4505   -6.4345    6.7666 O   0  0  0  0  0  0  0  0  0  0  0  0
   -5.0732   -6.5445    7.6578 S   0  0  0  0  0  0  0  0  0  0  0  0
   -3.8317   -7.4158    7.6563 O   0  0  0  0  0  0  0  0  0  0  0  0
   -4.9225   -5.5910    6.5104 O   0  0  0  0  0  0  0  0  0  0  0  0
   -5.0981   -5.6794    9.1304 N   0  0  0  0  0  0  0  0  0  0  0  0
   -5.2597   -6.2784    9.9585 H   0  0  0  0  0  0  0  0  0  0  0  0
   -3.8606   -4.9684    9.3485 C   0  0  0  0  0  0  0  0  0  0  0  0
   -3.4556   -5.0835   10.8033 C   0  0  0  0  0  0  0  0  0  0  0  0
   -3.2278   -3.7576   11.5035 C   0  0  0  0  0  0  0  0  0  0  0  0
   -4.3478   -4.6876   11.8950 C   0  0  0  0  0  0  0  0  0  0  0  0
 17 18  1  0  0  0
 18 19  2  0  0  0
 19 20  1  0  0  0
 20 21  2  0  0  0
 21 22  1  0  0  0
 21  8  1  0  0  0
  8  9  2  0  0  0
  9 10  1  0  0  0
 10 11  2  0  0  0
 11 12  1  0  0  0
 12 13  2  0  0  0
 13 14  1  0  0  0
 10  1  1  0  0  0
  1  2  2  0  0  0
  2  3  1  0  0  0
  3  4  2  0  0  0
  4  5  1  0  0  0
  5  6  2  0  0  0
  6  7  1  0  0  0
  3 23  1  0  0  0
 23 24  2  0  0  0
 23 25  2  0  0  0
 23 26  1  0  0  0
 26 28  1  0  0  0
 28 29  1  0  0  0
 29 30  1  0  0  0
 30 31  1  0  0  0
 22 18  1  0  0  0
 13  8  1  0  0  0
  6  1  1  0  0  0
 31 29  1  0  0  0
 14 15  1  0  0  0
 14 16  1  0  0  0
 26 27  1  0  0  0
M  END
> <minimizedAffinity>
-7.90239

> <CNNscore>
0.2347225845

> <CNNaffinity>
6.6881127357

> <CNN_VS>
1.5698511600

> <CNNaffinity_variance>
0.0770718455

$$$$
[H]O[C@]1([H])[C@]([H])(n2c([H])c([H])c(=O)n([H])c2=O)O[C@]([H])(C([H])([H])OP(=O)(O[H])OP(=O)(O[H])OP(=O)(O[H])O[H])[C@]1([H])O[H]


 36 37  0  0  0  0  0  0  0  0999 V2000
   -8.9782   -6.1617    5.2941 O   0  0  0  0  0  0  0  0  0  0  0  0
   -8.1119   -5.8767    6.2965 C   0  0  0  0  0  0  0  0  0  0  0  0
   -6.6273   -6.2102    5.9011 C   0  0  0  0  0  0  0  0  0  0  0  0
   -6.7458   -7.3173    5.1168 O   0  0  0  0  0  0  0  0  0  0  0  0
   -6.0321   -6.3633    7.2379 C   0  0  0  0  0  0  0  0  0  0  0  0
   -6.9881   -7.2024    7.8623 O   0  0  0  0  0  0  0  0  0  0  0  0
   -8.1889   -6.6745    7.5350 C   0  0  0  0  0  0  0  0  0  0  0  0
   -9.4485   -5.3473    4.9520 H   0  0  0  0  0  0  0  0  0  0  0  0
   -6.6781   -8.1176    5.7733 H   0  0  0  0  0  0  0  0  0  0  0  0
   -4.7409   -6.8935    7.4347 N   0  0  0  0  0  0  0  0  0  0  0  0
   -4.3996   -8.0584    6.8575 C   0  0  0  0  0  0  0  0  0  0  0  0
   -3.1949   -8.6751    7.1545 C   0  0  0  0  0  0  0  0  0  0  0  0
   -2.3016   -8.0847    8.0576 C   0  0  0  0  0  0  0  0  0  0  0  0
   -1.2066   -8.6185    8.3389 O   0  0  0  0  0  0  0  0  0  0  0  0
   -2.6847   -6.9108    8.6189 N   0  0  0  0  0  0  0  0  0  0  0  0
   -3.8658   -6.3445    8.3104 C   0  0  0  0  0  0  0  0  0  0  0  0
   -4.1705   -5.2878    8.8566 O   0  0  0  0  0  0  0  0  0  0  0  0
   -2.0739   -6.4225    9.3394 H   0  0  0  0  0  0  0  0  0  0  0  0
   -9.3917   -7.5593    7.5761 C   0  0  0  0  0  0  0  0  0  0  0  0
   -9.7185   -7.4397    8.9484 O   0  0  0  0  0  0  0  0  0  0  0  0
  -10.8504   -6.2340    9.1610 P   0  0  0  0  0  0  0  0  0  0  0  0
  -11.2105   -6.2801   10.8981 O   0  0  0  0  0  0  0  0  0  0  0  0
  -10.2459   -4.8922    8.9767 O   0  0  0  0  0  0  0  0  0  0  0  0
  -12.0858   -6.6260   10.9596 H   0  0  0  0  0  0  0  0  0  0  0  0
  -12.2460   -6.5388    8.3129 O   0  0  0  0  0  0  0  0  0  0  0  0
  -13.1917   -7.6800    9.1550 P   0  0  0  0  0  0  0  0  0  0  0  0
  -14.7414   -7.6698    8.4820 O   0  0  0  0  0  0  0  0  0  0  0  0
  -13.2770   -7.2438   10.5797 O   0  0  0  0  0  0  0  0  0  0  0  0
  -14.7331   -8.1182    7.6164 H   0  0  0  0  0  0  0  0  0  0  0  0
  -12.4660   -9.2096    9.0068 O   0  0  0  0  0  0  0  0  0  0  0  0
  -12.7091   -9.7354    7.4279 P   0  0  0  0  0  0  0  0  0  0  0  0
  -13.1324   -8.4248    6.4573 O   0  0  0  0  0  0  0  0  0  0  0  0
  -13.9356  -10.9104    7.4063 O   0  0  0  0  0  0  0  0  0  0  0  0
  -11.4382  -10.3919    6.9612 O   0  0  0  0  0  0  0  0  0  0  0  0
  -12.3554   -8.0920    5.9617 H   0  0  0  0  0  0  0  0  0  0  0  0
  -13.6868  -11.6499    8.0005 H   0  0  0  0  0  0  0  0  0  0  0  0
  1  2  1  0  0  0
  2  3  1  0  0  0
  3  4  1  0  0  0
  3  5  1  0  0  0
  5  6  1  0  0  0
  6  7  1  0  0  0
  7 19  1  0  0  0
 19 20  1  0  0  0
 20 21  1  0  0  0
 21 22  1  0  0  0
 21 23  2  0  0  0
 21 25  1  0  0  0
 25 26  1  0  0  0
 26 27  1  0  0  0
 26 28  2  0  0  0
 26 30  1  0  0  0
 30 31  1  0  0  0
 31 32  1  0  0  0
 31 33  1  0  0  0
 31 34  2  0  0  0
  5 10  1  0  0  0
 10 11  1  0  0  0
 11 12  2  0  0  0
 12 13  1  0  0  0
 13 14  2  0  0  0
 13 15  1  0  0  0
 15 16  1  0  0  0
 16 17  2  0  0  0
  7  2  1  0  0  0
 16 10  1  0  0  0
  1  8  1  0  0  0
  4  9  1  0  0  0
 22 24  1  0  0  0
 27 29  1  0  0  0
 32 35  1  0  0  0
 33 36  1  0  0  0
 15 18  1  0  0  0
M  END
> <minimizedAffinity>
-3.45030

> <CNNscore>
0.4570249021

> <CNNaffinity>
4.5728335381

> <CNN_VS>
2.0898988247

> <CNNaffinity_variance>
4.3493189812

$$$$
[H]O[C@]1([H])[C@]([H])(n2c([H])c([H])c(=O)n([H])c2=O)O[C@]([H])(C([H])([H])OP(=O)(O[H])OP(=O)(O[H])OP(=O)(O[H])O[H])[C@]1([H])O[H]


 36 37  0  0  0  0  0  0  0  0999 V2000
  -13.3042  -10.5281    8.3836 O   0  0  0  0  0  0  0  0  0  0  0  0
  -14.0510   -9.3988    8.4414 C   0  0  0  0  0  0  0  0  0  0  0  0
  -14.8664   -9.1666    7.1174 C   0  0  0  0  0  0  0  0  0  0  0  0
  -14.0366   -9.6344    6.1441 O   0  0  0  0  0  0  0  0  0  0  0  0
  -15.0911   -7.7151    7.2037 C   0  0  0  0  0  0  0  0  0  0  0  0
  -13.7887   -7.2611    7.5283 O   0  0  0  0  0  0  0  0  0  0  0  0
  -13.3524   -8.1006    8.4941 C   0  0  0  0  0  0  0  0  0  0  0  0
  -13.5817  -11.2055    9.0660 H   0  0  0  0  0  0  0  0  0  0  0  0
  -13.4710   -8.8131    5.8584 H   0  0  0  0  0  0  0  0  0  0  0  0
  -15.5962   -6.9625    6.1241 N   0  0  0  0  0  0  0  0  0  0  0  0
  -14.7853   -6.1279    5.4515 C   0  0  0  0  0  0  0  0  0  0  0  0
  -15.2878   -5.2681    4.4881 C   0  0  0  0  0  0  0  0  0  0  0  0
  -16.6562   -5.2633    4.1886 C   0  0  0  0  0  0  0  0  0  0  0  0
  -17.1337   -4.5007    3.3206 O   0  0  0  0  0  0  0  0  0  0  0  0
  -17.4398   -6.1193    4.8908 N   0  0  0  0  0  0  0  0  0  0  0  0
  -16.9165   -6.9357    5.8239 C   0  0  0  0  0  0  0  0  0  0  0  0
  -17.6716   -7.6823    6.4405 O   0  0  0  0  0  0  0  0  0  0  0  0
  -18.4923   -6.1463    4.7423 H   0  0  0  0  0  0  0  0  0  0  0  0
  -11.8802   -8.2468    8.6999 C   0  0  0  0  0  0  0  0  0  0  0  0
  -11.4594   -6.9650    8.2708 O   0  0  0  0  0  0  0  0  0  0  0  0
  -10.5937   -6.2150    9.4824 P   0  0  0  0  0  0  0  0  0  0  0  0
  -10.8456   -4.4835    9.1859 O   0  0  0  0  0  0  0  0  0  0  0  0
  -11.2288   -6.4270   10.8058 O   0  0  0  0  0  0  0  0  0  0  0  0
  -10.0141   -4.1624    8.8773 H   0  0  0  0  0  0  0  0  0  0  0  0
   -8.9695   -6.5487    9.3801 O   0  0  0  0  0  0  0  0  0  0  0  0
   -8.5065   -6.6507    7.7426 P   0  0  0  0  0  0  0  0  0  0  0  0
   -6.9070   -6.1204    7.6200 O   0  0  0  0  0  0  0  0  0  0  0  0
   -9.3849   -5.7331    6.9592 O   0  0  0  0  0  0  0  0  0  0  0  0
   -6.3018   -6.7992    7.9709 H   0  0  0  0  0  0  0  0  0  0  0  0
   -8.6619   -8.2631    7.2285 O   0  0  0  0  0  0  0  0  0  0  0  0
   -7.3246   -9.1084    7.7991 P   0  0  0  0  0  0  0  0  0  0  0  0
   -6.1476   -9.1784    6.5953 O   0  0  0  0  0  0  0  0  0  0  0  0
   -7.7989  -10.6739    8.2567 O   0  0  0  0  0  0  0  0  0  0  0  0
   -6.8260   -8.4028    9.0310 O   0  0  0  0  0  0  0  0  0  0  0  0
   -5.4619   -8.4930    6.7373 H   0  0  0  0  0  0  0  0  0  0  0  0
   -8.5057  -10.6137    8.9340 H   0  0  0  0  0  0  0  0  0  0  0  0
  1  2  1  0  0  0
  2  3  1  0  0  0
  3  4  1  0  0  0
  3  5  1  0  0  0
  5  6  1  0  0  0
  6  7  1  0  0  0
  7 19  1  0  0  0
 19 20  1  0  0  0
 20 21  1  0  0  0
 21 22  1  0  0  0
 21 23  2  0  0  0
 21 25  1  0  0  0
 25 26  1  0  0  0
 26 27  1  0  0  0
 26 28  2  0  0  0
 26 30  1  0  0  0
 30 31  1  0  0  0
 31 32  1  0  0  0
 31 33  1  0  0  0
 31 34  2  0  0  0
  5 10  1  0  0  0
 10 11  1  0  0  0
 11 12  2  0  0  0
 12 13  1  0  0  0
 13 14  2  0  0  0
 13 15  1  0  0  0
 15 16  1  0  0  0
 16 17  2  0  0  0
  7  2  1  0  0  0
 16 10  1  0  0  0
  1  8  1  0  0  0
  4  9  1  0  0  0
 22 24  1  0  0  0
 27 29  1  0  0  0
 32 35  1  0  0  0
 33 36  1  0  0  0
 15 18  1  0  0  0
M  END
> <minimizedAffinity>
-4.67857

> <CNNscore>
0.4495257139

> <CNNaffinity>
5.2774724960

> <CNN_VS>
2.3723595142

> <CNNaffinity_variance>
5.8053665161

$$$$
[H]O[C@]1([H])[C@]([H])(n2c([H])c([H])c(=O)n([H])c2=O)O[C@]([H])(C([H])([H])OP(=O)(O[H])OP(=O)(O[H])OP(=O)(O[H])O[H])[C@]1([H])O[H]


 36 37  0  0  0  0  0  0  0  0999 V2000
   -9.4187   -6.0343    6.7067 O   0  0  0  0  0  0  0  0  0  0  0  0
   -8.4128   -6.3066    7.5729 C   0  0  0  0  0  0  0  0  0  0  0  0
   -7.0001   -6.1115    6.9111 C   0  0  0  0  0  0  0  0  0  0  0  0
   -7.1935   -6.5048    5.6217 O   0  0  0  0  0  0  0  0  0  0  0  0
   -6.1843   -6.9677    7.7864 C   0  0  0  0  0  0  0  0  0  0  0  0
   -6.9814   -8.1383    7.8346 O   0  0  0  0  0  0  0  0  0  0  0  0
   -8.2441   -7.6979    8.0333 C   0  0  0  0  0  0  0  0  0  0  0  0
   -9.9783   -5.2589    7.0020 H   0  0  0  0  0  0  0  0  0  0  0  0
   -6.9789   -7.5197    5.6175 H   0  0  0  0  0  0  0  0  0  0  0  0
   -4.8542   -7.3167    7.4765 N   0  0  0  0  0  0  0  0  0  0  0  0
   -4.6071   -8.3412    6.6422 C   0  0  0  0  0  0  0  0  0  0  0  0
   -3.3154   -8.7998    6.4397 C   0  0  0  0  0  0  0  0  0  0  0  0
   -2.2376   -8.1915    7.0957 C   0  0  0  0  0  0  0  0  0  0  0  0
   -1.0625   -8.5835    6.9264 O   0  0  0  0  0  0  0  0  0  0  0  0
   -2.5301   -7.1627    7.9298 N   0  0  0  0  0  0  0  0  0  0  0  0
   -3.7983   -6.7485    8.1061 C   0  0  0  0  0  0  0  0  0  0  0  0
   -4.0103   -5.8212    8.8825 O   0  0  0  0  0  0  0  0  0  0  0  0
   -1.7674   -6.6757    8.4881 H   0  0  0  0  0  0  0  0  0  0  0  0
   -9.3789   -8.5803    7.6276 C   0  0  0  0  0  0  0  0  0  0  0  0
  -10.1837   -8.4680    8.7869 O   0  0  0  0  0  0  0  0  0  0  0  0
  -11.7425   -8.0581    8.3602 P   0  0  0  0  0  0  0  0  0  0  0  0
  -12.7501   -8.8569    9.5835 O   0  0  0  0  0  0  0  0  0  0  0  0
  -12.0023   -6.6172    8.5971 O   0  0  0  0  0  0  0  0  0  0  0  0
  -13.1854   -9.5573    9.1256 H   0  0  0  0  0  0  0  0  0  0  0  0
  -12.1484   -8.6456    6.8602 O   0  0  0  0  0  0  0  0  0  0  0  0
  -13.7378   -9.2607    6.8956 P   0  0  0  0  0  0  0  0  0  0  0  0
  -14.6831   -8.2073    7.8184 O   0  0  0  0  0  0  0  0  0  0  0  0
  -13.6994  -10.5937    7.5656 O   0  0  0  0  0  0  0  0  0  0  0  0
  -14.8674   -7.3941    7.3136 H   0  0  0  0  0  0  0  0  0  0  0  0
  -14.3178   -9.3729    5.3021 O   0  0  0  0  0  0  0  0  0  0  0  0
  -15.3986   -8.1063    5.0654 P   0  0  0  0  0  0  0  0  0  0  0  0
  -16.8001   -8.3886    5.9572 O   0  0  0  0  0  0  0  0  0  0  0  0
  -15.7638   -7.9769    3.4116 O   0  0  0  0  0  0  0  0  0  0  0  0
  -14.7141   -6.8335    5.4839 O   0  0  0  0  0  0  0  0  0  0  0  0
  -16.7849   -7.8877    6.7992 H   0  0  0  0  0  0  0  0  0  0  0  0
  -14.9341   -7.8448    2.9056 H   0  0  0  0  0  0  0  0  0  0  0  0
  1  2  1  0  0  0
  2  3  1  0  0  0
  3  4  1  0  0  0
  3  5  1  0  0  0
  5  6  1  0  0  0
  6  7  1  0  0  0
  7 19  1  0  0  0
 19 20  1  0  0  0
 20 21  1  0  0  0
 21 22  1  0  0  0
 21 23  2  0  0  0
 21 25  1  0  0  0
 25 26  1  0  0  0
 26 27  1  0  0  0
 26 28  2  0  0  0
 26 30  1  0  0  0
 30 31  1  0  0  0
 31 32  1  0  0  0
 31 33  1  0  0  0
 31 34  2  0  0  0
  5 10  1  0  0  0
 10 11  1  0  0  0
 11 12  2  0  0  0
 12 13  1  0  0  0
 13 14  2  0  0  0
 13 15  1  0  0  0
 15 16  1  0  0  0
 16 17  2  0  0  0
  7  2  1  0  0  0
 16 10  1  0  0  0
  1  8  1  0  0  0
  4  9  1  0  0  0
 22 24  1  0  0  0
 27 29  1  0  0  0
 32 35  1  0  0  0
 33 36  1  0  0  0
 15 18  1  0  0  0
M  END
> <minimizedAffinity>
-5.41088

> <CNNscore>
0.4399464428

> <CNNaffinity>
4.6808338165

> <CNN_VS>
2.0593161583

> <CNNaffinity_variance>
4.4025659561

$$$$
[H]O[C@]1([H])[C@]([H])(n2c([H])c([H])c(=O)n([H])c2=O)O[C@]([H])(C([H])([H])OP(=O)(O[H])OP(=O)(O[H])OP(=O)(O[H])O[H])[C@]1([H])O[H]


 36 37  0  0  0  0  0  0  0  0999 V2000
  -14.4839   -8.2146    9.2690 O   0  0  0  0  0  0  0  0  0  0  0  0
  -13.5722   -8.7892    8.4475 C   0  0  0  0  0  0  0  0  0  0  0  0
  -12.1006   -8.5517    8.9473 C   0  0  0  0  0  0  0  0  0  0  0  0
  -12.1448   -7.3040    9.4915 O   0  0  0  0  0  0  0  0  0  0  0  0
  -11.3664   -8.7364    7.6857 C   0  0  0  0  0  0  0  0  0  0  0  0
  -12.1389   -7.9375    6.8066 O   0  0  0  0  0  0  0  0  0  0  0  0
  -13.4248   -8.2515    7.0817 C   0  0  0  0  0  0  0  0  0  0  0  0
  -15.0886   -8.8863    9.6987 H   0  0  0  0  0  0  0  0  0  0  0  0
  -11.9094   -6.6638    8.7100 H   0  0  0  0  0  0  0  0  0  0  0  0
  -10.0034   -8.4041    7.5483 N   0  0  0  0  0  0  0  0  0  0  0  0
   -9.6282   -7.1139    7.5149 C   0  0  0  0  0  0  0  0  0  0  0  0
   -8.3193   -6.7594    7.2306 C   0  0  0  0  0  0  0  0  0  0  0  0
   -7.3566   -7.7465    6.9837 C   0  0  0  0  0  0  0  0  0  0  0  0
   -6.1682   -7.4529    6.7294 O   0  0  0  0  0  0  0  0  0  0  0  0
   -7.7766   -9.0355    7.0253 N   0  0  0  0  0  0  0  0  0  0  0  0
   -9.0582   -9.3415    7.2990 C   0  0  0  0  0  0  0  0  0  0  0  0
   -9.3895  -10.5237    7.3116 O   0  0  0  0  0  0  0  0  0  0  0  0
   -7.1100   -9.8364    6.8139 H   0  0  0  0  0  0  0  0  0  0  0  0
  -14.4900   -7.2639    6.7336 C   0  0  0  0  0  0  0  0  0  0  0  0
  -15.5920   -8.1451    6.6183 O   0  0  0  0  0  0  0  0  0  0  0  0
  -15.9806   -8.3633    5.0116 P   0  0  0  0  0  0  0  0  0  0  0  0
  -14.9492   -9.7125    4.4964 O   0  0  0  0  0  0  0  0  0  0  0  0
  -17.3514   -8.9092    4.8605 O   0  0  0  0  0  0  0  0  0  0  0  0
  -14.3067   -9.3271    3.9234 H   0  0  0  0  0  0  0  0  0  0  0  0
  -15.6133   -7.0248    4.0987 O   0  0  0  0  0  0  0  0  0  0  0  0
  -16.9851   -6.0205    3.9747 P   0  0  0  0  0  0  0  0  0  0  0  0
  -17.7669   -6.0201    5.4726 O   0  0  0  0  0  0  0  0  0  0  0  0
  -17.8958   -6.6117    2.9507 O   0  0  0  0  0  0  0  0  0  0  0  0
  -17.2655   -5.4806    6.1113 H   0  0  0  0  0  0  0  0  0  0  0  0
  -16.4818   -4.4560    3.5423 O   0  0  0  0  0  0  0  0  0  0  0  0
  -15.0463   -4.1409    4.3598 P   0  0  0  0  0  0  0  0  0  0  0  0
  -14.6941   -2.4959    4.2647 O   0  0  0  0  0  0  0  0  0  0  0  0
  -13.7919   -5.0568    3.6723 O   0  0  0  0  0  0  0  0  0  0  0  0
  -15.2185   -4.5965    5.7834 O   0  0  0  0  0  0  0  0  0  0  0  0
  -14.9700   -2.0319    5.0825 H   0  0  0  0  0  0  0  0  0  0  0  0
  -14.0280   -6.0081    3.7076 H   0  0  0  0  0  0  0  0  0  0  0  0
  1  2  1  0  0  0
  2  3  1  0  0  0
  3  4  1  0  0  0
  3  5  1  0  0  0
  5  6  1  0  0  0
  6  7  1  0  0  0
  7 19  1  0  0  0
 19 20  1  0  0  0
 20 21  1  0  0  0
 21 22  1  0  0  0
 21 23  2  0  0  0
 21 25  1  0  0  0
 25 26  1  0  0  0
 26 27  1  0  0  0
 26 28  2  0  0  0
 26 30  1  0  0  0
 30 31  1  0  0  0
 31 32  1  0  0  0
 31 33  1  0  0  0
 31 34  2  0  0  0
  5 10  1  0  0  0
 10 11  1  0  0  0
 11 12  2  0  0  0
 12 13  1  0  0  0
 13 14  2  0  0  0
 13 15  1  0  0  0
 15 16  1  0  0  0
 16 17  2  0  0  0
  7  2  1  0  0  0
 16 10  1  0  0  0
  1  8  1  0  0  0
  4  9  1  0  0  0
 22 24  1  0  0  0
 27 29  1  0  0  0
 32 35  1  0  0  0
 33 36  1  0  0  0
 15 18  1  0  0  0
M  END
> <minimizedAffinity>
-5.38084

> <CNNscore>
0.4383775890

> <CNNaffinity>
5.2154426575

> <CNN_VS>
2.2863330841

> <CNNaffinity_variance>
5.3190927505

$$$$
[H]O[C@]1([H])[C@]([H])(n2c([H])c([H])c(=O)n([H])c2=O)O[C@]([H])(C([H])([H])OP(=O)(O[H])OP(=O)(O[H])OP(=O)(O[H])O[H])[C@]1([H])O[H]


 36 37  0  0  0  0  0  0  0  0999 V2000
   -9.0393   -6.1712    6.1278 O   0  0  0  0  0  0  0  0  0  0  0  0
   -7.7904   -5.8043    6.5046 C   0  0  0  0  0  0  0  0  0  0  0  0
   -6.6838   -6.5789    5.7002 C   0  0  0  0  0  0  0  0  0  0  0  0
   -7.2291   -7.8128    5.5125 O   0  0  0  0  0  0  0  0  0  0  0  0
   -5.5512   -6.4513    6.6306 C   0  0  0  0  0  0  0  0  0  0  0  0
   -6.1675   -6.8129    7.8542 O   0  0  0  0  0  0  0  0  0  0  0  0
   -7.3431   -6.1454    7.8684 C   0  0  0  0  0  0  0  0  0  0  0  0
   -9.5555   -5.4139    5.7260 H   0  0  0  0  0  0  0  0  0  0  0  0
   -6.9227   -8.3673    6.3339 H   0  0  0  0  0  0  0  0  0  0  0  0
   -4.3561   -7.1819    6.4719 N   0  0  0  0  0  0  0  0  0  0  0  0
   -3.2544   -6.5711    6.0033 C   0  0  0  0  0  0  0  0  0  0  0  0
   -2.1138   -7.2954    5.6962 C   0  0  0  0  0  0  0  0  0  0  0  0
   -2.0859   -8.6835    5.8819 C   0  0  0  0  0  0  0  0  0  0  0  0
   -1.0678   -9.3591    5.6169 O   0  0  0  0  0  0  0  0  0  0  0  0
   -3.2184   -9.2610    6.3549 N   0  0  0  0  0  0  0  0  0  0  0  0
   -4.3095   -8.5254    6.6364 C   0  0  0  0  0  0  0  0  0  0  0  0
   -5.3134   -9.0990    7.0499 O   0  0  0  0  0  0  0  0  0  0  0  0
   -3.2826  -10.3140    6.4878 H   0  0  0  0  0  0  0  0  0  0  0  0
   -8.4502   -6.6695    8.7233 C   0  0  0  0  0  0  0  0  0  0  0  0
   -9.2417   -7.2843    7.7234 O   0  0  0  0  0  0  0  0  0  0  0  0
  -10.8282   -7.3740    8.2285 P   0  0  0  0  0  0  0  0  0  0  0  0
  -10.8958   -6.2949    9.6357 O   0  0  0  0  0  0  0  0  0  0  0  0
  -11.7383   -6.7200    7.2571 O   0  0  0  0  0  0  0  0  0  0  0  0
  -10.9966   -6.8656   10.3799 H   0  0  0  0  0  0  0  0  0  0  0  0
  -11.2393   -8.9108    8.7075 O   0  0  0  0  0  0  0  0  0  0  0  0
  -12.2568   -9.6229    7.5399 P   0  0  0  0  0  0  0  0  0  0  0  0
  -13.4996   -8.5308    7.1971 O   0  0  0  0  0  0  0  0  0  0  0  0
  -12.8452  -10.8582    8.1358 O   0  0  0  0  0  0  0  0  0  0  0  0
  -13.1606   -7.7997    6.6486 H   0  0  0  0  0  0  0  0  0  0  0  0
  -11.3401   -9.9682    6.1511 O   0  0  0  0  0  0  0  0  0  0  0  0
   -9.8656  -10.5968    6.6602 P   0  0  0  0  0  0  0  0  0  0  0  0
   -9.5787  -10.1371    8.2556 O   0  0  0  0  0  0  0  0  0  0  0  0
   -8.6279  -10.0258    5.6466 O   0  0  0  0  0  0  0  0  0  0  0  0
   -9.9269  -12.0926    6.5096 O   0  0  0  0  0  0  0  0  0  0  0  0
   -9.8161  -10.8584    8.8748 H   0  0  0  0  0  0  0  0  0  0  0  0
   -8.8274  -10.2748    4.7192 H   0  0  0  0  0  0  0  0  0  0  0  0
  1  2  1  0  0  0
  2  3  1  0  0  0
  3  4  1  0  0  0
  3  5  1  0  0  0
  5  6  1  0  0  0
  6  7  1  0  0  0
  7 19  1  0  0  0
 19 20  1  0  0  0
 20 21  1  0  0  0
 21 22  1  0  0  0
 21 23  2  0  0  0
 21 25  1  0  0  0
 25 26  1  0  0  0
 26 27  1  0  0  0
 26 28  2  0  0  0
 26 30  1  0  0  0
 30 31  1  0  0  0
 31 32  1  0  0  0
 31 33  1  0  0  0
 31 34  2  0  0  0
  5 10  1  0  0  0
 10 11  1  0  0  0
 11 12  2  0  0  0
 12 13  1  0  0  0
 13 14  2  0  0  0
 13 15  1  0  0  0
 15 16  1  0  0  0
 16 17  2  0  0  0
  7  2  1  0  0  0
 16 10  1  0  0  0
  1  8  1  0  0  0
  4  9  1  0  0  0
 22 24  1  0  0  0
 27 29  1  0  0  0
 32 35  1  0  0  0
 33 36  1  0  0  0
 15 18  1  0  0  0
M  END
> <minimizedAffinity>
1.02153

> <CNNscore>
0.4294766188

> <CNNaffinity>
4.1956453323

> <CNN_VS>
1.8019316196

> <CNNaffinity_variance>
4.0404887199

$$$$
[H]O[C@]1([H])[C@]([H])(n2c([H])c([H])c(=O)n([H])c2=O)O[C@]([H])(C([H])([H])OP(=O)(O[H])OP(=O)(O[H])OP(=O)(O[H])O[H])[C@]1([H])O[H]


 36 37  0  0  0  0  0  0  0  0999 V2000
  -13.8162   -9.0072    4.8174 O   0  0  0  0  0  0  0  0  0  0  0  0
  -13.8783   -9.1418    6.1644 C   0  0  0  0  0  0  0  0  0  0  0  0
  -13.9809   -7.7502    6.8887 C   0  0  0  0  0  0  0  0  0  0  0  0
  -13.2223   -6.9281    6.1117 O   0  0  0  0  0  0  0  0  0  0  0  0
  -13.4735   -8.1143    8.2209 C   0  0  0  0  0  0  0  0  0  0  0  0
  -12.3095   -8.8441    7.8740 O   0  0  0  0  0  0  0  0  0  0  0  0
  -12.6930   -9.6645    6.8701 C   0  0  0  0  0  0  0  0  0  0  0  0
  -14.5996   -9.4239    4.3548 H   0  0  0  0  0  0  0  0  0  0  0  0
  -12.2675   -6.9888    6.5124 H   0  0  0  0  0  0  0  0  0  0  0  0
  -13.1506   -7.1497    9.1968 N   0  0  0  0  0  0  0  0  0  0  0  0
  -12.0163   -6.4374    9.0854 C   0  0  0  0  0  0  0  0  0  0  0  0
  -11.6012   -5.5942   10.1036 C   0  0  0  0  0  0  0  0  0  0  0  0
  -12.3683   -5.4601   11.2679 C   0  0  0  0  0  0  0  0  0  0  0  0
  -12.0181   -4.7026   12.1989 O   0  0  0  0  0  0  0  0  0  0  0  0
  -13.5044   -6.1973   11.3411 N   0  0  0  0  0  0  0  0  0  0  0  0
  -13.8725   -7.0105   10.3341 C   0  0  0  0  0  0  0  0  0  0  0  0
  -14.9035   -7.6661   10.4562 O   0  0  0  0  0  0  0  0  0  0  0  0
  -14.1185   -6.1734   12.2088 H   0  0  0  0  0  0  0  0  0  0  0  0
  -11.6495  -10.1843    5.9363 C   0  0  0  0  0  0  0  0  0  0  0  0
  -10.8780  -10.9406    6.8512 O   0  0  0  0  0  0  0  0  0  0  0  0
   -9.2626  -10.8439    6.4496 P   0  0  0  0  0  0  0  0  0  0  0  0
   -9.0969   -9.2413    5.7057 O   0  0  0  0  0  0  0  0  0  0  0  0
   -8.4136  -10.7433    7.6616 O   0  0  0  0  0  0  0  0  0  0  0  0
   -8.9515   -9.4085    4.7889 H   0  0  0  0  0  0  0  0  0  0  0  0
   -8.8308  -12.0012    5.3386 O   0  0  0  0  0  0  0  0  0  0  0  0
   -8.5011  -11.2618    3.8385 P   0  0  0  0  0  0  0  0  0  0  0  0
   -7.3508  -10.0514    4.0965 O   0  0  0  0  0  0  0  0  0  0  0  0
   -9.7640  -10.6362    3.3475 O   0  0  0  0  0  0  0  0  0  0  0  0
   -6.4733  -10.4498    4.2431 H   0  0  0  0  0  0  0  0  0  0  0  0
   -7.9223  -12.4419    2.7612 O   0  0  0  0  0  0  0  0  0  0  0  0
   -7.7334  -11.7088    1.2594 P   0  0  0  0  0  0  0  0  0  0  0  0
   -6.8790  -10.2678    1.4402 O   0  0  0  0  0  0  0  0  0  0  0  0
   -9.2615  -11.4111    0.5800 O   0  0  0  0  0  0  0  0  0  0  0  0
   -7.0144  -12.6786    0.3615 O   0  0  0  0  0  0  0  0  0  0  0  0
   -5.9326  -10.3931    1.2193 H   0  0  0  0  0  0  0  0  0  0  0  0
   -9.7561  -12.2553    0.5117 H   0  0  0  0  0  0  0  0  0  0  0  0
  1  2  1  0  0  0
  2  3  1  0  0  0
  3  4  1  0  0  0
  3  5  1  0  0  0
  5  6  1  0  0  0
  6  7  1  0  0  0
  7 19  1  0  0  0
 19 20  1  0  0  0
 20 21  1  0  0  0
 21 22  1  0  0  0
 21 23  2  0  0  0
 21 25  1  0  0  0
 25 26  1  0  0  0
 26 27  1  0  0  0
 26 28  2  0  0  0
 26 30  1  0  0  0
 30 31  1  0  0  0
 31 32  1  0  0  0
 31 33  1  0  0  0
 31 34  2  0  0  0
  5 10  1  0  0  0
 10 11  1  0  0  0
 11 12  2  0  0  0
 12 13  1  0  0  0
 13 14  2  0  0  0
 13 15  1  0  0  0
 15 16  1  0  0  0
 16 17  2  0  0  0
  7  2  1  0  0  0
 16 10  1  0  0  0
  1  8  1  0  0  0
  4  9  1  0  0  0
 22 24  1  0  0  0
 27 29  1  0  0  0
 32 35  1  0  0  0
 33 36  1  0  0  0
 15 18  1  0  0  0
M  END
> <minimizedAffinity>
11.56761

> <CNNscore>
0.4292305112

> <CNNaffinity>
4.5530385971

> <CNN_VS>
1.9543030262

> <CNNaffinity_variance>
2.4478156567

$$$$
[H]O[C@]1([H])[C@]([H])(n2c([H])c([H])c(=O)n([H])c2=O)O[C@]([H])(C([H])([H])OP(=O)(O[H])OP(=O)(O[H])OP(=O)(O[H])O[H])[C@]1([H])O[H]


 36 37  0  0  0  0  0  0  0  0999 V2000
  -10.5654  -10.6301    8.0508 O   0  0  0  0  0  0  0  0  0  0  0  0
  -10.5805  -11.1553    6.8017 C   0  0  0  0  0  0  0  0  0  0  0  0
   -9.1737  -11.0562    6.1068 C   0  0  0  0  0  0  0  0  0  0  0  0
   -8.6702   -9.8784    6.5697 O   0  0  0  0  0  0  0  0  0  0  0  0
   -9.5773  -11.1347    4.6941 C   0  0  0  0  0  0  0  0  0  0  0  0
  -10.6419  -10.1999    4.6673 O   0  0  0  0  0  0  0  0  0  0  0  0
  -11.3802  -10.4735    5.7663 C   0  0  0  0  0  0  0  0  0  0  0  0
  -10.7626  -11.3130    8.7553 H   0  0  0  0  0  0  0  0  0  0  0  0
   -8.9829   -9.1666    5.8830 H   0  0  0  0  0  0  0  0  0  0  0  0
   -8.6857  -10.8628    3.6367 N   0  0  0  0  0  0  0  0  0  0  0  0
   -8.7428  -11.5905    2.5081 C   0  0  0  0  0  0  0  0  0  0  0  0
   -7.7849  -11.4457    1.5174 C   0  0  0  0  0  0  0  0  0  0  0  0
   -6.7416  -10.5239    1.6714 C   0  0  0  0  0  0  0  0  0  0  0  0
   -5.8676  -10.3711    0.7905 O   0  0  0  0  0  0  0  0  0  0  0  0
   -6.7195   -9.8111    2.8252 N   0  0  0  0  0  0  0  0  0  0  0  0
   -7.6643   -9.9833    3.7679 C   0  0  0  0  0  0  0  0  0  0  0  0
   -7.5909   -9.3221    4.8000 O   0  0  0  0  0  0  0  0  0  0  0  0
   -5.9384   -9.1184    3.0268 H   0  0  0  0  0  0  0  0  0  0  0  0
  -12.2502   -9.3966    6.3269 C   0  0  0  0  0  0  0  0  0  0  0  0
  -13.0405  -10.1742    7.2073 O   0  0  0  0  0  0  0  0  0  0  0  0
  -13.8909   -9.1780    8.2391 P   0  0  0  0  0  0  0  0  0  0  0  0
  -13.5106   -7.5404    7.6706 O   0  0  0  0  0  0  0  0  0  0  0  0
  -15.3517   -9.2858    8.0062 O   0  0  0  0  0  0  0  0  0  0  0  0
  -12.9567   -7.1699    8.3381 H   0  0  0  0  0  0  0  0  0  0  0  0
  -13.3797   -9.3349    9.8120 O   0  0  0  0  0  0  0  0  0  0  0  0
  -14.0074   -8.0571   10.7496 P   0  0  0  0  0  0  0  0  0  0  0  0
  -13.1459   -8.0054   12.2021 O   0  0  0  0  0  0  0  0  0  0  0  0
  -15.4383   -8.3629   11.0432 O   0  0  0  0  0  0  0  0  0  0  0  0
  -12.2573   -7.6342   12.0509 H   0  0  0  0  0  0  0  0  0  0  0  0
  -13.8385   -6.6058    9.8815 O   0  0  0  0  0  0  0  0  0  0  0  0
  -12.2337   -6.1204   10.0124 P   0  0  0  0  0  0  0  0  0  0  0  0
  -11.2308   -7.4735    9.9634 O   0  0  0  0  0  0  0  0  0  0  0  0
  -12.0166   -5.2735   11.4687 O   0  0  0  0  0  0  0  0  0  0  0  0
  -11.9476   -5.1687    8.8826 O   0  0  0  0  0  0  0  0  0  0  0  0
  -10.8585   -7.5998    9.0658 H   0  0  0  0  0  0  0  0  0  0  0  0
  -12.6300   -4.5086   11.4936 H   0  0  0  0  0  0  0  0  0  0  0  0
  1  2  1  0  0  0
  2  3  1  0  0  0
  3  4  1  0  0  0
  3  5  1  0  0  0
  5  6  1  0  0  0
  6  7  1  0  0  0
  7 19  1  0  0  0
 19 20  1  0  0  0
 20 21  1  0  0  0
 21 22  1  0  0  0
 21 23  2  0  0  0
 21 25  1  0  0  0
 25 26  1  0  0  0
 26 27  1  0  0  0
 26 28  2  0  0  0
 26 30  1  0  0  0
 30 31  1  0  0  0
 31 32  1  0  0  0
 31 33  1  0  0  0
 31 34  2  0  0  0
  5 10  1  0  0  0
 10 11  1  0  0  0
 11 12  2  0  0  0
 12 13  1  0  0  0
 13 14  2  0  0  0
 13 15  1  0  0  0
 15 16  1  0  0  0
 16 17  2  0  0  0
  7  2  1  0  0  0
 16 10  1  0  0  0
  1  8  1  0  0  0
  4  9  1  0  0  0
 22 24  1  0  0  0
 27 29  1  0  0  0
 32 35  1  0  0  0
 33 36  1  0  0  0
 15 18  1  0  0  0
M  END
> <minimizedAffinity>
20.00276

> <CNNscore>
0.4243269861

> <CNNaffinity>
4.4469027519

> <CNN_VS>
1.8869408369

> <CNNaffinity_variance>
3.5438907146

$$$$
[H]O[C@]1([H])[C@]([H])(n2c([H])c([H])c(=O)n([H])c2=O)O[C@]([H])(C([H])([H])OP(=O)(O[H])OP(=O)(O[H])OP(=O)(O[H])O[H])[C@]1([H])O[H]


 36 37  0  0  0  0  0  0  0  0999 V2000
  -12.8056   -7.7372    9.4053 O   0  0  0  0  0  0  0  0  0  0  0  0
  -11.6055   -8.3260    9.1830 C   0  0  0  0  0  0  0  0  0  0  0  0
  -10.4511   -7.2685    9.0395 C   0  0  0  0  0  0  0  0  0  0  0  0
  -11.0546   -6.2181    8.4171 O   0  0  0  0  0  0  0  0  0  0  0  0
   -9.4698   -8.0589    8.2797 C   0  0  0  0  0  0  0  0  0  0  0  0
  -10.2943   -8.6072    7.2662 O   0  0  0  0  0  0  0  0  0  0  0  0
  -11.4027   -9.0400    7.9081 C   0  0  0  0  0  0  0  0  0  0  0  0
  -13.1931   -7.9827   10.2947 H   0  0  0  0  0  0  0  0  0  0  0  0
  -10.9230   -6.3972    7.4038 H   0  0  0  0  0  0  0  0  0  0  0  0
   -8.3248   -7.4819    7.6938 N   0  0  0  0  0  0  0  0  0  0  0  0
   -8.4159   -6.8811    6.4950 C   0  0  0  0  0  0  0  0  0  0  0  0
   -7.2826   -6.4409    5.8304 C   0  0  0  0  0  0  0  0  0  0  0  0
   -6.0162   -6.6046    6.4063 C   0  0  0  0  0  0  0  0  0  0  0  0
   -4.9789   -6.2120    5.8292 O   0  0  0  0  0  0  0  0  0  0  0  0
   -5.9680   -7.2169    7.6156 N   0  0  0  0  0  0  0  0  0  0  0  0
   -7.0901   -7.6368    8.2284 C   0  0  0  0  0  0  0  0  0  0  0  0
   -6.9901   -8.1970    9.3164 O   0  0  0  0  0  0  0  0  0  0  0  0
   -5.0393   -7.4068    8.0973 H   0  0  0  0  0  0  0  0  0  0  0  0
  -12.6660   -9.1919    7.1258 C   0  0  0  0  0  0  0  0  0  0  0  0
  -12.7053   -7.9210    6.5032 O   0  0  0  0  0  0  0  0  0  0  0  0
  -14.2871   -7.4305    6.3101 P   0  0  0  0  0  0  0  0  0  0  0  0
  -15.2356   -8.8996    6.6123 O   0  0  0  0  0  0  0  0  0  0  0  0
  -14.7061   -6.5259    7.4084 O   0  0  0  0  0  0  0  0  0  0  0  0
  -15.5809   -9.1480    5.7704 H   0  0  0  0  0  0  0  0  0  0  0  0
  -14.5873   -6.9036    4.7634 O   0  0  0  0  0  0  0  0  0  0  0  0
  -16.0450   -6.0204    4.7308 P   0  0  0  0  0  0  0  0  0  0  0  0
  -16.4841   -5.8004    3.1141 O   0  0  0  0  0  0  0  0  0  0  0  0
  -15.7881   -4.6874    5.3509 O   0  0  0  0  0  0  0  0  0  0  0  0
  -16.8268   -6.6347    2.7442 H   0  0  0  0  0  0  0  0  0  0  0  0
  -17.2328   -6.8914    5.5785 O   0  0  0  0  0  0  0  0  0  0  0  0
  -17.8665   -8.0405    4.5267 P   0  0  0  0  0  0  0  0  0  0  0  0
  -18.7919   -9.1487    5.3953 O   0  0  0  0  0  0  0  0  0  0  0  0
  -16.5966   -8.8303    3.7211 O   0  0  0  0  0  0  0  0  0  0  0  0
  -18.6840   -7.3155    3.4922 O   0  0  0  0  0  0  0  0  0  0  0  0
  -19.7454   -8.9312    5.3342 H   0  0  0  0  0  0  0  0  0  0  0  0
  -16.0508   -8.1672    3.2476 H   0  0  0  0  0  0  0  0  0  0  0  0
  1  2  1  0  0  0
  2  3  1  0  0  0
  3  4  1  0  0  0
  3  5  1  0  0  0
  5  6  1  0  0  0
  6  7  1  0  0  0
  7 19  1  0  0  0
 19 20  1  0  0  0
 20 21  1  0  0  0
 21 22  1  0  0  0
 21 23  2  0  0  0
 21 25  1  0  0  0
 25 26  1  0  0  0
 26 27  1  0  0  0
 26 28  2  0  0  0
 26 30  1  0  0  0
 30 31  1  0  0  0
 31 32  1  0  0  0
 31 33  1  0  0  0
 31 34  2  0  0  0
  5 10  1  0  0  0
 10 11  1  0  0  0
 11 12  2  0  0  0
 12 13  1  0  0  0
 13 14  2  0  0  0
 13 15  1  0  0  0
 15 16  1  0  0  0
 16 17  2  0  0  0
  7  2  1  0  0  0
 16 10  1  0  0  0
  1  8  1  0  0  0
  4  9  1  0  0  0
 22 24  1  0  0  0
 27 29  1  0  0  0
 32 35  1  0  0  0
 33 36  1  0  0  0
 15 18  1  0  0  0
M  END
> <minimizedAffinity>
-6.58130

> <CNNscore>
0.4168258011

> <CNNaffinity>
4.9958662987

> <CNN_VS>
2.0824060440

> <CNNaffinity_variance>
6.0634975433

$$$$
[H]O[C@]1([H])[C@]([H])(n2c([H])c([H])c(=O)n([H])c2=O)O[C@]([H])(C([H])([H])OP(=O)(O[H])OP(=O)(O[H])OP(=O)(O[H])O[H])[C@]1([H])O[H]


 36 37  0  0  0  0  0  0  0  0999 V2000
   -6.8774   -7.6330    9.2352 O   0  0  0  0  0  0  0  0  0  0  0  0
   -5.8389   -7.8681    8.3971 C   0  0  0  0  0  0  0  0  0  0  0  0
   -5.0489   -6.5517    8.0585 C   0  0  0  0  0  0  0  0  0  0  0  0
   -6.0186   -5.5959    8.0257 O   0  0  0  0  0  0  0  0  0  0  0  0
   -4.4177   -6.9483    6.7900 C   0  0  0  0  0  0  0  0  0  0  0  0
   -5.5223   -7.5144    6.1065 O   0  0  0  0  0  0  0  0  0  0  0  0
   -6.1370   -8.3006    7.0186 C   0  0  0  0  0  0  0  0  0  0  0  0
   -6.7747   -8.1029   10.1128 H   0  0  0  0  0  0  0  0  0  0  0  0
   -6.3393   -5.5753    7.0394 H   0  0  0  0  0  0  0  0  0  0  0  0
   -3.7667   -6.0241    5.9479 N   0  0  0  0  0  0  0  0  0  0  0  0
   -4.3987   -4.8989    5.5723 C   0  0  0  0  0  0  0  0  0  0  0  0
   -3.8427   -4.0502    4.6286 C   0  0  0  0  0  0  0  0  0  0  0  0
   -2.5991   -4.3465    4.0560 C   0  0  0  0  0  0  0  0  0  0  0  0
   -2.0740   -3.5948    3.2061 O   0  0  0  0  0  0  0  0  0  0  0  0
   -1.9957   -5.4917    4.4610 N   0  0  0  0  0  0  0  0  0  0  0  0
   -2.5693   -6.2948    5.3758 C   0  0  0  0  0  0  0  0  0  0  0  0
   -1.9872   -7.3267    5.6983 O   0  0  0  0  0  0  0  0  0  0  0  0
   -1.0670   -5.7990    4.0443 H   0  0  0  0  0  0  0  0  0  0  0  0
   -7.5798   -8.6310    6.8181 C   0  0  0  0  0  0  0  0  0  0  0  0
   -8.1435   -7.3542    7.0556 O   0  0  0  0  0  0  0  0  0  0  0  0
   -9.7216   -7.5153    7.5690 P   0  0  0  0  0  0  0  0  0  0  0  0
   -9.6867   -6.9614    9.2547 O   0  0  0  0  0  0  0  0  0  0  0  0
  -10.6051   -6.5253    6.9063 O   0  0  0  0  0  0  0  0  0  0  0  0
   -9.8106   -7.7398    9.7728 H   0  0  0  0  0  0  0  0  0  0  0  0
  -10.2261   -9.0977    7.5319 O   0  0  0  0  0  0  0  0  0  0  0  0
  -11.9056   -9.1714    7.8141 P   0  0  0  0  0  0  0  0  0  0  0  0
  -12.4150  -10.7539    7.5126 O   0  0  0  0  0  0  0  0  0  0  0  0
  -12.5744   -8.2523    6.8471 O   0  0  0  0  0  0  0  0  0  0  0  0
  -12.1332  -11.3400    8.2387 H   0  0  0  0  0  0  0  0  0  0  0  0
  -12.2110   -8.7225    9.4246 O   0  0  0  0  0  0  0  0  0  0  0  0
  -13.4448   -7.5797    9.4072 P   0  0  0  0  0  0  0  0  0  0  0  0
  -14.7446   -8.1687    8.5114 O   0  0  0  0  0  0  0  0  0  0  0  0
  -12.8655   -6.1331    8.7313 O   0  0  0  0  0  0  0  0  0  0  0  0
  -13.8292   -7.2965   10.8341 O   0  0  0  0  0  0  0  0  0  0  0  0
  -15.4351   -8.5389    9.0999 H   0  0  0  0  0  0  0  0  0  0  0  0
  -12.0906   -5.8222    9.2459 H   0  0  0  0  0  0  0  0  0  0  0  0
  1  2  1  0  0  0
  2  3  1  0  0  0
  3  4  1  0  0  0
  3  5  1  0  0  0
  5  6  1  0  0  0
  6  7  1  0  0  0
  7 19  1  0  0  0
 19 20  1  0  0  0
 20 21  1  0  0  0
 21 22  1  0  0  0
 21 23  2  0  0  0
 21 25  1  0  0  0
 25 26  1  0  0  0
 26 27  1  0  0  0
 26 28  2  0  0  0
 26 30  1  0  0  0
 30 31  1  0  0  0
 31 32  1  0  0  0
 31 33  1  0  0  0
 31 34  2  0  0  0
  5 10  1  0  0  0
 10 11  1  0  0  0
 11 12  2  0  0  0
 12 13  1  0  0  0
 13 14  2  0  0  0
 13 15  1  0  0  0
 15 16  1  0  0  0
 16 17  2  0  0  0
  7  2  1  0  0  0
 16 10  1  0  0  0
  1  8  1  0  0  0
  4  9  1  0  0  0
 22 24  1  0  0  0
 27 29  1  0  0  0
 32 35  1  0  0  0
 33 36  1  0  0  0
 15 18  1  0  0  0
M  END
> <minimizedAffinity>
-4.24815

> <CNNscore>
0.3971881270

> <CNNaffinity>
4.0737152100

> <CNN_VS>
1.6180312634

> <CNNaffinity_variance>
2.0695281029

$$$$
[H]/C(=C(/[H])C([H])([H])N1C([H])([H])C([H])([H])N(C([H])([H])[C@]2([H])ON=C3c4c([H])c(OC([H])([H])[H])c(OC([H])([H])[H])c([H])c4OC([H])([H])[C@]32[H])C([H])([H])C1([H])[H])c1c([H])c([H])c([H])c([H])c1OC([H])([H])[H]


 35 39  0  0  0  0  0  0  0  0999 V2000
   -5.8049   -8.4721    6.9742 C   0  0  0  0  0  0  0  0  0  0  0  0
  -13.2068   -8.2202    8.6562 C   0  0  0  0  0  0  0  0  0  0  0  0
  -12.3654   -9.2005    8.1569 C   0  0  0  0  0  0  0  0  0  0  0  0
  -11.0392   -8.9410    7.8841 C   0  0  0  0  0  0  0  0  0  0  0  0
  -10.1440   -9.8434    7.3925 O   0  0  0  0  0  0  0  0  0  0  0  0
   -8.7537   -9.7521    7.3188 C   0  0  0  0  0  0  0  0  0  0  0  0
   -8.1853   -8.4578    7.7919 C   0  0  0  0  0  0  0  0  0  0  0  0
   -7.1521   -7.8468    6.8700 C   0  0  0  0  0  0  0  0  0  0  0  0
   -7.1971   -6.5064    7.3903 O   0  0  0  0  0  0  0  0  0  0  0  0
   -8.5529   -6.2611    7.6127 N   0  0  0  0  0  0  0  0  0  0  0  0
   -9.1676   -7.3615    7.8490 C   0  0  0  0  0  0  0  0  0  0  0  0
  -10.5804   -7.6414    8.1346 C   0  0  0  0  0  0  0  0  0  0  0  0
  -11.4248   -6.6755    8.6304 C   0  0  0  0  0  0  0  0  0  0  0  0
  -12.7500   -6.9380    8.9019 C   0  0  0  0  0  0  0  0  0  0  0  0
  -15.6144   -8.2788    8.0740 C   0  0  0  0  0  0  0  0  0  0  0  0
  -14.5281   -8.4773    8.9288 O   0  0  0  0  0  0  0  0  0  0  0  0
  -13.5979   -5.9462    9.4056 O   0  0  0  0  0  0  0  0  0  0  0  0
  -13.1473   -5.2108   10.5358 C   0  0  0  0  0  0  0  0  0  0  0  0
   -4.7868   -7.4875    6.8725 N   0  0  0  0  0  0  0  0  0  0  0  0
   -4.5265   -6.6692    7.9863 C   0  0  0  0  0  0  0  0  0  0  0  0
   -4.1109   -5.2855    7.5210 C   0  0  0  0  0  0  0  0  0  0  0  0
   -3.2375   -5.2982    6.3991 N   0  0  0  0  0  0  0  0  0  0  0  0
   -2.6865   -6.5967    6.1822 C   0  0  0  0  0  0  0  0  0  0  0  0
   -3.7285   -7.6841    5.9762 C   0  0  0  0  0  0  0  0  0  0  0  0
   -3.6841   -4.5984    5.2390 C   0  0  0  0  0  0  0  0  0  0  0  0
   -3.8420   -3.1461    5.6390 C   0  0  0  0  0  0  0  0  0  0  0  0
   -3.9853   -2.2386    4.7206 C   0  0  0  0  0  0  0  0  0  0  0  0
   -4.1468   -0.8185    4.9029 C   0  0  0  0  0  0  0  0  0  0  0  0
   -4.5346   -0.3825    6.1739 C   0  0  0  0  0  0  0  0  0  0  0  0
   -4.7284    0.9422    6.4812 C   0  0  0  0  0  0  0  0  0  0  0  0
   -4.5363    1.8891    5.5068 C   0  0  0  0  0  0  0  0  0  0  0  0
   -4.1563    1.5226    4.2437 C   0  0  0  0  0  0  0  0  0  0  0  0
   -3.9705    0.1652    3.9750 C   0  0  0  0  0  0  0  0  0  0  0  0
   -3.5873   -0.1912    2.6961 O   0  0  0  0  0  0  0  0  0  0  0  0
   -4.4892   -0.0619    1.6280 C   0  0  0  0  0  0  0  0  0  0  0  0
 15 16  1  0  0  0
 16  2  1  0  0  0
  2  3  2  0  0  0
  3  4  1  0  0  0
  4  5  1  0  0  0
  5  6  1  0  0  0
  6  7  1  0  0  0
  7  8  1  0  0  0
  8  1  1  0  0  0
  1 19  1  0  0  0
 19 20  1  0  0  0
 20 21  1  0  0  0
 21 22  1  0  0  0
 22 25  1  0  0  0
 25 26  1  0  0  0
 26 27  2  0  0  0
 27 28  1  0  0  0
 28 29  2  0  0  0
 29 30  1  0  0  0
 30 31  2  0  0  0
 31 32  1  0  0  0
 32 33  2  0  0  0
 33 34  1  0  0  0
 34 35  1  0  0  0
 22 23  1  0  0  0
 23 24  1  0  0  0
  8  9  1  0  0  0
  9 10  1  0  0  0
 10 11  2  0  0  0
 11 12  1  0  0  0
 12 13  1  0  0  0
 13 14  2  0  0  0
 14 17  1  0  0  0
 17 18  1  0  0  0
 14  2  1  0  0  0
 12  4  2  0  0  0
 11  7  1  0  0  0
 24 19  1  0  0  0
 33 28  1  0  0  0
M  END
> <minimizedAffinity>
-7.54141

> <CNNscore>
0.4872969687

> <CNNaffinity>
6.6821160316

> <CNN_VS>
3.2561748028

> <CNNaffinity_variance>
0.1339891553

$$$$
[H]/C(=C(/[H])C([H])([H])N1C([H])([H])C([H])([H])N(C([H])([H])[C@]2([H])ON=C3c4c([H])c(OC([H])([H])[H])c(OC([H])([H])[H])c([H])c4OC([H])([H])[C@]32[H])C([H])([H])C1([H])[H])c1c([H])c([H])c([H])c([H])c1OC([H])([H])[H]


 35 39  0  0  0  0  0  0  0  0999 V2000
   -5.9884   -8.5533    6.6383 C   0  0  0  0  0  0  0  0  0  0  0  0
  -13.2696   -8.1412    8.7584 C   0  0  0  0  0  0  0  0  0  0  0  0
  -12.5026   -9.1086    8.1306 C   0  0  0  0  0  0  0  0  0  0  0  0
  -11.1823   -8.8816    7.8049 C   0  0  0  0  0  0  0  0  0  0  0  0
  -10.3575   -9.7743    7.1882 O   0  0  0  0  0  0  0  0  0  0  0  0
   -8.9704   -9.7348    7.0426 C   0  0  0  0  0  0  0  0  0  0  0  0
   -8.3182   -8.5111    7.5898 C   0  0  0  0  0  0  0  0  0  0  0  0
   -7.3089   -7.8658    6.6648 C   0  0  0  0  0  0  0  0  0  0  0  0
   -7.2638   -6.5749    7.2981 O   0  0  0  0  0  0  0  0  0  0  0  0
   -8.5928   -6.2938    7.6179 N   0  0  0  0  0  0  0  0  0  0  0  0
   -9.2442   -7.3841    7.7955 C   0  0  0  0  0  0  0  0  0  0  0  0
  -10.6510   -7.6289    8.1373 C   0  0  0  0  0  0  0  0  0  0  0  0
  -11.4220   -6.6754    8.7606 C   0  0  0  0  0  0  0  0  0  0  0  0
  -12.7413   -6.9052    9.0848 C   0  0  0  0  0  0  0  0  0  0  0  0
  -15.6966   -8.1736    8.2610 C   0  0  0  0  0  0  0  0  0  0  0  0
  -14.5848   -8.3659    9.0838 O   0  0  0  0  0  0  0  0  0  0  0  0
  -13.5141   -5.9266    9.7182 O   0  0  0  0  0  0  0  0  0  0  0  0
  -12.8850   -5.1454   10.7258 C   0  0  0  0  0  0  0  0  0  0  0  0
   -4.9312   -7.6056    6.6116 N   0  0  0  0  0  0  0  0  0  0  0  0
   -3.6229   -8.0473    6.8787 C   0  0  0  0  0  0  0  0  0  0  0  0
   -2.8490   -6.9564    7.5961 C   0  0  0  0  0  0  0  0  0  0  0  0
   -3.0938   -5.6520    7.0859 N   0  0  0  0  0  0  0  0  0  0  0  0
   -3.7384   -5.7025    5.8136 C   0  0  0  0  0  0  0  0  0  0  0  0
   -5.0573   -6.4583    5.8182 C   0  0  0  0  0  0  0  0  0  0  0  0
   -3.5977   -4.6920    8.0129 C   0  0  0  0  0  0  0  0  0  0  0  0
   -2.9517   -4.9944    9.3491 C   0  0  0  0  0  0  0  0  0  0  0  0
   -3.6565   -4.9111   10.4371 C   0  0  0  0  0  0  0  0  0  0  0  0
   -3.2229   -5.1573   11.7888 C   0  0  0  0  0  0  0  0  0  0  0  0
   -1.8968   -5.5656   11.9648 C   0  0  0  0  0  0  0  0  0  0  0  0
   -1.3576   -5.8378   13.1984 C   0  0  0  0  0  0  0  0  0  0  0  0
   -2.1443   -5.7071   14.3150 C   0  0  0  0  0  0  0  0  0  0  0  0
   -3.4501   -5.3108   14.2055 C   0  0  0  0  0  0  0  0  0  0  0  0
   -3.9574   -5.0444   12.9323 C   0  0  0  0  0  0  0  0  0  0  0  0
   -5.2768   -4.6456   12.8356 O   0  0  0  0  0  0  0  0  0  0  0  0
   -6.3099   -5.5481   13.1342 C   0  0  0  0  0  0  0  0  0  0  0  0
 15 16  1  0  0  0
 16  2  1  0  0  0
  2  3  2  0  0  0
  3  4  1  0  0  0
  4  5  1  0  0  0
  5  6  1  0  0  0
  6  7  1  0  0  0
  7  8  1  0  0  0
  8  1  1  0  0  0
  1 19  1  0  0  0
 19 20  1  0  0  0
 20 21  1  0  0  0
 21 22  1  0  0  0
 22 25  1  0  0  0
 25 26  1  0  0  0
 26 27  2  0  0  0
 27 28  1  0  0  0
 28 29  2  0  0  0
 29 30  1  0  0  0
 30 31  2  0  0  0
 31 32  1  0  0  0
 32 33  2  0  0  0
 33 34  1  0  0  0
 34 35  1  0  0  0
 22 23  1  0  0  0
 23 24  1  0  0  0
  8  9  1  0  0  0
  9 10  1  0  0  0
 10 11  2  0  0  0
 11 12  1  0  0  0
 12 13  1  0  0  0
 13 14  2  0  0  0
 14 17  1  0  0  0
 17 18  1  0  0  0
 14  2  1  0  0  0
 12  4  2  0  0  0
 11  7  1  0  0  0
 24 19  1  0  0  0
 33 28  1  0  0  0
M  END
> <minimizedAffinity>
-7.64680

> <CNNscore>
0.3747294247

> <CNNaffinity>
6.6414365768

> <CNN_VS>
2.4887416363

> <CNNaffinity_variance>
0.1338076591

$$$$
[H]/C(=C(/[H])C([H])([H])N1C([H])([H])C([H])([H])N(C([H])([H])[C@]2([H])ON=C3c4c([H])c(OC([H])([H])[H])c(OC([H])([H])[H])c([H])c4OC([H])([H])[C@]32[H])C([H])([H])C1([H])[H])c1c([H])c([H])c([H])c([H])c1OC([H])([H])[H]


 35 39  0  0  0  0  0  0  0  0999 V2000
   -4.7598   -8.2376    6.7446 C   0  0  0  0  0  0  0  0  0  0  0  0
  -12.1825   -8.3656    8.3473 C   0  0  0  0  0  0  0  0  0  0  0  0
  -11.2896   -9.2973    7.8443 C   0  0  0  0  0  0  0  0  0  0  0  0
   -9.9746   -8.9704    7.5898 C   0  0  0  0  0  0  0  0  0  0  0  0
   -9.0318   -9.8218    7.0961 O   0  0  0  0  0  0  0  0  0  0  0  0
   -7.6468   -9.6627    7.0391 C   0  0  0  0  0  0  0  0  0  0  0  0
   -7.1466   -8.3492    7.5358 C   0  0  0  0  0  0  0  0  0  0  0  0
   -6.1345   -7.6764    6.6338 C   0  0  0  0  0  0  0  0  0  0  0  0
   -6.2496   -6.3471    7.1715 O   0  0  0  0  0  0  0  0  0  0  0  0
   -7.6179   -6.1705    7.3820 N   0  0  0  0  0  0  0  0  0  0  0  0
   -8.1812   -7.3024    7.5967 C   0  0  0  0  0  0  0  0  0  0  0  0
   -9.5818   -7.6539    7.8628 C   0  0  0  0  0  0  0  0  0  0  0  0
  -10.4770   -6.7367    8.3620 C   0  0  0  0  0  0  0  0  0  0  0  0
  -11.7907   -7.0664    8.6153 C   0  0  0  0  0  0  0  0  0  0  0  0
  -14.4910   -8.9459    7.6594 C   0  0  0  0  0  0  0  0  0  0  0  0
  -13.4926   -8.6897    8.6016 O   0  0  0  0  0  0  0  0  0  0  0  0
  -12.6907   -6.1237    9.1227 O   0  0  0  0  0  0  0  0  0  0  0  0
  -12.7901   -6.0072   10.5361 C   0  0  0  0  0  0  0  0  0  0  0  0
   -3.8074   -7.1986    6.9165 N   0  0  0  0  0  0  0  0  0  0  0  0
   -3.3770   -6.8872    8.2188 C   0  0  0  0  0  0  0  0  0  0  0  0
   -3.0944   -5.3996    8.3243 C   0  0  0  0  0  0  0  0  0  0  0  0
   -2.4364   -4.8607    7.1849 N   0  0  0  0  0  0  0  0  0  0  0  0
   -1.8934   -5.8913    6.3605 C   0  0  0  0  0  0  0  0  0  0  0  0
   -2.9214   -6.8997    5.8736 C   0  0  0  0  0  0  0  0  0  0  0  0
   -3.1052   -3.7968    6.5097 C   0  0  0  0  0  0  0  0  0  0  0  0
   -2.7348   -2.5190    7.2339 C   0  0  0  0  0  0  0  0  0  0  0  0
   -3.6713   -1.7119    7.6327 C   0  0  0  0  0  0  0  0  0  0  0  0
   -3.5178   -0.4607    8.3304 C   0  0  0  0  0  0  0  0  0  0  0  0
   -3.4486   -0.5173    9.7261 C   0  0  0  0  0  0  0  0  0  0  0  0
   -3.3077    0.6004   10.5120 C   0  0  0  0  0  0  0  0  0  0  0  0
   -3.2303    1.8326    9.9133 C   0  0  0  0  0  0  0  0  0  0  0  0
   -3.2922    1.9510    8.5508 C   0  0  0  0  0  0  0  0  0  0  0  0
   -3.4357    0.7889    7.7903 C   0  0  0  0  0  0  0  0  0  0  0  0
   -3.4972    0.9224    6.4163 O   0  0  0  0  0  0  0  0  0  0  0  0
   -4.4458    1.7770    5.8327 C   0  0  0  0  0  0  0  0  0  0  0  0
 15 16  1  0  0  0
 16  2  1  0  0  0
  2  3  2  0  0  0
  3  4  1  0  0  0
  4  5  1  0  0  0
  5  6  1  0  0  0
  6  7  1  0  0  0
  7  8  1  0  0  0
  8  1  1  0  0  0
  1 19  1  0  0  0
 19 20  1  0  0  0
 20 21  1  0  0  0
 21 22  1  0  0  0
 22 25  1  0  0  0
 25 26  1  0  0  0
 26 27  2  0  0  0
 27 28  1  0  0  0
 28 29  2  0  0  0
 29 30  1  0  0  0
 30 31  2  0  0  0
 31 32  1  0  0  0
 32 33  2  0  0  0
 33 34  1  0  0  0
 34 35  1  0  0  0
 22 23  1  0  0  0
 23 24  1  0  0  0
  8  9  1  0  0  0
  9 10  1  0  0  0
 10 11  2  0  0  0
 11 12  1  0  0  0
 12 13  1  0  0  0
 13 14  2  0  0  0
 14 17  1  0  0  0
 17 18  1  0  0  0
 14  2  1  0  0  0
 12  4  2  0  0  0
 11  7  1  0  0  0
 24 19  1  0  0  0
 33 28  1  0  0  0
M  END
> <minimizedAffinity>
-6.45893

> <CNNscore>
0.3581569195

> <CNNaffinity>
6.4336533546

> <CNN_VS>
2.3042573929

> <CNNaffinity_variance>
0.3144448400

$$$$
[H]/C(=C(/[H])C([H])([H])N1C([H])([H])C([H])([H])N(C([H])([H])[C@]2([H])ON=C3c4c([H])c(OC([H])([H])[H])c(OC([H])([H])[H])c([H])c4OC([H])([H])[C@]32[H])C([H])([H])C1([H])[H])c1c([H])c([H])c([H])c([H])c1OC([H])([H])[H]


 35 39  0  0  0  0  0  0  0  0999 V2000
   -3.5892   -5.0238    6.6813 C   0  0  0  0  0  0  0  0  0  0  0  0
   -1.9668   -2.9617   13.8085 C   0  0  0  0  0  0  0  0  0  0  0  0
   -1.2059   -3.1783   12.6717 C   0  0  0  0  0  0  0  0  0  0  0  0
   -1.7761   -3.6195   11.4965 C   0  0  0  0  0  0  0  0  0  0  0  0
   -1.1043   -3.8582   10.3350 O   0  0  0  0  0  0  0  0  0  0  0  0
   -1.6119   -4.0620    9.0515 C   0  0  0  0  0  0  0  0  0  0  0  0
   -3.0998   -4.0781    8.9620 C   0  0  0  0  0  0  0  0  0  0  0  0
   -3.6720   -5.2233    8.1546 C   0  0  0  0  0  0  0  0  0  0  0  0
   -5.0173   -5.1635    8.6604 O   0  0  0  0  0  0  0  0  0  0  0  0
   -4.8683   -4.9311   10.0285 N   0  0  0  0  0  0  0  0  0  0  0  0
   -3.7717   -4.3054   10.2530 C   0  0  0  0  0  0  0  0  0  0  0  0
   -3.1596   -3.8389   11.5035 C   0  0  0  0  0  0  0  0  0  0  0  0
   -3.9055   -3.6207   12.6383 C   0  0  0  0  0  0  0  0  0  0  0  0
   -3.3327   -3.1798   13.8114 C   0  0  0  0  0  0  0  0  0  0  0  0
   -1.5043   -1.2437   15.5329 C   0  0  0  0  0  0  0  0  0  0  0  0
   -1.4004   -2.5218   14.9797 O   0  0  0  0  0  0  0  0  0  0  0  0
   -4.1030   -2.9623   14.9583 O   0  0  0  0  0  0  0  0  0  0  0  0
   -4.2936   -1.6161   15.3742 C   0  0  0  0  0  0  0  0  0  0  0  0
   -3.2272   -6.2337    6.0320 N   0  0  0  0  0  0  0  0  0  0  0  0
   -3.7615   -6.5017    4.7589 C   0  0  0  0  0  0  0  0  0  0  0  0
   -3.9793   -7.9951    4.5973 C   0  0  0  0  0  0  0  0  0  0  0  0
   -2.9277   -8.7873    5.1339 N   0  0  0  0  0  0  0  0  0  0  0  0
   -1.7637   -8.0029    5.3921 C   0  0  0  0  0  0  0  0  0  0  0  0
   -2.0011   -6.8373    6.3386 C   0  0  0  0  0  0  0  0  0  0  0  0
   -3.2927   -9.7287    6.1417 C   0  0  0  0  0  0  0  0  0  0  0  0
   -4.4470   -9.1196    6.9104 C   0  0  0  0  0  0  0  0  0  0  0  0
   -5.6635   -9.2981    6.4912 C   0  0  0  0  0  0  0  0  0  0  0  0
   -6.8805   -8.8019    7.0815 C   0  0  0  0  0  0  0  0  0  0  0  0
   -6.8420   -7.5141    7.6257 C   0  0  0  0  0  0  0  0  0  0  0  0
   -7.9293   -6.9234    8.2220 C   0  0  0  0  0  0  0  0  0  0  0  0
   -9.1111   -7.6171    8.2932 C   0  0  0  0  0  0  0  0  0  0  0  0
   -9.2095   -8.8816    7.7779 C   0  0  0  0  0  0  0  0  0  0  0  0
   -8.0797   -9.4437    7.1805 C   0  0  0  0  0  0  0  0  0  0  0  0
   -8.1925  -10.7206    6.6645 O   0  0  0  0  0  0  0  0  0  0  0  0
   -9.4557  -11.2428    6.3447 C   0  0  0  0  0  0  0  0  0  0  0  0
 15 16  1  0  0  0
 16  2  1  0  0  0
  2  3  2  0  0  0
  3  4  1  0  0  0
  4  5  1  0  0  0
  5  6  1  0  0  0
  6  7  1  0  0  0
  7  8  1  0  0  0
  8  1  1  0  0  0
  1 19  1  0  0  0
 19 20  1  0  0  0
 20 21  1  0  0  0
 21 22  1  0  0  0
 22 25  1  0  0  0
 25 26  1  0  0  0
 26 27  2  0  0  0
 27 28  1  0  0  0
 28 29  2  0  0  0
 29 30  1  0  0  0
 30 31  2  0  0  0
 31 32  1  0  0  0
 32 33  2  0  0  0
 33 34  1  0  0  0
 34 35  1  0  0  0
 22 23  1  0  0  0
 23 24  1  0  0  0
  8  9  1  0  0  0
  9 10  1  0  0  0
 10 11  2  0  0  0
 11 12  1  0  0  0
 12 13  1  0  0  0
 13 14  2  0  0  0
 14 17  1  0  0  0
 17 18  1  0  0  0
 14  2  1  0  0  0
 12  4  2  0  0  0
 11  7  1  0  0  0
 24 19  1  0  0  0
 33 28  1  0  0  0
M  END
> <minimizedAffinity>
4.33033

> <CNNscore>
0.3537170589

> <CNNaffinity>
5.7136721611

> <CNN_VS>
2.0210232735

> <CNNaffinity_variance>
1.3092558384

$$$$
[H]/C(=C(/[H])C([H])([H])N1C([H])([H])C([H])([H])N(C([H])([H])[C@]2([H])ON=C3c4c([H])c(OC([H])([H])[H])c(OC([H])([H])[H])c([H])c4OC([H])([H])[C@]32[H])C([H])([H])C1([H])[H])c1c([H])c([H])c([H])c([H])c1OC([H])([H])[H]


 35 39  0  0  0  0  0  0  0  0999 V2000
  -10.5070   -7.4522    8.7878 C   0  0  0  0  0  0  0  0  0  0  0  0
  -17.1331   -6.9985    5.1039 C   0  0  0  0  0  0  0  0  0  0  0  0
  -15.8944   -6.4021    4.9350 C   0  0  0  0  0  0  0  0  0  0  0  0
  -14.8593   -6.6295    5.8169 C   0  0  0  0  0  0  0  0  0  0  0  0
  -13.6129   -6.0856    5.7269 O   0  0  0  0  0  0  0  0  0  0  0  0
  -12.4483   -6.4380    6.4097 C   0  0  0  0  0  0  0  0  0  0  0  0
  -12.6179   -7.5222    7.4186 C   0  0  0  0  0  0  0  0  0  0  0  0
  -11.9806   -7.2404    8.7622 C   0  0  0  0  0  0  0  0  0  0  0  0
  -12.7074   -8.2162    9.5296 O   0  0  0  0  0  0  0  0  0  0  0  0
  -14.0156   -8.1371    9.0499 N   0  0  0  0  0  0  0  0  0  0  0  0
  -14.0154   -7.7387    7.8309 C   0  0  0  0  0  0  0  0  0  0  0  0
  -15.1161   -7.4908    6.8913 C   0  0  0  0  0  0  0  0  0  0  0  0
  -16.3501   -8.0775    7.0494 C   0  0  0  0  0  0  0  0  0  0  0  0
  -17.3827   -7.8482    6.1663 C   0  0  0  0  0  0  0  0  0  0  0  0
  -18.8699   -5.5808    4.0491 C   0  0  0  0  0  0  0  0  0  0  0  0
  -18.1650   -6.7733    4.2261 O   0  0  0  0  0  0  0  0  0  0  0  0
  -18.6329   -8.4510    6.3392 O   0  0  0  0  0  0  0  0  0  0  0  0
  -19.1471   -9.2155    5.2563 C   0  0  0  0  0  0  0  0  0  0  0  0
  -10.1620   -8.6523    8.1117 N   0  0  0  0  0  0  0  0  0  0  0  0
   -9.2326   -9.5208    8.7116 C   0  0  0  0  0  0  0  0  0  0  0  0
   -8.4046  -10.2064    7.6401 C   0  0  0  0  0  0  0  0  0  0  0  0
   -9.1599  -10.6097    6.5050 N   0  0  0  0  0  0  0  0  0  0  0  0
  -10.5610  -10.5855    6.7757 C   0  0  0  0  0  0  0  0  0  0  0  0
  -11.0804   -9.2296    7.2256 C   0  0  0  0  0  0  0  0  0  0  0  0
   -8.7492  -10.0767    5.2471 C   0  0  0  0  0  0  0  0  0  0  0  0
   -8.8703  -11.1989    4.2370 C   0  0  0  0  0  0  0  0  0  0  0  0
   -8.0382  -11.2596    3.2412 C   0  0  0  0  0  0  0  0  0  0  0  0
   -7.9949  -12.2418    2.1880 C   0  0  0  0  0  0  0  0  0  0  0  0
   -8.0091  -11.7633    0.8739 C   0  0  0  0  0  0  0  0  0  0  0  0
   -7.9765  -12.5911   -0.2218 C   0  0  0  0  0  0  0  0  0  0  0  0
   -7.9279  -13.9491   -0.0319 C   0  0  0  0  0  0  0  0  0  0  0  0
   -7.9118  -14.4764    1.2314 C   0  0  0  0  0  0  0  0  0  0  0  0
   -7.9461  -13.5986    2.3165 C   0  0  0  0  0  0  0  0  0  0  0  0
   -7.9297  -14.1437    3.5862 O   0  0  0  0  0  0  0  0  0  0  0  0
   -7.6263  -15.5026    3.7661 C   0  0  0  0  0  0  0  0  0  0  0  0
 15 16  1  0  0  0
 16  2  1  0  0  0
  2  3  2  0  0  0
  3  4  1  0  0  0
  4  5  1  0  0  0
  5  6  1  0  0  0
  6  7  1  0  0  0
  7  8  1  0  0  0
  8  1  1  0  0  0
  1 19  1  0  0  0
 19 20  1  0  0  0
 20 21  1  0  0  0
 21 22  1  0  0  0
 22 25  1  0  0  0
 25 26  1  0  0  0
 26 27  2  0  0  0
 27 28  1  0  0  0
 28 29  2  0  0  0
 29 30  1  0  0  0
 30 31  2  0  0  0
 31 32  1  0  0  0
 32 33  2  0  0  0
 33 34  1  0  0  0
 34 35  1  0  0  0
 22 23  1  0  0  0
 23 24  1  0  0  0
  8  9  1  0  0  0
  9 10  1  0  0  0
 10 11  2  0  0  0
 11 12  1  0  0  0
 12 13  1  0  0  0
 13 14  2  0  0  0
 14 17  1  0  0  0
 17 18  1  0  0  0
 14  2  1  0  0  0
 12  4  2  0  0  0
 11  7  1  0  0  0
 24 19  1  0  0  0
 33 28  1  0  0  0
M  END
> <minimizedAffinity>
5.35324

> <CNNscore>
0.3305647075

> <CNNaffinity>
6.6455574036

> <CNN_VS>
2.1967866421

> <CNNaffinity_variance>
0.4287307262

$$$$
[H]/C(=C(/[H])C([H])([H])N1C([H])([H])C([H])([H])N(C([H])([H])[C@]2([H])ON=C3c4c([H])c(OC([H])([H])[H])c(OC([H])([H])[H])c([H])c4OC([H])([H])[C@]32[H])C([H])([H])C1([H])[H])c1c([H])c([H])c([H])c([H])c1OC([H])([H])[H]


 35 39  0  0  0  0  0  0  0  0999 V2000
   -5.7530   -8.5011    6.8155 C   0  0  0  0  0  0  0  0  0  0  0  0
  -13.0772   -8.0478    8.7732 C   0  0  0  0  0  0  0  0  0  0  0  0
  -12.2983   -9.0258    8.1773 C   0  0  0  0  0  0  0  0  0  0  0  0
  -10.9711   -8.8054    7.8762 C   0  0  0  0  0  0  0  0  0  0  0  0
  -10.1346   -9.7086    7.2914 O   0  0  0  0  0  0  0  0  0  0  0  0
   -8.7447   -9.6729    7.1748 C   0  0  0  0  0  0  0  0  0  0  0  0
   -8.1025   -8.4414    7.7164 C   0  0  0  0  0  0  0  0  0  0  0  0
   -7.0728   -7.8119    6.8031 C   0  0  0  0  0  0  0  0  0  0  0  0
   -7.0394   -6.5112    7.4168 O   0  0  0  0  0  0  0  0  0  0  0  0
   -8.3746   -6.2237    7.7038 N   0  0  0  0  0  0  0  0  0  0  0  0
   -9.0311   -7.3103    7.8846 C   0  0  0  0  0  0  0  0  0  0  0  0
  -10.4452   -7.5482    8.2001 C   0  0  0  0  0  0  0  0  0  0  0  0
  -11.2279   -6.5842    8.7917 C   0  0  0  0  0  0  0  0  0  0  0  0
  -12.5542   -6.8075    9.0913 C   0  0  0  0  0  0  0  0  0  0  0  0
  -15.4627   -8.3425    8.1721 C   0  0  0  0  0  0  0  0  0  0  0  0
  -14.3993   -8.2660    9.0741 O   0  0  0  0  0  0  0  0  0  0  0  0
  -13.3390   -5.8181    9.6926 O   0  0  0  0  0  0  0  0  0  0  0  0
  -12.7390   -5.0406   10.7206 C   0  0  0  0  0  0  0  0  0  0  0  0
   -4.6942   -7.5550    6.8063 N   0  0  0  0  0  0  0  0  0  0  0  0
   -3.5750   -7.7875    7.6256 C   0  0  0  0  0  0  0  0  0  0  0  0
   -3.0206   -6.4658    8.1250 C   0  0  0  0  0  0  0  0  0  0  0  0
   -3.0084   -5.4419    7.1386 N   0  0  0  0  0  0  0  0  0  0  0  0
   -3.1983   -5.9772    5.8293 C   0  0  0  0  0  0  0  0  0  0  0  0
   -4.4856   -6.7690    5.6658 C   0  0  0  0  0  0  0  0  0  0  0  0
   -3.7346   -4.2537    7.4479 C   0  0  0  0  0  0  0  0  0  0  0  0
   -3.4758   -3.9519    8.9094 C   0  0  0  0  0  0  0  0  0  0  0  0
   -2.9861   -2.7980    9.2504 C   0  0  0  0  0  0  0  0  0  0  0  0
   -2.6736   -2.3307   10.5770 C   0  0  0  0  0  0  0  0  0  0  0  0
   -2.8342   -0.9631   10.8216 C   0  0  0  0  0  0  0  0  0  0  0  0
   -2.5673   -0.3868   12.0396 C   0  0  0  0  0  0  0  0  0  0  0  0
   -2.1231   -1.1770   13.0696 C   0  0  0  0  0  0  0  0  0  0  0  0
   -1.9467   -2.5227   12.8900 C   0  0  0  0  0  0  0  0  0  0  0  0
   -2.2300   -3.0668   11.6358 C   0  0  0  0  0  0  0  0  0  0  0  0
   -2.0475   -4.4262   11.4678 O   0  0  0  0  0  0  0  0  0  0  0  0
   -2.7727   -5.3371   12.2522 C   0  0  0  0  0  0  0  0  0  0  0  0
 15 16  1  0  0  0
 16  2  1  0  0  0
  2  3  2  0  0  0
  3  4  1  0  0  0
  4  5  1  0  0  0
  5  6  1  0  0  0
  6  7  1  0  0  0
  7  8  1  0  0  0
  8  1  1  0  0  0
  1 19  1  0  0  0
 19 20  1  0  0  0
 20 21  1  0  0  0
 21 22  1  0  0  0
 22 25  1  0  0  0
 25 26  1  0  0  0
 26 27  2  0  0  0
 27 28  1  0  0  0
 28 29  2  0  0  0
 29 30  1  0  0  0
 30 31  2  0  0  0
 31 32  1  0  0  0
 32 33  2  0  0  0
 33 34  1  0  0  0
 34 35  1  0  0  0
 22 23  1  0  0  0
 23 24  1  0  0  0
  8  9  1  0  0  0
  9 10  1  0  0  0
 10 11  2  0  0  0
 11 12  1  0  0  0
 12 13  1  0  0  0
 13 14  2  0  0  0
 14 17  1  0  0  0
 17 18  1  0  0  0
 14  2  1  0  0  0
 12  4  2  0  0  0
 11  7  1  0  0  0
 24 19  1  0  0  0
 33 28  1  0  0  0
M  END
> <minimizedAffinity>
-6.43927

> <CNNscore>
0.2998385727

> <CNNaffinity>
6.3362455368

> <CNN_VS>
1.8998508453

> <CNNaffinity_variance>
0.1558792740

$$$$
[H]/C(=C(/[H])C([H])([H])N1C([H])([H])C([H])([H])N(C([H])([H])[C@]2([H])ON=C3c4c([H])c(OC([H])([H])[H])c(OC([H])([H])[H])c([H])c4OC([H])([H])[C@]32[H])C([H])([H])C1([H])[H])c1c([H])c([H])c([H])c([H])c1OC([H])([H])[H]


 35 39  0  0  0  0  0  0  0  0999 V2000
  -10.4919   -7.8014    8.7093 C   0  0  0  0  0  0  0  0  0  0  0  0
   -3.5043   -6.8701    5.8831 C   0  0  0  0  0  0  0  0  0  0  0  0
   -4.6570   -6.1023    5.8742 C   0  0  0  0  0  0  0  0  0  0  0  0
   -5.8326   -6.5615    6.4290 C   0  0  0  0  0  0  0  0  0  0  0  0
   -7.0093   -5.8749    6.4635 O   0  0  0  0  0  0  0  0  0  0  0  0
   -8.1616   -6.1414    7.2037 C   0  0  0  0  0  0  0  0  0  0  0  0
   -8.1066   -7.3868    8.0211 C   0  0  0  0  0  0  0  0  0  0  0  0
   -9.3290   -8.2719    7.9072 C   0  0  0  0  0  0  0  0  0  0  0  0
   -8.7403   -9.4813    8.4172 O   0  0  0  0  0  0  0  0  0  0  0  0
   -7.4676   -9.5207    7.8459 N   0  0  0  0  0  0  0  0  0  0  0  0
   -7.0581   -8.3310    7.5978 C   0  0  0  0  0  0  0  0  0  0  0  0
   -5.8092   -7.8394    7.0024 C   0  0  0  0  0  0  0  0  0  0  0  0
   -4.6588   -8.5933    7.0056 C   0  0  0  0  0  0  0  0  0  0  0  0
   -3.4854   -8.1315    6.4501 C   0  0  0  0  0  0  0  0  0  0  0  0
   -2.1870   -5.3641    4.4217 C   0  0  0  0  0  0  0  0  0  0  0  0
   -2.3324   -6.4138    5.3312 O   0  0  0  0  0  0  0  0  0  0  0  0
   -2.3227   -8.9089    6.4598 O   0  0  0  0  0  0  0  0  0  0  0  0
   -1.9936   -9.6107    5.2679 C   0  0  0  0  0  0  0  0  0  0  0  0
  -11.7055   -8.3139    8.1795 N   0  0  0  0  0  0  0  0  0  0  0  0
  -12.1506   -9.5758    8.6126 C   0  0  0  0  0  0  0  0  0  0  0  0
  -12.8654  -10.2858    7.4774 C   0  0  0  0  0  0  0  0  0  0  0  0
  -13.7066   -9.4340    6.7103 N   0  0  0  0  0  0  0  0  0  0  0  0
  -13.9487   -8.1982    7.3819 C   0  0  0  0  0  0  0  0  0  0  0  0
  -12.6867   -7.4235    7.7252 C   0  0  0  0  0  0  0  0  0  0  0  0
  -13.4229   -9.3508    5.3148 C   0  0  0  0  0  0  0  0  0  0  0  0
  -14.6149   -8.6778    4.6663 C   0  0  0  0  0  0  0  0  0  0  0  0
  -15.2347   -7.7243    5.2943 C   0  0  0  0  0  0  0  0  0  0  0  0
  -16.3783   -6.9717    4.8454 C   0  0  0  0  0  0  0  0  0  0  0  0
  -17.4959   -7.7033    4.4311 C   0  0  0  0  0  0  0  0  0  0  0  0
  -18.6486   -7.1108    3.9763 C   0  0  0  0  0  0  0  0  0  0  0  0
  -18.7192   -5.7416    3.9212 C   0  0  0  0  0  0  0  0  0  0  0  0
  -17.6569   -4.9723    4.3135 C   0  0  0  0  0  0  0  0  0  0  0  0
  -16.5048   -5.6160    4.7691 C   0  0  0  0  0  0  0  0  0  0  0  0
  -15.4398   -4.8279    5.1618 O   0  0  0  0  0  0  0  0  0  0  0  0
  -14.6259   -4.2115    4.1982 C   0  0  0  0  0  0  0  0  0  0  0  0
 15 16  1  0  0  0
 16  2  1  0  0  0
  2  3  2  0  0  0
  3  4  1  0  0  0
  4  5  1  0  0  0
  5  6  1  0  0  0
  6  7  1  0  0  0
  7  8  1  0  0  0
  8  1  1  0  0  0
  1 19  1  0  0  0
 19 20  1  0  0  0
 20 21  1  0  0  0
 21 22  1  0  0  0
 22 25  1  0  0  0
 25 26  1  0  0  0
 26 27  2  0  0  0
 27 28  1  0  0  0
 28 29  2  0  0  0
 29 30  1  0  0  0
 30 31  2  0  0  0
 31 32  1  0  0  0
 32 33  2  0  0  0
 33 34  1  0  0  0
 34 35  1  0  0  0
 22 23  1  0  0  0
 23 24  1  0  0  0
  8  9  1  0  0  0
  9 10  1  0  0  0
 10 11  2  0  0  0
 11 12  1  0  0  0
 12 13  1  0  0  0
 13 14  2  0  0  0
 14 17  1  0  0  0
 17 18  1  0  0  0
 14  2  1  0  0  0
 12  4  2  0  0  0
 11  7  1  0  0  0
 24 19  1  0  0  0
 33 28  1  0  0  0
M  END
> <minimizedAffinity>
-7.55908

> <CNNscore>
0.2571614981

> <CNNaffinity>
7.0504264832

> <CNN_VS>
1.8130981922

> <CNNaffinity_variance>
0.0267193858

$$$$
[H]/C(=C(/[H])C([H])([H])N1C([H])([H])C([H])([H])N(C([H])([H])[C@]2([H])ON=C3c4c([H])c(OC([H])([H])[H])c(OC([H])([H])[H])c([H])c4OC([H])([H])[C@]32[H])C([H])([H])C1([H])[H])c1c([H])c([H])c([H])c([H])c1OC([H])([H])[H]


 35 39  0  0  0  0  0  0  0  0999 V2000
   -3.2787   -3.7640    5.0603 C   0  0  0  0  0  0  0  0  0  0  0  0
   -7.1530   -9.8509    7.4314 C   0  0  0  0  0  0  0  0  0  0  0  0
   -5.8120   -9.5045    7.4268 C   0  0  0  0  0  0  0  0  0  0  0  0
   -5.3742   -8.3267    6.8594 C   0  0  0  0  0  0  0  0  0  0  0  0
   -4.0778   -7.9092    6.8104 O   0  0  0  0  0  0  0  0  0  0  0  0
   -3.5713   -6.6494    6.4891 C   0  0  0  0  0  0  0  0  0  0  0  0
   -4.5977   -5.6458    6.0874 C   0  0  0  0  0  0  0  0  0  0  0  0
   -4.2597   -4.8619    4.8376 C   0  0  0  0  0  0  0  0  0  0  0  0
   -5.5852   -4.3871    4.5426 O   0  0  0  0  0  0  0  0  0  0  0  0
   -6.4147   -5.4800    4.7977 N   0  0  0  0  0  0  0  0  0  0  0  0
   -5.8849   -6.2386    5.6856 C   0  0  0  0  0  0  0  0  0  0  0  0
   -6.3463   -7.4958    6.2878 C   0  0  0  0  0  0  0  0  0  0  0  0
   -7.6753   -7.8497    6.2979 C   0  0  0  0  0  0  0  0  0  0  0  0
   -8.1098   -9.0277    6.8657 C   0  0  0  0  0  0  0  0  0  0  0  0
   -6.8578  -11.8829    8.8179 C   0  0  0  0  0  0  0  0  0  0  0  0
   -7.5907  -11.0236    7.9966 O   0  0  0  0  0  0  0  0  0  0  0  0
   -9.4644   -9.3756    6.8687 O   0  0  0  0  0  0  0  0  0  0  0  0
  -10.2768   -8.8383    7.9045 C   0  0  0  0  0  0  0  0  0  0  0  0
   -2.9086   -3.1657    3.8270 N   0  0  0  0  0  0  0  0  0  0  0  0
   -1.6081   -3.3808    3.3366 C   0  0  0  0  0  0  0  0  0  0  0  0
   -1.1292   -2.1475    2.5926 C   0  0  0  0  0  0  0  0  0  0  0  0
   -2.1296   -1.5452    1.7813 N   0  0  0  0  0  0  0  0  0  0  0  0
   -3.2401   -2.4204    1.5873 C   0  0  0  0  0  0  0  0  0  0  0  0
   -3.8985   -2.8794    2.8782 C   0  0  0  0  0  0  0  0  0  0  0  0
   -2.4402   -0.1819    2.0638 C   0  0  0  0  0  0  0  0  0  0  0  0
   -3.7776    0.1050    1.4133 C   0  0  0  0  0  0  0  0  0  0  0  0
   -3.8999    0.0037    0.1240 C   0  0  0  0  0  0  0  0  0  0  0  0
   -5.0798    0.2349   -0.6699 C   0  0  0  0  0  0  0  0  0  0  0  0
   -5.5650    1.5457   -0.7177 C   0  0  0  0  0  0  0  0  0  0  0  0
   -6.6827    1.9018   -1.4323 C   0  0  0  0  0  0  0  0  0  0  0  0
   -7.3619    0.9382   -2.1345 C   0  0  0  0  0  0  0  0  0  0  0  0
   -6.9345   -0.3624   -2.1256 C   0  0  0  0  0  0  0  0  0  0  0  0
   -5.7938   -0.6802   -1.3859 C   0  0  0  0  0  0  0  0  0  0  0  0
   -5.3733   -1.9965   -1.3851 O   0  0  0  0  0  0  0  0  0  0  0  0
   -5.5695   -2.8000   -2.5194 C   0  0  0  0  0  0  0  0  0  0  0  0
 15 16  1  0  0  0
 16  2  1  0  0  0
  2  3  2  0  0  0
  3  4  1  0  0  0
  4  5  1  0  0  0
  5  6  1  0  0  0
  6  7  1  0  0  0
  7  8  1  0  0  0
  8  1  1  0  0  0
  1 19  1  0  0  0
 19 20  1  0  0  0
 20 21  1  0  0  0
 21 22  1  0  0  0
 22 25  1  0  0  0
 25 26  1  0  0  0
 26 27  2  0  0  0
 27 28  1  0  0  0
 28 29  2  0  0  0
 29 30  1  0  0  0
 30 31  2  0  0  0
 31 32  1  0  0  0
 32 33  2  0  0  0
 33 34  1  0  0  0
 34 35  1  0  0  0
 22 23  1  0  0  0
 23 24  1  0  0  0
  8  9  1  0  0  0
  9 10  1  0  0  0
 10 11  2  0  0  0
 11 12  1  0  0  0
 12 13  1  0  0  0
 13 14  2  0  0  0
 14 17  1  0  0  0
 17 18  1  0  0  0
 14  2  1  0  0  0
 12  4  2  0  0  0
 11  7  1  0  0  0
 24 19  1  0  0  0
 33 28  1  0  0  0
M  END
> <minimizedAffinity>
1.69467

> <CNNscore>
0.2310245782

> <CNNaffinity>
5.4572348595

> <CNN_VS>
1.2607554197

> <CNNaffinity_variance>
0.2090832889

$$$$
[H]/C(=C(/[H])C([H])([H])N1C([H])([H])C([H])([H])N(C([H])([H])[C@]2([H])ON=C3c4c([H])c(OC([H])([H])[H])c(OC([H])([H])[H])c([H])c4OC([H])([H])[C@]32[H])C([H])([H])C1([H])[H])c1c([H])c([H])c([H])c([H])c1OC([H])([H])[H]


 35 39  0  0  0  0  0  0  0  0999 V2000
   -4.9839   -8.0583    6.4822 C   0  0  0  0  0  0  0  0  0  0  0  0
  -12.2578   -8.7129    8.5664 C   0  0  0  0  0  0  0  0  0  0  0  0
  -11.4323   -9.4268    7.7137 C   0  0  0  0  0  0  0  0  0  0  0  0
  -10.1333   -9.0332    7.4717 C   0  0  0  0  0  0  0  0  0  0  0  0
   -9.2552   -9.6742    6.6498 O   0  0  0  0  0  0  0  0  0  0  0  0
   -7.8753   -9.5039    6.5331 C   0  0  0  0  0  0  0  0  0  0  0  0
   -7.3030   -8.4259    7.3890 C   0  0  0  0  0  0  0  0  0  0  0  0
   -6.3478   -7.4932    6.6760 C   0  0  0  0  0  0  0  0  0  0  0  0
   -6.3850   -6.4143    7.6269 O   0  0  0  0  0  0  0  0  0  0  0  0
   -7.7273   -6.3180    7.9967 N   0  0  0  0  0  0  0  0  0  0  0  0
   -8.3015   -7.4582    7.8751 C   0  0  0  0  0  0  0  0  0  0  0  0
   -9.6855   -7.8790    8.1270 C   0  0  0  0  0  0  0  0  0  0  0  0
  -10.5140   -7.1776    8.9716 C   0  0  0  0  0  0  0  0  0  0  0  0
  -11.8119   -7.5735    9.2113 C   0  0  0  0  0  0  0  0  0  0  0  0
  -14.6456   -8.9591    7.9526 C   0  0  0  0  0  0  0  0  0  0  0  0
  -13.5518   -9.1040    8.8087 O   0  0  0  0  0  0  0  0  0  0  0  0
  -12.6439   -6.8507   10.0724 O   0  0  0  0  0  0  0  0  0  0  0  0
  -13.2448   -5.6672    9.5629 C   0  0  0  0  0  0  0  0  0  0  0  0
   -3.9930   -7.0771    6.7497 N   0  0  0  0  0  0  0  0  0  0  0  0
   -3.0246   -7.3475    7.7332 C   0  0  0  0  0  0  0  0  0  0  0  0
   -2.6394   -6.0618    8.4419 C   0  0  0  0  0  0  0  0  0  0  0  0
   -2.5092   -4.9459    7.5705 N   0  0  0  0  0  0  0  0  0  0  0  0
   -2.4362   -5.3561    6.2055 C   0  0  0  0  0  0  0  0  0  0  0  0
   -3.6297   -6.1753    5.7415 C   0  0  0  0  0  0  0  0  0  0  0  0
   -3.3419   -3.8218    7.8498 C   0  0  0  0  0  0  0  0  0  0  0  0
   -2.7934   -2.6616    7.0452 C   0  0  0  0  0  0  0  0  0  0  0  0
   -3.6116   -1.7989    6.5217 C   0  0  0  0  0  0  0  0  0  0  0  0
   -3.2828   -0.6405    5.7307 C   0  0  0  0  0  0  0  0  0  0  0  0
   -3.1662   -0.8281    4.3496 C   0  0  0  0  0  0  0  0  0  0  0  0
   -2.8531    0.1900    3.4824 C   0  0  0  0  0  0  0  0  0  0  0  0
   -2.6430    1.4512    3.9805 C   0  0  0  0  0  0  0  0  0  0  0  0
   -2.7433    1.6959    5.3237 C   0  0  0  0  0  0  0  0  0  0  0  0
   -3.0637    0.6321    6.1692 C   0  0  0  0  0  0  0  0  0  0  0  0
   -3.1615    0.8926    7.5228 O   0  0  0  0  0  0  0  0  0  0  0  0
   -2.0060    0.9274    8.3194 C   0  0  0  0  0  0  0  0  0  0  0  0
 15 16  1  0  0  0
 16  2  1  0  0  0
  2  3  2  0  0  0
  3  4  1  0  0  0
  4  5  1  0  0  0
  5  6  1  0  0  0
  6  7  1  0  0  0
  7  8  1  0  0  0
  8  1  1  0  0  0
  1 19  1  0  0  0
 19 20  1  0  0  0
 20 21  1  0  0  0
 21 22  1  0  0  0
 22 25  1  0  0  0
 25 26  1  0  0  0
 26 27  2  0  0  0
 27 28  1  0  0  0
 28 29  2  0  0  0
 29 30  1  0  0  0
 30 31  2  0  0  0
 31 32  1  0  0  0
 32 33  2  0  0  0
 33 34  1  0  0  0
 34 35  1  0  0  0
 22 23  1  0  0  0
 23 24  1  0  0  0
  8  9  1  0  0  0
  9 10  1  0  0  0
 10 11  2  0  0  0
 11 12  1  0  0  0
 12 13  1  0  0  0
 13 14  2  0  0  0
 14 17  1  0  0  0
 17 18  1  0  0  0
 14  2  1  0  0  0
 12  4  2  0  0  0
 11  7  1  0  0  0
 24 19  1  0  0  0
 33 28  1  0  0  0
M  END
> <minimizedAffinity>
-5.82795

> <CNNscore>
0.2310034186

> <CNNaffinity>
6.3180184364

> <CNN_VS>
1.4594838619

> <CNNaffinity_variance>
0.3824133277

$$$$
[H]OC(=O)[C@@]([H])(N([H])C(=O)[C@@]([H])(N([H])C(=O)c1c([H])c(OC([H])([H])[H])c(OC([H])([H])[H])c(OC([H])([H])[H])c1[H])C([H])([H])c1c([H])c([H])c([H])c([H])c1[H])C([H])([H])c1c([H])c([H])c([H])c([H])c1[H]


 40 42  0  0  0  0  0  0  0  0999 V2000
   -5.4366   -6.5896    7.3870 C   0  0  0  0  0  0  0  0  0  0  0  0
   -7.6858   -7.6752    7.5374 C   0  0  0  0  0  0  0  0  0  0  0  0
   -7.2143   -8.7122    7.0079 O   0  0  0  0  0  0  0  0  0  0  0  0
   -6.8469   -6.5789    7.7548 N   0  0  0  0  0  0  0  0  0  0  0  0
   -7.2143   -5.7137    8.1951 H   0  0  0  0  0  0  0  0  0  0  0  0
  -10.9342   -6.5627    8.9997 C   0  0  0  0  0  0  0  0  0  0  0  0
   -9.6183   -6.6040    8.6352 C   0  0  0  0  0  0  0  0  0  0  0  0
   -9.0880   -7.6638    7.9008 C   0  0  0  0  0  0  0  0  0  0  0  0
   -9.9087   -8.6900    7.5355 C   0  0  0  0  0  0  0  0  0  0  0  0
  -11.2466   -8.6809    7.8874 C   0  0  0  0  0  0  0  0  0  0  0  0
  -11.7382   -7.6190    8.6130 C   0  0  0  0  0  0  0  0  0  0  0  0
  -11.7332   -5.7538   11.1054 C   0  0  0  0  0  0  0  0  0  0  0  0
  -11.4874   -5.5203    9.7305 O   0  0  0  0  0  0  0  0  0  0  0  0
  -12.0514   -9.7400    7.4993 O   0  0  0  0  0  0  0  0  0  0  0  0
  -12.7116   -9.7130    6.2574 C   0  0  0  0  0  0  0  0  0  0  0  0
  -13.0936   -7.6412    8.9519 O   0  0  0  0  0  0  0  0  0  0  0  0
  -14.0610   -6.9375    8.1967 C   0  0  0  0  0  0  0  0  0  0  0  0
   -4.5708   -5.9930    8.4232 C   0  0  0  0  0  0  0  0  0  0  0  0
   -3.6687   -6.7005    8.9616 O   0  0  0  0  0  0  0  0  0  0  0  0
   -4.7193   -4.6599    8.8255 N   0  0  0  0  0  0  0  0  0  0  0  0
   -5.4297   -4.0210    8.4368 H   0  0  0  0  0  0  0  0  0  0  0  0
   -3.8170   -4.1017    9.8706 C   0  0  0  0  0  0  0  0  0  0  0  0
   -2.5926   -3.6259    9.2162 C   0  0  0  0  0  0  0  0  0  0  0  0
   -1.4051   -3.5726    9.9131 O   0  0  0  0  0  0  0  0  0  0  0  0
   -2.5512   -3.2449    8.0190 O   0  0  0  0  0  0  0  0  0  0  0  0
   -0.5078   -3.4966    9.4902 H   0  0  0  0  0  0  0  0  0  0  0  0
   -3.5830   -5.1969   10.8992 C   0  0  0  0  0  0  0  0  0  0  0  0
   -4.3051   -4.9871   12.1414 C   0  0  0  0  0  0  0  0  0  0  0  0
   -3.7647   -4.2580   13.1815 C   0  0  0  0  0  0  0  0  0  0  0  0
   -4.4835   -4.0834   14.3407 C   0  0  0  0  0  0  0  0  0  0  0  0
   -5.7480   -4.6466   14.4460 C   0  0  0  0  0  0  0  0  0  0  0  0
   -6.2887   -5.3754   13.4072 C   0  0  0  0  0  0  0  0  0  0  0  0
   -5.5794   -5.5567   12.2431 C   0  0  0  0  0  0  0  0  0  0  0  0
   -5.2251   -6.0543    6.0015 C   0  0  0  0  0  0  0  0  0  0  0  0
   -3.8158   -6.0129    5.5858 C   0  0  0  0  0  0  0  0  0  0  0  0
   -3.2828   -4.8678    4.9903 C   0  0  0  0  0  0  0  0  0  0  0  0
   -1.9744   -4.7979    4.5907 C   0  0  0  0  0  0  0  0  0  0  0  0
   -1.1199   -5.8669    4.7618 C   0  0  0  0  0  0  0  0  0  0  0  0
   -1.6275   -7.0031    5.3467 C   0  0  0  0  0  0  0  0  0  0  0  0
   -2.9559   -7.0715    5.7514 C   0  0  0  0  0  0  0  0  0  0  0  0
 12 13  1  0  0  0
 13  6  1  0  0  0
  6  7  2  0  0  0
  7  8  1  0  0  0
  8  9  2  0  0  0
  9 10  1  0  0  0
 10 14  1  0  0  0
 14 15  1  0  0  0
 10 11  2  0  0  0
 11 16  1  0  0  0
 16 17  1  0  0  0
  8  2  1  0  0  0
  2  3  2  0  0  0
  2  4  1  0  0  0
  4  1  1  0  0  0
  1 34  1  0  0  0
 34 35  1  0  0  0
 35 36  2  0  0  0
 36 37  1  0  0  0
 37 38  2  0  0  0
 38 39  1  0  0  0
 39 40  2  0  0  0
  1 18  1  0  0  0
 18 19  2  0  0  0
 18 20  1  0  0  0
 20 22  1  0  0  0
 22 27  1  0  0  0
 27 28  1  0  0  0
 28 29  2  0  0  0
 29 30  1  0  0  0
 30 31  2  0  0  0
 31 32  1  0  0  0
 32 33  2  0  0  0
 22 23  1  0  0  0
 23 24  1  0  0  0
 23 25  2  0  0  0
 11  6  1  0  0  0
 40 35  1  0  0  0
 33 28  1  0  0  0
  4  5  1  0  0  0
 20 21  1  0  0  0
 24 26  1  0  0  0
M  END
> <minimizedAffinity>
-6.08565

> <CNNscore>
0.4523415864

> <CNNaffinity>
6.1550569534

> <CNN_VS>
2.7841882706

> <CNNaffinity_variance>
0.1392497867

$$$$
[H]OC(=O)[C@@]([H])(N([H])C(=O)[C@@]([H])(N([H])C(=O)c1c([H])c(OC([H])([H])[H])c(OC([H])([H])[H])c(OC([H])([H])[H])c1[H])C([H])([H])c1c([H])c([H])c([H])c([H])c1[H])C([H])([H])c1c([H])c([H])c([H])c([H])c1[H]


 40 42  0  0  0  0  0  0  0  0999 V2000
   -8.7381  -10.5362    5.8417 C   0  0  0  0  0  0  0  0  0  0  0  0
  -10.2022   -8.8862    7.0224 C   0  0  0  0  0  0  0  0  0  0  0  0
   -9.3938   -7.9697    6.7320 O   0  0  0  0  0  0  0  0  0  0  0  0
   -9.9313  -10.1920    6.6048 N   0  0  0  0  0  0  0  0  0  0  0  0
  -10.5878  -10.9639    6.8297 H   0  0  0  0  0  0  0  0  0  0  0  0
  -13.7854   -8.6464    8.0380 C   0  0  0  0  0  0  0  0  0  0  0  0
  -12.6468   -8.9549    7.3492 C   0  0  0  0  0  0  0  0  0  0  0  0
  -11.3868   -8.5445    7.7828 C   0  0  0  0  0  0  0  0  0  0  0  0
  -11.2892   -7.8129    8.9296 C   0  0  0  0  0  0  0  0  0  0  0  0
  -12.4215   -7.4824    9.6525 C   0  0  0  0  0  0  0  0  0  0  0  0
  -13.6505   -7.9036    9.1964 C   0  0  0  0  0  0  0  0  0  0  0  0
  -15.7086   -8.2236    6.6782 C   0  0  0  0  0  0  0  0  0  0  0  0
  -15.0513   -9.0422    7.6286 O   0  0  0  0  0  0  0  0  0  0  0  0
  -12.2852   -6.7380   10.8132 O   0  0  0  0  0  0  0  0  0  0  0  0
  -11.4975   -5.5725   10.8216 C   0  0  0  0  0  0  0  0  0  0  0  0
  -14.7735   -7.5528    9.9501 O   0  0  0  0  0  0  0  0  0  0  0  0
  -15.2639   -8.3829   10.9853 C   0  0  0  0  0  0  0  0  0  0  0  0
   -7.5904   -9.6599    6.1489 C   0  0  0  0  0  0  0  0  0  0  0  0
   -6.9773   -9.0845    5.2016 O   0  0  0  0  0  0  0  0  0  0  0  0
   -7.1623   -9.4451    7.4648 N   0  0  0  0  0  0  0  0  0  0  0  0
   -7.6072   -9.8778    8.2888 H   0  0  0  0  0  0  0  0  0  0  0  0
   -6.0029   -8.5471    7.7242 C   0  0  0  0  0  0  0  0  0  0  0  0
   -6.5167   -7.2547    8.1926 C   0  0  0  0  0  0  0  0  0  0  0  0
   -6.4081   -6.9007    9.5198 O   0  0  0  0  0  0  0  0  0  0  0  0
   -7.0744   -6.4174    7.4387 O   0  0  0  0  0  0  0  0  0  0  0  0
   -6.5069   -5.9726    9.8642 H   0  0  0  0  0  0  0  0  0  0  0  0
   -5.1981   -8.4628    6.4368 C   0  0  0  0  0  0  0  0  0  0  0  0
   -3.9377   -7.7578    6.5881 C   0  0  0  0  0  0  0  0  0  0  0  0
   -2.8786   -8.3045    7.2845 C   0  0  0  0  0  0  0  0  0  0  0  0
   -1.7023   -7.6024    7.4031 C   0  0  0  0  0  0  0  0  0  0  0  0
   -1.5989   -6.3481    6.8170 C   0  0  0  0  0  0  0  0  0  0  0  0
   -2.6568   -5.8010    6.1211 C   0  0  0  0  0  0  0  0  0  0  0  0
   -3.8381   -6.4937    5.9957 C   0  0  0  0  0  0  0  0  0  0  0  0
   -9.0439  -10.6884    4.3808 C   0  0  0  0  0  0  0  0  0  0  0  0
   -8.6615  -11.9937    3.8233 C   0  0  0  0  0  0  0  0  0  0  0  0
   -8.7628  -13.1539    4.5937 C   0  0  0  0  0  0  0  0  0  0  0  0
   -8.4134  -14.3846    4.1042 C   0  0  0  0  0  0  0  0  0  0  0  0
   -7.9421  -14.5306    2.8162 C   0  0  0  0  0  0  0  0  0  0  0  0
   -7.8355  -13.3987    2.0429 C   0  0  0  0  0  0  0  0  0  0  0  0
   -8.1908  -12.1507    2.5421 C   0  0  0  0  0  0  0  0  0  0  0  0
 12 13  1  0  0  0
 13  6  1  0  0  0
  6  7  2  0  0  0
  7  8  1  0  0  0
  8  9  2  0  0  0
  9 10  1  0  0  0
 10 14  1  0  0  0
 14 15  1  0  0  0
 10 11  2  0  0  0
 11 16  1  0  0  0
 16 17  1  0  0  0
  8  2  1  0  0  0
  2  3  2  0  0  0
  2  4  1  0  0  0
  4  1  1  0  0  0
  1 34  1  0  0  0
 34 35  1  0  0  0
 35 36  2  0  0  0
 36 37  1  0  0  0
 37 38  2  0  0  0
 38 39  1  0  0  0
 39 40  2  0  0  0
  1 18  1  0  0  0
 18 19  2  0  0  0
 18 20  1  0  0  0
 20 22  1  0  0  0
 22 27  1  0  0  0
 27 28  1  0  0  0
 28 29  2  0  0  0
 29 30  1  0  0  0
 30 31  2  0  0  0
 31 32  1  0  0  0
 32 33  2  0  0  0
 22 23  1  0  0  0
 23 24  1  0  0  0
 23 25  2  0  0  0
 11  6  1  0  0  0
 40 35  1  0  0  0
 33 28  1  0  0  0
  4  5  1  0  0  0
 20 21  1  0  0  0
 24 26  1  0  0  0
M  END
> <minimizedAffinity>
3.25306

> <CNNscore>
0.4336330891

> <CNNaffinity>
6.4671335220

> <CNN_VS>
2.8043630123

> <CNNaffinity_variance>
0.6886357665

$$$$
[H]OC(=O)[C@@]([H])(N([H])C(=O)[C@@]([H])(N([H])C(=O)c1c([H])c(OC([H])([H])[H])c(OC([H])([H])[H])c(OC([H])([H])[H])c1[H])C([H])([H])c1c([H])c([H])c([H])c([H])c1[H])C([H])([H])c1c([H])c([H])c([H])c([H])c1[H]


 40 42  0  0  0  0  0  0  0  0999 V2000
  -11.7297   -8.8366    7.8070 C   0  0  0  0  0  0  0  0  0  0  0  0
   -9.5056   -7.7143    8.0393 C   0  0  0  0  0  0  0  0  0  0  0  0
   -9.8367   -7.3071    9.1805 O   0  0  0  0  0  0  0  0  0  0  0  0
  -10.4084   -8.4853    7.3020 N   0  0  0  0  0  0  0  0  0  0  0  0
  -10.1539   -8.8361    6.3588 H   0  0  0  0  0  0  0  0  0  0  0  0
   -6.7857   -6.7434    5.6755 C   0  0  0  0  0  0  0  0  0  0  0  0
   -8.0095   -7.0731    6.1852 C   0  0  0  0  0  0  0  0  0  0  0  0
   -8.1934   -7.3631    7.5365 C   0  0  0  0  0  0  0  0  0  0  0  0
   -7.1182   -7.3158    8.3742 C   0  0  0  0  0  0  0  0  0  0  0  0
   -5.8642   -6.9854    7.8923 C   0  0  0  0  0  0  0  0  0  0  0  0
   -5.7173   -6.7046    6.5524 C   0  0  0  0  0  0  0  0  0  0  0  0
   -7.7004   -6.0432    3.5780 C   0  0  0  0  0  0  0  0  0  0  0  0
   -6.5752   -6.4505    4.3352 O   0  0  0  0  0  0  0  0  0  0  0  0
   -4.7942   -6.9468    8.7718 O   0  0  0  0  0  0  0  0  0  0  0  0
   -4.5621   -5.8042    9.5589 C   0  0  0  0  0  0  0  0  0  0  0  0
   -4.4376   -6.3746    6.0986 O   0  0  0  0  0  0  0  0  0  0  0  0
   -4.0273   -5.0298    5.9425 C   0  0  0  0  0  0  0  0  0  0  0  0
  -12.7961   -7.9665    7.2729 C   0  0  0  0  0  0  0  0  0  0  0  0
  -12.5312   -6.7600    6.9929 O   0  0  0  0  0  0  0  0  0  0  0  0
  -14.0964   -8.4427    7.0643 N   0  0  0  0  0  0  0  0  0  0  0  0
  -14.3908   -9.4100    7.2687 H   0  0  0  0  0  0  0  0  0  0  0  0
  -15.1363   -7.5276    6.5173 C   0  0  0  0  0  0  0  0  0  0  0  0
  -16.4546   -8.0480    6.8982 C   0  0  0  0  0  0  0  0  0  0  0  0
  -16.6899   -8.4753    8.1868 O   0  0  0  0  0  0  0  0  0  0  0  0
  -17.4203   -8.1384    6.0984 O   0  0  0  0  0  0  0  0  0  0  0  0
  -17.5945   -8.6095    8.5785 H   0  0  0  0  0  0  0  0  0  0  0  0
  -14.9169   -7.4387    5.0153 C   0  0  0  0  0  0  0  0  0  0  0  0
  -15.3060   -6.1594    4.4491 C   0  0  0  0  0  0  0  0  0  0  0  0
  -14.4347   -5.0897    4.4039 C   0  0  0  0  0  0  0  0  0  0  0  0
  -14.8444   -3.8959    3.8583 C   0  0  0  0  0  0  0  0  0  0  0  0
  -16.1351   -3.7858    3.3590 C   0  0  0  0  0  0  0  0  0  0  0  0
  -17.0064   -4.8542    3.4037 C   0  0  0  0  0  0  0  0  0  0  0  0
  -16.6080   -6.0530    3.9469 C   0  0  0  0  0  0  0  0  0  0  0  0
  -11.7260   -8.9882    9.2997 C   0  0  0  0  0  0  0  0  0  0  0  0
  -12.4746   -7.9403   10.0084 C   0  0  0  0  0  0  0  0  0  0  0  0
  -11.9552   -6.6493   10.1243 C   0  0  0  0  0  0  0  0  0  0  0  0
  -12.6270   -5.6513   10.7792 C   0  0  0  0  0  0  0  0  0  0  0  0
  -13.8577   -5.8824   11.3574 C   0  0  0  0  0  0  0  0  0  0  0  0
  -14.3848   -7.1480   11.2533 C   0  0  0  0  0  0  0  0  0  0  0  0
  -13.7008   -8.1593   10.5880 C   0  0  0  0  0  0  0  0  0  0  0  0
 12 13  1  0  0  0
 13  6  1  0  0  0
  6  7  2  0  0  0
  7  8  1  0  0  0
  8  9  2  0  0  0
  9 10  1  0  0  0
 10 14  1  0  0  0
 14 15  1  0  0  0
 10 11  2  0  0  0
 11 16  1  0  0  0
 16 17  1  0  0  0
  8  2  1  0  0  0
  2  3  2  0  0  0
  2  4  1  0  0  0
  4  1  1  0  0  0
  1 34  1  0  0  0
 34 35  1  0  0  0
 35 36  2  0  0  0
 36 37  1  0  0  0
 37 38  2  0  0  0
 38 39  1  0  0  0
 39 40  2  0  0  0
  1 18  1  0  0  0
 18 19  2  0  0  0
 18 20  1  0  0  0
 20 22  1  0  0  0
 22 27  1  0  0  0
 27 28  1  0  0  0
 28 29  2  0  0  0
 29 30  1  0  0  0
 30 31  2  0  0  0
 31 32  1  0  0  0
 32 33  2  0  0  0
 22 23  1  0  0  0
 23 24  1  0  0  0
 23 25  2  0  0  0
 11  6  1  0  0  0
 40 35  1  0  0  0
 33 28  1  0  0  0
  4  5  1  0  0  0
 20 21  1  0  0  0
 24 26  1  0  0  0
M  END
> <minimizedAffinity>
-2.64335

> <CNNscore>
0.3551670909

> <CNNaffinity>
6.7971868515

> <CNN_VS>
2.4141371250

> <CNNaffinity_variance>
0.3164092898

$$$$
[H]OC(=O)[C@@]([H])(N([H])C(=O)[C@@]([H])(N([H])C(=O)c1c([H])c(OC([H])([H])[H])c(OC([H])([H])[H])c(OC([H])([H])[H])c1[H])C([H])([H])c1c([H])c([H])c([H])c([H])c1[H])C([H])([H])c1c([H])c([H])c([H])c([H])c1[H]


 40 42  0  0  0  0  0  0  0  0999 V2000
   -7.0568   -6.2202    5.2941 C   0  0  0  0  0  0  0  0  0  0  0  0
   -8.8491   -7.1199    6.7902 C   0  0  0  0  0  0  0  0  0  0  0  0
   -7.9688   -7.6097    7.5406 O   0  0  0  0  0  0  0  0  0  0  0  0
   -8.4570   -6.4122    5.6507 N   0  0  0  0  0  0  0  0  0  0  0  0
   -9.1673   -5.9951    5.0193 H   0  0  0  0  0  0  0  0  0  0  0  0
  -11.9031   -8.4709    8.4563 C   0  0  0  0  0  0  0  0  0  0  0  0
  -10.6009   -8.2587    8.1023 C   0  0  0  0  0  0  0  0  0  0  0  0
  -10.2405   -7.3128    7.1435 C   0  0  0  0  0  0  0  0  0  0  0  0
  -11.2186   -6.5775    6.5412 C   0  0  0  0  0  0  0  0  0  0  0  0
  -12.5478   -6.7660    6.8754 C   0  0  0  0  0  0  0  0  0  0  0  0
  -12.8693   -7.7084    7.8264 C   0  0  0  0  0  0  0  0  0  0  0  0
  -12.8873  -10.5991    8.9347 C   0  0  0  0  0  0  0  0  0  0  0  0
  -12.2889   -9.4058    9.4070 O   0  0  0  0  0  0  0  0  0  0  0  0
  -13.5153   -6.0012    6.2436 O   0  0  0  0  0  0  0  0  0  0  0  0
  -14.2906   -6.5512    5.2066 C   0  0  0  0  0  0  0  0  0  0  0  0
  -14.2208   -7.8735    8.1403 O   0  0  0  0  0  0  0  0  0  0  0  0
  -14.7345   -7.5405    9.4158 C   0  0  0  0  0  0  0  0  0  0  0  0
   -6.1493   -7.1166    6.0371 C   0  0  0  0  0  0  0  0  0  0  0  0
   -5.7029   -6.7525    7.1651 O   0  0  0  0  0  0  0  0  0  0  0  0
   -5.7701   -8.3645    5.5270 N   0  0  0  0  0  0  0  0  0  0  0  0
   -6.0890   -8.7312    4.6171 H   0  0  0  0  0  0  0  0  0  0  0  0
   -4.8570   -9.2360    6.3174 C   0  0  0  0  0  0  0  0  0  0  0  0
   -5.4582   -9.4559    7.6380 C   0  0  0  0  0  0  0  0  0  0  0  0
   -5.3910   -8.4780    8.6062 O   0  0  0  0  0  0  0  0  0  0  0  0
   -6.0493  -10.5173    7.9610 O   0  0  0  0  0  0  0  0  0  0  0  0
   -5.9648   -8.4505    9.4185 H   0  0  0  0  0  0  0  0  0  0  0  0
   -3.5010   -8.5493    6.3617 C   0  0  0  0  0  0  0  0  0  0  0  0
   -2.6550   -9.0102    7.4481 C   0  0  0  0  0  0  0  0  0  0  0  0
   -2.2074   -8.1538    8.4338 C   0  0  0  0  0  0  0  0  0  0  0  0
   -1.4079   -8.6325    9.4450 C   0  0  0  0  0  0  0  0  0  0  0  0
   -1.0624   -9.9771    9.4577 C   0  0  0  0  0  0  0  0  0  0  0  0
   -1.5092  -10.8335    8.4730 C   0  0  0  0  0  0  0  0  0  0  0  0
   -2.3092  -10.3663    7.4567 C   0  0  0  0  0  0  0  0  0  0  0  0
   -6.6755   -4.7694    5.3228 C   0  0  0  0  0  0  0  0  0  0  0  0
   -5.2285   -4.5300    5.2249 C   0  0  0  0  0  0  0  0  0  0  0  0
   -4.4708   -4.2718    6.3691 C   0  0  0  0  0  0  0  0  0  0  0  0
   -3.1214   -4.0435    6.3114 C   0  0  0  0  0  0  0  0  0  0  0  0
   -2.4477   -4.0595    5.1081 C   0  0  0  0  0  0  0  0  0  0  0  0
   -3.1778   -4.3121    3.9706 C   0  0  0  0  0  0  0  0  0  0  0  0
   -4.5474   -4.5435    4.0318 C   0  0  0  0  0  0  0  0  0  0  0  0
 12 13  1  0  0  0
 13  6  1  0  0  0
  6  7  2  0  0  0
  7  8  1  0  0  0
  8  9  2  0  0  0
  9 10  1  0  0  0
 10 14  1  0  0  0
 14 15  1  0  0  0
 10 11  2  0  0  0
 11 16  1  0  0  0
 16 17  1  0  0  0
  8  2  1  0  0  0
  2  3  2  0  0  0
  2  4  1  0  0  0
  4  1  1  0  0  0
  1 34  1  0  0  0
 34 35  1  0  0  0
 35 36  2  0  0  0
 36 37  1  0  0  0
 37 38  2  0  0  0
 38 39  1  0  0  0
 39 40  2  0  0  0
  1 18  1  0  0  0
 18 19  2  0  0  0
 18 20  1  0  0  0
 20 22  1  0  0  0
 22 27  1  0  0  0
 27 28  1  0  0  0
 28 29  2  0  0  0
 29 30  1  0  0  0
 30 31  2  0  0  0
 31 32  1  0  0  0
 32 33  2  0  0  0
 22 23  1  0  0  0
 23 24  1  0  0  0
 23 25  2  0  0  0
 11  6  1  0  0  0
 40 35  1  0  0  0
 33 28  1  0  0  0
  4  5  1  0  0  0
 20 21  1  0  0  0
 24 26  1  0  0  0
M  END
> <minimizedAffinity>
8.93747

> <CNNscore>
0.3496343791

> <CNNaffinity>
5.8342318535

> <CNN_VS>
2.0398480892

> <CNNaffinity_variance>
1.5576906204

$$$$
[H]OC(=O)[C@@]([H])(N([H])C(=O)[C@@]([H])(N([H])C(=O)c1c([H])c(OC([H])([H])[H])c(OC([H])([H])[H])c(OC([H])([H])[H])c1[H])C([H])([H])c1c([H])c([H])c([H])c([H])c1[H])C([H])([H])c1c([H])c([H])c([H])c([H])c1[H]


 40 42  0  0  0  0  0  0  0  0999 V2000
   -8.1191   -6.6741    5.5979 C   0  0  0  0  0  0  0  0  0  0  0  0
  -10.4514   -6.6851    6.5036 C   0  0  0  0  0  0  0  0  0  0  0  0
   -9.9927   -6.7968    7.6676 O   0  0  0  0  0  0  0  0  0  0  0  0
   -9.5652   -6.6175    5.4251 N   0  0  0  0  0  0  0  0  0  0  0  0
   -9.9222   -6.5205    4.4553 H   0  0  0  0  0  0  0  0  0  0  0  0
  -13.8065   -5.6934    5.2041 C   0  0  0  0  0  0  0  0  0  0  0  0
  -12.4554   -5.7740    5.3894 C   0  0  0  0  0  0  0  0  0  0  0  0
  -11.8887   -6.6313    6.3317 C   0  0  0  0  0  0  0  0  0  0  0  0
  -12.7089   -7.4128    7.0910 C   0  0  0  0  0  0  0  0  0  0  0  0
  -14.0818   -7.3570    6.9300 C   0  0  0  0  0  0  0  0  0  0  0  0
  -14.6088   -6.4995    5.9904 C   0  0  0  0  0  0  0  0  0  0  0  0
  -14.7039   -3.5335    4.6984 C   0  0  0  0  0  0  0  0  0  0  0  0
  -14.3962   -4.8489    4.2738 O   0  0  0  0  0  0  0  0  0  0  0  0
  -14.8850   -8.1653    7.7184 O   0  0  0  0  0  0  0  0  0  0  0  0
  -15.4119   -7.6793    8.9288 C   0  0  0  0  0  0  0  0  0  0  0  0
  -15.9990   -6.4678    5.8533 O   0  0  0  0  0  0  0  0  0  0  0  0
  -16.6676   -7.2361    4.8715 C   0  0  0  0  0  0  0  0  0  0  0  0
   -7.7137   -7.4847    6.7632 C   0  0  0  0  0  0  0  0  0  0  0  0
   -6.6917   -7.1458    7.4303 O   0  0  0  0  0  0  0  0  0  0  0  0
   -8.4336   -8.6207    7.1534 N   0  0  0  0  0  0  0  0  0  0  0  0
   -9.2740   -8.9619    6.6620 H   0  0  0  0  0  0  0  0  0  0  0  0
   -7.9884   -9.4025    8.3403 C   0  0  0  0  0  0  0  0  0  0  0  0
   -6.9250  -10.3202    7.9153 C   0  0  0  0  0  0  0  0  0  0  0  0
   -6.6706  -11.4710    8.6290 O   0  0  0  0  0  0  0  0  0  0  0  0
   -6.1992  -10.1195    6.9087 O   0  0  0  0  0  0  0  0  0  0  0  0
   -6.1487  -12.2438    8.2826 H   0  0  0  0  0  0  0  0  0  0  0  0
   -9.2144  -10.0981    8.9104 C   0  0  0  0  0  0  0  0  0  0  0  0
  -10.3006  -10.2298    7.9557 C   0  0  0  0  0  0  0  0  0  0  0  0
  -11.6168  -10.3239    8.3611 C   0  0  0  0  0  0  0  0  0  0  0  0
  -12.6146  -10.4469    7.4230 C   0  0  0  0  0  0  0  0  0  0  0  0
  -12.2796  -10.4744    6.0761 C   0  0  0  0  0  0  0  0  0  0  0  0
  -10.9647  -10.3804    5.6701 C   0  0  0  0  0  0  0  0  0  0  0  0
   -9.9582  -10.2571    6.5990 C   0  0  0  0  0  0  0  0  0  0  0  0
   -7.5032   -5.3075    5.5336 C   0  0  0  0  0  0  0  0  0  0  0  0
   -6.0458   -5.2994    5.7253 C   0  0  0  0  0  0  0  0  0  0  0  0
   -5.4206   -4.2389    6.3843 C   0  0  0  0  0  0  0  0  0  0  0  0
   -4.0650   -4.2009    6.5777 C   0  0  0  0  0  0  0  0  0  0  0  0
   -3.2527   -5.2194    6.1250 C   0  0  0  0  0  0  0  0  0  0  0  0
   -3.8511   -6.2722    5.4737 C   0  0  0  0  0  0  0  0  0  0  0  0
   -5.2273   -6.3084    5.2786 C   0  0  0  0  0  0  0  0  0  0  0  0
 12 13  1  0  0  0
 13  6  1  0  0  0
  6  7  2  0  0  0
  7  8  1  0  0  0
  8  9  2  0  0  0
  9 10  1  0  0  0
 10 14  1  0  0  0
 14 15  1  0  0  0
 10 11  2  0  0  0
 11 16  1  0  0  0
 16 17  1  0  0  0
  8  2  1  0  0  0
  2  3  2  0  0  0
  2  4  1  0  0  0
  4  1  1  0  0  0
  1 34  1  0  0  0
 34 35  1  0  0  0
 35 36  2  0  0  0
 36 37  1  0  0  0
 37 38  2  0  0  0
 38 39  1  0  0  0
 39 40  2  0  0  0
  1 18  1  0  0  0
 18 19  2  0  0  0
 18 20  1  0  0  0
 20 22  1  0  0  0
 22 27  1  0  0  0
 27 28  1  0  0  0
 28 29  2  0  0  0
 29 30  1  0  0  0
 30 31  2  0  0  0
 31 32  1  0  0  0
 32 33  2  0  0  0
 22 23  1  0  0  0
 23 24  1  0  0  0
 23 25  2  0  0  0
 11  6  1  0  0  0
 40 35  1  0  0  0
 33 28  1  0  0  0
  4  5  1  0  0  0
 20 21  1  0  0  0
 24 26  1  0  0  0
M  END
> <minimizedAffinity>
18.73083

> <CNNscore>
0.3457266688

> <CNNaffinity>
6.1903982162

> <CNN_VS>
2.1401858330

> <CNNaffinity_variance>
1.0146600008

$$$$
[H]OC(=O)[C@@]([H])(N([H])C(=O)[C@@]([H])(N([H])C(=O)c1c([H])c(OC([H])([H])[H])c(OC([H])([H])[H])c(OC([H])([H])[H])c1[H])C([H])([H])c1c([H])c([H])c([H])c([H])c1[H])C([H])([H])c1c([H])c([H])c([H])c([H])c1[H]


 40 42  0  0  0  0  0  0  0  0999 V2000
   -5.5418   -6.8249    7.9356 C   0  0  0  0  0  0  0  0  0  0  0  0
   -7.8915   -7.6650    8.1180 C   0  0  0  0  0  0  0  0  0  0  0  0
   -7.4640   -8.8461    8.1064 O   0  0  0  0  0  0  0  0  0  0  0  0
   -6.9797   -6.6090    8.0365 N   0  0  0  0  0  0  0  0  0  0  0  0
   -7.3105   -5.6253    8.0491 H   0  0  0  0  0  0  0  0  0  0  0  0
  -11.1733   -6.2529    9.1969 C   0  0  0  0  0  0  0  0  0  0  0  0
   -9.8315   -6.4787    9.0752 C   0  0  0  0  0  0  0  0  0  0  0  0
   -9.3207   -7.4506    8.2160 C   0  0  0  0  0  0  0  0  0  0  0  0
  -10.1878   -8.1981    7.4747 C   0  0  0  0  0  0  0  0  0  0  0  0
  -11.5529   -7.9964    7.5726 C   0  0  0  0  0  0  0  0  0  0  0  0
  -12.0241   -7.0283    8.4309 C   0  0  0  0  0  0  0  0  0  0  0  0
  -11.9539   -5.6777   11.3846 C   0  0  0  0  0  0  0  0  0  0  0  0
  -11.7080   -5.2924   10.0444 O   0  0  0  0  0  0  0  0  0  0  0  0
  -12.4047   -8.7739    6.8046 O   0  0  0  0  0  0  0  0  0  0  0  0
  -12.3300  -10.1775    6.8607 C   0  0  0  0  0  0  0  0  0  0  0  0
  -13.4080   -6.8504    8.5058 O   0  0  0  0  0  0  0  0  0  0  0  0
  -14.1795   -6.5269    7.3649 C   0  0  0  0  0  0  0  0  0  0  0  0
   -4.7590   -5.8221    8.6846 C   0  0  0  0  0  0  0  0  0  0  0  0
   -4.1264   -4.9273    8.0495 O   0  0  0  0  0  0  0  0  0  0  0  0
   -4.6998   -5.8326   10.0836 N   0  0  0  0  0  0  0  0  0  0  0  0
   -5.1848   -6.5279   10.6713 H   0  0  0  0  0  0  0  0  0  0  0  0
   -3.9013   -4.7956   10.7943 C   0  0  0  0  0  0  0  0  0  0  0  0
   -3.9980   -5.0476   12.2368 C   0  0  0  0  0  0  0  0  0  0  0  0
   -5.1810   -5.4867   12.7901 O   0  0  0  0  0  0  0  0  0  0  0  0
   -3.0406   -4.8803   13.0341 O   0  0  0  0  0  0  0  0  0  0  0  0
   -5.2607   -5.9017   13.6908 H   0  0  0  0  0  0  0  0  0  0  0  0
   -4.4377   -3.4386   10.3662 C   0  0  0  0  0  0  0  0  0  0  0  0
   -3.3955   -2.4645   10.0951 C   0  0  0  0  0  0  0  0  0  0  0  0
   -3.6906   -1.1522    9.7848 C   0  0  0  0  0  0  0  0  0  0  0  0
   -2.6724   -0.2623    9.5355 C   0  0  0  0  0  0  0  0  0  0  0  0
   -1.3570   -0.7012    9.6004 C   0  0  0  0  0  0  0  0  0  0  0  0
   -1.0611   -2.0124    9.9103 C   0  0  0  0  0  0  0  0  0  0  0  0
   -2.0709   -2.9114   10.1616 C   0  0  0  0  0  0  0  0  0  0  0  0
   -5.1140   -7.0258    6.5116 C   0  0  0  0  0  0  0  0  0  0  0  0
   -3.7213   -7.4720    6.3636 C   0  0  0  0  0  0  0  0  0  0  0  0
   -3.2897   -8.6639    6.9491 C   0  0  0  0  0  0  0  0  0  0  0  0
   -1.9988   -9.1065    6.8309 C   0  0  0  0  0  0  0  0  0  0  0  0
   -1.0616   -8.3857    6.1208 C   0  0  0  0  0  0  0  0  0  0  0  0
   -1.4687   -7.2091    5.5372 C   0  0  0  0  0  0  0  0  0  0  0  0
   -2.7796   -6.7621    5.6587 C   0  0  0  0  0  0  0  0  0  0  0  0
 12 13  1  0  0  0
 13  6  1  0  0  0
  6  7  2  0  0  0
  7  8  1  0  0  0
  8  9  2  0  0  0
  9 10  1  0  0  0
 10 14  1  0  0  0
 14 15  1  0  0  0
 10 11  2  0  0  0
 11 16  1  0  0  0
 16 17  1  0  0  0
  8  2  1  0  0  0
  2  3  2  0  0  0
  2  4  1  0  0  0
  4  1  1  0  0  0
  1 34  1  0  0  0
 34 35  1  0  0  0
 35 36  2  0  0  0
 36 37  1  0  0  0
 37 38  2  0  0  0
 38 39  1  0  0  0
 39 40  2  0  0  0
  1 18  1  0  0  0
 18 19  2  0  0  0
 18 20  1  0  0  0
 20 22  1  0  0  0
 22 27  1  0  0  0
 27 28  1  0  0  0
 28 29  2  0  0  0
 29 30  1  0  0  0
 30 31  2  0  0  0
 31 32  1  0  0  0
 32 33  2  0  0  0
 22 23  1  0  0  0
 23 24  1  0  0  0
 23 25  2  0  0  0
 11  6  1  0  0  0
 40 35  1  0  0  0
 33 28  1  0  0  0
  4  5  1  0  0  0
 20 21  1  0  0  0
 24 26  1  0  0  0
M  END
> <minimizedAffinity>
-5.29656

> <CNNscore>
0.3369279206

> <CNNaffinity>
6.0410261154

> <CNN_VS>
2.0353903770

> <CNNaffinity_variance>
0.0957694203

$$$$
[H]OC(=O)[C@@]([H])(N([H])C(=O)[C@@]([H])(N([H])C(=O)c1c([H])c(OC([H])([H])[H])c(OC([H])([H])[H])c(OC([H])([H])[H])c1[H])C([H])([H])c1c([H])c([H])c([H])c([H])c1[H])C([H])([H])c1c([H])c([H])c([H])c([H])c1[H]


 40 42  0  0  0  0  0  0  0  0999 V2000
  -11.6508   -8.4476    7.8359 C   0  0  0  0  0  0  0  0  0  0  0  0
   -9.1613   -8.1978    7.8468 C   0  0  0  0  0  0  0  0  0  0  0  0
   -9.0742   -9.1584    8.6515 O   0  0  0  0  0  0  0  0  0  0  0  0
  -10.4227   -7.7946    7.4003 N   0  0  0  0  0  0  0  0  0  0  0  0
  -10.5176   -7.0063    6.7318 H   0  0  0  0  0  0  0  0  0  0  0  0
   -6.6770   -6.4641    5.6671 C   0  0  0  0  0  0  0  0  0  0  0  0
   -7.8148   -7.0774    6.1092 C   0  0  0  0  0  0  0  0  0  0  0  0
   -7.9409   -7.5473    7.4158 C   0  0  0  0  0  0  0  0  0  0  0  0
   -6.8960   -7.3894    8.2780 C   0  0  0  0  0  0  0  0  0  0  0  0
   -5.7288   -6.7728    7.8642 C   0  0  0  0  0  0  0  0  0  0  0  0
   -5.6372   -6.3202    6.5670 C   0  0  0  0  0  0  0  0  0  0  0  0
   -7.5263   -6.3370    3.4334 C   0  0  0  0  0  0  0  0  0  0  0  0
   -6.5254   -5.9876    4.3723 O   0  0  0  0  0  0  0  0  0  0  0  0
   -4.6874   -6.6290    8.7668 O   0  0  0  0  0  0  0  0  0  0  0  0
   -4.6539   -5.5298    9.6441 C   0  0  0  0  0  0  0  0  0  0  0  0
   -4.4447   -5.7022    6.1817 O   0  0  0  0  0  0  0  0  0  0  0  0
   -3.3124   -6.4520    5.7855 C   0  0  0  0  0  0  0  0  0  0  0  0
  -12.8559   -7.8849    7.1952 C   0  0  0  0  0  0  0  0  0  0  0  0
  -12.7268   -6.9977    6.3006 O   0  0  0  0  0  0  0  0  0  0  0  0
  -14.1422   -8.3102    7.5497 N   0  0  0  0  0  0  0  0  0  0  0  0
  -14.3301   -9.0258    8.2686 H   0  0  0  0  0  0  0  0  0  0  0  0
  -15.3270   -7.7167    6.8700 C   0  0  0  0  0  0  0  0  0  0  0  0
  -16.5147   -7.9977    7.6850 C   0  0  0  0  0  0  0  0  0  0  0  0
  -16.4104   -8.7546    8.8315 O   0  0  0  0  0  0  0  0  0  0  0  0
  -17.6658   -7.5831    7.3963 O   0  0  0  0  0  0  0  0  0  0  0  0
  -17.0992   -8.7868    9.5487 H   0  0  0  0  0  0  0  0  0  0  0  0
  -15.3859   -8.3031    5.4683 C   0  0  0  0  0  0  0  0  0  0  0  0
  -16.2422   -7.5556    4.5646 C   0  0  0  0  0  0  0  0  0  0  0  0
  -17.2835   -8.1568    3.8866 C   0  0  0  0  0  0  0  0  0  0  0  0
  -18.0703   -7.4113    3.0405 C   0  0  0  0  0  0  0  0  0  0  0  0
  -17.8025   -6.0584    2.8814 C   0  0  0  0  0  0  0  0  0  0  0  0
  -16.7621   -5.4568    3.5584 C   0  0  0  0  0  0  0  0  0  0  0  0
  -15.9685   -6.1922    4.4072 C   0  0  0  0  0  0  0  0  0  0  0  0
  -11.7192   -8.5500    9.3311 C   0  0  0  0  0  0  0  0  0  0  0  0
  -12.1036   -7.2980    9.9986 C   0  0  0  0  0  0  0  0  0  0  0  0
  -13.3932   -7.1293   10.5068 C   0  0  0  0  0  0  0  0  0  0  0  0
  -13.7830   -5.9749   11.1328 C   0  0  0  0  0  0  0  0  0  0  0  0
  -12.9084   -4.9199   11.2889 C   0  0  0  0  0  0  0  0  0  0  0  0
  -11.6339   -5.0681   10.7945 C   0  0  0  0  0  0  0  0  0  0  0  0
  -11.2409   -6.2409   10.1596 C   0  0  0  0  0  0  0  0  0  0  0  0
 12 13  1  0  0  0
 13  6  1  0  0  0
  6  7  2  0  0  0
  7  8  1  0  0  0
  8  9  2  0  0  0
  9 10  1  0  0  0
 10 14  1  0  0  0
 14 15  1  0  0  0
 10 11  2  0  0  0
 11 16  1  0  0  0
 16 17  1  0  0  0
  8  2  1  0  0  0
  2  3  2  0  0  0
  2  4  1  0  0  0
  4  1  1  0  0  0
  1 34  1  0  0  0
 34 35  1  0  0  0
 35 36  2  0  0  0
 36 37  1  0  0  0
 37 38  2  0  0  0
 38 39  1  0  0  0
 39 40  2  0  0  0
  1 18  1  0  0  0
 18 19  2  0  0  0
 18 20  1  0  0  0
 20 22  1  0  0  0
 22 27  1  0  0  0
 27 28  1  0  0  0
 28 29  2  0  0  0
 29 30  1  0  0  0
 30 31  2  0  0  0
 31 32  1  0  0  0
 32 33  2  0  0  0
 22 23  1  0  0  0
 23 24  1  0  0  0
 23 25  2  0  0  0
 11  6  1  0  0  0
 40 35  1  0  0  0
 33 28  1  0  0  0
  4  5  1  0  0  0
 20 21  1  0  0  0
 24 26  1  0  0  0
M  END
> <minimizedAffinity>
-3.87273

> <CNNscore>
0.2949768007

> <CNNaffinity>
6.6789269447

> <CNN_VS>
1.9701285362

> <CNNaffinity_variance>
0.0734019130

$$$$
[H]OC(=O)[C@@]([H])(N([H])C(=O)[C@@]([H])(N([H])C(=O)c1c([H])c(OC([H])([H])[H])c(OC([H])([H])[H])c(OC([H])([H])[H])c1[H])C([H])([H])c1c([H])c([H])c([H])c([H])c1[H])C([H])([H])c1c([H])c([H])c([H])c([H])c1[H]


 40 42  0  0  0  0  0  0  0  0999 V2000
   -5.5102   -6.7750    7.9389 C   0  0  0  0  0  0  0  0  0  0  0  0
   -7.7217   -7.9447    7.9049 C   0  0  0  0  0  0  0  0  0  0  0  0
   -7.1625   -8.9768    7.4577 O   0  0  0  0  0  0  0  0  0  0  0  0
   -6.9493   -6.8100    8.1672 N   0  0  0  0  0  0  0  0  0  0  0  0
   -7.3898   -5.9479    8.5414 H   0  0  0  0  0  0  0  0  0  0  0  0
  -11.2989   -8.9810    7.6645 C   0  0  0  0  0  0  0  0  0  0  0  0
   -9.9465   -8.9231    7.4805 C   0  0  0  0  0  0  0  0  0  0  0  0
   -9.1523   -7.9788    8.1295 C   0  0  0  0  0  0  0  0  0  0  0  0
   -9.7444   -7.0861    8.9737 C   0  0  0  0  0  0  0  0  0  0  0  0
  -11.1115   -7.1160    9.1838 C   0  0  0  0  0  0  0  0  0  0  0  0
  -11.8667   -8.0615    8.5270 C   0  0  0  0  0  0  0  0  0  0  0  0
  -12.7979   -9.4831    5.8680 C   0  0  0  0  0  0  0  0  0  0  0  0
  -12.1123   -9.9104    7.0310 O   0  0  0  0  0  0  0  0  0  0  0  0
  -11.6795   -6.1941   10.0483 O   0  0  0  0  0  0  0  0  0  0  0  0
  -11.3193   -4.8362    9.9760 C   0  0  0  0  0  0  0  0  0  0  0  0
  -13.2442   -8.0640    8.7615 O   0  0  0  0  0  0  0  0  0  0  0  0
  -14.0923   -7.0674    8.2240 C   0  0  0  0  0  0  0  0  0  0  0  0
   -4.8048   -5.8742    8.8718 C   0  0  0  0  0  0  0  0  0  0  0  0
   -4.0317   -4.9835    8.4100 O   0  0  0  0  0  0  0  0  0  0  0  0
   -4.9710   -5.9771   10.2585 N   0  0  0  0  0  0  0  0  0  0  0  0
   -5.5804   -6.6756   10.7111 H   0  0  0  0  0  0  0  0  0  0  0  0
   -4.2422   -5.0408   11.1586 C   0  0  0  0  0  0  0  0  0  0  0  0
   -4.7597   -5.2144   12.5208 C   0  0  0  0  0  0  0  0  0  0  0  0
   -3.9086   -5.5423   13.5536 O   0  0  0  0  0  0  0  0  0  0  0  0
   -5.9733   -5.0837   12.8219 O   0  0  0  0  0  0  0  0  0  0  0  0
   -4.1303   -5.4425   14.5182 H   0  0  0  0  0  0  0  0  0  0  0  0
   -4.4283   -3.6387   10.6003 C   0  0  0  0  0  0  0  0  0  0  0  0
   -3.2618   -2.7903   10.7677 C   0  0  0  0  0  0  0  0  0  0  0  0
   -2.1445   -3.2190   11.4558 C   0  0  0  0  0  0  0  0  0  0  0  0
   -1.0611   -2.3830   11.5903 C   0  0  0  0  0  0  0  0  0  0  0  0
   -1.1094   -1.1144   11.0285 C   0  0  0  0  0  0  0  0  0  0  0  0
   -2.2255   -0.6852   10.3409 C   0  0  0  0  0  0  0  0  0  0  0  0
   -3.3150   -1.5123   10.1998 C   0  0  0  0  0  0  0  0  0  0  0  0
   -5.1880   -6.5618    6.4892 C   0  0  0  0  0  0  0  0  0  0  0  0
   -3.8360   -6.9948    6.1077 C   0  0  0  0  0  0  0  0  0  0  0  0
   -3.3779   -8.2717    6.4386 C   0  0  0  0  0  0  0  0  0  0  0  0
   -2.1235   -8.7049    6.0990 C   0  0  0  0  0  0  0  0  0  0  0  0
   -1.2516   -7.8892    5.4086 C   0  0  0  0  0  0  0  0  0  0  0  0
   -1.6857   -6.6281    5.0742 C   0  0  0  0  0  0  0  0  0  0  0  0
   -2.9594   -6.1909    5.4201 C   0  0  0  0  0  0  0  0  0  0  0  0
 12 13  1  0  0  0
 13  6  1  0  0  0
  6  7  2  0  0  0
  7  8  1  0  0  0
  8  9  2  0  0  0
  9 10  1  0  0  0
 10 14  1  0  0  0
 14 15  1  0  0  0
 10 11  2  0  0  0
 11 16  1  0  0  0
 16 17  1  0  0  0
  8  2  1  0  0  0
  2  3  2  0  0  0
  2  4  1  0  0  0
  4  1  1  0  0  0
  1 34  1  0  0  0
 34 35  1  0  0  0
 35 36  2  0  0  0
 36 37  1  0  0  0
 37 38  2  0  0  0
 38 39  1  0  0  0
 39 40  2  0  0  0
  1 18  1  0  0  0
 18 19  2  0  0  0
 18 20  1  0  0  0
 20 22  1  0  0  0
 22 27  1  0  0  0
 27 28  1  0  0  0
 28 29  2  0  0  0
 29 30  1  0  0  0
 30 31  2  0  0  0
 31 32  1  0  0  0
 32 33  2  0  0  0
 22 23  1  0  0  0
 23 24  1  0  0  0
 23 25  2  0  0  0
 11  6  1  0  0  0
 40 35  1  0  0  0
 33 28  1  0  0  0
  4  5  1  0  0  0
 20 21  1  0  0  0
 24 26  1  0  0  0
M  END
> <minimizedAffinity>
-5.32881

> <CNNscore>
0.2853510380

> <CNNaffinity>
5.9956541061

> <CNN_VS>
1.7108660936

> <CNNaffinity_variance>
0.1178724989

$$$$
[H]OC(=O)[C@@]([H])(N([H])C(=O)[C@@]([H])(N([H])C(=O)c1c([H])c(OC([H])([H])[H])c(OC([H])([H])[H])c(OC([H])([H])[H])c1[H])C([H])([H])c1c([H])c([H])c([H])c([H])c1[H])C([H])([H])c1c([H])c([H])c([H])c([H])c1[H]


 40 42  0  0  0  0  0  0  0  0999 V2000
  -10.8124   -8.8726    6.8966 C   0  0  0  0  0  0  0  0  0  0  0  0
   -8.7432   -7.4668    6.9424 C   0  0  0  0  0  0  0  0  0  0  0  0
   -9.4350   -6.4693    7.2656 O   0  0  0  0  0  0  0  0  0  0  0  0
   -9.3734   -8.6983    6.7443 N   0  0  0  0  0  0  0  0  0  0  0  0
   -8.8206   -9.5365    6.4814 H   0  0  0  0  0  0  0  0  0  0  0  0
   -5.4666   -6.0609    5.8398 C   0  0  0  0  0  0  0  0  0  0  0  0
   -6.8084   -6.2517    6.0109 C   0  0  0  0  0  0  0  0  0  0  0  0
   -7.3134   -7.2929    6.7888 C   0  0  0  0  0  0  0  0  0  0  0  0
   -6.4404   -8.1461    7.3969 C   0  0  0  0  0  0  0  0  0  0  0  0
   -5.0751   -7.9826    7.2455 C   0  0  0  0  0  0  0  0  0  0  0  0
   -4.6097   -6.9440    6.4704 C   0  0  0  0  0  0  0  0  0  0  0  0
   -4.1461   -4.0677    5.7393 C   0  0  0  0  0  0  0  0  0  0  0  0
   -4.9377   -5.0333    5.0712 O   0  0  0  0  0  0  0  0  0  0  0  0
   -4.2172   -8.8681    7.8779 O   0  0  0  0  0  0  0  0  0  0  0  0
   -3.1251   -9.4185    7.1827 C   0  0  0  0  0  0  0  0  0  0  0  0
   -3.2254   -6.8073    6.3383 O   0  0  0  0  0  0  0  0  0  0  0  0
   -2.4433   -6.1653    7.3270 C   0  0  0  0  0  0  0  0  0  0  0  0
  -11.5307   -7.5918    7.0489 C   0  0  0  0  0  0  0  0  0  0  0  0
  -11.6421   -6.8199    6.0509 O   0  0  0  0  0  0  0  0  0  0  0  0
  -12.0964   -7.2083    8.2711 N   0  0  0  0  0  0  0  0  0  0  0  0
  -12.0472   -7.7797    9.1284 H   0  0  0  0  0  0  0  0  0  0  0  0
  -12.8170   -5.9089    8.3730 C   0  0  0  0  0  0  0  0  0  0  0  0
  -12.4571   -5.2811    9.6497 C   0  0  0  0  0  0  0  0  0  0  0  0
  -13.3896   -4.5533   10.3563 O   0  0  0  0  0  0  0  0  0  0  0  0
  -11.3115   -5.3607   10.1612 O   0  0  0  0  0  0  0  0  0  0  0  0
  -13.3016   -4.3079   11.3163 H   0  0  0  0  0  0  0  0  0  0  0  0
  -14.3018   -6.2014    8.2245 C   0  0  0  0  0  0  0  0  0  0  0  0
  -14.7062   -6.4573    6.8535 C   0  0  0  0  0  0  0  0  0  0  0  0
  -15.2450   -7.6686    6.4691 C   0  0  0  0  0  0  0  0  0  0  0  0
  -15.6150   -7.8684    5.1599 C   0  0  0  0  0  0  0  0  0  0  0  0
  -15.4396   -6.8423    4.2414 C   0  0  0  0  0  0  0  0  0  0  0  0
  -14.9012   -5.6316    4.6246 C   0  0  0  0  0  0  0  0  0  0  0  0
  -14.5275   -5.4201    5.9310 C   0  0  0  0  0  0  0  0  0  0  0  0
  -11.1347   -9.9055    7.9360 C   0  0  0  0  0  0  0  0  0  0  0  0
  -12.4471   -9.7231    8.5726 C   0  0  0  0  0  0  0  0  0  0  0  0
  -12.5463   -9.1852    9.8574 C   0  0  0  0  0  0  0  0  0  0  0  0
  -13.7536   -9.0038   10.4785 C   0  0  0  0  0  0  0  0  0  0  0  0
  -14.9341   -9.3483    9.8541 C   0  0  0  0  0  0  0  0  0  0  0  0
  -14.8557   -9.8796    8.5882 C   0  0  0  0  0  0  0  0  0  0  0  0
  -13.6290  -10.0627    7.9600 C   0  0  0  0  0  0  0  0  0  0  0  0
 12 13  1  0  0  0
 13  6  1  0  0  0
  6  7  2  0  0  0
  7  8  1  0  0  0
  8  9  2  0  0  0
  9 10  1  0  0  0
 10 14  1  0  0  0
 14 15  1  0  0  0
 10 11  2  0  0  0
 11 16  1  0  0  0
 16 17  1  0  0  0
  8  2  1  0  0  0
  2  3  2  0  0  0
  2  4  1  0  0  0
  4  1  1  0  0  0
  1 34  1  0  0  0
 34 35  1  0  0  0
 35 36  2  0  0  0
 36 37  1  0  0  0
 37 38  2  0  0  0
 38 39  1  0  0  0
 39 40  2  0  0  0
  1 18  1  0  0  0
 18 19  2  0  0  0
 18 20  1  0  0  0
 20 22  1  0  0  0
 22 27  1  0  0  0
 27 28  1  0  0  0
 28 29  2  0  0  0
 29 30  1  0  0  0
 30 31  2  0  0  0
 31 32  1  0  0  0
 32 33  2  0  0  0
 22 23  1  0  0  0
 23 24  1  0  0  0
 23 25  2  0  0  0
 11  6  1  0  0  0
 40 35  1  0  0  0
 33 28  1  0  0  0
  4  5  1  0  0  0
 20 21  1  0  0  0
 24 26  1  0  0  0
M  END
> <minimizedAffinity>
2.15904

> <CNNscore>
0.2099927366

> <CNNaffinity>
6.1737337112

> <CNN_VS>
1.2964392900

> <CNNaffinity_variance>
0.4578209817

$$$$
[H]/C(=C1/SC(=S)N([H])C1=O)c1c(C([H])([H])[H])c(C(=O)OC([H])([H])C([H])([H])[H])c(C([H])([H])[H])n1[H]


 22 23  0  0  0  0  0  0  0  0999 V2000
   -9.5826   -8.2147    7.9646 C   0  0  0  0  0  0  0  0  0  0  0  0
   -9.9633   -9.4612    7.5026 C   0  0  0  0  0  0  0  0  0  0  0  0
   -8.9991  -10.4215    6.8986 C   0  0  0  0  0  0  0  0  0  0  0  0
  -11.2711   -9.6171    7.6951 N   0  0  0  0  0  0  0  0  0  0  0  0
  -11.8126   -8.5073    8.2825 C   0  0  0  0  0  0  0  0  0  0  0  0
  -10.7764   -7.6459    8.4468 C   0  0  0  0  0  0  0  0  0  0  0  0
  -10.7703   -6.2712    8.9993 C   0  0  0  0  0  0  0  0  0  0  0  0
  -11.8159  -10.4643    7.4368 H   0  0  0  0  0  0  0  0  0  0  0  0
  -13.2157   -8.3393    8.5881 C   0  0  0  0  0  0  0  0  0  0  0  0
  -14.1507   -8.4185    7.6861 C   0  0  0  0  0  0  0  0  0  0  0  0
  -13.9604   -8.7342    5.9175 S   0  0  0  0  0  0  0  0  0  0  0  0
  -15.5566   -8.0188    5.4655 C   0  0  0  0  0  0  0  0  0  0  0  0
  -15.9912   -7.4512    3.9926 S   0  0  0  0  0  0  0  0  0  0  0  0
  -16.3037   -8.0712    6.6560 N   0  0  0  0  0  0  0  0  0  0  0  0
  -15.5945   -8.2797    7.8355 C   0  0  0  0  0  0  0  0  0  0  0  0
  -16.1075   -8.3564    9.0147 O   0  0  0  0  0  0  0  0  0  0  0  0
  -17.3622   -7.9541    6.6399 H   0  0  0  0  0  0  0  0  0  0  0  0
   -8.2497   -7.6146    7.9610 C   0  0  0  0  0  0  0  0  0  0  0  0
   -7.4697   -7.9568    8.8932 O   0  0  0  0  0  0  0  0  0  0  0  0
   -7.8589   -6.7199    6.9906 O   0  0  0  0  0  0  0  0  0  0  0  0
   -6.4866   -8.1526    5.6061 C   0  0  0  0  0  0  0  0  0  0  0  0
   -6.5928   -6.8615    6.3886 C   0  0  0  0  0  0  0  0  0  0  0  0
 21 22  1  0  0  0
 22 20  1  0  0  0
 20 18  1  0  0  0
 18 19  2  0  0  0
 18  1  1  0  0  0
  1  2  2  0  0  0
  2  3  1  0  0  0
  2  4  1  0  0  0
  4  5  1  0  0  0
  5  9  1  0  0  0
  9 10  2  0  0  0
 10 11  1  0  0  0
 11 12  1  0  0  0
 12 13  2  0  0  0
 12 14  1  0  0  0
 14 15  1  0  0  0
 15 16  2  0  0  0
  5  6  2  0  0  0
  6  7  1  0  0  0
  6  1  1  0  0  0
 15 10  1  0  0  0
  4  8  1  0  0  0
 14 17  1  0  0  0
M  END
> <minimizedAffinity>
-7.35987

> <CNNscore>
0.6775007248

> <CNNaffinity>
6.4667921066

> <CNN_VS>
4.3812561035

> <CNNaffinity_variance>
0.3957006335

$$$$
[H]/C(=C1/SC(=S)N([H])C1=O)c1c(C([H])([H])[H])c(C(=O)OC([H])([H])C([H])([H])[H])c(C([H])([H])[H])n1[H]


 22 23  0  0  0  0  0  0  0  0999 V2000
  -10.2051   -8.2397    7.9765 C   0  0  0  0  0  0  0  0  0  0  0  0
   -9.6162   -7.0846    8.4571 C   0  0  0  0  0  0  0  0  0  0  0  0
  -10.4020   -5.9804    9.0736 C   0  0  0  0  0  0  0  0  0  0  0  0
   -8.3001   -7.1560    8.2715 N   0  0  0  0  0  0  0  0  0  0  0  0
   -7.9561   -8.3362    7.6727 C   0  0  0  0  0  0  0  0  0  0  0  0
   -9.1255   -9.0010    7.4904 C   0  0  0  0  0  0  0  0  0  0  0  0
   -9.3746  -10.3161    6.8552 C   0  0  0  0  0  0  0  0  0  0  0  0
   -7.6181   -6.4191    8.5417 H   0  0  0  0  0  0  0  0  0  0  0  0
   -6.6102   -8.7066    7.2959 C   0  0  0  0  0  0  0  0  0  0  0  0
   -5.6663   -7.8335    7.0943 C   0  0  0  0  0  0  0  0  0  0  0  0
   -5.7763   -6.0344    7.2169 S   0  0  0  0  0  0  0  0  0  0  0  0
   -4.3313   -5.7252    6.1774 C   0  0  0  0  0  0  0  0  0  0  0  0
   -3.9904   -4.3465    5.3630 S   0  0  0  0  0  0  0  0  0  0  0  0
   -3.6007   -6.9252    6.2428 N   0  0  0  0  0  0  0  0  0  0  0  0
   -4.2734   -8.0468    6.7194 C   0  0  0  0  0  0  0  0  0  0  0  0
   -3.7684   -9.2247    6.8489 O   0  0  0  0  0  0  0  0  0  0  0  0
   -2.5808   -6.9587    5.9374 H   0  0  0  0  0  0  0  0  0  0  0  0
  -11.6215   -8.6006    7.9706 C   0  0  0  0  0  0  0  0  0  0  0  0
  -12.2149   -8.5559    6.8569 O   0  0  0  0  0  0  0  0  0  0  0  0
  -12.2809   -8.9725    9.1203 O   0  0  0  0  0  0  0  0  0  0  0  0
  -13.6381   -7.1665    9.9857 C   0  0  0  0  0  0  0  0  0  0  0  0
  -13.6022   -8.5317    9.3335 C   0  0  0  0  0  0  0  0  0  0  0  0
 21 22  1  0  0  0
 22 20  1  0  0  0
 20 18  1  0  0  0
 18 19  2  0  0  0
 18  1  1  0  0  0
  1  2  2  0  0  0
  2  3  1  0  0  0
  2  4  1  0  0  0
  4  5  1  0  0  0
  5  9  1  0  0  0
  9 10  2  0  0  0
 10 11  1  0  0  0
 11 12  1  0  0  0
 12 13  2  0  0  0
 12 14  1  0  0  0
 14 15  1  0  0  0
 15 16  2  0  0  0
  5  6  2  0  0  0
  6  7  1  0  0  0
  6  1  1  0  0  0
 15 10  1  0  0  0
  4  8  1  0  0  0
 14 17  1  0  0  0
M  END
> <minimizedAffinity>
-5.79375

> <CNNscore>
0.6620339155

> <CNNaffinity>
5.4661102295

> <CNN_VS>
3.6187503338

> <CNNaffinity_variance>
0.0277943015

$$$$
[H]/C(=C1/SC(=S)N([H])C1=O)c1c(C([H])([H])[H])c(C(=O)OC([H])([H])C([H])([H])[H])c(C([H])([H])[H])n1[H]


 22 23  0  0  0  0  0  0  0  0999 V2000
   -5.3911   -7.1881    6.9821 C   0  0  0  0  0  0  0  0  0  0  0  0
   -5.7283   -6.8240    8.2727 C   0  0  0  0  0  0  0  0  0  0  0  0
   -4.8445   -5.9821    9.1254 C   0  0  0  0  0  0  0  0  0  0  0  0
   -6.9174   -7.3400    8.5752 N   0  0  0  0  0  0  0  0  0  0  0  0
   -7.4192   -8.0560    7.5238 C   0  0  0  0  0  0  0  0  0  0  0  0
   -6.4818   -7.9638    6.5462 C   0  0  0  0  0  0  0  0  0  0  0  0
   -6.4648   -8.5702    5.1946 C   0  0  0  0  0  0  0  0  0  0  0  0
   -7.4062   -7.2206    9.4851 H   0  0  0  0  0  0  0  0  0  0  0  0
   -8.6723   -8.7769    7.5421 C   0  0  0  0  0  0  0  0  0  0  0  0
   -9.7993   -8.2280    7.8922 C   0  0  0  0  0  0  0  0  0  0  0  0
  -10.0846   -6.5248    8.4228 S   0  0  0  0  0  0  0  0  0  0  0  0
  -11.6340   -6.8919    9.2766 C   0  0  0  0  0  0  0  0  0  0  0  0
  -12.3322   -6.0019   10.4602 S   0  0  0  0  0  0  0  0  0  0  0  0
  -12.0719   -8.0920    8.6883 N   0  0  0  0  0  0  0  0  0  0  0  0
  -11.1330   -8.8137    7.9566 C   0  0  0  0  0  0  0  0  0  0  0  0
  -11.3519   -9.9291    7.3505 O   0  0  0  0  0  0  0  0  0  0  0  0
  -13.0781   -8.4208    8.8068 H   0  0  0  0  0  0  0  0  0  0  0  0
   -4.1838   -6.8499    6.2306 C   0  0  0  0  0  0  0  0  0  0  0  0
   -3.2258   -7.6701    6.2950 O   0  0  0  0  0  0  0  0  0  0  0  0
   -4.0910   -5.6954    5.4868 O   0  0  0  0  0  0  0  0  0  0  0  0
   -2.2549   -4.1221    5.5639 C   0  0  0  0  0  0  0  0  0  0  0  0
   -2.8566   -5.3445    4.9050 C   0  0  0  0  0  0  0  0  0  0  0  0
 21 22  1  0  0  0
 22 20  1  0  0  0
 20 18  1  0  0  0
 18 19  2  0  0  0
 18  1  1  0  0  0
  1  2  2  0  0  0
  2  3  1  0  0  0
  2  4  1  0  0  0
  4  5  1  0  0  0
  5  9  1  0  0  0
  9 10  2  0  0  0
 10 11  1  0  0  0
 11 12  1  0  0  0
 12 13  2  0  0  0
 12 14  1  0  0  0
 14 15  1  0  0  0
 15 16  2  0  0  0
  5  6  2  0  0  0
  6  7  1  0  0  0
  6  1  1  0  0  0
 15 10  1  0  0  0
  4  8  1  0  0  0
 14 17  1  0  0  0
M  END
> <minimizedAffinity>
-5.78622

> <CNNscore>
0.5694088936

> <CNNaffinity>
5.2741060257

> <CNN_VS>
3.0031228065

> <CNNaffinity_variance>
0.0805766955

$$$$
[H]/C(=C1/SC(=S)N([H])C1=O)c1c(C([H])([H])[H])c(C(=O)OC([H])([H])C([H])([H])[H])c(C([H])([H])[H])n1[H]


 22 23  0  0  0  0  0  0  0  0999 V2000
  -10.3395   -8.3598    7.9492 C   0  0  0  0  0  0  0  0  0  0  0  0
   -9.7658   -7.2089    8.4573 C   0  0  0  0  0  0  0  0  0  0  0  0
  -10.5662   -6.1293    9.0982 C   0  0  0  0  0  0  0  0  0  0  0  0
   -8.4487   -7.2593    8.2719 N   0  0  0  0  0  0  0  0  0  0  0  0
   -8.0891   -8.4208    7.6463 C   0  0  0  0  0  0  0  0  0  0  0  0
   -9.2498   -9.0959    7.4470 C   0  0  0  0  0  0  0  0  0  0  0  0
   -9.4816  -10.3989    6.7810 C   0  0  0  0  0  0  0  0  0  0  0  0
   -7.7763   -6.5203    8.5601 H   0  0  0  0  0  0  0  0  0  0  0  0
   -6.7383   -8.7653    7.2629 C   0  0  0  0  0  0  0  0  0  0  0  0
   -5.8015   -7.8771    7.0974 C   0  0  0  0  0  0  0  0  0  0  0  0
   -5.9284   -6.0846    7.2842 S   0  0  0  0  0  0  0  0  0  0  0  0
   -4.4817   -5.7252    6.2634 C   0  0  0  0  0  0  0  0  0  0  0  0
   -4.1497   -4.3150    5.5008 S   0  0  0  0  0  0  0  0  0  0  0  0
   -3.7404   -6.9202    6.2891 N   0  0  0  0  0  0  0  0  0  0  0  0
   -4.4050   -8.0642    6.7217 C   0  0  0  0  0  0  0  0  0  0  0  0
   -3.8898   -9.2415    6.8112 O   0  0  0  0  0  0  0  0  0  0  0  0
   -2.7189   -6.9336    5.9876 H   0  0  0  0  0  0  0  0  0  0  0  0
  -11.7512   -8.7384    7.9329 C   0  0  0  0  0  0  0  0  0  0  0  0
  -12.2016   -9.2983    8.9713 O   0  0  0  0  0  0  0  0  0  0  0  0
  -12.5550   -8.4978    6.8417 O   0  0  0  0  0  0  0  0  0  0  0  0
  -14.1797   -6.7451    7.2171 C   0  0  0  0  0  0  0  0  0  0  0  0
  -13.9237   -8.2258    7.0370 C   0  0  0  0  0  0  0  0  0  0  0  0
 21 22  1  0  0  0
 22 20  1  0  0  0
 20 18  1  0  0  0
 18 19  2  0  0  0
 18  1  1  0  0  0
  1  2  2  0  0  0
  2  3  1  0  0  0
  2  4  1  0  0  0
  4  5  1  0  0  0
  5  9  1  0  0  0
  9 10  2  0  0  0
 10 11  1  0  0  0
 11 12  1  0  0  0
 12 13  2  0  0  0
 12 14  1  0  0  0
 14 15  1  0  0  0
 15 16  2  0  0  0
  5  6  2  0  0  0
  6  7  1  0  0  0
  6  1  1  0  0  0
 15 10  1  0  0  0
  4  8  1  0  0  0
 14 17  1  0  0  0
M  END
> <minimizedAffinity>
-5.94106

> <CNNscore>
0.5618063211

> <CNNaffinity>
5.3897171021

> <CNN_VS>
3.0279772282

> <CNNaffinity_variance>
0.0469186492

$$$$
[H]/C(=C1/SC(=S)N([H])C1=O)c1c(C([H])([H])[H])c(C(=O)OC([H])([H])C([H])([H])[H])c(C([H])([H])[H])n1[H]


 22 23  0  0  0  0  0  0  0  0999 V2000
  -10.1032   -8.2315    7.8589 C   0  0  0  0  0  0  0  0  0  0  0  0
  -10.4275   -9.4749    7.3482 C   0  0  0  0  0  0  0  0  0  0  0  0
   -9.4132  -10.3851    6.7485 C   0  0  0  0  0  0  0  0  0  0  0  0
  -11.7350   -9.6784    7.4927 N   0  0  0  0  0  0  0  0  0  0  0  0
  -12.3313   -8.6049    8.0941 C   0  0  0  0  0  0  0  0  0  0  0  0
  -11.3300   -7.7161    8.3178 C   0  0  0  0  0  0  0  0  0  0  0  0
  -11.3870   -6.3594    8.9102 C   0  0  0  0  0  0  0  0  0  0  0  0
  -12.2429  -10.5344    7.1918 H   0  0  0  0  0  0  0  0  0  0  0  0
  -13.7484   -8.4914    8.3580 C   0  0  0  0  0  0  0  0  0  0  0  0
  -14.6029   -8.0780    7.4676 C   0  0  0  0  0  0  0  0  0  0  0  0
  -14.2705   -7.5609    5.7688 S   0  0  0  0  0  0  0  0  0  0  0  0
  -15.7921   -6.6007    5.6045 C   0  0  0  0  0  0  0  0  0  0  0  0
  -16.0735   -5.3902    4.5387 S   0  0  0  0  0  0  0  0  0  0  0  0
  -16.6422   -7.1371    6.5883 N   0  0  0  0  0  0  0  0  0  0  0  0
  -16.0478   -7.9156    7.5774 C   0  0  0  0  0  0  0  0  0  0  0  0
  -16.6649   -8.4858    8.5539 O   0  0  0  0  0  0  0  0  0  0  0  0
  -17.6899   -6.9469    6.5647 H   0  0  0  0  0  0  0  0  0  0  0  0
   -8.7915   -7.5891    7.9169 C   0  0  0  0  0  0  0  0  0  0  0  0
   -8.6714   -6.4864    7.3133 O   0  0  0  0  0  0  0  0  0  0  0  0
   -7.7356   -8.1541    8.5957 O   0  0  0  0  0  0  0  0  0  0  0  0
   -6.0803   -8.5269    6.8713 C   0  0  0  0  0  0  0  0  0  0  0  0
   -6.4177   -7.8647    8.1897 C   0  0  0  0  0  0  0  0  0  0  0  0
 21 22  1  0  0  0
 22 20  1  0  0  0
 20 18  1  0  0  0
 18 19  2  0  0  0
 18  1  1  0  0  0
  1  2  2  0  0  0
  2  3  1  0  0  0
  2  4  1  0  0  0
  4  5  1  0  0  0
  5  9  1  0  0  0
  9 10  2  0  0  0
 10 11  1  0  0  0
 11 12  1  0  0  0
 12 13  2  0  0  0
 12 14  1  0  0  0
 14 15  1  0  0  0
 15 16  2  0  0  0
  5  6  2  0  0  0
  6  7  1  0  0  0
  6  1  1  0  0  0
 15 10  1  0  0  0
  4  8  1  0  0  0
 14 17  1  0  0  0
M  END
> <minimizedAffinity>
-6.85865

> <CNNscore>
0.5349280238

> <CNNaffinity>
6.2938146591

> <CNN_VS>
3.3667378426

> <CNNaffinity_variance>
0.4066358209

$$$$
[H]/C(=C1/SC(=S)N([H])C1=O)c1c(C([H])([H])[H])c(C(=O)OC([H])([H])C([H])([H])[H])c(C([H])([H])[H])n1[H]


 22 23  0  0  0  0  0  0  0  0999 V2000
   -8.3651   -8.2918    7.0338 C   0  0  0  0  0  0  0  0  0  0  0  0
   -9.0389   -7.1273    7.3527 C   0  0  0  0  0  0  0  0  0  0  0  0
   -8.3933   -5.7867    7.2990 C   0  0  0  0  0  0  0  0  0  0  0  0
  -10.2911   -7.4263    7.6910 N   0  0  0  0  0  0  0  0  0  0  0  0
  -10.5073   -8.7743    7.6146 C   0  0  0  0  0  0  0  0  0  0  0  0
   -9.3248   -9.3059    7.2124 C   0  0  0  0  0  0  0  0  0  0  0  0
   -8.9527  -10.7232    6.9936 C   0  0  0  0  0  0  0  0  0  0  0  0
  -11.0137   -6.7353    7.9764 H   0  0  0  0  0  0  0  0  0  0  0  0
  -11.7501   -9.4294    7.9565 C   0  0  0  0  0  0  0  0  0  0  0  0
  -12.8774   -9.1616    7.3637 C   0  0  0  0  0  0  0  0  0  0  0  0
  -13.1775   -7.9694    6.0399 S   0  0  0  0  0  0  0  0  0  0  0  0
  -14.9497   -7.8304    6.3630 C   0  0  0  0  0  0  0  0  0  0  0  0
  -15.9273   -6.5899    5.9318 S   0  0  0  0  0  0  0  0  0  0  0  0
  -15.2647   -9.0146    7.0534 N   0  0  0  0  0  0  0  0  0  0  0  0
  -14.1997   -9.7336    7.5886 C   0  0  0  0  0  0  0  0  0  0  0  0
  -14.2961  -10.8355    8.2489 O   0  0  0  0  0  0  0  0  0  0  0  0
  -16.2761   -9.3330    7.1545 H   0  0  0  0  0  0  0  0  0  0  0  0
   -6.9760   -8.4476    6.6060 C   0  0  0  0  0  0  0  0  0  0  0  0
   -6.7855   -8.7722    5.4007 O   0  0  0  0  0  0  0  0  0  0  0  0
   -5.9235   -8.2506    7.4709 O   0  0  0  0  0  0  0  0  0  0  0  0
   -4.3527   -6.5044    6.8910 C   0  0  0  0  0  0  0  0  0  0  0  0
   -4.6402   -7.9891    6.9508 C   0  0  0  0  0  0  0  0  0  0  0  0
 21 22  1  0  0  0
 22 20  1  0  0  0
 20 18  1  0  0  0
 18 19  2  0  0  0
 18  1  1  0  0  0
  1  2  2  0  0  0
  2  3  1  0  0  0
  2  4  1  0  0  0
  4  5  1  0  0  0
  5  9  1  0  0  0
  9 10  2  0  0  0
 10 11  1  0  0  0
 11 12  1  0  0  0
 12 13  2  0  0  0
 12 14  1  0  0  0
 14 15  1  0  0  0
 15 16  2  0  0  0
  5  6  2  0  0  0
  6  7  1  0  0  0
  6  1  1  0  0  0
 15 10  1  0  0  0
  4  8  1  0  0  0
 14 17  1  0  0  0
M  END
> <minimizedAffinity>
-4.55314

> <CNNscore>
0.4847626388

> <CNNaffinity>
6.0055809021

> <CNN_VS>
2.9112813473

> <CNNaffinity_variance>
0.4794673324

$$$$
[H]/C(=C1/SC(=S)N([H])C1=O)c1c(C([H])([H])[H])c(C(=O)OC([H])([H])C([H])([H])[H])c(C([H])([H])[H])n1[H]


 22 23  0  0  0  0  0  0  0  0999 V2000
  -11.6841   -7.6046    8.8110 C   0  0  0  0  0  0  0  0  0  0  0  0
  -10.9119   -6.5134    9.1647 C   0  0  0  0  0  0  0  0  0  0  0  0
  -11.3670   -5.4946   10.1506 C   0  0  0  0  0  0  0  0  0  0  0  0
   -9.7625   -6.5567    8.4949 N   0  0  0  0  0  0  0  0  0  0  0  0
   -9.7140   -7.6548    7.6815 C   0  0  0  0  0  0  0  0  0  0  0  0
  -10.8940   -8.2975    7.8746 C   0  0  0  0  0  0  0  0  0  0  0  0
  -11.4148   -9.5276    7.2337 C   0  0  0  0  0  0  0  0  0  0  0  0
   -8.9992   -5.8549    8.5728 H   0  0  0  0  0  0  0  0  0  0  0  0
   -8.6202   -7.9718    6.7907 C   0  0  0  0  0  0  0  0  0  0  0  0
   -7.3705   -7.8530    7.1346 C   0  0  0  0  0  0  0  0  0  0  0  0
   -6.7054   -7.2895    8.7170 S   0  0  0  0  0  0  0  0  0  0  0  0
   -5.0888   -6.8392    8.0477 C   0  0  0  0  0  0  0  0  0  0  0  0
   -4.0170   -5.7902    8.7043 S   0  0  0  0  0  0  0  0  0  0  0  0
   -4.9884   -7.5907    6.8630 N   0  0  0  0  0  0  0  0  0  0  0  0
   -6.1672   -8.1347    6.3608 C   0  0  0  0  0  0  0  0  0  0  0  0
   -6.2679   -8.8478    5.2927 O   0  0  0  0  0  0  0  0  0  0  0  0
   -4.0472   -7.7278    6.3836 H   0  0  0  0  0  0  0  0  0  0  0  0
  -13.0154   -7.9679    9.2931 C   0  0  0  0  0  0  0  0  0  0  0  0
  -13.0842   -8.9443   10.0908 O   0  0  0  0  0  0  0  0  0  0  0  0
  -14.1421   -7.2817    8.9001 O   0  0  0  0  0  0  0  0  0  0  0  0
  -14.4391   -6.6261    6.5904 C   0  0  0  0  0  0  0  0  0  0  0  0
  -14.7687   -7.6191    7.6839 C   0  0  0  0  0  0  0  0  0  0  0  0
 21 22  1  0  0  0
 22 20  1  0  0  0
 20 18  1  0  0  0
 18 19  2  0  0  0
 18  1  1  0  0  0
  1  2  2  0  0  0
  2  3  1  0  0  0
  2  4  1  0  0  0
  4  5  1  0  0  0
  5  9  1  0  0  0
  9 10  2  0  0  0
 10 11  1  0  0  0
 11 12  1  0  0  0
 12 13  2  0  0  0
 12 14  1  0  0  0
 14 15  1  0  0  0
 15 16  2  0  0  0
  5  6  2  0  0  0
  6  7  1  0  0  0
  6  1  1  0  0  0
 15 10  1  0  0  0
  4  8  1  0  0  0
 14 17  1  0  0  0
M  END
> <minimizedAffinity>
-6.48379

> <CNNscore>
0.4465284348

> <CNNaffinity>
5.4603762627

> <CNN_VS>
2.4382133484

> <CNNaffinity_variance>
0.0669538155

$$$$
[H]/C(=C1/SC(=S)N([H])C1=O)c1c(C([H])([H])[H])c(C(=O)OC([H])([H])C([H])([H])[H])c(C([H])([H])[H])n1[H]


 22 23  0  0  0  0  0  0  0  0999 V2000
  -13.4791   -7.4577    7.7322 C   0  0  0  0  0  0  0  0  0  0  0  0
  -12.8631   -6.9118    8.8433 C   0  0  0  0  0  0  0  0  0  0  0  0
  -13.4764   -5.8158    9.6429 C   0  0  0  0  0  0  0  0  0  0  0  0
  -11.6964   -7.5218    9.0391 N   0  0  0  0  0  0  0  0  0  0  0  0
  -11.4840   -8.4829    8.0899 C   0  0  0  0  0  0  0  0  0  0  0  0
  -12.5777   -8.4428    7.2868 C   0  0  0  0  0  0  0  0  0  0  0  0
  -12.8857   -9.2318    6.0713 C   0  0  0  0  0  0  0  0  0  0  0  0
  -11.0300   -7.3037    9.8070 H   0  0  0  0  0  0  0  0  0  0  0  0
  -10.2935   -9.2979    7.9956 C   0  0  0  0  0  0  0  0  0  0  0  0
   -9.1170   -8.8047    7.7376 C   0  0  0  0  0  0  0  0  0  0  0  0
   -8.6806   -7.0770    7.4402 S   0  0  0  0  0  0  0  0  0  0  0  0
   -7.1447   -7.4588    6.5688 C   0  0  0  0  0  0  0  0  0  0  0  0
   -6.3462   -6.4842    5.5233 S   0  0  0  0  0  0  0  0  0  0  0  0
   -6.8211   -8.7576    7.0004 N   0  0  0  0  0  0  0  0  0  0  0  0
   -7.8340   -9.4869    7.6166 C   0  0  0  0  0  0  0  0  0  0  0  0
   -7.7223  -10.6861    8.0739 O   0  0  0  0  0  0  0  0  0  0  0  0
   -5.8422   -9.1515    6.8548 H   0  0  0  0  0  0  0  0  0  0  0  0
  -14.7705   -7.1039    7.1458 C   0  0  0  0  0  0  0  0  0  0  0  0
  -15.7393   -7.8735    7.3981 O   0  0  0  0  0  0  0  0  0  0  0  0
  -14.9282   -5.9869    6.3570 O   0  0  0  0  0  0  0  0  0  0  0  0
  -14.8532   -4.7438    4.2830 C   0  0  0  0  0  0  0  0  0  0  0  0
  -14.7294   -6.0887    4.9657 C   0  0  0  0  0  0  0  0  0  0  0  0
 21 22  1  0  0  0
 22 20  1  0  0  0
 20 18  1  0  0  0
 18 19  2  0  0  0
 18  1  1  0  0  0
  1  2  2  0  0  0
  2  3  1  0  0  0
  2  4  1  0  0  0
  4  5  1  0  0  0
  5  9  1  0  0  0
  9 10  2  0  0  0
 10 11  1  0  0  0
 11 12  1  0  0  0
 12 13  2  0  0  0
 12 14  1  0  0  0
 14 15  1  0  0  0
 15 16  2  0  0  0
  5  6  2  0  0  0
  6  7  1  0  0  0
  6  1  1  0  0  0
 15 10  1  0  0  0
  4  8  1  0  0  0
 14 17  1  0  0  0
M  END
> <minimizedAffinity>
-7.19550

> <CNNscore>
0.4419190884

> <CNNaffinity>
5.9124860764

> <CNN_VS>
2.6128404140

> <CNNaffinity_variance>
0.0622178726

$$$$
[H]/C(=C1/SC(=S)N([H])C1=O)c1c(C([H])([H])[H])c(C(=O)OC([H])([H])C([H])([H])[H])c(C([H])([H])[H])n1[H]


 22 23  0  0  0  0  0  0  0  0999 V2000
  -11.9830   -8.2029    7.5438 C   0  0  0  0  0  0  0  0  0  0  0  0
  -11.8270   -9.4134    6.8940 C   0  0  0  0  0  0  0  0  0  0  0  0
  -10.5235  -10.1306    6.8363 C   0  0  0  0  0  0  0  0  0  0  0  0
  -12.9942   -9.7811    6.3703 N   0  0  0  0  0  0  0  0  0  0  0  0
  -13.9627   -8.8546    6.6407 C   0  0  0  0  0  0  0  0  0  0  0  0
  -13.3419   -7.8851    7.3600 C   0  0  0  0  0  0  0  0  0  0  0  0
  -13.8838   -6.6154    7.8978 C   0  0  0  0  0  0  0  0  0  0  0  0
  -13.1569  -10.6529    5.8273 H   0  0  0  0  0  0  0  0  0  0  0  0
  -15.3305   -8.9346    6.1788 C   0  0  0  0  0  0  0  0  0  0  0  0
  -15.8245   -8.1256    5.2870 C   0  0  0  0  0  0  0  0  0  0  0  0
  -14.9895   -6.7647    4.4417 S   0  0  0  0  0  0  0  0  0  0  0  0
  -16.5155   -5.9037    4.0011 C   0  0  0  0  0  0  0  0  0  0  0  0
  -16.6703   -4.3161    3.6322 S   0  0  0  0  0  0  0  0  0  0  0  0
  -17.5005   -6.9063    4.0535 N   0  0  0  0  0  0  0  0  0  0  0  0
  -17.1673   -8.0819    4.7203 C   0  0  0  0  0  0  0  0  0  0  0  0
  -17.9379   -9.1036    4.8683 O   0  0  0  0  0  0  0  0  0  0  0  0
  -18.4528   -6.7579    3.5999 H   0  0  0  0  0  0  0  0  0  0  0  0
  -10.9768   -7.4230    8.2622 C   0  0  0  0  0  0  0  0  0  0  0  0
   -9.9826   -7.0244    7.5935 O   0  0  0  0  0  0  0  0  0  0  0  0
  -11.1027   -7.1339    9.6021 O   0  0  0  0  0  0  0  0  0  0  0  0
  -12.3843   -5.5471   10.9027 C   0  0  0  0  0  0  0  0  0  0  0  0
  -11.1826   -5.7892   10.0153 C   0  0  0  0  0  0  0  0  0  0  0  0
 21 22  1  0  0  0
 22 20  1  0  0  0
 20 18  1  0  0  0
 18 19  2  0  0  0
 18  1  1  0  0  0
  1  2  2  0  0  0
  2  3  1  0  0  0
  2  4  1  0  0  0
  4  5  1  0  0  0
  5  9  1  0  0  0
  9 10  2  0  0  0
 10 11  1  0  0  0
 11 12  1  0  0  0
 12 13  2  0  0  0
 12 14  1  0  0  0
 14 15  1  0  0  0
 15 16  2  0  0  0
  5  6  2  0  0  0
  6  7  1  0  0  0
  6  1  1  0  0  0
 15 10  1  0  0  0
  4  8  1  0  0  0
 14 17  1  0  0  0
M  END
> <minimizedAffinity>
-6.04977

> <CNNscore>
0.3910520673

> <CNNaffinity>
6.1188945770

> <CNN_VS>
2.3928062916

> <CNNaffinity_variance>
0.0454504453

$$$$
[H]OP(=O)(O[H])C(F)(F)c1c([H])c([H])c(-c2c([H])c([H])c(-c3c(C([H])([H])c4c([H])c([H])c([H])c([H])c4[H])oc4c([H])c([H])c([H])c([H])c34)c([H])c2[H])c([H])c1[H]


 37 41  0  0  0  0  0  0  0  0999 V2000
  -14.5228   -7.9492    8.2798 C   0  0  0  0  0  0  0  0  0  0  0  0
  -14.3907   -8.5795    7.0362 C   0  0  0  0  0  0  0  0  0  0  0  0
  -14.7699   -7.9056    5.8855 C   0  0  0  0  0  0  0  0  0  0  0  0
  -15.2780   -6.6270    5.9013 C   0  0  0  0  0  0  0  0  0  0  0  0
  -15.4072   -6.0115    7.1282 C   0  0  0  0  0  0  0  0  0  0  0  0
  -15.0370   -6.6571    8.3013 C   0  0  0  0  0  0  0  0  0  0  0  0
  -15.6008   -5.9157    4.6811 C   0  0  0  0  0  0  0  0  0  0  0  0
  -15.0228   -4.8033    4.1318 C   0  0  0  0  0  0  0  0  0  0  0  0
  -15.6707   -4.5379    3.0011 O   0  0  0  0  0  0  0  0  0  0  0  0
  -16.6307   -5.4286    2.8072 C   0  0  0  0  0  0  0  0  0  0  0  0
  -17.5761   -5.6135    1.8123 C   0  0  0  0  0  0  0  0  0  0  0  0
  -18.4678   -6.6639    1.8852 C   0  0  0  0  0  0  0  0  0  0  0  0
  -18.4711   -7.5752    2.9322 C   0  0  0  0  0  0  0  0  0  0  0  0
  -17.5386   -7.3971    3.9191 C   0  0  0  0  0  0  0  0  0  0  0  0
  -16.6477   -6.3418    3.8414 C   0  0  0  0  0  0  0  0  0  0  0  0
  -13.8861   -4.0183    4.6713 C   0  0  0  0  0  0  0  0  0  0  0  0
  -14.3376   -2.7515    5.3145 C   0  0  0  0  0  0  0  0  0  0  0  0
  -15.6464   -2.5663    5.7128 C   0  0  0  0  0  0  0  0  0  0  0  0
  -16.1032   -1.4162    6.3097 C   0  0  0  0  0  0  0  0  0  0  0  0
  -15.2362   -0.3709    6.5386 C   0  0  0  0  0  0  0  0  0  0  0  0
  -13.9234   -0.5215    6.1536 C   0  0  0  0  0  0  0  0  0  0  0  0
  -13.4760   -1.6829    5.5540 C   0  0  0  0  0  0  0  0  0  0  0  0
  -13.3227   -9.9951   11.7787 C   0  0  0  0  0  0  0  0  0  0  0  0
  -14.2104   -8.9473   11.8728 C   0  0  0  0  0  0  0  0  0  0  0  0
  -14.6075   -8.2690   10.7422 C   0  0  0  0  0  0  0  0  0  0  0  0
  -14.1206   -8.6293    9.4914 C   0  0  0  0  0  0  0  0  0  0  0  0
  -13.2376   -9.6743    9.4048 C   0  0  0  0  0  0  0  0  0  0  0  0
  -12.8156  -10.3817   10.5325 C   0  0  0  0  0  0  0  0  0  0  0  0
  -12.8794  -10.7448   12.9891 C   0  0  0  0  0  0  0  0  0  0  0  0
  -11.7078  -11.4127   12.7066 F   0  0  0  0  0  0  0  0  0  0  0  0
  -13.8319  -11.6995   13.3516 F   0  0  0  0  0  0  0  0  0  0  0  0
  -11.5604  -10.3407   15.5516 O   0  0  0  0  0  0  0  0  0  0  0  0
  -12.6062   -9.6691   14.3992 P   0  0  0  0  0  0  0  0  0  0  0  0
  -11.8735   -8.2210   13.8875 O   0  0  0  0  0  0  0  0  0  0  0  0
  -13.9036   -9.3214   15.0845 O   0  0  0  0  0  0  0  0  0  0  0  0
  -10.8292  -10.8697   15.1444 H   0  0  0  0  0  0  0  0  0  0  0  0
  -12.1030   -8.0149   12.9475 H   0  0  0  0  0  0  0  0  0  0  0  0
 32 33  1  0  0  0
 33 34  1  0  0  0
 33 35  2  0  0  0
 33 29  1  0  0  0
 29 30  1  0  0  0
 29 31  1  0  0  0
 29 23  1  0  0  0
 23 24  2  0  0  0
 24 25  1  0  0  0
 25 26  2  0  0  0
 26 27  1  0  0  0
 27 28  2  0  0  0
 26  1  1  0  0  0
  1  2  2  0  0  0
  2  3  1  0  0  0
  3  4  2  0  0  0
  4  5  1  0  0  0
  5  6  2  0  0  0
  4  7  1  0  0  0
  7  8  2  0  0  0
  8 16  1  0  0  0
 16 17  1  0  0  0
 17 18  2  0  0  0
 18 19  1  0  0  0
 19 20  2  0  0  0
 20 21  1  0  0  0
 21 22  2  0  0  0
  8  9  1  0  0  0
  9 10  1  0  0  0
 10 11  2  0  0  0
 11 12  1  0  0  0
 12 13  2  0  0  0
 13 14  1  0  0  0
 14 15  2  0  0  0
 28 23  1  0  0  0
  6  1  1  0  0  0
 15  7  1  0  0  0
 22 17  1  0  0  0
 15 10  1  0  0  0
 32 36  1  0  0  0
 34 37  1  0  0  0
M  END
> <minimizedAffinity>
38.63265

> <CNNscore>
0.5713937879

> <CNNaffinity>
6.5375175476

> <CNN_VS>
3.7354969978

> <CNNaffinity_variance>
3.0697417259

$$$$
[H]OP(=O)(O[H])C(F)(F)c1c([H])c([H])c(-c2c([H])c([H])c(-c3c(C([H])([H])c4c([H])c([H])c([H])c([H])c4[H])oc4c([H])c([H])c([H])c([H])c34)c([H])c2[H])c([H])c1[H]


 37 41  0  0  0  0  0  0  0  0999 V2000
  -13.5496   -6.8545    9.4974 C   0  0  0  0  0  0  0  0  0  0  0  0
  -13.4782   -6.2740    8.2250 C   0  0  0  0  0  0  0  0  0  0  0  0
  -14.3583   -6.6858    7.2362 C   0  0  0  0  0  0  0  0  0  0  0  0
  -15.3159   -7.6519    7.4431 C   0  0  0  0  0  0  0  0  0  0  0  0
  -15.3812   -8.2212    8.6972 C   0  0  0  0  0  0  0  0  0  0  0  0
  -14.5151   -7.8326    9.7114 C   0  0  0  0  0  0  0  0  0  0  0  0
  -16.2717   -8.0158    6.4168 C   0  0  0  0  0  0  0  0  0  0  0  0
  -17.6116   -8.2770    6.5149 C   0  0  0  0  0  0  0  0  0  0  0  0
  -18.0506   -8.5587    5.2915 O   0  0  0  0  0  0  0  0  0  0  0  0
  -17.0538   -8.4881    4.4232 C   0  0  0  0  0  0  0  0  0  0  0  0
  -16.9631   -8.6802    3.0547 C   0  0  0  0  0  0  0  0  0  0  0  0
  -15.7533   -8.5285    2.4086 C   0  0  0  0  0  0  0  0  0  0  0  0
  -14.5849   -8.1829    3.0734 C   0  0  0  0  0  0  0  0  0  0  0  0
  -14.6685   -7.9919    4.4269 C   0  0  0  0  0  0  0  0  0  0  0  0
  -15.8836   -8.1462    5.0696 C   0  0  0  0  0  0  0  0  0  0  0  0
  -18.4465   -8.2578    7.7404 C   0  0  0  0  0  0  0  0  0  0  0  0
  -19.3912   -9.4100    7.7906 C   0  0  0  0  0  0  0  0  0  0  0  0
  -20.2599   -9.6817    6.7527 C   0  0  0  0  0  0  0  0  0  0  0  0
  -21.1447  -10.7329    6.7582 C   0  0  0  0  0  0  0  0  0  0  0  0
  -21.1948  -11.5819    7.8415 C   0  0  0  0  0  0  0  0  0  0  0  0
  -20.3422  -11.3400    8.8946 C   0  0  0  0  0  0  0  0  0  0  0  0
  -19.4571  -10.2794    8.8774 C   0  0  0  0  0  0  0  0  0  0  0  0
  -10.8613   -5.6427   12.5261 C   0  0  0  0  0  0  0  0  0  0  0  0
  -12.2080   -5.7179   12.8007 C   0  0  0  0  0  0  0  0  0  0  0  0
  -13.0961   -6.1074   11.8232 C   0  0  0  0  0  0  0  0  0  0  0  0
  -12.6497   -6.4300   10.5472 C   0  0  0  0  0  0  0  0  0  0  0  0
  -11.3072   -6.3539   10.2809 C   0  0  0  0  0  0  0  0  0  0  0  0
  -10.3815   -5.9622   11.2504 C   0  0  0  0  0  0  0  0  0  0  0  0
   -9.8810   -5.2246   13.5690 C   0  0  0  0  0  0  0  0  0  0  0  0
   -8.6351   -5.0933   12.9955 F   0  0  0  0  0  0  0  0  0  0  0  0
   -9.7846   -6.1943   14.5693 F   0  0  0  0  0  0  0  0  0  0  0  0
   -8.9811   -2.7405   14.7894 O   0  0  0  0  0  0  0  0  0  0  0  0
  -10.3275   -3.6690   14.3443 P   0  0  0  0  0  0  0  0  0  0  0  0
  -11.2165   -2.7136   13.2522 O   0  0  0  0  0  0  0  0  0  0  0  0
  -11.1753   -3.8902   15.5715 O   0  0  0  0  0  0  0  0  0  0  0  0
   -8.2356   -2.8103   14.1416 H   0  0  0  0  0  0  0  0  0  0  0  0
  -11.6983   -3.2740   12.5945 H   0  0  0  0  0  0  0  0  0  0  0  0
 32 33  1  0  0  0
 33 34  1  0  0  0
 33 35  2  0  0  0
 33 29  1  0  0  0
 29 30  1  0  0  0
 29 31  1  0  0  0
 29 23  1  0  0  0
 23 24  2  0  0  0
 24 25  1  0  0  0
 25 26  2  0  0  0
 26 27  1  0  0  0
 27 28  2  0  0  0
 26  1  1  0  0  0
  1  2  2  0  0  0
  2  3  1  0  0  0
  3  4  2  0  0  0
  4  5  1  0  0  0
  5  6  2  0  0  0
  4  7  1  0  0  0
  7  8  2  0  0  0
  8 16  1  0  0  0
 16 17  1  0  0  0
 17 18  2  0  0  0
 18 19  1  0  0  0
 19 20  2  0  0  0
 20 21  1  0  0  0
 21 22  2  0  0  0
  8  9  1  0  0  0
  9 10  1  0  0  0
 10 11  2  0  0  0
 11 12  1  0  0  0
 12 13  2  0  0  0
 13 14  1  0  0  0
 14 15  2  0  0  0
 28 23  1  0  0  0
  6  1  1  0  0  0
 15  7  1  0  0  0
 22 17  1  0  0  0
 15 10  1  0  0  0
 32 36  1  0  0  0
 34 37  1  0  0  0
M  END
> <minimizedAffinity>
9.30333

> <CNNscore>
0.5210082531

> <CNNaffinity>
6.5637664795

> <CNN_VS>
3.4197764397

> <CNNaffinity_variance>
2.0186638832

$$$$
[H]OP(=O)(O[H])C(F)(F)c1c([H])c([H])c(-c2c([H])c([H])c(-c3c(C([H])([H])c4c([H])c([H])c([H])c([H])c4[H])oc4c([H])c([H])c([H])c([H])c34)c([H])c2[H])c([H])c1[H]


 37 41  0  0  0  0  0  0  0  0999 V2000
  -13.7986   -6.9222    9.2099 C   0  0  0  0  0  0  0  0  0  0  0  0
  -13.7312   -6.3404    7.9378 C   0  0  0  0  0  0  0  0  0  0  0  0
  -14.6274   -6.7371    6.9573 C   0  0  0  0  0  0  0  0  0  0  0  0
  -15.5972   -7.6891    7.1721 C   0  0  0  0  0  0  0  0  0  0  0  0
  -15.6585   -8.2597    8.4258 C   0  0  0  0  0  0  0  0  0  0  0  0
  -14.7764   -7.8860    9.4319 C   0  0  0  0  0  0  0  0  0  0  0  0
  -16.5686   -8.0366    6.1549 C   0  0  0  0  0  0  0  0  0  0  0  0
  -16.4740   -7.9768    4.7908 C   0  0  0  0  0  0  0  0  0  0  0  0
  -17.6292   -8.4101    4.2945 O   0  0  0  0  0  0  0  0  0  0  0  0
  -18.4509   -8.7419    5.2780 C   0  0  0  0  0  0  0  0  0  0  0  0
  -19.7426   -9.2397    5.3174 C   0  0  0  0  0  0  0  0  0  0  0  0
  -20.3534   -9.4972    6.5275 C   0  0  0  0  0  0  0  0  0  0  0  0
  -19.7267   -9.2792    7.7467 C   0  0  0  0  0  0  0  0  0  0  0  0
  -18.4493   -8.7867    7.7140 C   0  0  0  0  0  0  0  0  0  0  0  0
  -17.8421   -8.5295    6.4980 C   0  0  0  0  0  0  0  0  0  0  0  0
  -15.3148   -7.5197    3.9866 C   0  0  0  0  0  0  0  0  0  0  0  0
  -15.1901   -6.0342    3.9809 C   0  0  0  0  0  0  0  0  0  0  0  0
  -16.2921   -5.2141    3.8431 C   0  0  0  0  0  0  0  0  0  0  0  0
  -16.2213   -3.8420    3.8340 C   0  0  0  0  0  0  0  0  0  0  0  0
  -15.0013   -3.2169    3.9674 C   0  0  0  0  0  0  0  0  0  0  0  0
  -13.8813   -4.0045    4.1067 C   0  0  0  0  0  0  0  0  0  0  0  0
  -13.9652   -5.3835    4.1141 C   0  0  0  0  0  0  0  0  0  0  0  0
  -11.0632   -5.7622   12.2166 C   0  0  0  0  0  0  0  0  0  0  0  0
  -12.4150   -5.7204   12.4725 C   0  0  0  0  0  0  0  0  0  0  0  0
  -13.3181   -6.0916   11.5017 C   0  0  0  0  0  0  0  0  0  0  0  0
  -12.8819   -6.5132   10.2513 C   0  0  0  0  0  0  0  0  0  0  0  0
  -11.5343   -6.5533   10.0035 C   0  0  0  0  0  0  0  0  0  0  0  0
  -10.5934   -6.1832   10.9669 C   0  0  0  0  0  0  0  0  0  0  0  0
  -10.0667   -5.3661   13.2528 C   0  0  0  0  0  0  0  0  0  0  0  0
   -8.8393   -5.1786   12.6554 F   0  0  0  0  0  0  0  0  0  0  0  0
   -9.9216   -6.3761   14.2062 F   0  0  0  0  0  0  0  0  0  0  0  0
   -9.1958   -2.9905   14.6909 O   0  0  0  0  0  0  0  0  0  0  0  0
  -10.5301   -3.8577   14.1074 P   0  0  0  0  0  0  0  0  0  0  0  0
  -11.3379   -2.8115   13.0357 O   0  0  0  0  0  0  0  0  0  0  0  0
  -11.4510   -4.1438   15.2666 O   0  0  0  0  0  0  0  0  0  0  0  0
   -8.4154   -3.0319   14.0829 H   0  0  0  0  0  0  0  0  0  0  0  0
  -11.7906   -3.3154   12.3146 H   0  0  0  0  0  0  0  0  0  0  0  0
 32 33  1  0  0  0
 33 34  1  0  0  0
 33 35  2  0  0  0
 33 29  1  0  0  0
 29 30  1  0  0  0
 29 31  1  0  0  0
 29 23  1  0  0  0
 23 24  2  0  0  0
 24 25  1  0  0  0
 25 26  2  0  0  0
 26 27  1  0  0  0
 27 28  2  0  0  0
 26  1  1  0  0  0
  1  2  2  0  0  0
  2  3  1  0  0  0
  3  4  2  0  0  0
  4  5  1  0  0  0
  5  6  2  0  0  0
  4  7  1  0  0  0
  7  8  2  0  0  0
  8 16  1  0  0  0
 16 17  1  0  0  0
 17 18  2  0  0  0
 18 19  1  0  0  0
 19 20  2  0  0  0
 20 21  1  0  0  0
 21 22  2  0  0  0
  8  9  1  0  0  0
  9 10  1  0  0  0
 10 11  2  0  0  0
 11 12  1  0  0  0
 12 13  2  0  0  0
 13 14  1  0  0  0
 14 15  2  0  0  0
 28 23  1  0  0  0
  6  1  1  0  0  0
 15  7  1  0  0  0
 22 17  1  0  0  0
 15 10  1  0  0  0
 32 36  1  0  0  0
 34 37  1  0  0  0
M  END
> <minimizedAffinity>
8.13975

> <CNNscore>
0.5161792040

> <CNNaffinity>
6.6665143967

> <CNN_VS>
3.4411160946

> <CNNaffinity_variance>
2.1245319843

$$$$
[H]OP(=O)(O[H])C(F)(F)c1c([H])c([H])c(-c2c([H])c([H])c(-c3c(C([H])([H])c4c([H])c([H])c([H])c([H])c4[H])oc4c([H])c([H])c([H])c([H])c34)c([H])c2[H])c([H])c1[H]


 37 41  0  0  0  0  0  0  0  0999 V2000
  -12.6475   -7.5710    6.5222 C   0  0  0  0  0  0  0  0  0  0  0  0
  -12.9702   -6.4108    5.8073 C   0  0  0  0  0  0  0  0  0  0  0  0
  -14.2589   -6.2422    5.3250 C   0  0  0  0  0  0  0  0  0  0  0  0
  -15.2557   -7.1713    5.5156 C   0  0  0  0  0  0  0  0  0  0  0  0
  -14.9326   -8.3123    6.2189 C   0  0  0  0  0  0  0  0  0  0  0  0
  -13.6513   -8.5139    6.7166 C   0  0  0  0  0  0  0  0  0  0  0  0
  -16.6134   -6.9420    5.0647 C   0  0  0  0  0  0  0  0  0  0  0  0
  -17.5098   -7.8062    4.4967 C   0  0  0  0  0  0  0  0  0  0  0  0
  -18.6268   -7.1224    4.2652 O   0  0  0  0  0  0  0  0  0  0  0  0
  -18.4814   -5.8671    4.6594 C   0  0  0  0  0  0  0  0  0  0  0  0
  -19.3139   -4.7604    4.6514 C   0  0  0  0  0  0  0  0  0  0  0  0
  -18.8704   -3.5514    5.1468 C   0  0  0  0  0  0  0  0  0  0  0  0
  -17.5968   -3.3757    5.6699 C   0  0  0  0  0  0  0  0  0  0  0  0
  -16.7690   -4.4666    5.6801 C   0  0  0  0  0  0  0  0  0  0  0  0
  -17.2185   -5.6759    5.1813 C   0  0  0  0  0  0  0  0  0  0  0  0
  -17.3050   -9.2416    4.1851 C   0  0  0  0  0  0  0  0  0  0  0  0
  -16.1684   -9.4520    3.2437 C   0  0  0  0  0  0  0  0  0  0  0  0
  -16.2840  -10.2703    2.1379 C   0  0  0  0  0  0  0  0  0  0  0  0
  -15.2626  -10.4902    1.2456 C   0  0  0  0  0  0  0  0  0  0  0  0
  -14.0437   -9.8771    1.4332 C   0  0  0  0  0  0  0  0  0  0  0  0
  -13.8934   -9.0543    2.5262 C   0  0  0  0  0  0  0  0  0  0  0  0
  -14.9280   -8.8413    3.4167 C   0  0  0  0  0  0  0  0  0  0  0  0
   -8.7240   -8.0618    8.0167 C   0  0  0  0  0  0  0  0  0  0  0  0
   -9.5917   -9.1303    8.0169 C   0  0  0  0  0  0  0  0  0  0  0  0
  -10.8740   -8.9846    7.5368 C   0  0  0  0  0  0  0  0  0  0  0  0
  -11.3125   -7.7607    7.0457 C   0  0  0  0  0  0  0  0  0  0  0  0
  -10.4429   -6.7011    7.0475 C   0  0  0  0  0  0  0  0  0  0  0  0
   -9.1366   -6.8167    7.5276 C   0  0  0  0  0  0  0  0  0  0  0  0
   -7.3306   -8.1963    8.5304 C   0  0  0  0  0  0  0  0  0  0  0  0
   -7.0887   -9.5149    8.8490 F   0  0  0  0  0  0  0  0  0  0  0  0
   -7.1615   -7.4436    9.6944 F   0  0  0  0  0  0  0  0  0  0  0  0
   -4.5156   -7.9885    7.8216 O   0  0  0  0  0  0  0  0  0  0  0  0
   -6.1051   -7.6559    7.3362 P   0  0  0  0  0  0  0  0  0  0  0  0
   -6.3292   -8.4811    5.8649 O   0  0  0  0  0  0  0  0  0  0  0  0
   -6.2166   -6.1766    7.0656 O   0  0  0  0  0  0  0  0  0  0  0  0
   -4.4341   -8.8480    8.3063 H   0  0  0  0  0  0  0  0  0  0  0  0
   -7.2716   -8.7591    5.7489 H   0  0  0  0  0  0  0  0  0  0  0  0
 32 33  1  0  0  0
 33 34  1  0  0  0
 33 35  2  0  0  0
 33 29  1  0  0  0
 29 30  1  0  0  0
 29 31  1  0  0  0
 29 23  1  0  0  0
 23 24  2  0  0  0
 24 25  1  0  0  0
 25 26  2  0  0  0
 26 27  1  0  0  0
 27 28  2  0  0  0
 26  1  1  0  0  0
  1  2  2  0  0  0
  2  3  1  0  0  0
  3  4  2  0  0  0
  4  5  1  0  0  0
  5  6  2  0  0  0
  4  7  1  0  0  0
  7  8  2  0  0  0
  8 16  1  0  0  0
 16 17  1  0  0  0
 17 18  2  0  0  0
 18 19  1  0  0  0
 19 20  2  0  0  0
 20 21  1  0  0  0
 21 22  2  0  0  0
  8  9  1  0  0  0
  9 10  1  0  0  0
 10 11  2  0  0  0
 11 12  1  0  0  0
 12 13  2  0  0  0
 13 14  1  0  0  0
 14 15  2  0  0  0
 28 23  1  0  0  0
  6  1  1  0  0  0
 15  7  1  0  0  0
 22 17  1  0  0  0
 15 10  1  0  0  0
 32 36  1  0  0  0
 34 37  1  0  0  0
M  END
> <minimizedAffinity>
12.32347

> <CNNscore>
0.4486910701

> <CNNaffinity>
6.6290140152

> <CNN_VS>
2.9743793011

> <CNNaffinity_variance>
2.0117304325

$$$$
[H]OP(=O)(O[H])C(F)(F)c1c([H])c([H])c(-c2c([H])c([H])c(-c3c(C([H])([H])c4c([H])c([H])c([H])c([H])c4[H])oc4c([H])c([H])c([H])c([H])c34)c([H])c2[H])c([H])c1[H]


 37 41  0  0  0  0  0  0  0  0999 V2000
   -8.7598   -6.9983    7.7887 C   0  0  0  0  0  0  0  0  0  0  0  0
   -7.9256   -7.5291    6.7969 C   0  0  0  0  0  0  0  0  0  0  0  0
   -6.6097   -7.1016    6.7107 C   0  0  0  0  0  0  0  0  0  0  0  0
   -6.0702   -6.1667    7.5640 C   0  0  0  0  0  0  0  0  0  0  0  0
   -6.8959   -5.6462    8.5378 C   0  0  0  0  0  0  0  0  0  0  0  0
   -8.2196   -6.0519    8.6531 C   0  0  0  0  0  0  0  0  0  0  0  0
   -4.6733   -5.7875    7.5009 C   0  0  0  0  0  0  0  0  0  0  0  0
   -3.9396   -5.3026    6.4522 C   0  0  0  0  0  0  0  0  0  0  0  0
   -2.7021   -5.0996    6.8952 O   0  0  0  0  0  0  0  0  0  0  0  0
   -2.6166   -5.4319    8.1738 C   0  0  0  0  0  0  0  0  0  0  0  0
   -1.5861   -5.4144    9.0989 C   0  0  0  0  0  0  0  0  0  0  0  0
   -1.8072   -5.8302   10.3958 C   0  0  0  0  0  0  0  0  0  0  0  0
   -3.0432   -6.2789   10.8405 C   0  0  0  0  0  0  0  0  0  0  0  0
   -4.0659   -6.2987    9.9299 C   0  0  0  0  0  0  0  0  0  0  0  0
   -3.8384   -5.8816    8.6308 C   0  0  0  0  0  0  0  0  0  0  0  0
   -4.4071   -5.0413    5.0693 C   0  0  0  0  0  0  0  0  0  0  0  0
   -3.3871   -4.3113    4.2636 C   0  0  0  0  0  0  0  0  0  0  0  0
   -3.7465   -3.4479    3.2482 C   0  0  0  0  0  0  0  0  0  0  0  0
   -2.8393   -2.7553    2.4833 C   0  0  0  0  0  0  0  0  0  0  0  0
   -1.4900   -2.9063    2.7143 C   0  0  0  0  0  0  0  0  0  0  0  0
   -1.0961   -3.7601    3.7195 C   0  0  0  0  0  0  0  0  0  0  0  0
   -2.0180   -4.4512    4.4818 C   0  0  0  0  0  0  0  0  0  0  0  0
  -12.7916   -8.2339    8.0812 C   0  0  0  0  0  0  0  0  0  0  0  0
  -11.8774   -8.6653    9.0154 C   0  0  0  0  0  0  0  0  0  0  0  0
  -10.5599   -8.2742    8.9309 C   0  0  0  0  0  0  0  0  0  0  0  0
  -10.1321   -7.4404    7.9047 C   0  0  0  0  0  0  0  0  0  0  0  0
  -11.0480   -7.0137    6.9783 C   0  0  0  0  0  0  0  0  0  0  0  0
  -12.3908   -7.3927    7.0365 C   0  0  0  0  0  0  0  0  0  0  0  0
  -14.2236   -8.6435    8.1533 C   0  0  0  0  0  0  0  0  0  0  0  0
  -14.7490   -8.2494    9.3646 F   0  0  0  0  0  0  0  0  0  0  0  0
  -14.3417  -10.0328    8.0745 F   0  0  0  0  0  0  0  0  0  0  0  0
  -14.3993   -6.6932    6.0003 O   0  0  0  0  0  0  0  0  0  0  0  0
  -15.2081   -7.9266    6.8354 P   0  0  0  0  0  0  0  0  0  0  0  0
  -15.5750   -9.1166    5.6756 O   0  0  0  0  0  0  0  0  0  0  0  0
  -16.5065   -7.3683    7.3610 O   0  0  0  0  0  0  0  0  0  0  0  0
  -13.4310   -6.8713    5.8959 H   0  0  0  0  0  0  0  0  0  0  0  0
  -15.5882  -10.0197    6.0793 H   0  0  0  0  0  0  0  0  0  0  0  0
 32 33  1  0  0  0
 33 34  1  0  0  0
 33 35  2  0  0  0
 33 29  1  0  0  0
 29 30  1  0  0  0
 29 31  1  0  0  0
 29 23  1  0  0  0
 23 24  2  0  0  0
 24 25  1  0  0  0
 25 26  2  0  0  0
 26 27  1  0  0  0
 27 28  2  0  0  0
 26  1  1  0  0  0
  1  2  2  0  0  0
  2  3  1  0  0  0
  3  4  2  0  0  0
  4  5  1  0  0  0
  5  6  2  0  0  0
  4  7  1  0  0  0
  7  8  2  0  0  0
  8 16  1  0  0  0
 16 17  1  0  0  0
 17 18  2  0  0  0
 18 19  1  0  0  0
 19 20  2  0  0  0
 20 21  1  0  0  0
 21 22  2  0  0  0
  8  9  1  0  0  0
  9 10  1  0  0  0
 10 11  2  0  0  0
 11 12  1  0  0  0
 12 13  2  0  0  0
 13 14  1  0  0  0
 14 15  2  0  0  0
 28 23  1  0  0  0
  6  1  1  0  0  0
 15  7  1  0  0  0
 22 17  1  0  0  0
 15 10  1  0  0  0
 32 36  1  0  0  0
 34 37  1  0  0  0
M  END
> <minimizedAffinity>
-0.51652

> <CNNscore>
0.4150890410

> <CNNaffinity>
6.2741289139

> <CNN_VS>
2.6043221951

> <CNNaffinity_variance>
1.8013439178

$$$$
[H]OP(=O)(O[H])C(F)(F)c1c([H])c([H])c(-c2c([H])c([H])c(-c3c(C([H])([H])c4c([H])c([H])c([H])c([H])c4[H])oc4c([H])c([H])c([H])c([H])c34)c([H])c2[H])c([H])c1[H]


 37 41  0  0  0  0  0  0  0  0999 V2000
  -12.1222   -8.7762    7.0765 C   0  0  0  0  0  0  0  0  0  0  0  0
  -12.6945   -9.2259    5.8800 C   0  0  0  0  0  0  0  0  0  0  0  0
  -14.0733   -9.2138    5.7358 C   0  0  0  0  0  0  0  0  0  0  0  0
  -14.9243   -8.7750    6.7239 C   0  0  0  0  0  0  0  0  0  0  0  0
  -14.3559   -8.3346    7.9003 C   0  0  0  0  0  0  0  0  0  0  0  0
  -12.9782   -8.3328    8.0790 C   0  0  0  0  0  0  0  0  0  0  0  0
  -16.3576   -8.7042    6.5249 C   0  0  0  0  0  0  0  0  0  0  0  0
  -17.3741   -8.6995    7.4415 C   0  0  0  0  0  0  0  0  0  0  0  0
  -18.5162   -8.6139    6.7655 O   0  0  0  0  0  0  0  0  0  0  0  0
  -18.2725   -8.5636    5.4653 C   0  0  0  0  0  0  0  0  0  0  0  0
  -19.0804   -8.4699    4.3445 C   0  0  0  0  0  0  0  0  0  0  0  0
  -18.5212   -8.4341    3.0836 C   0  0  0  0  0  0  0  0  0  0  0  0
  -17.1511   -8.4878    2.8677 C   0  0  0  0  0  0  0  0  0  0  0  0
  -16.3472   -8.5809    3.9725 C   0  0  0  0  0  0  0  0  0  0  0  0
  -16.9133   -8.6173    5.2341 C   0  0  0  0  0  0  0  0  0  0  0  0
  -17.2571   -8.7744    8.9180 C   0  0  0  0  0  0  0  0  0  0  0  0
  -18.1329   -9.8341    9.4945 C   0  0  0  0  0  0  0  0  0  0  0  0
  -19.4320  -10.0153    9.0642 C   0  0  0  0  0  0  0  0  0  0  0  0
  -20.2714  -10.9796    9.5675 C   0  0  0  0  0  0  0  0  0  0  0  0
  -19.8259  -11.8293   10.5556 C   0  0  0  0  0  0  0  0  0  0  0  0
  -18.5351  -11.6765   11.0085 C   0  0  0  0  0  0  0  0  0  0  0  0
  -17.7007  -10.7027   10.4946 C   0  0  0  0  0  0  0  0  0  0  0  0
   -7.9226   -8.6771    7.5474 C   0  0  0  0  0  0  0  0  0  0  0  0
   -8.5573   -9.8817    7.3453 C   0  0  0  0  0  0  0  0  0  0  0  0
   -9.9250   -9.9301    7.1941 C   0  0  0  0  0  0  0  0  0  0  0  0
  -10.6854   -8.7678    7.2428 C   0  0  0  0  0  0  0  0  0  0  0  0
  -10.0469   -7.5715    7.4433 C   0  0  0  0  0  0  0  0  0  0  0  0
   -8.6616   -7.4894    7.6004 C   0  0  0  0  0  0  0  0  0  0  0  0
   -6.4427   -8.6003    7.7127 C   0  0  0  0  0  0  0  0  0  0  0  0
   -5.9811   -9.7885    8.2359 F   0  0  0  0  0  0  0  0  0  0  0  0
   -6.1004   -7.5845    8.6077 F   0  0  0  0  0  0  0  0  0  0  0  0
   -6.0403   -9.3622    4.9328 O   0  0  0  0  0  0  0  0  0  0  0  0
   -5.5960   -8.2837    6.1625 P   0  0  0  0  0  0  0  0  0  0  0  0
   -5.9960   -6.7310    5.5925 O   0  0  0  0  0  0  0  0  0  0  0  0
   -4.0989   -8.3500    6.3307 O   0  0  0  0  0  0  0  0  0  0  0  0
   -6.9982   -9.6104    4.9676 H   0  0  0  0  0  0  0  0  0  0  0  0
   -6.2364   -6.1258    6.3374 H   0  0  0  0  0  0  0  0  0  0  0  0
 32 33  1  0  0  0
 33 34  1  0  0  0
 33 35  2  0  0  0
 33 29  1  0  0  0
 29 30  1  0  0  0
 29 31  1  0  0  0
 29 23  1  0  0  0
 23 24  2  0  0  0
 24 25  1  0  0  0
 25 26  2  0  0  0
 26 27  1  0  0  0
 27 28  2  0  0  0
 26  1  1  0  0  0
  1  2  2  0  0  0
  2  3  1  0  0  0
  3  4  2  0  0  0
  4  5  1  0  0  0
  5  6  2  0  0  0
  4  7  1  0  0  0
  7  8  2  0  0  0
  8 16  1  0  0  0
 16 17  1  0  0  0
 17 18  2  0  0  0
 18 19  1  0  0  0
 19 20  2  0  0  0
 20 21  1  0  0  0
 21 22  2  0  0  0
  8  9  1  0  0  0
  9 10  1  0  0  0
 10 11  2  0  0  0
 11 12  1  0  0  0
 12 13  2  0  0  0
 13 14  1  0  0  0
 14 15  2  0  0  0
 28 23  1  0  0  0
  6  1  1  0  0  0
 15  7  1  0  0  0
 22 17  1  0  0  0
 15 10  1  0  0  0
 32 36  1  0  0  0
 34 37  1  0  0  0
M  END
> <minimizedAffinity>
12.34430

> <CNNscore>
0.3108287156

> <CNNaffinity>
6.2194519043

> <CNN_VS>
1.9331842661

> <CNNaffinity_variance>
0.8209848404

$$$$
[H]OP(=O)(O[H])C(F)(F)c1c([H])c([H])c(-c2c([H])c([H])c(-c3c(C([H])([H])c4c([H])c([H])c([H])c([H])c4[H])oc4c([H])c([H])c([H])c([H])c34)c([H])c2[H])c([H])c1[H]


 37 41  0  0  0  0  0  0  0  0999 V2000
   -8.7667   -8.0346    7.2938 C   0  0  0  0  0  0  0  0  0  0  0  0
   -9.4766   -6.8569    7.5591 C   0  0  0  0  0  0  0  0  0  0  0  0
  -10.8574   -6.9032    7.6740 C   0  0  0  0  0  0  0  0  0  0  0  0
  -11.5800   -8.0663    7.5390 C   0  0  0  0  0  0  0  0  0  0  0  0
  -10.8764   -9.2227    7.2766 C   0  0  0  0  0  0  0  0  0  0  0  0
   -9.4925   -9.2129    7.1553 C   0  0  0  0  0  0  0  0  0  0  0  0
  -13.0152   -8.1038    7.7338 C   0  0  0  0  0  0  0  0  0  0  0  0
  -14.0290   -8.0764    6.8147 C   0  0  0  0  0  0  0  0  0  0  0  0
  -15.1747   -8.1396    7.4871 O   0  0  0  0  0  0  0  0  0  0  0  0
  -14.9358   -8.2062    8.7875 C   0  0  0  0  0  0  0  0  0  0  0  0
  -15.7488   -8.2892    9.9055 C   0  0  0  0  0  0  0  0  0  0  0  0
  -15.1939   -8.3488   11.1674 C   0  0  0  0  0  0  0  0  0  0  0  0
  -13.8235   -8.3301   11.3871 C   0  0  0  0  0  0  0  0  0  0  0  0
  -13.0146   -8.2479   10.2852 C   0  0  0  0  0  0  0  0  0  0  0  0
  -13.5762   -8.1875    9.0225 C   0  0  0  0  0  0  0  0  0  0  0  0
  -13.9062   -7.9925    5.3392 C   0  0  0  0  0  0  0  0  0  0  0  0
  -14.9293   -7.0860    4.7443 C   0  0  0  0  0  0  0  0  0  0  0  0
  -14.8586   -5.7154    4.8930 C   0  0  0  0  0  0  0  0  0  0  0  0
  -15.7790   -4.8452    4.3606 C   0  0  0  0  0  0  0  0  0  0  0  0
  -16.8425   -5.3316    3.6331 C   0  0  0  0  0  0  0  0  0  0  0  0
  -16.9440   -6.6939    3.4653 C   0  0  0  0  0  0  0  0  0  0  0  0
  -16.0122   -7.5589    4.0059 C   0  0  0  0  0  0  0  0  0  0  0  0
   -4.5507   -7.9048    7.0175 C   0  0  0  0  0  0  0  0  0  0  0  0
   -5.2733   -8.6099    6.0820 C   0  0  0  0  0  0  0  0  0  0  0  0
   -6.6469   -8.6644    6.1613 C   0  0  0  0  0  0  0  0  0  0  0  0
   -7.3247   -8.0108    7.1835 C   0  0  0  0  0  0  0  0  0  0  0  0
   -6.5989   -7.3095    8.1111 C   0  0  0  0  0  0  0  0  0  0  0  0
   -5.2053   -7.2355    8.0582 C   0  0  0  0  0  0  0  0  0  0  0  0
   -3.0628   -7.8308    6.9511 C   0  0  0  0  0  0  0  0  0  0  0  0
   -2.5814   -8.9400    6.2904 F   0  0  0  0  0  0  0  0  0  0  0  0
   -2.5131   -7.8334    8.2349 F   0  0  0  0  0  0  0  0  0  0  0  0
   -3.7359   -5.5030    5.3393 O   0  0  0  0  0  0  0  0  0  0  0  0
   -2.4874   -6.3578    6.1032 P   0  0  0  0  0  0  0  0  0  0  0  0
   -1.7968   -5.2790    7.2235 O   0  0  0  0  0  0  0  0  0  0  0  0
   -1.4423   -6.6921    5.0689 O   0  0  0  0  0  0  0  0  0  0  0  0
   -4.5815   -5.5168    5.8542 H   0  0  0  0  0  0  0  0  0  0  0  0
   -1.4358   -5.7596    8.0094 H   0  0  0  0  0  0  0  0  0  0  0  0
 32 33  1  0  0  0
 33 34  1  0  0  0
 33 35  2  0  0  0
 33 29  1  0  0  0
 29 30  1  0  0  0
 29 31  1  0  0  0
 29 23  1  0  0  0
 23 24  2  0  0  0
 24 25  1  0  0  0
 25 26  2  0  0  0
 26 27  1  0  0  0
 27 28  2  0  0  0
 26  1  1  0  0  0
  1  2  2  0  0  0
  2  3  1  0  0  0
  3  4  2  0  0  0
  4  5  1  0  0  0
  5  6  2  0  0  0
  4  7  1  0  0  0
  7  8  2  0  0  0
  8 16  1  0  0  0
 16 17  1  0  0  0
 17 18  2  0  0  0
 18 19  1  0  0  0
 19 20  2  0  0  0
 20 21  1  0  0  0
 21 22  2  0  0  0
  8  9  1  0  0  0
  9 10  1  0  0  0
 10 11  2  0  0  0
 11 12  1  0  0  0
 12 13  2  0  0  0
 13 14  1  0  0  0
 14 15  2  0  0  0
 28 23  1  0  0  0
  6  1  1  0  0  0
 15  7  1  0  0  0
 22 17  1  0  0  0
 15 10  1  0  0  0
 32 36  1  0  0  0
 34 37  1  0  0  0
M  END
> <minimizedAffinity>
-7.78809

> <CNNscore>
0.2318908721

> <CNNaffinity>
6.5611505508

> <CNN_VS>
1.5214709044

> <CNNaffinity_variance>
0.2272419035

$$$$
[H]OP(=O)(O[H])C(F)(F)c1c([H])c([H])c(-c2c([H])c([H])c(-c3c(C([H])([H])c4c([H])c([H])c([H])c([H])c4[H])oc4c([H])c([H])c([H])c([H])c34)c([H])c2[H])c([H])c1[H]


 37 41  0  0  0  0  0  0  0  0999 V2000
  -12.6482   -7.8495    7.1885 C   0  0  0  0  0  0  0  0  0  0  0  0
  -13.2341   -8.6263    6.1812 C   0  0  0  0  0  0  0  0  0  0  0  0
  -14.5644   -8.4226    5.8486 C   0  0  0  0  0  0  0  0  0  0  0  0
  -15.3535   -7.4802    6.4668 C   0  0  0  0  0  0  0  0  0  0  0  0
  -14.7723   -6.7190    7.4587 C   0  0  0  0  0  0  0  0  0  0  0  0
  -13.4419   -6.8962    7.8175 C   0  0  0  0  0  0  0  0  0  0  0  0
  -16.7207   -7.2355    6.0543 C   0  0  0  0  0  0  0  0  0  0  0  0
  -17.8892   -7.7808    6.5129 C   0  0  0  0  0  0  0  0  0  0  0  0
  -18.8819   -7.2289    5.8211 O   0  0  0  0  0  0  0  0  0  0  0  0
  -18.3989   -6.3600    4.9469 C   0  0  0  0  0  0  0  0  0  0  0  0
  -18.9807   -5.5286    4.0046 C   0  0  0  0  0  0  0  0  0  0  0  0
  -18.1960   -4.7098    3.2187 C   0  0  0  0  0  0  0  0  0  0  0  0
  -16.8124   -4.6704    3.3224 C   0  0  0  0  0  0  0  0  0  0  0  0
  -16.2314   -5.4908    4.2524 C   0  0  0  0  0  0  0  0  0  0  0  0
  -17.0229   -6.3102    5.0369 C   0  0  0  0  0  0  0  0  0  0  0  0
  -18.0518   -8.7981    7.5797 C   0  0  0  0  0  0  0  0  0  0  0  0
  -19.2696   -9.6330    7.3743 C   0  0  0  0  0  0  0  0  0  0  0  0
  -19.7089  -10.5238    8.3330 C   0  0  0  0  0  0  0  0  0  0  0  0
  -20.8257  -11.3102    8.1844 C   0  0  0  0  0  0  0  0  0  0  0  0
  -21.5715  -11.2316    7.0292 C   0  0  0  0  0  0  0  0  0  0  0  0
  -21.1618  -10.3534    6.0517 C   0  0  0  0  0  0  0  0  0  0  0  0
  -20.0368   -9.5680    6.2129 C   0  0  0  0  0  0  0  0  0  0  0  0
   -8.5927   -8.4703    8.2060 C   0  0  0  0  0  0  0  0  0  0  0  0
   -9.2288   -7.3197    8.6134 C   0  0  0  0  0  0  0  0  0  0  0  0
  -10.5484   -7.1019    8.2862 C   0  0  0  0  0  0  0  0  0  0  0  0
  -11.2581   -8.0366    7.5418 C   0  0  0  0  0  0  0  0  0  0  0  0
  -10.6188   -9.1807    7.1403 C   0  0  0  0  0  0  0  0  0  0  0  0
   -9.2815   -9.4307    7.4557 C   0  0  0  0  0  0  0  0  0  0  0  0
   -7.1647   -8.7282    8.5494 C   0  0  0  0  0  0  0  0  0  0  0  0
   -6.8981  -10.0725    8.4066 F   0  0  0  0  0  0  0  0  0  0  0  0
   -6.9100   -8.3870    9.8794 F   0  0  0  0  0  0  0  0  0  0  0  0
   -5.4494   -8.7006    6.1985 O   0  0  0  0  0  0  0  0  0  0  0  0
   -6.0323   -7.8008    7.5112 P   0  0  0  0  0  0  0  0  0  0  0  0
   -6.8323   -6.4567    6.8410 O   0  0  0  0  0  0  0  0  0  0  0  0
   -4.8504   -7.2972    8.3007 O   0  0  0  0  0  0  0  0  0  0  0  0
   -6.1302   -9.3113    5.8192 H   0  0  0  0  0  0  0  0  0  0  0  0
   -7.5779   -6.1577    7.4185 H   0  0  0  0  0  0  0  0  0  0  0  0
 32 33  1  0  0  0
 33 34  1  0  0  0
 33 35  2  0  0  0
 33 29  1  0  0  0
 29 30  1  0  0  0
 29 31  1  0  0  0
 29 23  1  0  0  0
 23 24  2  0  0  0
 24 25  1  0  0  0
 25 26  2  0  0  0
 26 27  1  0  0  0
 27 28  2  0  0  0
 26  1  1  0  0  0
  1  2  2  0  0  0
  2  3  1  0  0  0
  3  4  2  0  0  0
  4  5  1  0  0  0
  5  6  2  0  0  0
  4  7  1  0  0  0
  7  8  2  0  0  0
  8 16  1  0  0  0
 16 17  1  0  0  0
 17 18  2  0  0  0
 18 19  1  0  0  0
 19 20  2  0  0  0
 20 21  1  0  0  0
 21 22  2  0  0  0
  8  9  1  0  0  0
  9 10  1  0  0  0
 10 11  2  0  0  0
 11 12  1  0  0  0
 12 13  2  0  0  0
 13 14  1  0  0  0
 14 15  2  0  0  0
 28 23  1  0  0  0
  6  1  1  0  0  0
 15  7  1  0  0  0
 22 17  1  0  0  0
 15 10  1  0  0  0
 32 36  1  0  0  0
 34 37  1  0  0  0
M  END
> <minimizedAffinity>
-2.02641

> <CNNscore>
0.1969051361

> <CNNaffinity>
6.3811974525

> <CNN_VS>
1.2564905882

> <CNNaffinity_variance>
0.4345503449

$$$$
[H]OP(=O)(O[H])C(F)(F)c1c([H])c([H])c(-c2c([H])c([H])c(-c3c(C([H])([H])c4c([H])c([H])c([H])c([H])c4[H])oc4c([H])c([H])c([H])c([H])c34)c([H])c2[H])c([H])c1[H]


 37 41  0  0  0  0  0  0  0  0999 V2000
   -8.6277   -7.2409    7.4874 C   0  0  0  0  0  0  0  0  0  0  0  0
   -9.2188   -8.4700    7.1693 C   0  0  0  0  0  0  0  0  0  0  0  0
  -10.5854   -8.6337    7.3353 C   0  0  0  0  0  0  0  0  0  0  0  0
  -11.4064   -7.6340    7.8041 C   0  0  0  0  0  0  0  0  0  0  0  0
  -10.8192   -6.4264    8.1171 C   0  0  0  0  0  0  0  0  0  0  0  0
   -9.4530   -6.2275    7.9629 C   0  0  0  0  0  0  0  0  0  0  0  0
  -12.8418   -7.8040    7.9020 C   0  0  0  0  0  0  0  0  0  0  0  0
  -13.7976   -7.7973    6.9224 C   0  0  0  0  0  0  0  0  0  0  0  0
  -14.9714   -8.0020    7.5132 O   0  0  0  0  0  0  0  0  0  0  0  0
  -14.8054   -8.1386    8.8195 C   0  0  0  0  0  0  0  0  0  0  0  0
  -15.6732   -8.3662    9.8745 C   0  0  0  0  0  0  0  0  0  0  0  0
  -15.1914   -8.4669   11.1635 C   0  0  0  0  0  0  0  0  0  0  0  0
  -13.8433   -8.3497   11.4729 C   0  0  0  0  0  0  0  0  0  0  0  0
  -12.9805   -8.1242   10.4336 C   0  0  0  0  0  0  0  0  0  0  0  0
  -13.4691   -8.0233    9.1434 C   0  0  0  0  0  0  0  0  0  0  0  0
  -13.5950   -7.6014    5.4664 C   0  0  0  0  0  0  0  0  0  0  0  0
  -14.7014   -6.8155    4.8495 C   0  0  0  0  0  0  0  0  0  0  0  0
  -15.7418   -7.4287    4.1807 C   0  0  0  0  0  0  0  0  0  0  0  0
  -16.7805   -6.7425    3.5995 C   0  0  0  0  0  0  0  0  0  0  0  0
  -16.8184   -5.3675    3.6686 C   0  0  0  0  0  0  0  0  0  0  0  0
  -15.7965   -4.7232    4.3281 C   0  0  0  0  0  0  0  0  0  0  0  0
  -14.7571   -5.4244    4.9083 C   0  0  0  0  0  0  0  0  0  0  0  0
   -4.4805   -6.6805    6.8915 C   0  0  0  0  0  0  0  0  0  0  0  0
   -4.9598   -6.9257    8.1583 C   0  0  0  0  0  0  0  0  0  0  0  0
   -6.3085   -7.1065    8.3684 C   0  0  0  0  0  0  0  0  0  0  0  0
   -7.2057   -7.0447    7.3089 C   0  0  0  0  0  0  0  0  0  0  0  0
   -6.7216   -6.8012    6.0498 C   0  0  0  0  0  0  0  0  0  0  0  0
   -5.3597   -6.6134    5.8043 C   0  0  0  0  0  0  0  0  0  0  0  0
   -3.0241   -6.4827    6.6399 C   0  0  0  0  0  0  0  0  0  0  0  0
   -2.4825   -5.7381    7.6650 F   0  0  0  0  0  0  0  0  0  0  0  0
   -2.8223   -5.7754    5.4529 F   0  0  0  0  0  0  0  0  0  0  0  0
   -1.0788   -8.2965    7.8214 O   0  0  0  0  0  0  0  0  0  0  0  0
   -2.1327   -8.0355    6.5198 P   0  0  0  0  0  0  0  0  0  0  0  0
   -3.2313   -9.3350    6.5372 O   0  0  0  0  0  0  0  0  0  0  0  0
   -1.3345   -8.1134    5.2429 O   0  0  0  0  0  0  0  0  0  0  0  0
   -1.4400   -7.9627    8.6807 H   0  0  0  0  0  0  0  0  0  0  0  0
   -4.1145   -9.0634    6.1838 H   0  0  0  0  0  0  0  0  0  0  0  0
 32 33  1  0  0  0
 33 34  1  0  0  0
 33 35  2  0  0  0
 33 29  1  0  0  0
 29 30  1  0  0  0
 29 31  1  0  0  0
 29 23  1  0  0  0
 23 24  2  0  0  0
 24 25  1  0  0  0
 25 26  2  0  0  0
 26 27  1  0  0  0
 27 28  2  0  0  0
 26  1  1  0  0  0
  1  2  2  0  0  0
  2  3  1  0  0  0
  3  4  2  0  0  0
  4  5  1  0  0  0
  5  6  2  0  0  0
  4  7  1  0  0  0
  7  8  2  0  0  0
  8 16  1  0  0  0
 16 17  1  0  0  0
 17 18  2  0  0  0
 18 19  1  0  0  0
 19 20  2  0  0  0
 20 21  1  0  0  0
 21 22  2  0  0  0
  8  9  1  0  0  0
  9 10  1  0  0  0
 10 11  2  0  0  0
 11 12  1  0  0  0
 12 13  2  0  0  0
 13 14  1  0  0  0
 14 15  2  0  0  0
 28 23  1  0  0  0
  6  1  1  0  0  0
 15  7  1  0  0  0
 22 17  1  0  0  0
 15 10  1  0  0  0
 32 36  1  0  0  0
 34 37  1  0  0  0
M  END
> <minimizedAffinity>
-6.17697

> <CNNscore>
0.1921053231

> <CNNaffinity>
6.4050354958

> <CNN_VS>
1.2304414511

> <CNNaffinity_variance>
0.2718448639

$$$$
[H]c1c([H])c(C([H])([H])N([H])C(=O)c2nc(-c3c([H])c([H])c(OC([H])([H])[H])c4nc(C(F)(F)F)c([H])c([H])c34)oc2C([H])([H])N([H])[H])c([H])c(F)c1F


 38 41  0  0  0  0  0  0  0  0999 V2000
  -13.7181   -8.9866    9.0673 C   0  0  0  0  0  0  0  0  0  0  0  0
  -14.8848   -8.8244    8.4233 N   0  0  0  0  0  0  0  0  0  0  0  0
  -14.7529   -8.8154    7.0859 C   0  0  0  0  0  0  0  0  0  0  0  0
  -13.3771   -9.0026    6.9200 C   0  0  0  0  0  0  0  0  0  0  0  0
  -12.8279   -9.0934    8.0890 O   0  0  0  0  0  0  0  0  0  0  0  0
  -12.6076   -9.4239   13.1471 C   0  0  0  0  0  0  0  0  0  0  0  0
  -13.1510  -10.4534   12.4419 C   0  0  0  0  0  0  0  0  0  0  0  0
  -13.5201  -10.2474   11.1292 C   0  0  0  0  0  0  0  0  0  0  0  0
  -13.3626   -9.0266   10.4682 C   0  0  0  0  0  0  0  0  0  0  0  0
  -12.8278   -8.0230   11.1934 C   0  0  0  0  0  0  0  0  0  0  0  0
  -12.6828   -6.7852   10.6187 C   0  0  0  0  0  0  0  0  0  0  0  0
  -12.1538   -5.7509   11.3946 C   0  0  0  0  0  0  0  0  0  0  0  0
  -11.7917   -5.9814   12.6999 C   0  0  0  0  0  0  0  0  0  0  0  0
  -11.9333   -7.1960   13.2690 N   0  0  0  0  0  0  0  0  0  0  0  0
  -12.4404   -8.1883   12.5290 C   0  0  0  0  0  0  0  0  0  0  0  0
  -11.2187   -4.8525   13.5031 C   0  0  0  0  0  0  0  0  0  0  0  0
  -11.8473   -4.7195   14.7173 F   0  0  0  0  0  0  0  0  0  0  0  0
  -11.3299   -3.6806   12.7769 F   0  0  0  0  0  0  0  0  0  0  0  0
   -9.8738   -5.1511   13.7339 F   0  0  0  0  0  0  0  0  0  0  0  0
  -11.8404  -10.8096   14.9803 C   0  0  0  0  0  0  0  0  0  0  0  0
  -12.2101   -9.5772   14.4554 O   0  0  0  0  0  0  0  0  0  0  0  0
  -15.7259   -8.6077    6.0380 C   0  0  0  0  0  0  0  0  0  0  0  0
  -15.1590   -8.2495    4.9095 O   0  0  0  0  0  0  0  0  0  0  0  0
  -17.1008   -8.7249    6.0421 N   0  0  0  0  0  0  0  0  0  0  0  0
  -17.6553   -9.0290    6.8558 H   0  0  0  0  0  0  0  0  0  0  0  0
  -17.8219   -8.3881    4.8143 C   0  0  0  0  0  0  0  0  0  0  0  0
  -17.5198   -7.0236    4.3170 C   0  0  0  0  0  0  0  0  0  0  0  0
  -16.8158   -6.8662    3.1564 C   0  0  0  0  0  0  0  0  0  0  0  0
  -16.5208   -5.5734    2.7317 C   0  0  0  0  0  0  0  0  0  0  0  0
  -16.9237   -4.4623    3.4520 C   0  0  0  0  0  0  0  0  0  0  0  0
  -16.6009   -3.2402    2.9844 F   0  0  0  0  0  0  0  0  0  0  0  0
  -17.6308   -4.6569    4.6166 C   0  0  0  0  0  0  0  0  0  0  0  0
  -18.0131   -3.5397    5.3255 F   0  0  0  0  0  0  0  0  0  0  0  0
  -17.9386   -5.9082    5.0665 C   0  0  0  0  0  0  0  0  0  0  0  0
  -12.6833   -9.0863    5.6240 C   0  0  0  0  0  0  0  0  0  0  0  0
  -11.4879   -9.9030    5.6953 N   0  0  0  0  0  0  0  0  0  0  0  0
  -10.8808   -9.7497    4.8711 H   0  0  0  0  0  0  0  0  0  0  0  0
  -10.9571   -9.6240    6.5226 H   0  0  0  0  0  0  0  0  0  0  0  0
 20 21  1  0  0  0
 21  6  1  0  0  0
  6  7  2  0  0  0
  7  8  1  0  0  0
  8  9  2  0  0  0
  9  1  1  0  0  0
  1  2  2  0  0  0
  2  3  1  0  0  0
  3 22  1  0  0  0
 22 23  2  0  0  0
 22 24  1  0  0  0
 24 26  1  0  0  0
 26 27  1  0  0  0
 27 28  2  0  0  0
 28 29  1  0  0  0
 29 30  2  0  0  0
 30 31  1  0  0  0
 30 32  1  0  0  0
 32 33  1  0  0  0
 32 34  2  0  0  0
  3  4  2  0  0  0
  4 35  1  0  0  0
 35 36  1  0  0  0
  4  5  1  0  0  0
  9 10  1  0  0  0
 10 11  2  0  0  0
 11 12  1  0  0  0
 12 13  2  0  0  0
 13 14  1  0  0  0
 14 15  2  0  0  0
 13 16  1  0  0  0
 16 17  1  0  0  0
 16 18  1  0  0  0
 16 19  1  0  0  0
 15  6  1  0  0  0
  5  1  1  0  0  0
 15 10  1  0  0  0
 34 27  1  0  0  0
 24 25  1  0  0  0
 36 37  1  0  0  0
 36 38  1  0  0  0
M  END
> <minimizedAffinity>
20.33635

> <CNNscore>
0.5166342854

> <CNNaffinity>
7.0544600487

> <CNN_VS>
3.6445758343

> <CNNaffinity_variance>
0.9885614514

$$$$
[H]c1c([H])c(C([H])([H])N([H])C(=O)c2nc(-c3c([H])c([H])c(OC([H])([H])[H])c4nc(C(F)(F)F)c([H])c([H])c34)oc2C([H])([H])N([H])[H])c([H])c(F)c1F


 38 41  0  0  0  0  0  0  0  0999 V2000
  -13.8783   -6.6506    7.0532 C   0  0  0  0  0  0  0  0  0  0  0  0
  -13.9197   -6.4575    8.3810 N   0  0  0  0  0  0  0  0  0  0  0  0
  -13.4971   -7.5227    9.0829 C   0  0  0  0  0  0  0  0  0  0  0  0
  -13.1610   -8.4310    8.0743 C   0  0  0  0  0  0  0  0  0  0  0  0
  -13.4003   -7.8820    6.9264 O   0  0  0  0  0  0  0  0  0  0  0  0
  -14.6954   -4.3126    3.5983 C   0  0  0  0  0  0  0  0  0  0  0  0
  -13.4230   -4.5178    4.0357 C   0  0  0  0  0  0  0  0  0  0  0  0
  -13.2174   -5.2605    5.1794 C   0  0  0  0  0  0  0  0  0  0  0  0
  -14.2538   -5.8277    5.9251 C   0  0  0  0  0  0  0  0  0  0  0  0
  -15.5040   -5.6026    5.4719 C   0  0  0  0  0  0  0  0  0  0  0  0
  -16.5716   -6.0961    6.1792 C   0  0  0  0  0  0  0  0  0  0  0  0
  -17.8598   -5.8280    5.7098 C   0  0  0  0  0  0  0  0  0  0  0  0
  -18.0389   -5.0870    4.5666 C   0  0  0  0  0  0  0  0  0  0  0  0
  -16.9927   -4.5994    3.8689 N   0  0  0  0  0  0  0  0  0  0  0  0
  -15.7579   -4.8536    4.3162 C   0  0  0  0  0  0  0  0  0  0  0  0
  -19.4341   -4.8245    4.0845 C   0  0  0  0  0  0  0  0  0  0  0  0
  -20.0553   -3.8492    4.8261 F   0  0  0  0  0  0  0  0  0  0  0  0
  -20.1591   -6.0010    4.1398 F   0  0  0  0  0  0  0  0  0  0  0  0
  -19.3376   -4.3791    2.7640 F   0  0  0  0  0  0  0  0  0  0  0  0
  -15.4732   -2.3008    2.4954 C   0  0  0  0  0  0  0  0  0  0  0  0
  -14.9574   -3.5905    2.4569 O   0  0  0  0  0  0  0  0  0  0  0  0
  -13.4394   -7.7581   10.5075 C   0  0  0  0  0  0  0  0  0  0  0  0
  -12.2668   -7.4437   11.0070 O   0  0  0  0  0  0  0  0  0  0  0  0
  -14.3886   -8.2405   11.3852 N   0  0  0  0  0  0  0  0  0  0  0  0
  -15.3523   -8.4901   11.1189 H   0  0  0  0  0  0  0  0  0  0  0  0
  -14.0014   -8.4182   12.7850 C   0  0  0  0  0  0  0  0  0  0  0  0
  -13.5195   -9.7884   13.0867 C   0  0  0  0  0  0  0  0  0  0  0  0
  -14.1950  -10.8682   12.5919 C   0  0  0  0  0  0  0  0  0  0  0  0
  -13.7366  -12.1418   12.9182 C   0  0  0  0  0  0  0  0  0  0  0  0
  -12.6247  -12.3303   13.7206 C   0  0  0  0  0  0  0  0  0  0  0  0
  -12.2380  -13.5909   13.9992 F   0  0  0  0  0  0  0  0  0  0  0  0
  -11.9681  -11.2208   14.2024 C   0  0  0  0  0  0  0  0  0  0  0  0
  -10.8709  -11.4284   15.0085 F   0  0  0  0  0  0  0  0  0  0  0  0
  -12.3871   -9.9561   13.9059 C   0  0  0  0  0  0  0  0  0  0  0  0
  -12.6201   -9.7824    8.2965 C   0  0  0  0  0  0  0  0  0  0  0  0
  -13.5178  -10.8160    7.8202 N   0  0  0  0  0  0  0  0  0  0  0  0
  -13.2586  -11.7418    8.2034 H   0  0  0  0  0  0  0  0  0  0  0  0
  -14.4602  -10.6005    8.1513 H   0  0  0  0  0  0  0  0  0  0  0  0
 20 21  1  0  0  0
 21  6  1  0  0  0
  6  7  2  0  0  0
  7  8  1  0  0  0
  8  9  2  0  0  0
  9  1  1  0  0  0
  1  2  2  0  0  0
  2  3  1  0  0  0
  3 22  1  0  0  0
 22 23  2  0  0  0
 22 24  1  0  0  0
 24 26  1  0  0  0
 26 27  1  0  0  0
 27 28  2  0  0  0
 28 29  1  0  0  0
 29 30  2  0  0  0
 30 31  1  0  0  0
 30 32  1  0  0  0
 32 33  1  0  0  0
 32 34  2  0  0  0
  3  4  2  0  0  0
  4 35  1  0  0  0
 35 36  1  0  0  0
  4  5  1  0  0  0
  9 10  1  0  0  0
 10 11  2  0  0  0
 11 12  1  0  0  0
 12 13  2  0  0  0
 13 14  1  0  0  0
 14 15  2  0  0  0
 13 16  1  0  0  0
 16 17  1  0  0  0
 16 18  1  0  0  0
 16 19  1  0  0  0
 15  6  1  0  0  0
  5  1  1  0  0  0
 15 10  1  0  0  0
 34 27  1  0  0  0
 24 25  1  0  0  0
 36 37  1  0  0  0
 36 38  1  0  0  0
M  END
> <minimizedAffinity>
27.36237

> <CNNscore>
0.4765563309

> <CNNaffinity>
6.7291307449

> <CNN_VS>
3.2068097591

> <CNNaffinity_variance>
1.1119499207

$$$$
[H]c1c([H])c(C([H])([H])N([H])C(=O)c2nc(-c3c([H])c([H])c(OC([H])([H])[H])c4nc(C(F)(F)F)c([H])c([H])c34)oc2C([H])([H])N([H])[H])c([H])c(F)c1F


 38 41  0  0  0  0  0  0  0  0999 V2000
  -14.1983   -6.6627    7.9861 C   0  0  0  0  0  0  0  0  0  0  0  0
  -13.7200   -7.2353    9.1021 N   0  0  0  0  0  0  0  0  0  0  0  0
  -13.1323   -6.3593    9.9348 C   0  0  0  0  0  0  0  0  0  0  0  0
  -13.2875   -5.1485    9.2529 C   0  0  0  0  0  0  0  0  0  0  0  0
  -13.9047   -5.3776    8.1380 O   0  0  0  0  0  0  0  0  0  0  0  0
  -15.8557   -8.2929    4.4272 C   0  0  0  0  0  0  0  0  0  0  0  0
  -14.6125   -7.7393    4.4462 C   0  0  0  0  0  0  0  0  0  0  0  0
  -14.1358   -7.1987    5.6219 C   0  0  0  0  0  0  0  0  0  0  0  0
  -14.8630   -7.1893    6.8149 C   0  0  0  0  0  0  0  0  0  0  0  0
  -16.0937   -7.7387    6.7649 C   0  0  0  0  0  0  0  0  0  0  0  0
  -16.8787   -7.7264    7.8905 C   0  0  0  0  0  0  0  0  0  0  0  0
  -18.1614   -8.2741    7.8112 C   0  0  0  0  0  0  0  0  0  0  0  0
  -18.6132   -8.8087    6.6287 C   0  0  0  0  0  0  0  0  0  0  0  0
  -17.8455   -8.8220    5.5199 N   0  0  0  0  0  0  0  0  0  0  0  0
  -16.6171   -8.2975    5.5922 C   0  0  0  0  0  0  0  0  0  0  0  0
  -19.9915   -9.3967    6.5792 C   0  0  0  0  0  0  0  0  0  0  0  0
  -20.0765  -10.5599    7.3050 F   0  0  0  0  0  0  0  0  0  0  0  0
  -20.3346   -9.6308    5.2600 F   0  0  0  0  0  0  0  0  0  0  0  0
  -20.8603   -8.4603    7.1446 F   0  0  0  0  0  0  0  0  0  0  0  0
  -15.9515  -10.0912    2.8067 C   0  0  0  0  0  0  0  0  0  0  0  0
  -16.3757   -8.8576    3.2854 O   0  0  0  0  0  0  0  0  0  0  0  0
  -12.4447   -6.5584   11.1901 C   0  0  0  0  0  0  0  0  0  0  0  0
  -12.6226   -7.7723   11.6569 O   0  0  0  0  0  0  0  0  0  0  0  0
  -11.6620   -5.7042   11.9397 N   0  0  0  0  0  0  0  0  0  0  0  0
  -11.4242   -4.7406   11.6625 H   0  0  0  0  0  0  0  0  0  0  0  0
  -11.1410   -6.1936   13.2164 C   0  0  0  0  0  0  0  0  0  0  0  0
   -9.9539   -5.4396   13.6886 C   0  0  0  0  0  0  0  0  0  0  0  0
  -10.1227   -4.2585   14.3547 C   0  0  0  0  0  0  0  0  0  0  0  0
   -8.9887   -3.5583   14.7578 C   0  0  0  0  0  0  0  0  0  0  0  0
   -7.7134   -4.0315   14.5017 C   0  0  0  0  0  0  0  0  0  0  0  0
   -6.6601   -3.3008   14.9176 F   0  0  0  0  0  0  0  0  0  0  0  0
   -7.5796   -5.2243   13.8284 C   0  0  0  0  0  0  0  0  0  0  0  0
   -6.3029   -5.6731   13.5726 F   0  0  0  0  0  0  0  0  0  0  0  0
   -8.6666   -5.9393   13.4159 C   0  0  0  0  0  0  0  0  0  0  0  0
  -12.8255   -3.8372    9.7380 C   0  0  0  0  0  0  0  0  0  0  0  0
  -13.3428   -3.5285   11.0563 N   0  0  0  0  0  0  0  0  0  0  0  0
  -13.2304   -2.5234   11.2760 H   0  0  0  0  0  0  0  0  0  0  0  0
  -14.3438   -3.7336   11.0648 H   0  0  0  0  0  0  0  0  0  0  0  0
 20 21  1  0  0  0
 21  6  1  0  0  0
  6  7  2  0  0  0
  7  8  1  0  0  0
  8  9  2  0  0  0
  9  1  1  0  0  0
  1  2  2  0  0  0
  2  3  1  0  0  0
  3 22  1  0  0  0
 22 23  2  0  0  0
 22 24  1  0  0  0
 24 26  1  0  0  0
 26 27  1  0  0  0
 27 28  2  0  0  0
 28 29  1  0  0  0
 29 30  2  0  0  0
 30 31  1  0  0  0
 30 32  1  0  0  0
 32 33  1  0  0  0
 32 34  2  0  0  0
  3  4  2  0  0  0
  4 35  1  0  0  0
 35 36  1  0  0  0
  4  5  1  0  0  0
  9 10  1  0  0  0
 10 11  2  0  0  0
 11 12  1  0  0  0
 12 13  2  0  0  0
 13 14  1  0  0  0
 14 15  2  0  0  0
 13 16  1  0  0  0
 16 17  1  0  0  0
 16 18  1  0  0  0
 16 19  1  0  0  0
 15  6  1  0  0  0
  5  1  1  0  0  0
 15 10  1  0  0  0
 34 27  1  0  0  0
 24 25  1  0  0  0
 36 37  1  0  0  0
 36 38  1  0  0  0
M  END
> <minimizedAffinity>
11.86543

> <CNNscore>
0.4401009381

> <CNNaffinity>
6.7888627052

> <CNN_VS>
2.9877848625

> <CNNaffinity_variance>
1.2074561119

$$$$
[H]c1c([H])c(C([H])([H])N([H])C(=O)c2nc(-c3c([H])c([H])c(OC([H])([H])[H])c4nc(C(F)(F)F)c([H])c([H])c34)oc2C([H])([H])N([H])[H])c([H])c(F)c1F


 38 41  0  0  0  0  0  0  0  0999 V2000
   -7.2552   -7.8208    6.9648 C   0  0  0  0  0  0  0  0  0  0  0  0
   -6.7796   -6.6925    6.4143 N   0  0  0  0  0  0  0  0  0  0  0  0
   -5.4420   -6.5893    6.4938 C   0  0  0  0  0  0  0  0  0  0  0  0
   -5.0887   -7.7762    7.1432 C   0  0  0  0  0  0  0  0  0  0  0  0
   -6.1671   -8.4477    7.3936 O   0  0  0  0  0  0  0  0  0  0  0  0
  -11.0547   -9.6572    7.4754 C   0  0  0  0  0  0  0  0  0  0  0  0
  -10.0643  -10.2555    6.7589 C   0  0  0  0  0  0  0  0  0  0  0  0
   -8.8606   -9.6013    6.6005 C   0  0  0  0  0  0  0  0  0  0  0  0
   -8.5916   -8.3428    7.1444 C   0  0  0  0  0  0  0  0  0  0  0  0
   -9.5932   -7.7713    7.8438 C   0  0  0  0  0  0  0  0  0  0  0  0
   -9.4113   -6.5173    8.3710 C   0  0  0  0  0  0  0  0  0  0  0  0
  -10.4704   -5.9300    9.0674 C   0  0  0  0  0  0  0  0  0  0  0  0
  -11.6596   -6.6027    9.2134 C   0  0  0  0  0  0  0  0  0  0  0  0
  -11.8430   -7.8348    8.6963 N   0  0  0  0  0  0  0  0  0  0  0  0
  -10.8312   -8.3996    8.0281 C   0  0  0  0  0  0  0  0  0  0  0  0
  -12.7736   -5.9482    9.9740 C   0  0  0  0  0  0  0  0  0  0  0  0
  -13.0562   -6.6161   11.1407 F   0  0  0  0  0  0  0  0  0  0  0  0
  -13.8978   -5.8946    9.1701 F   0  0  0  0  0  0  0  0  0  0  0  0
  -12.3498   -4.6570   10.2974 F   0  0  0  0  0  0  0  0  0  0  0  0
  -13.3802   -9.9945    6.8860 C   0  0  0  0  0  0  0  0  0  0  0  0
  -12.2703  -10.2698    7.6755 O   0  0  0  0  0  0  0  0  0  0  0  0
   -4.5467   -5.5286    6.0917 C   0  0  0  0  0  0  0  0  0  0  0  0
   -3.4167   -5.5647    6.7586 O   0  0  0  0  0  0  0  0  0  0  0  0
   -4.6918   -4.5278    5.1529 N   0  0  0  0  0  0  0  0  0  0  0  0
   -5.5173   -4.4157    4.5462 H   0  0  0  0  0  0  0  0  0  0  0  0
   -3.6074   -3.5555    5.0132 C   0  0  0  0  0  0  0  0  0  0  0  0
   -2.9126   -3.6417    3.7053 C   0  0  0  0  0  0  0  0  0  0  0  0
   -2.9126   -2.5634    2.8660 C   0  0  0  0  0  0  0  0  0  0  0  0
   -2.2789   -2.6852    1.6323 C   0  0  0  0  0  0  0  0  0  0  0  0
   -1.6566   -3.8603    1.2480 C   0  0  0  0  0  0  0  0  0  0  0  0
   -1.0651   -3.9097    0.0381 F   0  0  0  0  0  0  0  0  0  0  0  0
   -1.6756   -4.9270    2.1175 C   0  0  0  0  0  0  0  0  0  0  0  0
   -1.0612   -6.0913    1.7128 F   0  0  0  0  0  0  0  0  0  0  0  0
   -2.2873   -4.8472    3.3350 C   0  0  0  0  0  0  0  0  0  0  0  0
   -3.7133   -8.1837    7.4752 C   0  0  0  0  0  0  0  0  0  0  0  0
   -2.9788   -8.6312    6.3085 N   0  0  0  0  0  0  0  0  0  0  0  0
   -2.1239   -9.1474    6.5803 H   0  0  0  0  0  0  0  0  0  0  0  0
   -3.5720   -9.2765    5.7834 H   0  0  0  0  0  0  0  0  0  0  0  0
 20 21  1  0  0  0
 21  6  1  0  0  0
  6  7  2  0  0  0
  7  8  1  0  0  0
  8  9  2  0  0  0
  9  1  1  0  0  0
  1  2  2  0  0  0
  2  3  1  0  0  0
  3 22  1  0  0  0
 22 23  2  0  0  0
 22 24  1  0  0  0
 24 26  1  0  0  0
 26 27  1  0  0  0
 27 28  2  0  0  0
 28 29  1  0  0  0
 29 30  2  0  0  0
 30 31  1  0  0  0
 30 32  1  0  0  0
 32 33  1  0  0  0
 32 34  2  0  0  0
  3  4  2  0  0  0
  4 35  1  0  0  0
 35 36  1  0  0  0
  4  5  1  0  0  0
  9 10  1  0  0  0
 10 11  2  0  0  0
 11 12  1  0  0  0
 12 13  2  0  0  0
 13 14  1  0  0  0
 14 15  2  0  0  0
 13 16  1  0  0  0
 16 17  1  0  0  0
 16 18  1  0  0  0
 16 19  1  0  0  0
 15  6  1  0  0  0
  5  1  1  0  0  0
 15 10  1  0  0  0
 34 27  1  0  0  0
 24 25  1  0  0  0
 36 37  1  0  0  0
 36 38  1  0  0  0
M  END
> <minimizedAffinity>
-8.28811

> <CNNscore>
0.2950215042

> <CNNaffinity>
6.4906730652

> <CNN_VS>
1.9148881435

> <CNNaffinity_variance>
0.0212722998

$$$$
[H]c1c([H])c(C([H])([H])N([H])C(=O)c2nc(-c3c([H])c([H])c(OC([H])([H])[H])c4nc(C(F)(F)F)c([H])c([H])c34)oc2C([H])([H])N([H])[H])c([H])c(F)c1F


 38 41  0  0  0  0  0  0  0  0999 V2000
  -10.6048   -8.9627    7.2699 C   0  0  0  0  0  0  0  0  0  0  0  0
   -9.4573   -8.3010    7.0515 N   0  0  0  0  0  0  0  0  0  0  0  0
   -8.4263   -9.1131    6.7624 C   0  0  0  0  0  0  0  0  0  0  0  0
   -9.0220  -10.3776    6.8010 C   0  0  0  0  0  0  0  0  0  0  0  0
  -10.2741  -10.2364    7.0986 O   0  0  0  0  0  0  0  0  0  0  0  0
  -14.6213   -8.0059    8.2809 C   0  0  0  0  0  0  0  0  0  0  0  0
  -14.3269   -8.9601    7.3561 C   0  0  0  0  0  0  0  0  0  0  0  0
  -13.0067   -9.2095    7.0452 C   0  0  0  0  0  0  0  0  0  0  0  0
  -11.9362   -8.5333    7.6357 C   0  0  0  0  0  0  0  0  0  0  0  0
  -12.2579   -7.5889    8.5433 C   0  0  0  0  0  0  0  0  0  0  0  0
  -11.2570   -6.8575    9.1321 C   0  0  0  0  0  0  0  0  0  0  0  0
  -11.6117   -5.8641   10.0481 C   0  0  0  0  0  0  0  0  0  0  0  0
  -12.9342   -5.6356   10.3429 C   0  0  0  0  0  0  0  0  0  0  0  0
  -13.9210   -6.3514    9.7660 N   0  0  0  0  0  0  0  0  0  0  0  0
  -13.5848   -7.3028    8.8877 C   0  0  0  0  0  0  0  0  0  0  0  0
  -13.2810   -4.5682   11.3370 C   0  0  0  0  0  0  0  0  0  0  0  0
  -14.5313   -4.7574   11.8736 F   0  0  0  0  0  0  0  0  0  0  0  0
  -13.2092   -3.3341   10.7168 F   0  0  0  0  0  0  0  0  0  0  0  0
  -12.3427   -4.6446   12.3690 F   0  0  0  0  0  0  0  0  0  0  0  0
  -16.9660   -7.7580    7.7241 C   0  0  0  0  0  0  0  0  0  0  0  0
  -15.9199   -7.7250    8.6382 O   0  0  0  0  0  0  0  0  0  0  0  0
   -7.0299   -8.8262    6.5262 C   0  0  0  0  0  0  0  0  0  0  0  0
   -6.7227   -8.9118    5.2528 O   0  0  0  0  0  0  0  0  0  0  0  0
   -6.0144   -8.4888    7.3974 N   0  0  0  0  0  0  0  0  0  0  0  0
   -6.1386   -8.3599    8.4122 H   0  0  0  0  0  0  0  0  0  0  0  0
   -4.6701   -8.3099    6.8480 C   0  0  0  0  0  0  0  0  0  0  0  0
   -3.8732   -7.2934    7.5775 C   0  0  0  0  0  0  0  0  0  0  0  0
   -2.5094   -7.3141    7.4939 C   0  0  0  0  0  0  0  0  0  0  0  0
   -1.7878   -6.3664    8.2149 C   0  0  0  0  0  0  0  0  0  0  0  0
   -2.4179   -5.4172    9.0008 C   0  0  0  0  0  0  0  0  0  0  0  0
   -1.6575   -4.5317    9.6746 F   0  0  0  0  0  0  0  0  0  0  0  0
   -3.7927   -5.4249    9.0627 C   0  0  0  0  0  0  0  0  0  0  0  0
   -4.4012   -4.4801    9.8590 F   0  0  0  0  0  0  0  0  0  0  0  0
   -4.5352   -6.3381    8.3716 C   0  0  0  0  0  0  0  0  0  0  0  0
   -8.3283  -11.6497    6.5386 C   0  0  0  0  0  0  0  0  0  0  0  0
   -9.2542  -12.7494    6.3534 N   0  0  0  0  0  0  0  0  0  0  0  0
   -8.7705  -13.6616    6.4267 H   0  0  0  0  0  0  0  0  0  0  0  0
   -9.9512  -12.7117    7.0996 H   0  0  0  0  0  0  0  0  0  0  0  0
 20 21  1  0  0  0
 21  6  1  0  0  0
  6  7  2  0  0  0
  7  8  1  0  0  0
  8  9  2  0  0  0
  9  1  1  0  0  0
  1  2  2  0  0  0
  2  3  1  0  0  0
  3 22  1  0  0  0
 22 23  2  0  0  0
 22 24  1  0  0  0
 24 26  1  0  0  0
 26 27  1  0  0  0
 27 28  2  0  0  0
 28 29  1  0  0  0
 29 30  2  0  0  0
 30 31  1  0  0  0
 30 32  1  0  0  0
 32 33  1  0  0  0
 32 34  2  0  0  0
  3  4  2  0  0  0
  4 35  1  0  0  0
 35 36  1  0  0  0
  4  5  1  0  0  0
  9 10  1  0  0  0
 10 11  2  0  0  0
 11 12  1  0  0  0
 12 13  2  0  0  0
 13 14  1  0  0  0
 14 15  2  0  0  0
 13 16  1  0  0  0
 16 17  1  0  0  0
 16 18  1  0  0  0
 16 19  1  0  0  0
 15  6  1  0  0  0
  5  1  1  0  0  0
 15 10  1  0  0  0
 34 27  1  0  0  0
 24 25  1  0  0  0
 36 37  1  0  0  0
 36 38  1  0  0  0
M  END
> <minimizedAffinity>
-0.95486

> <CNNscore>
0.2792671621

> <CNNaffinity>
6.6691236496

> <CNN_VS>
1.8624672890

> <CNNaffinity_variance>
0.3436217606

$$$$
[H]c1c([H])c(C([H])([H])N([H])C(=O)c2nc(-c3c([H])c([H])c(OC([H])([H])[H])c4nc(C(F)(F)F)c([H])c([H])c34)oc2C([H])([H])N([H])[H])c([H])c(F)c1F


 38 41  0  0  0  0  0  0  0  0999 V2000
  -13.7790   -6.6284    7.7313 C   0  0  0  0  0  0  0  0  0  0  0  0
  -13.9604   -6.2065    8.9927 N   0  0  0  0  0  0  0  0  0  0  0  0
  -12.8257   -6.1907    9.7126 C   0  0  0  0  0  0  0  0  0  0  0  0
  -11.8775   -6.6343    8.7856 C   0  0  0  0  0  0  0  0  0  0  0  0
  -12.4767   -6.8740    7.6631 O   0  0  0  0  0  0  0  0  0  0  0  0
  -16.1733   -7.2677    4.2775 C   0  0  0  0  0  0  0  0  0  0  0  0
  -14.9717   -6.6328    4.2044 C   0  0  0  0  0  0  0  0  0  0  0  0
  -14.2496   -6.4261    5.3611 C   0  0  0  0  0  0  0  0  0  0  0  0
  -14.6831   -6.8404    6.6230 C   0  0  0  0  0  0  0  0  0  0  0  0
  -15.8799   -7.4609    6.6660 C   0  0  0  0  0  0  0  0  0  0  0  0
  -16.3852   -7.8576    7.8787 C   0  0  0  0  0  0  0  0  0  0  0  0
  -17.6393   -8.4726    7.9061 C   0  0  0  0  0  0  0  0  0  0  0  0
  -18.3387   -8.6691    6.7399 C   0  0  0  0  0  0  0  0  0  0  0  0
  -17.8463   -8.2800    5.5460 N   0  0  0  0  0  0  0  0  0  0  0  0
  -16.6462   -7.6900    5.5164 C   0  0  0  0  0  0  0  0  0  0  0  0
  -19.6780   -9.3401    6.8025 C   0  0  0  0  0  0  0  0  0  0  0  0
  -20.7062   -8.4429    6.6443 F   0  0  0  0  0  0  0  0  0  0  0  0
  -19.7980   -9.9950    8.0148 F   0  0  0  0  0  0  0  0  0  0  0  0
  -19.7293  -10.2583    5.7511 F   0  0  0  0  0  0  0  0  0  0  0  0
  -17.9358   -6.6502    2.7344 C   0  0  0  0  0  0  0  0  0  0  0  0
  -16.9291   -7.5113    3.1540 O   0  0  0  0  0  0  0  0  0  0  0  0
  -12.5878   -5.8714   11.1017 C   0  0  0  0  0  0  0  0  0  0  0  0
  -13.5926   -5.2124   11.6300 O   0  0  0  0  0  0  0  0  0  0  0  0
  -11.5124   -6.1434   11.9224 N   0  0  0  0  0  0  0  0  0  0  0  0
  -10.6815   -6.6797   11.6325 H   0  0  0  0  0  0  0  0  0  0  0  0
  -11.5479   -5.6309   13.2925 C   0  0  0  0  0  0  0  0  0  0  0  0
  -10.2488   -5.0707   13.7387 C   0  0  0  0  0  0  0  0  0  0  0  0
  -10.2200   -3.8856   14.4185 C   0  0  0  0  0  0  0  0  0  0  0  0
   -8.9832   -3.3698   14.7967 C   0  0  0  0  0  0  0  0  0  0  0  0
   -7.8012   -4.0271   14.5028 C   0  0  0  0  0  0  0  0  0  0  0  0
   -6.6392   -3.4691   14.8962 F   0  0  0  0  0  0  0  0  0  0  0  0
   -7.8665   -5.2184   13.8167 C   0  0  0  0  0  0  0  0  0  0  0  0
   -6.6793   -5.8519   13.5232 F   0  0  0  0  0  0  0  0  0  0  0  0
   -9.0592   -5.7559   13.4277 C   0  0  0  0  0  0  0  0  0  0  0  0
  -10.4384   -6.7921    9.0546 C   0  0  0  0  0  0  0  0  0  0  0  0
   -9.8648   -7.9063    8.3261 N   0  0  0  0  0  0  0  0  0  0  0  0
   -8.9388   -8.1658    8.7085 H   0  0  0  0  0  0  0  0  0  0  0  0
  -10.4799   -8.7144    8.4386 H   0  0  0  0  0  0  0  0  0  0  0  0
 20 21  1  0  0  0
 21  6  1  0  0  0
  6  7  2  0  0  0
  7  8  1  0  0  0
  8  9  2  0  0  0
  9  1  1  0  0  0
  1  2  2  0  0  0
  2  3  1  0  0  0
  3 22  1  0  0  0
 22 23  2  0  0  0
 22 24  1  0  0  0
 24 26  1  0  0  0
 26 27  1  0  0  0
 27 28  2  0  0  0
 28 29  1  0  0  0
 29 30  2  0  0  0
 30 31  1  0  0  0
 30 32  1  0  0  0
 32 33  1  0  0  0
 32 34  2  0  0  0
  3  4  2  0  0  0
  4 35  1  0  0  0
 35 36  1  0  0  0
  4  5  1  0  0  0
  9 10  1  0  0  0
 10 11  2  0  0  0
 11 12  1  0  0  0
 12 13  2  0  0  0
 13 14  1  0  0  0
 14 15  2  0  0  0
 13 16  1  0  0  0
 16 17  1  0  0  0
 16 18  1  0  0  0
 16 19  1  0  0  0
 15  6  1  0  0  0
  5  1  1  0  0  0
 15 10  1  0  0  0
 34 27  1  0  0  0
 24 25  1  0  0  0
 36 37  1  0  0  0
 36 38  1  0  0  0
M  END
> <minimizedAffinity>
4.35102

> <CNNscore>
0.2570047081

> <CNNaffinity>
6.6210479736

> <CNN_VS>
1.7016404867

> <CNNaffinity_variance>
0.3912770152

$$$$
[H]c1c([H])c(C([H])([H])N([H])C(=O)c2nc(-c3c([H])c([H])c(OC([H])([H])[H])c4nc(C(F)(F)F)c([H])c([H])c34)oc2C([H])([H])N([H])[H])c([H])c(F)c1F


 38 41  0  0  0  0  0  0  0  0999 V2000
   -7.3836   -7.3502    7.3211 C   0  0  0  0  0  0  0  0  0  0  0  0
   -6.7107   -6.7862    6.3056 N   0  0  0  0  0  0  0  0  0  0  0  0
   -5.5294   -6.2659    6.6793 C   0  0  0  0  0  0  0  0  0  0  0  0
   -5.4921   -6.5600    8.0458 C   0  0  0  0  0  0  0  0  0  0  0  0
   -6.5818   -7.1821    8.3651 O   0  0  0  0  0  0  0  0  0  0  0  0
  -11.0289   -9.5235    7.5632 C   0  0  0  0  0  0  0  0  0  0  0  0
   -9.9587  -10.0012    6.8713 C   0  0  0  0  0  0  0  0  0  0  0  0
   -8.8103   -9.2408    6.8012 C   0  0  0  0  0  0  0  0  0  0  0  0
   -8.6765   -7.9913    7.4117 C   0  0  0  0  0  0  0  0  0  0  0  0
   -9.7548   -7.5403    8.0847 C   0  0  0  0  0  0  0  0  0  0  0  0
   -9.7064   -6.3018    8.6741 C   0  0  0  0  0  0  0  0  0  0  0  0
  -10.8431   -5.8398    9.3420 C   0  0  0  0  0  0  0  0  0  0  0  0
  -11.9749   -6.6168    9.3998 C   0  0  0  0  0  0  0  0  0  0  0  0
  -12.0271   -7.8341    8.8213 N   0  0  0  0  0  0  0  0  0  0  0  0
  -10.9407   -8.2790    8.1802 C   0  0  0  0  0  0  0  0  0  0  0  0
  -13.1750   -6.0957   10.1320 C   0  0  0  0  0  0  0  0  0  0  0  0
  -12.8190   -5.3310   11.2162 F   0  0  0  0  0  0  0  0  0  0  0  0
  -13.9553   -7.1636   10.5363 F   0  0  0  0  0  0  0  0  0  0  0  0
  -13.8855   -5.2899    9.2391 F   0  0  0  0  0  0  0  0  0  0  0  0
  -13.2912  -10.0200    6.8530 C   0  0  0  0  0  0  0  0  0  0  0  0
  -12.1946  -10.2455    7.6762 O   0  0  0  0  0  0  0  0  0  0  0  0
   -4.5386   -5.5272    5.9304 C   0  0  0  0  0  0  0  0  0  0  0  0
   -3.4982   -6.2701    5.6322 O   0  0  0  0  0  0  0  0  0  0  0  0
   -4.5209   -4.2169    5.4982 N   0  0  0  0  0  0  0  0  0  0  0  0
   -5.2908   -3.5472    5.6425 H   0  0  0  0  0  0  0  0  0  0  0  0
   -3.3284   -3.7420    4.7958 C   0  0  0  0  0  0  0  0  0  0  0  0
   -3.6087   -2.6236    3.8624 C   0  0  0  0  0  0  0  0  0  0  0  0
   -4.0513   -1.4272    4.3525 C   0  0  0  0  0  0  0  0  0  0  0  0
   -4.3356   -0.4066    3.4490 C   0  0  0  0  0  0  0  0  0  0  0  0
   -4.1782   -0.5792    2.0848 C   0  0  0  0  0  0  0  0  0  0  0  0
   -4.4752    0.4501    1.2672 F   0  0  0  0  0  0  0  0  0  0  0  0
   -3.7308   -1.7969    1.6252 C   0  0  0  0  0  0  0  0  0  0  0  0
   -3.5914   -1.9534    0.2640 F   0  0  0  0  0  0  0  0  0  0  0  0
   -3.4425   -2.8221    2.4788 C   0  0  0  0  0  0  0  0  0  0  0  0
   -4.3869   -6.2178    8.9567 C   0  0  0  0  0  0  0  0  0  0  0  0
   -4.7885   -5.2607    9.9684 N   0  0  0  0  0  0  0  0  0  0  0  0
   -3.9647   -4.8383   10.4312 H   0  0  0  0  0  0  0  0  0  0  0  0
   -5.3029   -4.5059    9.5104 H   0  0  0  0  0  0  0  0  0  0  0  0
 20 21  1  0  0  0
 21  6  1  0  0  0
  6  7  2  0  0  0
  7  8  1  0  0  0
  8  9  2  0  0  0
  9  1  1  0  0  0
  1  2  2  0  0  0
  2  3  1  0  0  0
  3 22  1  0  0  0
 22 23  2  0  0  0
 22 24  1  0  0  0
 24 26  1  0  0  0
 26 27  1  0  0  0
 27 28  2  0  0  0
 28 29  1  0  0  0
 29 30  2  0  0  0
 30 31  1  0  0  0
 30 32  1  0  0  0
 32 33  1  0  0  0
 32 34  2  0  0  0
  3  4  2  0  0  0
  4 35  1  0  0  0
 35 36  1  0  0  0
  4  5  1  0  0  0
  9 10  1  0  0  0
 10 11  2  0  0  0
 11 12  1  0  0  0
 12 13  2  0  0  0
 13 14  1  0  0  0
 14 15  2  0  0  0
 13 16  1  0  0  0
 16 17  1  0  0  0
 16 18  1  0  0  0
 16 19  1  0  0  0
 15  6  1  0  0  0
  5  1  1  0  0  0
 15 10  1  0  0  0
 34 27  1  0  0  0
 24 25  1  0  0  0
 36 37  1  0  0  0
 36 38  1  0  0  0
M  END
> <minimizedAffinity>
-8.73381

> <CNNscore>
0.2531310022

> <CNNaffinity>
6.5696425438

> <CNN_VS>
1.6629801989

> <CNNaffinity_variance>
0.0711051747

$$$$
[H]c1c([H])c(C([H])([H])N([H])C(=O)c2nc(-c3c([H])c([H])c(OC([H])([H])[H])c4nc(C(F)(F)F)c([H])c([H])c34)oc2C([H])([H])N([H])[H])c([H])c(F)c1F


 38 41  0  0  0  0  0  0  0  0999 V2000
   -7.2912   -7.2565    7.5906 C   0  0  0  0  0  0  0  0  0  0  0  0
   -6.4552   -6.9488    8.5949 N   0  0  0  0  0  0  0  0  0  0  0  0
   -5.3409   -6.3218    8.1810 C   0  0  0  0  0  0  0  0  0  0  0  0
   -5.5405   -6.2384    6.7995 C   0  0  0  0  0  0  0  0  0  0  0  0
   -6.6751   -6.7916    6.5112 O   0  0  0  0  0  0  0  0  0  0  0  0
  -10.8602   -9.5602    7.4338 C   0  0  0  0  0  0  0  0  0  0  0  0
   -9.7095   -9.9876    6.8460 C   0  0  0  0  0  0  0  0  0  0  0  0
   -8.5885   -9.1862    6.9026 C   0  0  0  0  0  0  0  0  0  0  0  0
   -8.5623   -7.9440    7.5415 C   0  0  0  0  0  0  0  0  0  0  0  0
   -9.7182   -7.5434    8.1094 C   0  0  0  0  0  0  0  0  0  0  0  0
   -9.7744   -6.3149    8.7185 C   0  0  0  0  0  0  0  0  0  0  0  0
  -10.9883   -5.9051    9.2756 C   0  0  0  0  0  0  0  0  0  0  0  0
  -12.0909   -6.7223    9.2081 C   0  0  0  0  0  0  0  0  0  0  0  0
  -12.0403   -7.9300    8.6097 N   0  0  0  0  0  0  0  0  0  0  0  0
  -10.8798   -8.3249    8.0745 C   0  0  0  0  0  0  0  0  0  0  0  0
  -13.3764   -6.2569    9.8235 C   0  0  0  0  0  0  0  0  0  0  0  0
  -13.1816   -5.1905   10.6673 F   0  0  0  0  0  0  0  0  0  0  0  0
  -13.9548   -7.3093   10.5097 F   0  0  0  0  0  0  0  0  0  0  0  0
  -14.2089   -5.8460    8.7797 F   0  0  0  0  0  0  0  0  0  0  0  0
  -13.1364   -9.9537    6.7035 C   0  0  0  0  0  0  0  0  0  0  0  0
  -12.0041  -10.3246    7.4187 O   0  0  0  0  0  0  0  0  0  0  0  0
   -4.1745   -5.8796    8.9105 C   0  0  0  0  0  0  0  0  0  0  0  0
   -3.1236   -6.6204    8.6461 O   0  0  0  0  0  0  0  0  0  0  0  0
   -4.0040   -4.8411    9.8030 N   0  0  0  0  0  0  0  0  0  0  0  0
   -4.7437   -4.1731   10.0650 H   0  0  0  0  0  0  0  0  0  0  0  0
   -2.6900   -4.6807   10.4262 C   0  0  0  0  0  0  0  0  0  0  0  0
   -2.5118   -3.3602   11.0784 C   0  0  0  0  0  0  0  0  0  0  0  0
   -1.9989   -3.2932   12.3431 C   0  0  0  0  0  0  0  0  0  0  0  0
   -1.8728   -2.0418   12.9405 C   0  0  0  0  0  0  0  0  0  0  0  0
   -2.2500   -0.8825   12.2851 C   0  0  0  0  0  0  0  0  0  0  0  0
   -2.1035    0.2950   12.9241 F   0  0  0  0  0  0  0  0  0  0  0  0
   -2.7631   -0.9862   11.0123 C   0  0  0  0  0  0  0  0  0  0  0  0
   -3.1435    0.1771   10.3807 F   0  0  0  0  0  0  0  0  0  0  0  0
   -2.9033   -2.1945   10.3933 C   0  0  0  0  0  0  0  0  0  0  0  0
   -4.6083   -5.6163    5.8444 C   0  0  0  0  0  0  0  0  0  0  0  0
   -3.3872   -6.3827    5.6939 N   0  0  0  0  0  0  0  0  0  0  0  0
   -2.6485   -5.8222    5.2340 H   0  0  0  0  0  0  0  0  0  0  0  0
   -3.0474   -6.6317    6.6249 H   0  0  0  0  0  0  0  0  0  0  0  0
 20 21  1  0  0  0
 21  6  1  0  0  0
  6  7  2  0  0  0
  7  8  1  0  0  0
  8  9  2  0  0  0
  9  1  1  0  0  0
  1  2  2  0  0  0
  2  3  1  0  0  0
  3 22  1  0  0  0
 22 23  2  0  0  0
 22 24  1  0  0  0
 24 26  1  0  0  0
 26 27  1  0  0  0
 27 28  2  0  0  0
 28 29  1  0  0  0
 29 30  2  0  0  0
 30 31  1  0  0  0
 30 32  1  0  0  0
 32 33  1  0  0  0
 32 34  2  0  0  0
  3  4  2  0  0  0
  4 35  1  0  0  0
 35 36  1  0  0  0
  4  5  1  0  0  0
  9 10  1  0  0  0
 10 11  2  0  0  0
 11 12  1  0  0  0
 12 13  2  0  0  0
 13 14  1  0  0  0
 14 15  2  0  0  0
 13 16  1  0  0  0
 16 17  1  0  0  0
 16 18  1  0  0  0
 16 19  1  0  0  0
 15  6  1  0  0  0
  5  1  1  0  0  0
 15 10  1  0  0  0
 34 27  1  0  0  0
 24 25  1  0  0  0
 36 37  1  0  0  0
 36 38  1  0  0  0
M  END
> <minimizedAffinity>
-7.93491

> <CNNscore>
0.2473167777

> <CNNaffinity>
6.4525880814

> <CNN_VS>
1.5958333015

> <CNNaffinity_variance>
0.0896389708

$$$$
[H]c1c([H])c(C([H])([H])N([H])C(=O)c2nc(-c3c([H])c([H])c(OC([H])([H])[H])c4nc(C(F)(F)F)c([H])c([H])c34)oc2C([H])([H])N([H])[H])c([H])c(F)c1F


 38 41  0  0  0  0  0  0  0  0999 V2000
  -13.3819   -7.3327    6.2088 C   0  0  0  0  0  0  0  0  0  0  0  0
  -12.2213   -6.7925    6.6128 N   0  0  0  0  0  0  0  0  0  0  0  0
  -11.3824   -7.6900    7.1575 C   0  0  0  0  0  0  0  0  0  0  0  0
  -12.1104   -8.8796    7.0560 C   0  0  0  0  0  0  0  0  0  0  0  0
  -13.2531   -8.6197    6.5054 O   0  0  0  0  0  0  0  0  0  0  0  0
  -16.6932   -5.5496    4.2275 C   0  0  0  0  0  0  0  0  0  0  0  0
  -15.4633   -4.9668    4.2260 C   0  0  0  0  0  0  0  0  0  0  0  0
  -14.4312   -5.5744    4.9098 C   0  0  0  0  0  0  0  0  0  0  0  0
  -14.5743   -6.7741    5.6114 C   0  0  0  0  0  0  0  0  0  0  0  0
  -15.8052   -7.3253    5.6010 C   0  0  0  0  0  0  0  0  0  0  0  0
  -16.0264   -8.4829    6.3042 C   0  0  0  0  0  0  0  0  0  0  0  0
  -17.3147   -9.0230    6.3053 C   0  0  0  0  0  0  0  0  0  0  0  0
  -18.3263   -8.4001    5.6148 C   0  0  0  0  0  0  0  0  0  0  0  0
  -18.1136   -7.2619    4.9230 N   0  0  0  0  0  0  0  0  0  0  0  0
  -16.8812   -6.7417    4.9208 C   0  0  0  0  0  0  0  0  0  0  0  0
  -19.6957   -9.0103    5.6286 C   0  0  0  0  0  0  0  0  0  0  0  0
  -20.3372   -8.7974    6.8245 F   0  0  0  0  0  0  0  0  0  0  0  0
  -19.5876  -10.3664    5.3794 F   0  0  0  0  0  0  0  0  0  0  0  0
  -20.4337   -8.3913    4.6168 F   0  0  0  0  0  0  0  0  0  0  0  0
  -18.5857   -4.0404    4.1280 C   0  0  0  0  0  0  0  0  0  0  0  0
  -17.7550   -4.9937    3.5517 O   0  0  0  0  0  0  0  0  0  0  0  0
  -10.0818   -7.5259    7.7656 C   0  0  0  0  0  0  0  0  0  0  0  0
   -9.8505   -8.4413    8.6776 O   0  0  0  0  0  0  0  0  0  0  0  0
   -9.0883   -6.5948    7.5422 N   0  0  0  0  0  0  0  0  0  0  0  0
   -9.1396   -5.8496    6.8322 H   0  0  0  0  0  0  0  0  0  0  0  0
   -7.8852   -6.6625    8.3722 C   0  0  0  0  0  0  0  0  0  0  0  0
   -6.6682   -7.0254    7.6054 C   0  0  0  0  0  0  0  0  0  0  0  0
   -6.1636   -8.2921    7.6953 C   0  0  0  0  0  0  0  0  0  0  0  0
   -5.0025   -8.5935    6.9884 C   0  0  0  0  0  0  0  0  0  0  0  0
   -4.3617   -7.6479    6.2068 C   0  0  0  0  0  0  0  0  0  0  0  0
   -3.2398   -8.0072    5.5520 F   0  0  0  0  0  0  0  0  0  0  0  0
   -4.8967   -6.3818    6.1388 C   0  0  0  0  0  0  0  0  0  0  0  0
   -4.2386   -5.4514    5.3653 F   0  0  0  0  0  0  0  0  0  0  0  0
   -6.0325   -6.0472    6.8177 C   0  0  0  0  0  0  0  0  0  0  0  0
  -11.6396  -10.2020    7.5007 C   0  0  0  0  0  0  0  0  0  0  0  0
  -12.6220  -10.8858    8.3181 N   0  0  0  0  0  0  0  0  0  0  0  0
  -12.1964  -11.6791    8.8288 H   0  0  0  0  0  0  0  0  0  0  0  0
  -12.9747  -10.2270    9.0150 H   0  0  0  0  0  0  0  0  0  0  0  0
 20 21  1  0  0  0
 21  6  1  0  0  0
  6  7  2  0  0  0
  7  8  1  0  0  0
  8  9  2  0  0  0
  9  1  1  0  0  0
  1  2  2  0  0  0
  2  3  1  0  0  0
  3 22  1  0  0  0
 22 23  2  0  0  0
 22 24  1  0  0  0
 24 26  1  0  0  0
 26 27  1  0  0  0
 27 28  2  0  0  0
 28 29  1  0  0  0
 29 30  2  0  0  0
 30 31  1  0  0  0
 30 32  1  0  0  0
 32 33  1  0  0  0
 32 34  2  0  0  0
  3  4  2  0  0  0
  4 35  1  0  0  0
 35 36  1  0  0  0
  4  5  1  0  0  0
  9 10  1  0  0  0
 10 11  2  0  0  0
 11 12  1  0  0  0
 12 13  2  0  0  0
 13 14  1  0  0  0
 14 15  2  0  0  0
 13 16  1  0  0  0
 16 17  1  0  0  0
 16 18  1  0  0  0
 16 19  1  0  0  0
 15  6  1  0  0  0
  5  1  1  0  0  0
 15 10  1  0  0  0
 34 27  1  0  0  0
 24 25  1  0  0  0
 36 37  1  0  0  0
 36 38  1  0  0  0
M  END
> <minimizedAffinity>
1.83200

> <CNNscore>
0.2295130789

> <CNNaffinity>
6.8797378540

> <CNN_VS>
1.5789898634

> <CNNaffinity_variance>
1.0407747030

$$$$
[H]c1nc(N([H])c2c([H])c([H])c(C(=O)N([H])C3([H])C([H])([H])N(C([H])([H])[H])C([H])([H])C3([H])[H])c([H])c2OC([H])([H])[H])nc2c1N(C([H])([H])[H])C(=O)[C@@]([H])(C([H])([H])[H])N2C1([H])C([H])([H])C([H])([H])C([H])([H])C1([H])[H]


 38 42  0  0  0  0  0  0  0  0999 V2000
  -13.7777   -6.9012   10.0651 N   0  0  0  0  0  0  0  0  0  0  0  0
  -14.7643   -6.7479   10.4558 H   0  0  0  0  0  0  0  0  0  0  0  0
  -13.6849   -7.4644    8.7843 C   0  0  0  0  0  0  0  0  0  0  0  0
  -12.5918   -8.2651    8.5573 N   0  0  0  0  0  0  0  0  0  0  0  0
  -12.3409   -8.8835    7.4145 C   0  0  0  0  0  0  0  0  0  0  0  0
  -13.2388   -8.7113    6.3829 C   0  0  0  0  0  0  0  0  0  0  0  0
  -13.0637   -9.3354    5.1199 N   0  0  0  0  0  0  0  0  0  0  0  0
  -11.9107  -10.2035    4.8483 C   0  0  0  0  0  0  0  0  0  0  0  0
  -14.0424   -9.1038    4.1183 C   0  0  0  0  0  0  0  0  0  0  0  0
  -14.2514   -9.9314    3.2061 O   0  0  0  0  0  0  0  0  0  0  0  0
  -14.8135   -7.8349    4.1943 C   0  0  0  0  0  0  0  0  0  0  0  0
  -15.7095   -7.7044    3.0318 C   0  0  0  0  0  0  0  0  0  0  0  0
  -15.3297   -7.7107    5.5006 N   0  0  0  0  0  0  0  0  0  0  0  0
  -14.3589   -7.9174    6.5474 C   0  0  0  0  0  0  0  0  0  0  0  0
  -14.5223   -7.3283    7.7595 N   0  0  0  0  0  0  0  0  0  0  0  0
  -16.6836   -7.4155    5.9114 C   0  0  0  0  0  0  0  0  0  0  0  0
  -17.0960   -8.0750    7.1966 C   0  0  0  0  0  0  0  0  0  0  0  0
  -17.9438   -7.0659    7.9409 C   0  0  0  0  0  0  0  0  0  0  0  0
  -18.0063   -5.8420    7.0916 C   0  0  0  0  0  0  0  0  0  0  0  0
  -17.0517   -5.9761    5.9466 C   0  0  0  0  0  0  0  0  0  0  0  0
  -11.5262   -6.0614   10.3906 C   0  0  0  0  0  0  0  0  0  0  0  0
  -10.4776   -5.6539   11.1819 C   0  0  0  0  0  0  0  0  0  0  0  0
  -10.5430   -5.6452   12.5517 C   0  0  0  0  0  0  0  0  0  0  0  0
  -11.7347   -6.0734   13.0963 C   0  0  0  0  0  0  0  0  0  0  0  0
  -12.8140   -6.4922   12.3069 C   0  0  0  0  0  0  0  0  0  0  0  0
  -12.7443   -6.4996   10.9344 C   0  0  0  0  0  0  0  0  0  0  0  0
   -9.4369   -5.2171   13.4034 C   0  0  0  0  0  0  0  0  0  0  0  0
   -9.6862   -4.6701   14.4974 O   0  0  0  0  0  0  0  0  0  0  0  0
   -8.1012   -5.4185   12.9968 N   0  0  0  0  0  0  0  0  0  0  0  0
   -7.7834   -5.8607   12.1135 H   0  0  0  0  0  0  0  0  0  0  0  0
   -7.0377   -4.9724   13.8849 C   0  0  0  0  0  0  0  0  0  0  0  0
   -6.6354   -6.1584   14.7416 C   0  0  0  0  0  0  0  0  0  0  0  0
   -5.2127   -5.7911   15.1095 C   0  0  0  0  0  0  0  0  0  0  0  0
   -4.7055   -4.9769   14.0465 N   0  0  0  0  0  0  0  0  0  0  0  0
   -4.0542   -3.7671   14.5066 C   0  0  0  0  0  0  0  0  0  0  0  0
   -5.7743   -4.6582   13.1516 C   0  0  0  0  0  0  0  0  0  0  0  0
  -10.1637   -6.1332    8.3639 C   0  0  0  0  0  0  0  0  0  0  0  0
  -11.4068   -6.0508    8.9941 O   0  0  0  0  0  0  0  0  0  0  0  0
 37 38  1  0  0  0
 38 21  1  0  0  0
 21 22  2  0  0  0
 22 23  1  0  0  0
 23 24  2  0  0  0
 24 25  1  0  0  0
 25 26  2  0  0  0
 26  1  1  0  0  0
  1  3  1  0  0  0
  3  4  2  0  0  0
  4  5  1  0  0  0
  5  6  2  0  0  0
  6  7  1  0  0  0
  7  8  1  0  0  0
  7  9  1  0  0  0
  9 10  2  0  0  0
  9 11  1  0  0  0
 11 12  1  0  0  0
 11 13  1  0  0  0
 13 16  1  0  0  0
 16 17  1  0  0  0
 17 18  1  0  0  0
 18 19  1  0  0  0
 19 20  1  0  0  0
 13 14  1  0  0  0
 14 15  2  0  0  0
 23 27  1  0  0  0
 27 28  2  0  0  0
 27 29  1  0  0  0
 29 31  1  0  0  0
 31 32  1  0  0  0
 32 33  1  0  0  0
 33 34  1  0  0  0
 34 35  1  0  0  0
 34 36  1  0  0  0
 26 21  1  0  0  0
 15  3  1  0  0  0
 36 31  1  0  0  0
 14  6  1  0  0  0
 20 16  1  0  0  0
  1  2  1  0  0  0
 29 30  1  0  0  0
M  END
> <minimizedAffinity>
13.43836

> <CNNscore>
0.4073930383

> <CNNaffinity>
6.8125519753

> <CNN_VS>
2.7753863335

> <CNNaffinity_variance>
0.7005246282

$$$$
[H]c1nc(N([H])c2c([H])c([H])c(C(=O)N([H])C3([H])C([H])([H])N(C([H])([H])[H])C([H])([H])C3([H])[H])c([H])c2OC([H])([H])[H])nc2c1N(C([H])([H])[H])C(=O)[C@@]([H])(C([H])([H])[H])N2C1([H])C([H])([H])C([H])([H])C([H])([H])C1([H])[H]


 38 42  0  0  0  0  0  0  0  0999 V2000
  -14.9321   -7.5749   10.4623 N   0  0  0  0  0  0  0  0  0  0  0  0
  -15.6000   -8.0461   11.1562 H   0  0  0  0  0  0  0  0  0  0  0  0
  -15.2685   -7.6597    9.1036 C   0  0  0  0  0  0  0  0  0  0  0  0
  -16.5454   -7.2736    8.7751 N   0  0  0  0  0  0  0  0  0  0  0  0
  -17.0372   -7.2809    7.5465 C   0  0  0  0  0  0  0  0  0  0  0  0
  -16.2103   -7.7051    6.5285 C   0  0  0  0  0  0  0  0  0  0  0  0
  -16.6403   -7.7449    5.1761 N   0  0  0  0  0  0  0  0  0  0  0  0
  -17.9957   -7.3312    4.7912 C   0  0  0  0  0  0  0  0  0  0  0  0
  -15.7178   -8.1919    4.1943 C   0  0  0  0  0  0  0  0  0  0  0  0
  -15.8023   -7.8235    3.0035 O   0  0  0  0  0  0  0  0  0  0  0  0
  -14.6423   -9.1185    4.6360 C   0  0  0  0  0  0  0  0  0  0  0  0
  -13.8383   -9.5636    3.4842 C   0  0  0  0  0  0  0  0  0  0  0  0
  -14.0092   -8.5535    5.7623 N   0  0  0  0  0  0  0  0  0  0  0  0
  -14.9140   -8.1071    6.7933 C   0  0  0  0  0  0  0  0  0  0  0  0
  -14.5085   -8.0611    8.0881 N   0  0  0  0  0  0  0  0  0  0  0  0
  -12.5968   -8.3640    6.0029 C   0  0  0  0  0  0  0  0  0  0  0  0
  -12.2798   -7.2817    6.9954 C   0  0  0  0  0  0  0  0  0  0  0  0
  -11.1122   -7.7849    7.8167 C   0  0  0  0  0  0  0  0  0  0  0  0
  -10.7736   -9.1427    7.3022 C   0  0  0  0  0  0  0  0  0  0  0  0
  -11.8249   -9.5898    6.3352 C   0  0  0  0  0  0  0  0  0  0  0  0
  -12.5299   -7.3956   10.7409 C   0  0  0  0  0  0  0  0  0  0  0  0
  -11.4035   -6.8289   11.2903 C   0  0  0  0  0  0  0  0  0  0  0  0
  -11.4576   -5.7938   12.1882 C   0  0  0  0  0  0  0  0  0  0  0  0
  -12.7213   -5.3486   12.5123 C   0  0  0  0  0  0  0  0  0  0  0  0
  -13.8804   -5.9129   11.9633 C   0  0  0  0  0  0  0  0  0  0  0  0
  -13.8219   -6.9503   11.0639 C   0  0  0  0  0  0  0  0  0  0  0  0
  -10.2700   -5.1845   12.7803 C   0  0  0  0  0  0  0  0  0  0  0  0
  -10.3796   -4.0986   13.3861 O   0  0  0  0  0  0  0  0  0  0  0  0
   -9.0124   -5.8141   12.6705 N   0  0  0  0  0  0  0  0  0  0  0  0
   -8.8100   -6.7127   12.1927 H   0  0  0  0  0  0  0  0  0  0  0  0
   -7.8621   -5.1625   13.2797 C   0  0  0  0  0  0  0  0  0  0  0  0
   -7.7319   -5.7007   14.6924 C   0  0  0  0  0  0  0  0  0  0  0  0
   -6.2578   -5.4793   14.9608 C   0  0  0  0  0  0  0  0  0  0  0  0
   -5.5917   -5.5348   13.6946 N   0  0  0  0  0  0  0  0  0  0  0  0
   -4.6725   -4.4361   13.4773 C   0  0  0  0  0  0  0  0  0  0  0  0
   -6.5710   -5.5788   12.6535 C   0  0  0  0  0  0  0  0  0  0  0  0
  -12.5881   -9.7817   10.2191 C   0  0  0  0  0  0  0  0  0  0  0  0
  -12.4186   -8.4524    9.8271 O   0  0  0  0  0  0  0  0  0  0  0  0
 37 38  1  0  0  0
 38 21  1  0  0  0
 21 22  2  0  0  0
 22 23  1  0  0  0
 23 24  2  0  0  0
 24 25  1  0  0  0
 25 26  2  0  0  0
 26  1  1  0  0  0
  1  3  1  0  0  0
  3  4  2  0  0  0
  4  5  1  0  0  0
  5  6  2  0  0  0
  6  7  1  0  0  0
  7  8  1  0  0  0
  7  9  1  0  0  0
  9 10  2  0  0  0
  9 11  1  0  0  0
 11 12  1  0  0  0
 11 13  1  0  0  0
 13 16  1  0  0  0
 16 17  1  0  0  0
 17 18  1  0  0  0
 18 19  1  0  0  0
 19 20  1  0  0  0
 13 14  1  0  0  0
 14 15  2  0  0  0
 23 27  1  0  0  0
 27 28  2  0  0  0
 27 29  1  0  0  0
 29 31  1  0  0  0
 31 32  1  0  0  0
 32 33  1  0  0  0
 33 34  1  0  0  0
 34 35  1  0  0  0
 34 36  1  0  0  0
 26 21  1  0  0  0
 15  3  1  0  0  0
 36 31  1  0  0  0
 14  6  1  0  0  0
 20 16  1  0  0  0
  1  2  1  0  0  0
 29 30  1  0  0  0
M  END
> <minimizedAffinity>
15.68624

> <CNNscore>
0.4067712724

> <CNNaffinity>
7.2668485641

> <CNN_VS>
2.9559452534

> <CNNaffinity_variance>
0.8520538211

$$$$
[H]c1nc(N([H])c2c([H])c([H])c(C(=O)N([H])C3([H])C([H])([H])N(C([H])([H])[H])C([H])([H])C3([H])[H])c([H])c2OC([H])([H])[H])nc2c1N(C([H])([H])[H])C(=O)[C@@]([H])(C([H])([H])[H])N2C1([H])C([H])([H])C([H])([H])C([H])([H])C1([H])[H]


 38 42  0  0  0  0  0  0  0  0999 V2000
   -9.5470   -6.9295    9.4591 N   0  0  0  0  0  0  0  0  0  0  0  0
   -9.7773   -7.0772   10.4958 H   0  0  0  0  0  0  0  0  0  0  0  0
   -8.1999   -6.7130    9.1350 C   0  0  0  0  0  0  0  0  0  0  0  0
   -7.3519   -6.5067   10.1960 N   0  0  0  0  0  0  0  0  0  0  0  0
   -6.0508   -6.2918   10.0839 C   0  0  0  0  0  0  0  0  0  0  0  0
   -5.5119   -6.2742    8.8154 C   0  0  0  0  0  0  0  0  0  0  0  0
   -4.1274   -6.0576    8.5882 N   0  0  0  0  0  0  0  0  0  0  0  0
   -3.1936   -5.8422    9.7010 C   0  0  0  0  0  0  0  0  0  0  0  0
   -3.6614   -6.0608    7.2475 C   0  0  0  0  0  0  0  0  0  0  0  0
   -2.4815   -6.3611    6.9673 O   0  0  0  0  0  0  0  0  0  0  0  0
   -4.6324   -5.6923    6.1836 C   0  0  0  0  0  0  0  0  0  0  0  0
   -3.9669   -5.6465    4.8698 C   0  0  0  0  0  0  0  0  0  0  0  0
   -5.7947   -6.4712    6.3592 N   0  0  0  0  0  0  0  0  0  0  0  0
   -6.3122   -6.4749    7.7057 C   0  0  0  0  0  0  0  0  0  0  0  0
   -7.6340   -6.6869    7.9313 N   0  0  0  0  0  0  0  0  0  0  0  0
   -6.5118   -7.2552    5.3794 C   0  0  0  0  0  0  0  0  0  0  0  0
   -5.7172   -8.3877    4.7939 C   0  0  0  0  0  0  0  0  0  0  0  0
   -6.6782   -9.5465    4.6369 C   0  0  0  0  0  0  0  0  0  0  0  0
   -8.0039   -9.0807    5.1355 C   0  0  0  0  0  0  0  0  0  0  0  0
   -7.8515   -7.7460    5.7955 C   0  0  0  0  0  0  0  0  0  0  0  0
  -11.8155   -6.2460    8.9423 C   0  0  0  0  0  0  0  0  0  0  0  0
  -12.9423   -6.2507    8.1535 C   0  0  0  0  0  0  0  0  0  0  0  0
  -13.0279   -6.9686    6.9883 C   0  0  0  0  0  0  0  0  0  0  0  0
  -11.9060   -7.6940    6.6489 C   0  0  0  0  0  0  0  0  0  0  0  0
  -10.7489   -7.7019    7.4392 C   0  0  0  0  0  0  0  0  0  0  0  0
  -10.6672   -6.9811    8.6064 C   0  0  0  0  0  0  0  0  0  0  0  0
  -14.2184   -6.9840    6.1429 C   0  0  0  0  0  0  0  0  0  0  0  0
  -15.2234   -6.3318    6.4933 O   0  0  0  0  0  0  0  0  0  0  0  0
  -14.2349   -7.7266    4.9436 N   0  0  0  0  0  0  0  0  0  0  0  0
  -13.4594   -8.2997    4.5601 H   0  0  0  0  0  0  0  0  0  0  0  0
  -15.4479   -7.7064    4.1394 C   0  0  0  0  0  0  0  0  0  0  0  0
  -16.5020   -8.4996    4.8892 C   0  0  0  0  0  0  0  0  0  0  0  0
  -17.7771   -7.8973    4.3366 C   0  0  0  0  0  0  0  0  0  0  0  0
  -17.4717   -6.5498    3.9611 N   0  0  0  0  0  0  0  0  0  0  0  0
  -17.9396   -6.1999    2.6352 C   0  0  0  0  0  0  0  0  0  0  0  0
  -16.0600   -6.3456    4.0617 C   0  0  0  0  0  0  0  0  0  0  0  0
  -12.9499   -5.0749   10.7618 C   0  0  0  0  0  0  0  0  0  0  0  0
  -11.7805   -5.4943   10.1247 O   0  0  0  0  0  0  0  0  0  0  0  0
 37 38  1  0  0  0
 38 21  1  0  0  0
 21 22  2  0  0  0
 22 23  1  0  0  0
 23 24  2  0  0  0
 24 25  1  0  0  0
 25 26  2  0  0  0
 26  1  1  0  0  0
  1  3  1  0  0  0
  3  4  2  0  0  0
  4  5  1  0  0  0
  5  6  2  0  0  0
  6  7  1  0  0  0
  7  8  1  0  0  0
  7  9  1  0  0  0
  9 10  2  0  0  0
  9 11  1  0  0  0
 11 12  1  0  0  0
 11 13  1  0  0  0
 13 16  1  0  0  0
 16 17  1  0  0  0
 17 18  1  0  0  0
 18 19  1  0  0  0
 19 20  1  0  0  0
 13 14  1  0  0  0
 14 15  2  0  0  0
 23 27  1  0  0  0
 27 28  2  0  0  0
 27 29  1  0  0  0
 29 31  1  0  0  0
 31 32  1  0  0  0
 32 33  1  0  0  0
 33 34  1  0  0  0
 34 35  1  0  0  0
 34 36  1  0  0  0
 26 21  1  0  0  0
 15  3  1  0  0  0
 36 31  1  0  0  0
 14  6  1  0  0  0
 20 16  1  0  0  0
  1  2  1  0  0  0
 29 30  1  0  0  0
M  END
> <minimizedAffinity>
4.03349

> <CNNscore>
0.3289372921

> <CNNaffinity>
7.3705506325

> <CNN_VS>
2.4244489670

> <CNNaffinity_variance>
0.9944976568

$$$$
[H]c1nc(N([H])c2c([H])c([H])c(C(=O)N([H])C3([H])C([H])([H])N(C([H])([H])[H])C([H])([H])C3([H])[H])c([H])c2OC([H])([H])[H])nc2c1N(C([H])([H])[H])C(=O)[C@@]([H])(C([H])([H])[H])N2C1([H])C([H])([H])C([H])([H])C([H])([H])C1([H])[H]


 38 42  0  0  0  0  0  0  0  0999 V2000
   -8.9218   -7.6527    7.6980 N   0  0  0  0  0  0  0  0  0  0  0  0
   -8.0164   -7.0791    7.6709 H   0  0  0  0  0  0  0  0  0  0  0  0
   -9.9360   -7.1939    8.5510 C   0  0  0  0  0  0  0  0  0  0  0  0
   -9.6341   -6.0829    9.3007 N   0  0  0  0  0  0  0  0  0  0  0  0
  -10.4658   -5.5068   10.1539 C   0  0  0  0  0  0  0  0  0  0  0  0
  -11.7197   -6.0606   10.2986 C   0  0  0  0  0  0  0  0  0  0  0  0
  -12.6865   -5.5148   11.1833 N   0  0  0  0  0  0  0  0  0  0  0  0
  -12.3980   -4.3236   11.9922 C   0  0  0  0  0  0  0  0  0  0  0  0
  -13.9534   -6.1500   11.2633 C   0  0  0  0  0  0  0  0  0  0  0  0
  -14.9791   -5.5205   11.5989 O   0  0  0  0  0  0  0  0  0  0  0  0
  -14.0162   -7.5979   10.9317 C   0  0  0  0  0  0  0  0  0  0  0  0
  -15.3739   -8.1223   11.1615 C   0  0  0  0  0  0  0  0  0  0  0  0
  -13.3862   -7.7921    9.6852 N   0  0  0  0  0  0  0  0  0  0  0  0
  -12.0850   -7.1795    9.5729 C   0  0  0  0  0  0  0  0  0  0  0  0
  -11.1571   -7.6924    8.7251 N   0  0  0  0  0  0  0  0  0  0  0  0
  -13.8758   -8.5073    8.5286 C   0  0  0  0  0  0  0  0  0  0  0  0
  -13.9280   -7.6859    7.2718 C   0  0  0  0  0  0  0  0  0  0  0  0
  -13.5037   -8.6032    6.1450 C   0  0  0  0  0  0  0  0  0  0  0  0
  -13.2054   -9.9303    6.7556 C   0  0  0  0  0  0  0  0  0  0  0  0
  -13.2217   -9.8118    8.2475 C   0  0  0  0  0  0  0  0  0  0  0  0
   -7.8749   -8.9314    5.9234 C   0  0  0  0  0  0  0  0  0  0  0  0
   -7.8072  -10.0093    5.0716 C   0  0  0  0  0  0  0  0  0  0  0  0
   -8.7443  -11.0105    5.0679 C   0  0  0  0  0  0  0  0  0  0  0  0
   -9.7703  -10.8728    5.9782 C   0  0  0  0  0  0  0  0  0  0  0  0
   -9.8565   -9.7823    6.8539 C   0  0  0  0  0  0  0  0  0  0  0  0
   -8.9154   -8.7809    6.8543 C   0  0  0  0  0  0  0  0  0  0  0  0
   -8.6856  -12.1588    4.1680 C   0  0  0  0  0  0  0  0  0  0  0  0
   -8.8706  -13.3043    4.6283 O   0  0  0  0  0  0  0  0  0  0  0  0
   -8.4229  -11.9783    2.7937 N   0  0  0  0  0  0  0  0  0  0  0  0
   -8.2560  -11.0761    2.3091 H   0  0  0  0  0  0  0  0  0  0  0  0
   -8.3758  -13.1580    1.9423 C   0  0  0  0  0  0  0  0  0  0  0  0
   -8.0254  -12.6920    0.5414 C   0  0  0  0  0  0  0  0  0  0  0  0
   -7.4045  -13.9442   -0.0424 C   0  0  0  0  0  0  0  0  0  0  0  0
   -6.8369  -14.6750    1.0502 N   0  0  0  0  0  0  0  0  0  0  0  0
   -7.1902  -16.0802    1.0502 C   0  0  0  0  0  0  0  0  0  0  0  0
   -7.2340  -14.0611    2.2791 C   0  0  0  0  0  0  0  0  0  0  0  0
   -7.1079   -6.7124    5.2477 C   0  0  0  0  0  0  0  0  0  0  0  0
   -6.8901   -7.9349    5.8859 O   0  0  0  0  0  0  0  0  0  0  0  0
 37 38  1  0  0  0
 38 21  1  0  0  0
 21 22  2  0  0  0
 22 23  1  0  0  0
 23 24  2  0  0  0
 24 25  1  0  0  0
 25 26  2  0  0  0
 26  1  1  0  0  0
  1  3  1  0  0  0
  3  4  2  0  0  0
  4  5  1  0  0  0
  5  6  2  0  0  0
  6  7  1  0  0  0
  7  8  1  0  0  0
  7  9  1  0  0  0
  9 10  2  0  0  0
  9 11  1  0  0  0
 11 12  1  0  0  0
 11 13  1  0  0  0
 13 16  1  0  0  0
 16 17  1  0  0  0
 17 18  1  0  0  0
 18 19  1  0  0  0
 19 20  1  0  0  0
 13 14  1  0  0  0
 14 15  2  0  0  0
 23 27  1  0  0  0
 27 28  2  0  0  0
 27 29  1  0  0  0
 29 31  1  0  0  0
 31 32  1  0  0  0
 32 33  1  0  0  0
 33 34  1  0  0  0
 34 35  1  0  0  0
 34 36  1  0  0  0
 26 21  1  0  0  0
 15  3  1  0  0  0
 36 31  1  0  0  0
 14  6  1  0  0  0
 20 16  1  0  0  0
  1  2  1  0  0  0
 29 30  1  0  0  0
M  END
> <minimizedAffinity>
18.07840

> <CNNscore>
0.3073036373

> <CNNaffinity>
6.9185171127

> <CNN_VS>
2.1260855198

> <CNNaffinity_variance>
0.1943389028

$$$$
[H]c1nc(N([H])c2c([H])c([H])c(C(=O)N([H])C3([H])C([H])([H])N(C([H])([H])[H])C([H])([H])C3([H])[H])c([H])c2OC([H])([H])[H])nc2c1N(C([H])([H])[H])C(=O)[C@@]([H])(C([H])([H])[H])N2C1([H])C([H])([H])C([H])([H])C([H])([H])C1([H])[H]


 38 42  0  0  0  0  0  0  0  0999 V2000
  -13.0039   -8.1781    8.3019 N   0  0  0  0  0  0  0  0  0  0  0  0
  -13.3100   -8.7137    9.1789 H   0  0  0  0  0  0  0  0  0  0  0  0
  -14.0198   -7.6011    7.5264 C   0  0  0  0  0  0  0  0  0  0  0  0
  -14.4355   -6.3504    7.9145 N   0  0  0  0  0  0  0  0  0  0  0  0
  -15.3770   -5.6507    7.3017 C   0  0  0  0  0  0  0  0  0  0  0  0
  -15.9802   -6.2170    6.1993 C   0  0  0  0  0  0  0  0  0  0  0  0
  -16.9964   -5.5464    5.4691 N   0  0  0  0  0  0  0  0  0  0  0  0
  -17.4571   -4.2059    5.8531 C   0  0  0  0  0  0  0  0  0  0  0  0
  -17.5572   -6.2058    4.3443 C   0  0  0  0  0  0  0  0  0  0  0  0
  -18.0600   -5.5660    3.3963 O   0  0  0  0  0  0  0  0  0  0  0  0
  -17.5246   -7.6922    4.3347 C   0  0  0  0  0  0  0  0  0  0  0  0
  -18.2328   -8.2170    3.1539 C   0  0  0  0  0  0  0  0  0  0  0  0
  -16.2043   -8.1055    4.6071 N   0  0  0  0  0  0  0  0  0  0  0  0
  -15.6070   -7.4732    5.7580 C   0  0  0  0  0  0  0  0  0  0  0  0
  -14.6310   -8.1059    6.4580 N   0  0  0  0  0  0  0  0  0  0  0  0
  -15.3905   -9.0584    3.8870 C   0  0  0  0  0  0  0  0  0  0  0  0
  -15.1685   -8.7125    2.4420 C   0  0  0  0  0  0  0  0  0  0  0  0
  -13.7369   -9.0907    2.1280 C   0  0  0  0  0  0  0  0  0  0  0  0
  -13.1481   -9.6384    3.3835 C   0  0  0  0  0  0  0  0  0  0  0  0
  -14.0947   -9.4152    4.5212 C   0  0  0  0  0  0  0  0  0  0  0  0
  -10.8672   -7.0584    8.5489 C   0  0  0  0  0  0  0  0  0  0  0  0
   -9.5045   -6.9775    8.3806 C   0  0  0  0  0  0  0  0  0  0  0  0
   -8.7751   -7.9595    7.7607 C   0  0  0  0  0  0  0  0  0  0  0  0
   -9.4951   -9.0454    7.3107 C   0  0  0  0  0  0  0  0  0  0  0  0
  -10.8832   -9.1460    7.4728 C   0  0  0  0  0  0  0  0  0  0  0  0
  -11.6106   -8.1596    8.0945 C   0  0  0  0  0  0  0  0  0  0  0  0
   -7.3289   -7.8854    7.5736 C   0  0  0  0  0  0  0  0  0  0  0  0
   -6.7060   -8.9093    7.2248 O   0  0  0  0  0  0  0  0  0  0  0  0
   -6.6414   -6.6717    7.7841 N   0  0  0  0  0  0  0  0  0  0  0  0
   -7.0585   -5.7664    8.0728 H   0  0  0  0  0  0  0  0  0  0  0  0
   -5.1998   -6.6546    7.5832 C   0  0  0  0  0  0  0  0  0  0  0  0
   -4.9367   -5.9903    6.2446 C   0  0  0  0  0  0  0  0  0  0  0  0
   -3.5257   -5.4753    6.4399 C   0  0  0  0  0  0  0  0  0  0  0  0
   -3.3619   -5.2330    7.8415 N   0  0  0  0  0  0  0  0  0  0  0  0
   -2.1412   -5.7930    8.3852 C   0  0  0  0  0  0  0  0  0  0  0  0
   -4.4997   -5.7452    8.5400 C   0  0  0  0  0  0  0  0  0  0  0  0
  -11.8070   -6.0476   10.5649 C   0  0  0  0  0  0  0  0  0  0  0  0
  -11.5652   -6.0258    9.1900 O   0  0  0  0  0  0  0  0  0  0  0  0
 37 38  1  0  0  0
 38 21  1  0  0  0
 21 22  2  0  0  0
 22 23  1  0  0  0
 23 24  2  0  0  0
 24 25  1  0  0  0
 25 26  2  0  0  0
 26  1  1  0  0  0
  1  3  1  0  0  0
  3  4  2  0  0  0
  4  5  1  0  0  0
  5  6  2  0  0  0
  6  7  1  0  0  0
  7  8  1  0  0  0
  7  9  1  0  0  0
  9 10  2  0  0  0
  9 11  1  0  0  0
 11 12  1  0  0  0
 11 13  1  0  0  0
 13 16  1  0  0  0
 16 17  1  0  0  0
 17 18  1  0  0  0
 18 19  1  0  0  0
 19 20  1  0  0  0
 13 14  1  0  0  0
 14 15  2  0  0  0
 23 27  1  0  0  0
 27 28  2  0  0  0
 27 29  1  0  0  0
 29 31  1  0  0  0
 31 32  1  0  0  0
 32 33  1  0  0  0
 33 34  1  0  0  0
 34 35  1  0  0  0
 34 36  1  0  0  0
 26 21  1  0  0  0
 15  3  1  0  0  0
 36 31  1  0  0  0
 14  6  1  0  0  0
 20 16  1  0  0  0
  1  2  1  0  0  0
 29 30  1  0  0  0
M  END
> <minimizedAffinity>
1.90280

> <CNNscore>
0.2879496515

> <CNNaffinity>
7.2538232803

> <CNN_VS>
2.0887358189

> <CNNaffinity_variance>
0.1615542769

$$$$
[H]c1nc(N([H])c2c([H])c([H])c(C(=O)N([H])C3([H])C([H])([H])N(C([H])([H])[H])C([H])([H])C3([H])[H])c([H])c2OC([H])([H])[H])nc2c1N(C([H])([H])[H])C(=O)[C@@]([H])(C([H])([H])[H])N2C1([H])C([H])([H])C([H])([H])C([H])([H])C1([H])[H]


 38 42  0  0  0  0  0  0  0  0999 V2000
  -12.2280   -8.8262    8.7570 N   0  0  0  0  0  0  0  0  0  0  0  0
  -12.1367   -9.5581    9.5352 H   0  0  0  0  0  0  0  0  0  0  0  0
  -13.5193   -8.5791    8.2692 C   0  0  0  0  0  0  0  0  0  0  0  0
  -14.4684   -8.2660    9.2120 N   0  0  0  0  0  0  0  0  0  0  0  0
  -15.7352   -7.9975    8.9387 C   0  0  0  0  0  0  0  0  0  0  0  0
  -16.1270   -8.0351    7.6177 C   0  0  0  0  0  0  0  0  0  0  0  0
  -17.4611   -7.7574    7.2196 N   0  0  0  0  0  0  0  0  0  0  0  0
  -18.4967   -7.4116    8.2017 C   0  0  0  0  0  0  0  0  0  0  0  0
  -17.7717   -7.8158    5.8358 C   0  0  0  0  0  0  0  0  0  0  0  0
  -18.7117   -7.1522    5.3493 O   0  0  0  0  0  0  0  0  0  0  0  0
  -16.9341   -8.6992    4.9823 C   0  0  0  0  0  0  0  0  0  0  0  0
  -17.4491   -8.7234    3.6019 C   0  0  0  0  0  0  0  0  0  0  0  0
  -15.5797   -8.3908    5.2249 N   0  0  0  0  0  0  0  0  0  0  0  0
  -15.2197   -8.3441    6.6210 C   0  0  0  0  0  0  0  0  0  0  0  0
  -13.9448   -8.6032    7.0089 N   0  0  0  0  0  0  0  0  0  0  0  0
  -14.5320   -8.1144    4.2684 C   0  0  0  0  0  0  0  0  0  0  0  0
  -14.2500   -9.2439    3.3188 C   0  0  0  0  0  0  0  0  0  0  0  0
  -13.9749   -8.6101    1.9720 C   0  0  0  0  0  0  0  0  0  0  0  0
  -14.1071   -7.1358    2.1518 C   0  0  0  0  0  0  0  0  0  0  0  0
  -14.6649   -6.8435    3.5096 C   0  0  0  0  0  0  0  0  0  0  0  0
  -10.1068   -8.9966    7.5944 C   0  0  0  0  0  0  0  0  0  0  0  0
   -8.8982   -8.4885    7.1783 C   0  0  0  0  0  0  0  0  0  0  0  0
   -8.4841   -7.2176    7.4845 C   0  0  0  0  0  0  0  0  0  0  0  0
   -9.3595   -6.4696    8.2424 C   0  0  0  0  0  0  0  0  0  0  0  0
  -10.5947   -6.9695    8.6755 C   0  0  0  0  0  0  0  0  0  0  0  0
  -11.0060   -8.2438    8.3667 C   0  0  0  0  0  0  0  0  0  0  0  0
   -7.2032   -6.6666    7.0511 C   0  0  0  0  0  0  0  0  0  0  0  0
   -6.9928   -6.4990    5.8321 O   0  0  0  0  0  0  0  0  0  0  0  0
   -6.2135   -6.3268    7.9971 N   0  0  0  0  0  0  0  0  0  0  0  0
   -6.2837   -6.4239    9.0278 H   0  0  0  0  0  0  0  0  0  0  0  0
   -4.9551   -5.7813    7.5095 C   0  0  0  0  0  0  0  0  0  0  0  0
   -3.8840   -6.8290    7.7489 C   0  0  0  0  0  0  0  0  0  0  0  0
   -2.8618   -6.4560    6.6953 C   0  0  0  0  0  0  0  0  0  0  0  0
   -3.5787   -5.8385    5.6207 N   0  0  0  0  0  0  0  0  0  0  0  0
   -2.9878   -4.5936    5.1729 C   0  0  0  0  0  0  0  0  0  0  0  0
   -4.9350   -5.6302    6.0232 C   0  0  0  0  0  0  0  0  0  0  0  0
   -9.7335  -11.0715    6.3595 C   0  0  0  0  0  0  0  0  0  0  0  0
  -10.4819  -10.3033    7.2535 O   0  0  0  0  0  0  0  0  0  0  0  0
 37 38  1  0  0  0
 38 21  1  0  0  0
 21 22  2  0  0  0
 22 23  1  0  0  0
 23 24  2  0  0  0
 24 25  1  0  0  0
 25 26  2  0  0  0
 26  1  1  0  0  0
  1  3  1  0  0  0
  3  4  2  0  0  0
  4  5  1  0  0  0
  5  6  2  0  0  0
  6  7  1  0  0  0
  7  8  1  0  0  0
  7  9  1  0  0  0
  9 10  2  0  0  0
  9 11  1  0  0  0
 11 12  1  0  0  0
 11 13  1  0  0  0
 13 16  1  0  0  0
 16 17  1  0  0  0
 17 18  1  0  0  0
 18 19  1  0  0  0
 19 20  1  0  0  0
 13 14  1  0  0  0
 14 15  2  0  0  0
 23 27  1  0  0  0
 27 28  2  0  0  0
 27 29  1  0  0  0
 29 31  1  0  0  0
 31 32  1  0  0  0
 32 33  1  0  0  0
 33 34  1  0  0  0
 34 35  1  0  0  0
 34 36  1  0  0  0
 26 21  1  0  0  0
 15  3  1  0  0  0
 36 31  1  0  0  0
 14  6  1  0  0  0
 20 16  1  0  0  0
  1  2  1  0  0  0
 29 30  1  0  0  0
M  END
> <minimizedAffinity>
0.98246

> <CNNscore>
0.2816438973

> <CNNaffinity>
7.3008117676

> <CNN_VS>
2.0562291145

> <CNNaffinity_variance>
0.2885929644

$$$$
[H]c1nc(N([H])c2c([H])c([H])c(C(=O)N([H])C3([H])C([H])([H])N(C([H])([H])[H])C([H])([H])C3([H])[H])c([H])c2OC([H])([H])[H])nc2c1N(C([H])([H])[H])C(=O)[C@@]([H])(C([H])([H])[H])N2C1([H])C([H])([H])C([H])([H])C([H])([H])C1([H])[H]


 38 42  0  0  0  0  0  0  0  0999 V2000
   -9.3002   -7.1396    9.9692 N   0  0  0  0  0  0  0  0  0  0  0  0
   -9.3923   -7.3738   11.0114 H   0  0  0  0  0  0  0  0  0  0  0  0
   -8.0068   -6.8874    9.4894 C   0  0  0  0  0  0  0  0  0  0  0  0
   -7.0390   -6.6909   10.4445 N   0  0  0  0  0  0  0  0  0  0  0  0
   -5.7653   -6.4466   10.1807 C   0  0  0  0  0  0  0  0  0  0  0  0
   -5.3860   -6.3856    8.8569 C   0  0  0  0  0  0  0  0  0  0  0  0
   -4.0437   -6.1349    8.4689 N   0  0  0  0  0  0  0  0  0  0  0  0
   -2.9846   -5.9290    9.4651 C   0  0  0  0  0  0  0  0  0  0  0  0
   -3.7453   -6.0943    7.0818 C   0  0  0  0  0  0  0  0  0  0  0  0
   -2.6036   -6.3632    6.6516 O   0  0  0  0  0  0  0  0  0  0  0  0
   -4.8454   -5.7187    6.1549 C   0  0  0  0  0  0  0  0  0  0  0  0
   -4.3465   -5.6257    4.7715 C   0  0  0  0  0  0  0  0  0  0  0  0
   -5.9640   -6.5255    6.4490 N   0  0  0  0  0  0  0  0  0  0  0  0
   -6.3126   -6.5743    7.8479 C   0  0  0  0  0  0  0  0  0  0  0  0
   -7.5930   -6.8189    8.2269 N   0  0  0  0  0  0  0  0  0  0  0  0
   -6.7820   -7.2987    5.5425 C   0  0  0  0  0  0  0  0  0  0  0  0
   -7.1317   -6.5863    4.2668 C   0  0  0  0  0  0  0  0  0  0  0  0
   -7.0727   -7.6256    3.1680 C   0  0  0  0  0  0  0  0  0  0  0  0
   -6.6855   -8.9142    3.8107 C   0  0  0  0  0  0  0  0  0  0  0  0
   -6.2924   -8.6675    5.2336 C   0  0  0  0  0  0  0  0  0  0  0  0
  -11.6146   -6.4329    9.8141 C   0  0  0  0  0  0  0  0  0  0  0  0
  -12.8356   -6.3808    9.1830 C   0  0  0  0  0  0  0  0  0  0  0  0
  -13.0766   -7.0006    7.9836 C   0  0  0  0  0  0  0  0  0  0  0  0
  -12.0117   -7.6869    7.4404 C   0  0  0  0  0  0  0  0  0  0  0  0
  -10.7606   -7.7514    8.0681 C   0  0  0  0  0  0  0  0  0  0  0  0
  -10.5232   -7.1290    9.2701 C   0  0  0  0  0  0  0  0  0  0  0  0
  -14.3682   -6.9550    7.3040 C   0  0  0  0  0  0  0  0  0  0  0  0
  -15.3530   -7.5152    7.8282 O   0  0  0  0  0  0  0  0  0  0  0  0
  -14.5040   -6.2862    6.0694 N   0  0  0  0  0  0  0  0  0  0  0  0
  -13.7558   -5.7901    5.5490 H   0  0  0  0  0  0  0  0  0  0  0  0
  -15.8145   -6.2720    5.4360 C   0  0  0  0  0  0  0  0  0  0  0  0
  -15.9719   -4.9274    4.7506 C   0  0  0  0  0  0  0  0  0  0  0  0
  -16.9837   -5.2589    3.6732 C   0  0  0  0  0  0  0  0  0  0  0  0
  -16.8136   -6.6447    3.3556 N   0  0  0  0  0  0  0  0  0  0  0  0
  -18.0581   -7.3862    3.3228 C   0  0  0  0  0  0  0  0  0  0  0  0
  -15.9084   -7.2312    4.2943 C   0  0  0  0  0  0  0  0  0  0  0  0
  -12.4835   -5.5238   11.9087 C   0  0  0  0  0  0  0  0  0  0  0  0
  -11.4214   -5.7812   11.0398 O   0  0  0  0  0  0  0  0  0  0  0  0
 37 38  1  0  0  0
 38 21  1  0  0  0
 21 22  2  0  0  0
 22 23  1  0  0  0
 23 24  2  0  0  0
 24 25  1  0  0  0
 25 26  2  0  0  0
 26  1  1  0  0  0
  1  3  1  0  0  0
  3  4  2  0  0  0
  4  5  1  0  0  0
  5  6  2  0  0  0
  6  7  1  0  0  0
  7  8  1  0  0  0
  7  9  1  0  0  0
  9 10  2  0  0  0
  9 11  1  0  0  0
 11 12  1  0  0  0
 11 13  1  0  0  0
 13 16  1  0  0  0
 16 17  1  0  0  0
 17 18  1  0  0  0
 18 19  1  0  0  0
 19 20  1  0  0  0
 13 14  1  0  0  0
 14 15  2  0  0  0
 23 27  1  0  0  0
 27 28  2  0  0  0
 27 29  1  0  0  0
 29 31  1  0  0  0
 31 32  1  0  0  0
 32 33  1  0  0  0
 33 34  1  0  0  0
 34 35  1  0  0  0
 34 36  1  0  0  0
 26 21  1  0  0  0
 15  3  1  0  0  0
 36 31  1  0  0  0
 14  6  1  0  0  0
 20 16  1  0  0  0
  1  2  1  0  0  0
 29 30  1  0  0  0
M  END
> <minimizedAffinity>
3.50263

> <CNNscore>
0.2790645659

> <CNNaffinity>
7.2642889023

> <CNN_VS>
2.0272057056

> <CNNaffinity_variance>
0.8261895180

$$$$
[H]c1nc(N([H])c2c([H])c([H])c(C(=O)N([H])C3([H])C([H])([H])N(C([H])([H])[H])C([H])([H])C3([H])[H])c([H])c2OC([H])([H])[H])nc2c1N(C([H])([H])[H])C(=O)[C@@]([H])(C([H])([H])[H])N2C1([H])C([H])([H])C([H])([H])C([H])([H])C1([H])[H]


 38 42  0  0  0  0  0  0  0  0999 V2000
   -8.2378   -6.8311    8.0056 N   0  0  0  0  0  0  0  0  0  0  0  0
   -7.4387   -6.2075    8.3551 H   0  0  0  0  0  0  0  0  0  0  0  0
   -9.4608   -6.7319    8.6845 C   0  0  0  0  0  0  0  0  0  0  0  0
   -9.4270   -6.0768    9.8916 N   0  0  0  0  0  0  0  0  0  0  0  0
  -10.4811   -5.8827   10.6680 C   0  0  0  0  0  0  0  0  0  0  0  0
  -11.6945   -6.3719   10.2342 C   0  0  0  0  0  0  0  0  0  0  0  0
  -12.8852   -6.2110   10.9903 N   0  0  0  0  0  0  0  0  0  0  0  0
  -12.8841   -5.5087   12.2800 C   0  0  0  0  0  0  0  0  0  0  0  0
  -14.0898   -6.7444   10.4619 C   0  0  0  0  0  0  0  0  0  0  0  0
  -15.2035   -6.2663   10.7649 O   0  0  0  0  0  0  0  0  0  0  0  0
  -13.9779   -7.8979    9.5305 C   0  0  0  0  0  0  0  0  0  0  0  0
  -15.3149   -8.3917    9.1566 C   0  0  0  0  0  0  0  0  0  0  0  0
  -13.0425   -7.5662    8.5288 N   0  0  0  0  0  0  0  0  0  0  0  0
  -11.7952   -7.0410    9.0282 C   0  0  0  0  0  0  0  0  0  0  0  0
  -10.6534   -7.1860    8.3084 N   0  0  0  0  0  0  0  0  0  0  0  0
  -13.1790   -7.6780    7.0944 C   0  0  0  0  0  0  0  0  0  0  0  0
  -13.2787   -9.0905    6.5924 C   0  0  0  0  0  0  0  0  0  0  0  0
  -14.2898   -9.0725    5.4662 C   0  0  0  0  0  0  0  0  0  0  0  0
  -14.7664   -7.6659    5.3342 C   0  0  0  0  0  0  0  0  0  0  0  0
  -14.2487   -6.8509    6.4778 C   0  0  0  0  0  0  0  0  0  0  0  0
   -6.9398   -7.1884    5.9888 C   0  0  0  0  0  0  0  0  0  0  0  0
   -6.5586   -7.9353    4.8985 C   0  0  0  0  0  0  0  0  0  0  0  0
   -7.0797   -9.1753    4.6312 C   0  0  0  0  0  0  0  0  0  0  0  0
   -8.0188   -9.6356    5.5291 C   0  0  0  0  0  0  0  0  0  0  0  0
   -8.4199   -8.8897    6.6453 C   0  0  0  0  0  0  0  0  0  0  0  0
   -7.8954   -7.6473    6.9096 C   0  0  0  0  0  0  0  0  0  0  0  0
   -6.6854   -9.9776    3.4766 C   0  0  0  0  0  0  0  0  0  0  0  0
   -5.5654   -9.7906    2.9581 O   0  0  0  0  0  0  0  0  0  0  0  0
   -7.5585  -10.9533    2.9515 N   0  0  0  0  0  0  0  0  0  0  0  0
   -8.5056  -11.1896    3.3034 H   0  0  0  0  0  0  0  0  0  0  0  0
   -7.1144  -11.7244    1.7996 C   0  0  0  0  0  0  0  0  0  0  0  0
   -7.8965  -13.0246    1.7958 C   0  0  0  0  0  0  0  0  0  0  0  0
   -7.8415  -13.4011    0.3297 C   0  0  0  0  0  0  0  0  0  0  0  0
   -7.7305  -12.1796   -0.4092 N   0  0  0  0  0  0  0  0  0  0  0  0
   -6.6868  -12.2057   -1.4139 C   0  0  0  0  0  0  0  0  0  0  0  0
   -7.5172  -11.0996    0.5034 C   0  0  0  0  0  0  0  0  0  0  0  0
   -4.9980   -5.7545    6.3664 C   0  0  0  0  0  0  0  0  0  0  0  0
   -6.3755   -5.9257    6.2159 O   0  0  0  0  0  0  0  0  0  0  0  0
 37 38  1  0  0  0
 38 21  1  0  0  0
 21 22  2  0  0  0
 22 23  1  0  0  0
 23 24  2  0  0  0
 24 25  1  0  0  0
 25 26  2  0  0  0
 26  1  1  0  0  0
  1  3  1  0  0  0
  3  4  2  0  0  0
  4  5  1  0  0  0
  5  6  2  0  0  0
  6  7  1  0  0  0
  7  8  1  0  0  0
  7  9  1  0  0  0
  9 10  2  0  0  0
  9 11  1  0  0  0
 11 12  1  0  0  0
 11 13  1  0  0  0
 13 16  1  0  0  0
 16 17  1  0  0  0
 17 18  1  0  0  0
 18 19  1  0  0  0
 19 20  1  0  0  0
 13 14  1  0  0  0
 14 15  2  0  0  0
 23 27  1  0  0  0
 27 28  2  0  0  0
 27 29  1  0  0  0
 29 31  1  0  0  0
 31 32  1  0  0  0
 32 33  1  0  0  0
 33 34  1  0  0  0
 34 35  1  0  0  0
 34 36  1  0  0  0
 26 21  1  0  0  0
 15  3  1  0  0  0
 36 31  1  0  0  0
 14  6  1  0  0  0
 20 16  1  0  0  0
  1  2  1  0  0  0
 29 30  1  0  0  0
M  END
> <minimizedAffinity>
14.78421

> <CNNscore>
0.2716360986

> <CNNaffinity>
6.9298887253

> <CNN_VS>
1.8824079037

> <CNNaffinity_variance>
0.1720339954

$$$$
[H]c1nc(N([H])c2c([H])c([H])c(C(=O)N([H])C3([H])C([H])([H])N(C([H])([H])[H])C([H])([H])C3([H])[H])c([H])c2OC([H])([H])[H])nc2c1N(C([H])([H])[H])C(=O)[C@@]([H])(C([H])([H])[H])N2C1([H])C([H])([H])C([H])([H])C([H])([H])C1([H])[H]


 38 42  0  0  0  0  0  0  0  0999 V2000
  -11.0941   -6.3614    8.0475 N   0  0  0  0  0  0  0  0  0  0  0  0
  -11.1256   -5.7922    8.9556 H   0  0  0  0  0  0  0  0  0  0  0  0
  -12.3228   -6.6358    7.4300 C   0  0  0  0  0  0  0  0  0  0  0  0
  -12.3902   -6.3746    6.0828 N   0  0  0  0  0  0  0  0  0  0  0  0
  -13.4627   -6.5756    5.3339 C   0  0  0  0  0  0  0  0  0  0  0  0
  -14.5876   -7.0815    5.9493 C   0  0  0  0  0  0  0  0  0  0  0  0
  -15.7866   -7.3379    5.2337 N   0  0  0  0  0  0  0  0  0  0  0  0
  -15.8884   -7.0773    3.7921 C   0  0  0  0  0  0  0  0  0  0  0  0
  -16.8934   -7.8634    5.9504 C   0  0  0  0  0  0  0  0  0  0  0  0
  -17.7702   -8.5507    5.3850 O   0  0  0  0  0  0  0  0  0  0  0  0
  -16.9719   -7.5654    7.4048 C   0  0  0  0  0  0  0  0  0  0  0  0
  -18.2241   -8.0941    7.9738 C   0  0  0  0  0  0  0  0  0  0  0  0
  -15.7338   -7.9004    7.9907 N   0  0  0  0  0  0  0  0  0  0  0  0
  -14.5844   -7.3651    7.3027 C   0  0  0  0  0  0  0  0  0  0  0  0
  -13.4326   -7.1224    7.9790 N   0  0  0  0  0  0  0  0  0  0  0  0
  -15.4793   -8.7027    9.1656 C   0  0  0  0  0  0  0  0  0  0  0  0
  -14.3388   -9.6693    9.0175 C   0  0  0  0  0  0  0  0  0  0  0  0
  -13.6118   -9.6776   10.3450 C   0  0  0  0  0  0  0  0  0  0  0  0
  -14.3263   -8.7196   11.2365 C   0  0  0  0  0  0  0  0  0  0  0  0
  -15.3405   -7.9564   10.4433 C   0  0  0  0  0  0  0  0  0  0  0  0
   -9.4968   -8.0930    7.4726 C   0  0  0  0  0  0  0  0  0  0  0  0
   -8.2511   -8.5229    7.0786 C   0  0  0  0  0  0  0  0  0  0  0  0
   -7.2156   -7.6603    6.8253 C   0  0  0  0  0  0  0  0  0  0  0  0
   -7.4986   -6.3213    6.9901 C   0  0  0  0  0  0  0  0  0  0  0  0
   -8.7611   -5.8640    7.3907 C   0  0  0  0  0  0  0  0  0  0  0  0
   -9.7962   -6.7318    7.6438 C   0  0  0  0  0  0  0  0  0  0  0  0
   -5.8881   -8.1033    6.4085 C   0  0  0  0  0  0  0  0  0  0  0  0
   -5.7874   -9.0331    5.5818 O   0  0  0  0  0  0  0  0  0  0  0  0
   -4.7314   -7.4890    6.9326 N   0  0  0  0  0  0  0  0  0  0  0  0
   -4.7010   -6.7123    7.6201 H   0  0  0  0  0  0  0  0  0  0  0  0
   -3.4336   -7.9703    6.4823 C   0  0  0  0  0  0  0  0  0  0  0  0
   -2.3799   -7.0521    7.0731 C   0  0  0  0  0  0  0  0  0  0  0  0
   -1.1678   -7.9603    7.0879 C   0  0  0  0  0  0  0  0  0  0  0  0
   -1.6547   -9.3013    7.2098 N   0  0  0  0  0  0  0  0  0  0  0  0
   -1.0606  -10.2196    6.2595 C   0  0  0  0  0  0  0  0  0  0  0  0
   -3.0782   -9.2953    7.0743 C   0  0  0  0  0  0  0  0  0  0  0  0
  -10.6499  -10.1867    6.9669 C   0  0  0  0  0  0  0  0  0  0  0  0
  -10.5211   -9.0175    7.7189 O   0  0  0  0  0  0  0  0  0  0  0  0
 37 38  1  0  0  0
 38 21  1  0  0  0
 21 22  2  0  0  0
 22 23  1  0  0  0
 23 24  2  0  0  0
 24 25  1  0  0  0
 25 26  2  0  0  0
 26  1  1  0  0  0
  1  3  1  0  0  0
  3  4  2  0  0  0
  4  5  1  0  0  0
  5  6  2  0  0  0
  6  7  1  0  0  0
  7  8  1  0  0  0
  7  9  1  0  0  0
  9 10  2  0  0  0
  9 11  1  0  0  0
 11 12  1  0  0  0
 11 13  1  0  0  0
 13 16  1  0  0  0
 16 17  1  0  0  0
 17 18  1  0  0  0
 18 19  1  0  0  0
 19 20  1  0  0  0
 13 14  1  0  0  0
 14 15  2  0  0  0
 23 27  1  0  0  0
 27 28  2  0  0  0
 27 29  1  0  0  0
 29 31  1  0  0  0
 31 32  1  0  0  0
 32 33  1  0  0  0
 33 34  1  0  0  0
 34 35  1  0  0  0
 34 36  1  0  0  0
 26 21  1  0  0  0
 15  3  1  0  0  0
 36 31  1  0  0  0
 14  6  1  0  0  0
 20 16  1  0  0  0
  1  2  1  0  0  0
 29 30  1  0  0  0
M  END
> <minimizedAffinity>
3.20567

> <CNNscore>
0.2579384148

> <CNNaffinity>
6.8776879311

> <CNN_VS>
1.7740199566

> <CNNaffinity_variance>
0.3152337670

$$$$
[H]ON([H])C(=O)C([H])([H])N(C([H])([H])c1c([H])c([H])c([N+](=O)[O-])c([H])c1[H])S(=O)(=O)c1c([H])c([H])c(Br)c([H])c1[H]


 28 29  0  0  0  0  0  0  0  0999 V2000
  -10.2397   -8.5168    8.0326 N   0  0  0  0  0  0  0  0  0  0  0  0
   -9.8030   -7.0296    7.4219 S   0  0  0  0  0  0  0  0  0  0  0  0
  -10.1852   -6.9152    5.9731 O   0  0  0  0  0  0  0  0  0  0  0  0
  -10.5547   -5.9403    8.1320 O   0  0  0  0  0  0  0  0  0  0  0  0
   -8.1059   -6.6445    7.5995 C   0  0  0  0  0  0  0  0  0  0  0  0
   -7.4052   -6.0079    6.5943 C   0  0  0  0  0  0  0  0  0  0  0  0
   -6.0820   -5.6876    6.6886 C   0  0  0  0  0  0  0  0  0  0  0  0
   -5.3936   -6.0027    7.8267 C   0  0  0  0  0  0  0  0  0  0  0  0
   -3.5296   -5.5510    7.9587 Br  0  0  0  0  0  0  0  0  0  0  0  0
   -6.0418   -6.6367    8.8587 C   0  0  0  0  0  0  0  0  0  0  0  0
   -7.3767   -6.9449    8.7296 C   0  0  0  0  0  0  0  0  0  0  0  0
  -11.0677   -8.5669    9.1756 C   0  0  0  0  0  0  0  0  0  0  0  0
  -14.0214   -6.4136    8.5100 O   0  0  0  0  0  0  0  0  0  0  0  0
  -13.0936   -7.3785    8.3743 N   0  0  0  0  0  0  0  0  0  0  0  0
  -12.0681   -7.5232    9.3260 C   0  0  0  0  0  0  0  0  0  0  0  0
  -12.0297   -6.7431   10.3004 O   0  0  0  0  0  0  0  0  0  0  0  0
  -13.7093   -5.5219    8.2623 H   0  0  0  0  0  0  0  0  0  0  0  0
  -13.1580   -8.0084    7.5507 H   0  0  0  0  0  0  0  0  0  0  0  0
   -9.5622   -9.6744    7.6613 C   0  0  0  0  0  0  0  0  0  0  0  0
   -8.1567   -9.5209    7.2071 C   0  0  0  0  0  0  0  0  0  0  0  0
   -7.0566   -9.7017    8.0164 C   0  0  0  0  0  0  0  0  0  0  0  0
   -5.7636   -9.5474    7.5630 C   0  0  0  0  0  0  0  0  0  0  0  0
   -5.5030   -9.2027    6.2693 C   0  0  0  0  0  0  0  0  0  0  0  0
   -6.5944   -9.0136    5.4280 C   0  0  0  0  0  0  0  0  0  0  0  0
   -7.8846   -9.1690    5.8867 C   0  0  0  0  0  0  0  0  0  0  0  0
   -4.1701   -9.0457    5.8090 N   0  0  0  0  0  0  0  0  0  0  0  0
   -3.6995   -9.9019    4.8514 O   0  0  0  0  0  0  0  0  0  0  0  0
   -3.4267   -8.1587    6.2494 O   0  0  0  0  0  0  0  0  0  0  0  0
 13 14  1  0  0  0
 14 15  1  0  0  0
 15 16  2  0  0  0
 15 12  1  0  0  0
 12  1  1  0  0  0
  1 19  1  0  0  0
 19 20  1  0  0  0
 20 21  2  0  0  0
 21 22  1  0  0  0
 22 23  2  0  0  0
 23 24  1  0  0  0
 24 25  2  0  0  0
 23 26  1  0  0  0
 26 27  1  0  0  0
 26 28  2  0  0  0
  1  2  1  0  0  0
  2  3  2  0  0  0
  2  4  2  0  0  0
  2  5  1  0  0  0
  5  6  2  0  0  0
  6  7  1  0  0  0
  7  8  2  0  0  0
  8  9  1  0  0  0
  8 10  1  0  0  0
 10 11  2  0  0  0
 25 20  1  0  0  0
 11  5  1  0  0  0
 13 17  1  0  0  0
 14 18  1  0  0  0
M  CHG 1  26   1
M  CHG 1  27  -1
M  END
> <minimizedAffinity>
4.35085

> <CNNscore>
0.4393925071

> <CNNaffinity>
5.6003022194

> <CNN_VS>
2.4607307911

> <CNNaffinity_variance>
0.9289494753

$$$$
[H]ON([H])C(=O)C([H])([H])N(C([H])([H])c1c([H])c([H])c([N+](=O)[O-])c([H])c1[H])S(=O)(=O)c1c([H])c([H])c(Br)c([H])c1[H]


 28 29  0  0  0  0  0  0  0  0999 V2000
  -15.8868   -5.2710    4.3134 N   0  0  0  0  0  0  0  0  0  0  0  0
  -14.6658   -4.9801    5.4090 S   0  0  0  0  0  0  0  0  0  0  0  0
  -13.4638   -4.3934    4.7241 O   0  0  0  0  0  0  0  0  0  0  0  0
  -15.1081   -3.9539    6.4126 O   0  0  0  0  0  0  0  0  0  0  0  0
  -14.1728   -6.3818    6.3321 C   0  0  0  0  0  0  0  0  0  0  0  0
  -14.4610   -6.4927    7.6779 C   0  0  0  0  0  0  0  0  0  0  0  0
  -14.0971   -7.5667    8.4373 C   0  0  0  0  0  0  0  0  0  0  0  0
  -13.4117   -8.5978    7.8584 C   0  0  0  0  0  0  0  0  0  0  0  0
  -12.8995  -10.1103    8.9290 Br  0  0  0  0  0  0  0  0  0  0  0  0
  -13.0985   -8.5395    6.5222 C   0  0  0  0  0  0  0  0  0  0  0  0
  -13.4811   -7.4414    5.7864 C   0  0  0  0  0  0  0  0  0  0  0  0
  -17.2256   -5.0751    4.7183 C   0  0  0  0  0  0  0  0  0  0  0  0
  -18.9260   -7.4136    2.3850 O   0  0  0  0  0  0  0  0  0  0  0  0
  -17.9934   -6.6066    2.9228 N   0  0  0  0  0  0  0  0  0  0  0  0
  -18.2357   -5.9461    4.1407 C   0  0  0  0  0  0  0  0  0  0  0  0
  -19.3298   -6.1187    4.7176 O   0  0  0  0  0  0  0  0  0  0  0  0
  -19.6585   -6.9399    1.9456 H   0  0  0  0  0  0  0  0  0  0  0  0
  -17.0955   -6.4876    2.4139 H   0  0  0  0  0  0  0  0  0  0  0  0
  -15.6521   -5.9992    3.1509 C   0  0  0  0  0  0  0  0  0  0  0  0
  -15.6741   -7.4799    3.2626 C   0  0  0  0  0  0  0  0  0  0  0  0
  -14.9653   -8.3296    2.4420 C   0  0  0  0  0  0  0  0  0  0  0  0
  -15.0112   -9.7016    2.5708 C   0  0  0  0  0  0  0  0  0  0  0  0
  -15.7725  -10.2978    3.5327 C   0  0  0  0  0  0  0  0  0  0  0  0
  -16.4996   -9.4649    4.3769 C   0  0  0  0  0  0  0  0  0  0  0  0
  -16.4500   -8.0942    4.2434 C   0  0  0  0  0  0  0  0  0  0  0  0
  -15.8153  -11.7102    3.6601 N   0  0  0  0  0  0  0  0  0  0  0  0
  -16.3199  -12.4492    2.6252 O   0  0  0  0  0  0  0  0  0  0  0  0
  -15.4099  -12.2873    4.6779 O   0  0  0  0  0  0  0  0  0  0  0  0
 13 14  1  0  0  0
 14 15  1  0  0  0
 15 16  2  0  0  0
 15 12  1  0  0  0
 12  1  1  0  0  0
  1 19  1  0  0  0
 19 20  1  0  0  0
 20 21  2  0  0  0
 21 22  1  0  0  0
 22 23  2  0  0  0
 23 24  1  0  0  0
 24 25  2  0  0  0
 23 26  1  0  0  0
 26 27  1  0  0  0
 26 28  2  0  0  0
  1  2  1  0  0  0
  2  3  2  0  0  0
  2  4  2  0  0  0
  2  5  1  0  0  0
  5  6  2  0  0  0
  6  7  1  0  0  0
  7  8  2  0  0  0
  8  9  1  0  0  0
  8 10  1  0  0  0
 10 11  2  0  0  0
 25 20  1  0  0  0
 11  5  1  0  0  0
 13 17  1  0  0  0
 14 18  1  0  0  0
M  CHG 1  26   1
M  CHG 1  27  -1
M  END
> <minimizedAffinity>
15.24064

> <CNNscore>
0.4351297319

> <CNNaffinity>
6.2893128395

> <CNN_VS>
2.7366669178

> <CNNaffinity_variance>
1.9493391514

$$$$
[H]ON([H])C(=O)C([H])([H])N(C([H])([H])c1c([H])c([H])c([N+](=O)[O-])c([H])c1[H])S(=O)(=O)c1c([H])c([H])c(Br)c([H])c1[H]


 28 29  0  0  0  0  0  0  0  0999 V2000
  -15.9553   -7.3339    4.8252 N   0  0  0  0  0  0  0  0  0  0  0  0
  -17.5653   -6.9339    4.9792 S   0  0  0  0  0  0  0  0  0  0  0  0
  -17.7226   -5.6239    5.6983 O   0  0  0  0  0  0  0  0  0  0  0  0
  -18.1782   -6.7337    3.6226 O   0  0  0  0  0  0  0  0  0  0  0  0
  -18.5392   -8.1476    5.7782 C   0  0  0  0  0  0  0  0  0  0  0  0
  -19.3152   -9.0339    5.0578 C   0  0  0  0  0  0  0  0  0  0  0  0
  -20.0896   -9.9963    5.6377 C   0  0  0  0  0  0  0  0  0  0  0  0
  -20.1149  -10.1084    6.9997 C   0  0  0  0  0  0  0  0  0  0  0  0
  -21.2062  -11.4646    7.8158 Br  0  0  0  0  0  0  0  0  0  0  0  0
  -19.3617   -9.2521    7.7655 C   0  0  0  0  0  0  0  0  0  0  0  0
  -18.5922   -8.2932    7.1475 C   0  0  0  0  0  0  0  0  0  0  0  0
  -15.6005   -8.6958    4.7079 C   0  0  0  0  0  0  0  0  0  0  0  0
  -13.7263   -9.1301    1.5293 O   0  0  0  0  0  0  0  0  0  0  0  0
  -14.0764   -8.6837    2.7494 N   0  0  0  0  0  0  0  0  0  0  0  0
  -15.2258   -9.1807    3.3899 C   0  0  0  0  0  0  0  0  0  0  0  0
  -15.9186  -10.0432    2.8105 O   0  0  0  0  0  0  0  0  0  0  0  0
  -14.2563   -8.7548    0.7997 H   0  0  0  0  0  0  0  0  0  0  0  0
  -13.4756   -7.9659    3.1999 H   0  0  0  0  0  0  0  0  0  0  0  0
  -14.9537   -6.4185    5.1345 C   0  0  0  0  0  0  0  0  0  0  0  0
  -14.2386   -6.6058    6.4225 C   0  0  0  0  0  0  0  0  0  0  0  0
  -14.6613   -6.0859    7.6263 C   0  0  0  0  0  0  0  0  0  0  0  0
  -13.9707   -6.2759    8.8045 C   0  0  0  0  0  0  0  0  0  0  0  0
  -12.8155   -7.0000    8.8396 C   0  0  0  0  0  0  0  0  0  0  0  0
  -12.3638   -7.5379    7.6389 C   0  0  0  0  0  0  0  0  0  0  0  0
  -13.0581   -7.3446    6.4643 C   0  0  0  0  0  0  0  0  0  0  0  0
  -12.1096   -7.1919   10.0554 N   0  0  0  0  0  0  0  0  0  0  0  0
  -11.0008   -6.4288   10.2999 O   0  0  0  0  0  0  0  0  0  0  0  0
  -12.4696   -8.0275   10.8953 O   0  0  0  0  0  0  0  0  0  0  0  0
 13 14  1  0  0  0
 14 15  1  0  0  0
 15 16  2  0  0  0
 15 12  1  0  0  0
 12  1  1  0  0  0
  1 19  1  0  0  0
 19 20  1  0  0  0
 20 21  2  0  0  0
 21 22  1  0  0  0
 22 23  2  0  0  0
 23 24  1  0  0  0
 24 25  2  0  0  0
 23 26  1  0  0  0
 26 27  1  0  0  0
 26 28  2  0  0  0
  1  2  1  0  0  0
  2  3  2  0  0  0
  2  4  2  0  0  0
  2  5  1  0  0  0
  5  6  2  0  0  0
  6  7  1  0  0  0
  7  8  2  0  0  0
  8  9  1  0  0  0
  8 10  1  0  0  0
 10 11  2  0  0  0
 25 20  1  0  0  0
 11  5  1  0  0  0
 13 17  1  0  0  0
 14 18  1  0  0  0
M  CHG 1  26   1
M  CHG 1  27  -1
M  END
> <minimizedAffinity>
2.05584

> <CNNscore>
0.4167507589

> <CNNaffinity>
6.4044890404

> <CNN_VS>
2.6690757275

> <CNNaffinity_variance>
2.4072146416

$$$$
[H]ON([H])C(=O)C([H])([H])N(C([H])([H])c1c([H])c([H])c([N+](=O)[O-])c([H])c1[H])S(=O)(=O)c1c([H])c([H])c(Br)c([H])c1[H]


 28 29  0  0  0  0  0  0  0  0999 V2000
   -7.1802   -8.0312    6.5790 N   0  0  0  0  0  0  0  0  0  0  0  0
   -7.9480   -8.7004    7.8974 S   0  0  0  0  0  0  0  0  0  0  0  0
   -7.7210  -10.1849    7.9497 O   0  0  0  0  0  0  0  0  0  0  0  0
   -7.3638   -8.1508    9.1673 O   0  0  0  0  0  0  0  0  0  0  0  0
   -9.6659   -8.3797    7.9741 C   0  0  0  0  0  0  0  0  0  0  0  0
  -10.1539   -7.2067    8.5150 C   0  0  0  0  0  0  0  0  0  0  0  0
  -11.4843   -6.9137    8.5953 C   0  0  0  0  0  0  0  0  0  0  0  0
  -12.4000   -7.8117    8.1226 C   0  0  0  0  0  0  0  0  0  0  0  0
  -14.2741   -7.3981    8.2362 Br  0  0  0  0  0  0  0  0  0  0  0  0
  -11.9696   -8.9952    7.5740 C   0  0  0  0  0  0  0  0  0  0  0  0
  -10.6205   -9.2581    7.5090 C   0  0  0  0  0  0  0  0  0  0  0  0
   -6.3909   -8.8641    5.7557 C   0  0  0  0  0  0  0  0  0  0  0  0
   -7.0425  -10.0786    2.3054 O   0  0  0  0  0  0  0  0  0  0  0  0
   -6.4414   -9.4879    3.3542 N   0  0  0  0  0  0  0  0  0  0  0  0
   -7.0436   -9.5034    4.6253 C   0  0  0  0  0  0  0  0  0  0  0  0
   -8.1456  -10.0734    4.7680 O   0  0  0  0  0  0  0  0  0  0  0  0
   -7.7810   -9.5637    1.9266 H   0  0  0  0  0  0  0  0  0  0  0  0
   -5.5255   -9.0237    3.1969 H   0  0  0  0  0  0  0  0  0  0  0  0
   -7.0270   -6.6532    6.4583 C   0  0  0  0  0  0  0  0  0  0  0  0
   -5.6793   -6.0943    6.7345 C   0  0  0  0  0  0  0  0  0  0  0  0
   -5.1061   -6.0359    7.9860 C   0  0  0  0  0  0  0  0  0  0  0  0
   -3.8526   -5.5064    8.2083 C   0  0  0  0  0  0  0  0  0  0  0  0
   -3.1034   -5.0055    7.1846 C   0  0  0  0  0  0  0  0  0  0  0  0
   -3.6561   -5.0511    5.9089 C   0  0  0  0  0  0  0  0  0  0  0  0
   -4.9095   -5.5813    5.6926 C   0  0  0  0  0  0  0  0  0  0  0  0
   -1.8140   -4.4621    7.4201 N   0  0  0  0  0  0  0  0  0  0  0  0
   -1.3963   -4.2953    8.7121 O   0  0  0  0  0  0  0  0  0  0  0  0
   -1.0621   -4.1372    6.4915 O   0  0  0  0  0  0  0  0  0  0  0  0
 13 14  1  0  0  0
 14 15  1  0  0  0
 15 16  2  0  0  0
 15 12  1  0  0  0
 12  1  1  0  0  0
  1 19  1  0  0  0
 19 20  1  0  0  0
 20 21  2  0  0  0
 21 22  1  0  0  0
 22 23  2  0  0  0
 23 24  1  0  0  0
 24 25  2  0  0  0
 23 26  1  0  0  0
 26 27  1  0  0  0
 26 28  2  0  0  0
  1  2  1  0  0  0
  2  3  2  0  0  0
  2  4  2  0  0  0
  2  5  1  0  0  0
  5  6  2  0  0  0
  6  7  1  0  0  0
  7  8  2  0  0  0
  8  9  1  0  0  0
  8 10  1  0  0  0
 10 11  2  0  0  0
 25 20  1  0  0  0
 11  5  1  0  0  0
 13 17  1  0  0  0
 14 18  1  0  0  0
M  CHG 1  26   1
M  CHG 1  27  -1
M  END
> <minimizedAffinity>
-1.52048

> <CNNscore>
0.4136493206

> <CNNaffinity>
5.4969201088

> <CNN_VS>
2.2737972736

> <CNNaffinity_variance>
0.4424962103

$$$$
[H]ON([H])C(=O)C([H])([H])N(C([H])([H])c1c([H])c([H])c([N+](=O)[O-])c([H])c1[H])S(=O)(=O)c1c([H])c([H])c(Br)c([H])c1[H]


 28 29  0  0  0  0  0  0  0  0999 V2000
  -13.0690   -7.9957    7.6099 N   0  0  0  0  0  0  0  0  0  0  0  0
  -11.8468   -7.4891    8.6224 S   0  0  0  0  0  0  0  0  0  0  0  0
  -12.0222   -6.0419    8.9870 O   0  0  0  0  0  0  0  0  0  0  0  0
  -11.9028   -8.2483    9.9172 O   0  0  0  0  0  0  0  0  0  0  0  0
  -10.2347   -7.7293    7.9874 C   0  0  0  0  0  0  0  0  0  0  0  0
   -9.3953   -6.6619    7.7370 C   0  0  0  0  0  0  0  0  0  0  0  0
   -8.1309   -6.8013    7.2428 C   0  0  0  0  0  0  0  0  0  0  0  0
   -7.6484   -8.0516    6.9739 C   0  0  0  0  0  0  0  0  0  0  0  0
   -5.8671   -8.2470    6.2776 Br  0  0  0  0  0  0  0  0  0  0  0  0
   -8.4413   -9.1494    7.2044 C   0  0  0  0  0  0  0  0  0  0  0  0
   -9.7114   -8.9721    7.7034 C   0  0  0  0  0  0  0  0  0  0  0  0
  -13.9936   -8.9521    8.0843 C   0  0  0  0  0  0  0  0  0  0  0  0
  -17.5872   -8.0138    8.1807 O   0  0  0  0  0  0  0  0  0  0  0  0
  -16.4013   -8.4645    7.7326 N   0  0  0  0  0  0  0  0  0  0  0  0
  -15.2729   -8.4644    8.5723 C   0  0  0  0  0  0  0  0  0  0  0  0
  -15.3861   -8.0399    9.7413 O   0  0  0  0  0  0  0  0  0  0  0  0
  -17.6556   -7.0403    8.2194 H   0  0  0  0  0  0  0  0  0  0  0  0
  -16.3458   -8.8097    6.7544 H   0  0  0  0  0  0  0  0  0  0  0  0
  -13.0114   -7.7615    6.2392 C   0  0  0  0  0  0  0  0  0  0  0  0
  -14.2883   -7.4407    5.5523 C   0  0  0  0  0  0  0  0  0  0  0  0
  -14.9413   -8.2954    4.6914 C   0  0  0  0  0  0  0  0  0  0  0  0
  -16.1249   -7.9641    4.0666 C   0  0  0  0  0  0  0  0  0  0  0  0
  -16.7199   -6.7542    4.2721 C   0  0  0  0  0  0  0  0  0  0  0  0
  -16.0836   -5.8698    5.1369 C   0  0  0  0  0  0  0  0  0  0  0  0
  -14.9006   -6.2063    5.7584 C   0  0  0  0  0  0  0  0  0  0  0  0
  -17.9381   -6.4195    3.6261 N   0  0  0  0  0  0  0  0  0  0  0  0
  -18.6219   -5.3110    4.0448 O   0  0  0  0  0  0  0  0  0  0  0  0
  -18.3950   -7.1012    2.6988 O   0  0  0  0  0  0  0  0  0  0  0  0
 13 14  1  0  0  0
 14 15  1  0  0  0
 15 16  2  0  0  0
 15 12  1  0  0  0
 12  1  1  0  0  0
  1 19  1  0  0  0
 19 20  1  0  0  0
 20 21  2  0  0  0
 21 22  1  0  0  0
 22 23  2  0  0  0
 23 24  1  0  0  0
 24 25  2  0  0  0
 23 26  1  0  0  0
 26 27  1  0  0  0
 26 28  2  0  0  0
  1  2  1  0  0  0
  2  3  2  0  0  0
  2  4  2  0  0  0
  2  5  1  0  0  0
  5  6  2  0  0  0
  6  7  1  0  0  0
  7  8  2  0  0  0
  8  9  1  0  0  0
  8 10  1  0  0  0
 10 11  2  0  0  0
 25 20  1  0  0  0
 11  5  1  0  0  0
 13 17  1  0  0  0
 14 18  1  0  0  0
M  CHG 1  26   1
M  CHG 1  27  -1
M  END
> <minimizedAffinity>
-7.77453

> <CNNscore>
0.3998326659

> <CNNaffinity>
6.5228362083

> <CNN_VS>
2.6080429554

> <CNNaffinity_variance>
0.1083953381

$$$$
[H]ON([H])C(=O)C([H])([H])N(C([H])([H])c1c([H])c([H])c([N+](=O)[O-])c([H])c1[H])S(=O)(=O)c1c([H])c([H])c(Br)c([H])c1[H]


 28 29  0  0  0  0  0  0  0  0999 V2000
  -12.2365   -7.8514    8.8295 N   0  0  0  0  0  0  0  0  0  0  0  0
  -13.7192   -7.1546    9.1323 S   0  0  0  0  0  0  0  0  0  0  0  0
  -14.4248   -7.8676   10.2511 O   0  0  0  0  0  0  0  0  0  0  0  0
  -13.5372   -5.7383    9.5983 O   0  0  0  0  0  0  0  0  0  0  0  0
  -14.7794   -7.0766    7.7430 C   0  0  0  0  0  0  0  0  0  0  0  0
  -14.4551   -6.3205    6.6340 C   0  0  0  0  0  0  0  0  0  0  0  0
  -15.2502   -6.2303    5.5286 C   0  0  0  0  0  0  0  0  0  0  0  0
  -16.4329   -6.9145    5.4937 C   0  0  0  0  0  0  0  0  0  0  0  0
  -17.5524   -6.7868    3.9360 Br  0  0  0  0  0  0  0  0  0  0  0  0
  -16.8050   -7.6825    6.5702 C   0  0  0  0  0  0  0  0  0  0  0  0
  -15.9790   -7.7507    7.6686 C   0  0  0  0  0  0  0  0  0  0  0  0
  -12.1661   -9.2501    8.6475 C   0  0  0  0  0  0  0  0  0  0  0  0
  -13.7510   -9.8702    5.3448 O   0  0  0  0  0  0  0  0  0  0  0  0
  -12.9756   -9.3307    6.3030 N   0  0  0  0  0  0  0  0  0  0  0  0
  -13.0053   -9.8358    7.6154 C   0  0  0  0  0  0  0  0  0  0  0  0
  -13.7622  -10.7931    7.8804 O   0  0  0  0  0  0  0  0  0  0  0  0
  -14.6890   -9.6023    5.3925 H   0  0  0  0  0  0  0  0  0  0  0  0
  -12.3590   -8.5355    6.0448 H   0  0  0  0  0  0  0  0  0  0  0  0
  -11.0534   -7.1605    9.0741 C   0  0  0  0  0  0  0  0  0  0  0  0
   -9.8723   -7.5269    8.2519 C   0  0  0  0  0  0  0  0  0  0  0  0
   -9.3731   -8.8060    8.1392 C   0  0  0  0  0  0  0  0  0  0  0  0
   -8.2709   -9.1114    7.3691 C   0  0  0  0  0  0  0  0  0  0  0  0
   -7.6076   -8.1478    6.6679 C   0  0  0  0  0  0  0  0  0  0  0  0
   -8.0889   -6.8460    6.7622 C   0  0  0  0  0  0  0  0  0  0  0  0
   -9.1909   -6.5467    7.5335 C   0  0  0  0  0  0  0  0  0  0  0  0
   -6.4741   -8.4686    5.8772 N   0  0  0  0  0  0  0  0  0  0  0  0
   -5.2271   -8.2455    6.3937 O   0  0  0  0  0  0  0  0  0  0  0  0
   -6.5844   -8.9426    4.7385 O   0  0  0  0  0  0  0  0  0  0  0  0
 13 14  1  0  0  0
 14 15  1  0  0  0
 15 16  2  0  0  0
 15 12  1  0  0  0
 12  1  1  0  0  0
  1 19  1  0  0  0
 19 20  1  0  0  0
 20 21  2  0  0  0
 21 22  1  0  0  0
 22 23  2  0  0  0
 23 24  1  0  0  0
 24 25  2  0  0  0
 23 26  1  0  0  0
 26 27  1  0  0  0
 26 28  2  0  0  0
  1  2  1  0  0  0
  2  3  2  0  0  0
  2  4  2  0  0  0
  2  5  1  0  0  0
  5  6  2  0  0  0
  6  7  1  0  0  0
  7  8  2  0  0  0
  8  9  1  0  0  0
  8 10  1  0  0  0
 10 11  2  0  0  0
 25 20  1  0  0  0
 11  5  1  0  0  0
 13 17  1  0  0  0
 14 18  1  0  0  0
M  CHG 1  26   1
M  CHG 1  27  -1
M  END
> <minimizedAffinity>
-8.25337

> <CNNscore>
0.2832136750

> <CNNaffinity>
6.1712007523

> <CNN_VS>
1.7477684021

> <CNNaffinity_variance>
0.0060125440

$$$$
[H]ON([H])C(=O)C([H])([H])N(C([H])([H])c1c([H])c([H])c([N+](=O)[O-])c([H])c1[H])S(=O)(=O)c1c([H])c([H])c(Br)c([H])c1[H]


 28 29  0  0  0  0  0  0  0  0999 V2000
   -8.2217   -8.0067    7.1070 N   0  0  0  0  0  0  0  0  0  0  0  0
   -7.8403   -6.4176    6.7832 S   0  0  0  0  0  0  0  0  0  0  0  0
   -8.0310   -6.1102    5.3246 O   0  0  0  0  0  0  0  0  0  0  0  0
   -8.7755   -5.5029    7.5212 O   0  0  0  0  0  0  0  0  0  0  0  0
   -6.2242   -5.9493    7.2615 C   0  0  0  0  0  0  0  0  0  0  0  0
   -5.8167   -6.0199    8.5790 C   0  0  0  0  0  0  0  0  0  0  0  0
   -4.5670   -5.6661    8.9980 C   0  0  0  0  0  0  0  0  0  0  0  0
   -3.6545   -5.2158    8.0853 C   0  0  0  0  0  0  0  0  0  0  0  0
   -1.8943   -4.7176    8.6765 Br  0  0  0  0  0  0  0  0  0  0  0  0
   -4.0069   -5.1255    6.7607 C   0  0  0  0  0  0  0  0  0  0  0  0
   -5.2758   -5.4908    6.3732 C   0  0  0  0  0  0  0  0  0  0  0  0
   -9.0305   -8.2980    8.2274 C   0  0  0  0  0  0  0  0  0  0  0  0
  -12.0919  -10.1441    7.2154 O   0  0  0  0  0  0  0  0  0  0  0  0
  -10.7980   -9.8534    7.4431 N   0  0  0  0  0  0  0  0  0  0  0  0
  -10.4294   -8.6081    7.9831 C   0  0  0  0  0  0  0  0  0  0  0  0
  -11.3201   -7.7740    8.2489 O   0  0  0  0  0  0  0  0  0  0  0  0
  -12.4606   -9.7237    6.4147 H   0  0  0  0  0  0  0  0  0  0  0  0
  -10.0855  -10.5723    7.2093 H   0  0  0  0  0  0  0  0  0  0  0  0
   -7.5143   -9.0508    6.5185 C   0  0  0  0  0  0  0  0  0  0  0  0
   -6.0348   -8.9292    6.4784 C   0  0  0  0  0  0  0  0  0  0  0  0
   -5.2232   -8.9726    7.5908 C   0  0  0  0  0  0  0  0  0  0  0  0
   -3.8515   -8.8526    7.5185 C   0  0  0  0  0  0  0  0  0  0  0  0
   -3.2173   -8.6825    6.3230 C   0  0  0  0  0  0  0  0  0  0  0  0
   -4.0111   -8.6350    5.1817 C   0  0  0  0  0  0  0  0  0  0  0  0
   -5.3816   -8.7553    5.2600 C   0  0  0  0  0  0  0  0  0  0  0  0
   -1.8054   -8.5598    6.2555 N   0  0  0  0  0  0  0  0  0  0  0  0
   -1.2586   -7.3120    6.1302 O   0  0  0  0  0  0  0  0  0  0  0  0
   -1.0603   -9.5475    6.3066 O   0  0  0  0  0  0  0  0  0  0  0  0
 13 14  1  0  0  0
 14 15  1  0  0  0
 15 16  2  0  0  0
 15 12  1  0  0  0
 12  1  1  0  0  0
  1 19  1  0  0  0
 19 20  1  0  0  0
 20 21  2  0  0  0
 21 22  1  0  0  0
 22 23  2  0  0  0
 23 24  1  0  0  0
 24 25  2  0  0  0
 23 26  1  0  0  0
 26 27  1  0  0  0
 26 28  2  0  0  0
  1  2  1  0  0  0
  2  3  2  0  0  0
  2  4  2  0  0  0
  2  5  1  0  0  0
  5  6  2  0  0  0
  6  7  1  0  0  0
  7  8  2  0  0  0
  8  9  1  0  0  0
  8 10  1  0  0  0
 10 11  2  0  0  0
 25 20  1  0  0  0
 11  5  1  0  0  0
 13 17  1  0  0  0
 14 18  1  0  0  0
M  CHG 1  26   1
M  CHG 1  27  -1
M  END
> <minimizedAffinity>
-0.34162

> <CNNscore>
0.2265781909

> <CNNaffinity>
5.2407717705

> <CNN_VS>
1.1874445677

> <CNNaffinity_variance>
0.3910377920

$$$$
[H]ON([H])C(=O)C([H])([H])N(C([H])([H])c1c([H])c([H])c([N+](=O)[O-])c([H])c1[H])S(=O)(=O)c1c([H])c([H])c(Br)c([H])c1[H]


 28 29  0  0  0  0  0  0  0  0999 V2000
  -13.5442   -7.9602    7.9371 N   0  0  0  0  0  0  0  0  0  0  0  0
  -12.2856   -8.2381    8.9927 S   0  0  0  0  0  0  0  0  0  0  0  0
  -12.3108   -7.2495   10.1242 O   0  0  0  0  0  0  0  0  0  0  0  0
  -12.4345   -9.5916    9.6267 O   0  0  0  0  0  0  0  0  0  0  0  0
  -10.7016   -8.2205    8.2508 C   0  0  0  0  0  0  0  0  0  0  0  0
  -10.1248   -9.3760    7.7622 C   0  0  0  0  0  0  0  0  0  0  0  0
   -8.8930   -9.4100    7.1758 C   0  0  0  0  0  0  0  0  0  0  0  0
   -8.1743   -8.2538    7.0543 C   0  0  0  0  0  0  0  0  0  0  0  0
   -6.4391   -8.3026    6.2281 Br  0  0  0  0  0  0  0  0  0  0  0  0
   -8.7005   -7.0748    7.5235 C   0  0  0  0  0  0  0  0  0  0  0  0
   -9.9456   -7.0770    8.1094 C   0  0  0  0  0  0  0  0  0  0  0  0
  -14.1062   -9.0552    7.2446 C   0  0  0  0  0  0  0  0  0  0  0  0
  -14.2766   -9.2278    3.5371 O   0  0  0  0  0  0  0  0  0  0  0  0
  -14.6388   -9.0506    4.8207 N   0  0  0  0  0  0  0  0  0  0  0  0
  -13.7109   -9.2477    5.8592 C   0  0  0  0  0  0  0  0  0  0  0  0
  -12.5442   -9.5900    5.5739 O   0  0  0  0  0  0  0  0  0  0  0  0
  -14.2184  -10.1638    3.2643 H   0  0  0  0  0  0  0  0  0  0  0  0
  -15.6180   -8.7658    5.0190 H   0  0  0  0  0  0  0  0  0  0  0  0
  -13.8296   -6.6773    7.4794 C   0  0  0  0  0  0  0  0  0  0  0  0
  -15.0268   -6.5165    6.6156 C   0  0  0  0  0  0  0  0  0  0  0  0
  -16.2530   -7.0878    6.8765 C   0  0  0  0  0  0  0  0  0  0  0  0
  -17.3444   -6.9211    6.0505 C   0  0  0  0  0  0  0  0  0  0  0  0
  -17.2652   -6.1700    4.9148 C   0  0  0  0  0  0  0  0  0  0  0  0
  -16.0391   -5.5801    4.6252 C   0  0  0  0  0  0  0  0  0  0  0  0
  -14.9517   -5.7503    5.4543 C   0  0  0  0  0  0  0  0  0  0  0  0
  -18.3921   -6.0023    4.0691 N   0  0  0  0  0  0  0  0  0  0  0  0
  -18.6780   -6.9772    3.1529 O   0  0  0  0  0  0  0  0  0  0  0  0
  -19.1187   -5.0021    4.1390 O   0  0  0  0  0  0  0  0  0  0  0  0
 13 14  1  0  0  0
 14 15  1  0  0  0
 15 16  2  0  0  0
 15 12  1  0  0  0
 12  1  1  0  0  0
  1 19  1  0  0  0
 19 20  1  0  0  0
 20 21  2  0  0  0
 21 22  1  0  0  0
 22 23  2  0  0  0
 23 24  1  0  0  0
 24 25  2  0  0  0
 23 26  1  0  0  0
 26 27  1  0  0  0
 26 28  2  0  0  0
  1  2  1  0  0  0
  2  3  2  0  0  0
  2  4  2  0  0  0
  2  5  1  0  0  0
  5  6  2  0  0  0
  6  7  1  0  0  0
  7  8  2  0  0  0
  8  9  1  0  0  0
  8 10  1  0  0  0
 10 11  2  0  0  0
 25 20  1  0  0  0
 11  5  1  0  0  0
 13 17  1  0  0  0
 14 18  1  0  0  0
M  CHG 1  26   1
M  CHG 1  27  -1
M  END
> <minimizedAffinity>
-7.79800

> <CNNscore>
0.2176589817

> <CNNaffinity>
6.0402894020

> <CNN_VS>
1.3147232533

> <CNNaffinity_variance>
0.0865358040

$$$$
[H]ON([H])C(=O)C([H])([H])N(C([H])([H])c1c([H])c([H])c([N+](=O)[O-])c([H])c1[H])S(=O)(=O)c1c([H])c([H])c(Br)c([H])c1[H]


 28 29  0  0  0  0  0  0  0  0999 V2000
  -12.1085   -8.4869    8.1439 N   0  0  0  0  0  0  0  0  0  0  0  0
  -12.8826   -9.5337    7.1044 S   0  0  0  0  0  0  0  0  0  0  0  0
  -11.9125  -10.1196    6.1177 O   0  0  0  0  0  0  0  0  0  0  0  0
  -13.4436  -10.6982    7.8694 O   0  0  0  0  0  0  0  0  0  0  0  0
  -14.2280   -8.8287    6.2366 C   0  0  0  0  0  0  0  0  0  0  0  0
  -14.3172   -8.9108    4.8611 C   0  0  0  0  0  0  0  0  0  0  0  0
  -15.3473   -8.3768    4.1427 C   0  0  0  0  0  0  0  0  0  0  0  0
  -16.3541   -7.7226    4.7958 C   0  0  0  0  0  0  0  0  0  0  0  0
  -17.8048   -6.9706    3.7829 Br  0  0  0  0  0  0  0  0  0  0  0  0
  -16.3157   -7.6112    6.1644 C   0  0  0  0  0  0  0  0  0  0  0  0
  -15.2618   -8.1617    6.8573 C   0  0  0  0  0  0  0  0  0  0  0  0
  -12.4512   -8.5105    9.5138 C   0  0  0  0  0  0  0  0  0  0  0  0
  -13.3347   -5.1478   10.8238 O   0  0  0  0  0  0  0  0  0  0  0  0
  -12.6132   -6.1783   10.3467 N   0  0  0  0  0  0  0  0  0  0  0  0
  -13.2343   -7.3997   10.0290 C   0  0  0  0  0  0  0  0  0  0  0  0
  -14.4666   -7.5154   10.1958 O   0  0  0  0  0  0  0  0  0  0  0  0
  -13.5775   -5.2328   11.7660 H   0  0  0  0  0  0  0  0  0  0  0  0
  -11.5906   -6.0445   10.2213 H   0  0  0  0  0  0  0  0  0  0  0  0
  -11.3956   -7.3922    7.6640 C   0  0  0  0  0  0  0  0  0  0  0  0
   -9.9211   -7.5355    7.5621 C   0  0  0  0  0  0  0  0  0  0  0  0
   -9.2411   -8.7160    7.7674 C   0  0  0  0  0  0  0  0  0  0  0  0
   -7.8693   -8.8135    7.6684 C   0  0  0  0  0  0  0  0  0  0  0  0
   -7.1027   -7.7293    7.3569 C   0  0  0  0  0  0  0  0  0  0  0  0
   -7.7617   -6.5230    7.1437 C   0  0  0  0  0  0  0  0  0  0  0  0
   -9.1330   -6.4314    7.2442 C   0  0  0  0  0  0  0  0  0  0  0  0
   -5.6914   -7.8364    7.2565 N   0  0  0  0  0  0  0  0  0  0  0  0
   -4.9146   -7.1625    8.1587 O   0  0  0  0  0  0  0  0  0  0  0  0
   -5.1486   -8.5202    6.3783 O   0  0  0  0  0  0  0  0  0  0  0  0
 13 14  1  0  0  0
 14 15  1  0  0  0
 15 16  2  0  0  0
 15 12  1  0  0  0
 12  1  1  0  0  0
  1 19  1  0  0  0
 19 20  1  0  0  0
 20 21  2  0  0  0
 21 22  1  0  0  0
 22 23  2  0  0  0
 23 24  1  0  0  0
 24 25  2  0  0  0
 23 26  1  0  0  0
 26 27  1  0  0  0
 26 28  2  0  0  0
  1  2  1  0  0  0
  2  3  2  0  0  0
  2  4  2  0  0  0
  2  5  1  0  0  0
  5  6  2  0  0  0
  6  7  1  0  0  0
  7  8  2  0  0  0
  8  9  1  0  0  0
  8 10  1  0  0  0
 10 11  2  0  0  0
 25 20  1  0  0  0
 11  5  1  0  0  0
 13 17  1  0  0  0
 14 18  1  0  0  0
M  CHG 1  26   1
M  CHG 1  27  -1
M  END
> <minimizedAffinity>
-8.13043

> <CNNscore>
0.1826165617

> <CNNaffinity>
6.0055704117

> <CNN_VS>
1.0967166424

> <CNNaffinity_variance>
0.0676842108

$$$$
[H]N=C(c1c([H])c([H])c([H])c(C([H])([H])C([H])(C(=O)N2C([H])([H])C([H])([H])C([H])(C([H])([H])[H])C([H])([H])C2([H])[H])N([H])S(=O)(=O)c2c([H])c([H])c3c([H])c([H])c([H])c([H])c3c2[H])c1[H])N([H])[H]


 38 41  0  0  0  0  0  0  0  0999 V2000
  -10.9510   -8.4014    7.4801 C   0  0  0  0  0  0  0  0  0  0  0  0
   -5.6724   -5.9808    7.7510 C   0  0  0  0  0  0  0  0  0  0  0  0
   -5.8929   -7.0405    6.6829 C   0  0  0  0  0  0  0  0  0  0  0  0
   -7.1724   -6.7191    5.9238 C   0  0  0  0  0  0  0  0  0  0  0  0
   -8.3121   -6.9741    6.9264 C   0  0  0  0  0  0  0  0  0  0  0  0
   -8.4066   -8.3986    7.0507 N   0  0  0  0  0  0  0  0  0  0  0  0
   -7.1918   -9.1674    6.9236 C   0  0  0  0  0  0  0  0  0  0  0  0
   -5.9659   -8.3865    7.3475 C   0  0  0  0  0  0  0  0  0  0  0  0
   -9.6202   -9.0378    7.2868 C   0  0  0  0  0  0  0  0  0  0  0  0
   -9.5890  -10.3194    7.3412 O   0  0  0  0  0  0  0  0  0  0  0  0
  -11.8224   -9.0209    6.5355 N   0  0  0  0  0  0  0  0  0  0  0  0
  -11.4680   -9.2106    5.6057 H   0  0  0  0  0  0  0  0  0  0  0  0
  -13.3726   -9.3834    6.9786 S   0  0  0  0  0  0  0  0  0  0  0  0
  -13.7388  -10.8286    6.9638 O   0  0  0  0  0  0  0  0  0  0  0  0
  -13.7410   -8.8077    8.3407 O   0  0  0  0  0  0  0  0  0  0  0  0
  -14.4729   -8.5969    5.8364 C   0  0  0  0  0  0  0  0  0  0  0  0
  -14.5426   -8.9872    4.5164 C   0  0  0  0  0  0  0  0  0  0  0  0
  -15.3949   -8.3859    3.6140 C   0  0  0  0  0  0  0  0  0  0  0  0
  -16.2140   -7.3628    4.0099 C   0  0  0  0  0  0  0  0  0  0  0  0
  -17.0699   -6.7641    3.0896 C   0  0  0  0  0  0  0  0  0  0  0  0
  -17.8953   -5.7334    3.4880 C   0  0  0  0  0  0  0  0  0  0  0  0
  -17.8373   -5.3313    4.8059 C   0  0  0  0  0  0  0  0  0  0  0  0
  -16.9849   -5.9233    5.7340 C   0  0  0  0  0  0  0  0  0  0  0  0
  -16.1658   -6.9514    5.3240 C   0  0  0  0  0  0  0  0  0  0  0  0
  -15.3007   -7.5650    6.2300 C   0  0  0  0  0  0  0  0  0  0  0  0
  -11.3582   -8.6384    8.9011 C   0  0  0  0  0  0  0  0  0  0  0  0
  -11.9374   -7.4438    9.5648 C   0  0  0  0  0  0  0  0  0  0  0  0
  -12.9984   -7.6589   10.4028 C   0  0  0  0  0  0  0  0  0  0  0  0
  -13.6175   -6.6320   11.0744 C   0  0  0  0  0  0  0  0  0  0  0  0
  -13.1633   -5.3473   10.9046 C   0  0  0  0  0  0  0  0  0  0  0  0
  -12.0838   -5.1277   10.0523 C   0  0  0  0  0  0  0  0  0  0  0  0
  -11.4884   -6.1724    9.3973 C   0  0  0  0  0  0  0  0  0  0  0  0
  -11.6234   -3.7433    9.8945 C   0  0  0  0  0  0  0  0  0  0  0  0
  -12.4387   -2.6596   10.2974 N   0  0  0  0  0  0  0  0  0  0  0  0
  -10.4693   -3.4872    9.3870 N   0  0  0  0  0  0  0  0  0  0  0  0
  -12.5026   -1.7851    9.7380 H   0  0  0  0  0  0  0  0  0  0  0  0
  -12.9975   -2.7180   11.1734 H   0  0  0  0  0  0  0  0  0  0  0  0
  -10.0868   -2.5422    9.2487 H   0  0  0  0  0  0  0  0  0  0  0  0
  2  3  1  0  0  0
  3  4  1  0  0  0
  4  5  1  0  0  0
  5  6  1  0  0  0
  6  7  1  0  0  0
  7  8  1  0  0  0
  6  9  1  0  0  0
  9 10  2  0  0  0
  9  1  1  0  0  0
  1 26  1  0  0  0
 26 27  1  0  0  0
 27 28  2  0  0  0
 28 29  1  0  0  0
 29 30  2  0  0  0
 30 31  1  0  0  0
 31 32  2  0  0  0
 31 33  1  0  0  0
 33 34  1  0  0  0
 33 35  2  0  0  0
  1 11  1  0  0  0
 11 13  1  0  0  0
 13 14  2  0  0  0
 13 15  2  0  0  0
 13 16  1  0  0  0
 16 17  2  0  0  0
 17 18  1  0  0  0
 18 19  2  0  0  0
 19 20  1  0  0  0
 20 21  2  0  0  0
 21 22  1  0  0  0
 22 23  2  0  0  0
 23 24  1  0  0  0
 24 25  2  0  0  0
  8  3  1  0  0  0
 32 27  1  0  0  0
 25 16  1  0  0  0
 24 19  1  0  0  0
 34 36  1  0  0  0
 34 37  1  0  0  0
 35 38  1  0  0  0
 11 12  1  0  0  0
M  END
> <minimizedAffinity>
-5.80756

> <CNNscore>
0.4075807333

> <CNNaffinity>
7.2852835655

> <CNN_VS>
2.9693412781

> <CNNaffinity_variance>
0.2738188505

$$$$
[H]N=C(c1c([H])c([H])c([H])c(C([H])([H])C([H])(C(=O)N2C([H])([H])C([H])([H])C([H])(C([H])([H])[H])C([H])([H])C2([H])[H])N([H])S(=O)(=O)c2c([H])c([H])c3c([H])c([H])c([H])c([H])c3c2[H])c1[H])N([H])[H]


 38 41  0  0  0  0  0  0  0  0999 V2000
  -14.2856   -8.0014    8.8782 C   0  0  0  0  0  0  0  0  0  0  0  0
  -15.5264   -7.1794    3.2585 C   0  0  0  0  0  0  0  0  0  0  0  0
  -16.5425   -6.6757    4.2716 C   0  0  0  0  0  0  0  0  0  0  0  0
  -15.8201   -5.8570    5.3318 C   0  0  0  0  0  0  0  0  0  0  0  0
  -14.9873   -6.8753    6.1310 C   0  0  0  0  0  0  0  0  0  0  0  0
  -15.9287   -7.6040    6.9287 N   0  0  0  0  0  0  0  0  0  0  0  0
  -17.2484   -7.8177    6.3850 C   0  0  0  0  0  0  0  0  0  0  0  0
  -17.2512   -7.8576    4.8715 C   0  0  0  0  0  0  0  0  0  0  0  0
  -15.5999   -8.0978    8.1877 C   0  0  0  0  0  0  0  0  0  0  0  0
  -16.5352   -8.7013    8.8260 O   0  0  0  0  0  0  0  0  0  0  0  0
  -13.3009   -7.9861    7.8461 N   0  0  0  0  0  0  0  0  0  0  0  0
  -13.0159   -7.0916    7.4655 H   0  0  0  0  0  0  0  0  0  0  0  0
  -12.6812   -9.4156    7.2952 S   0  0  0  0  0  0  0  0  0  0  0  0
  -12.9727  -10.6204    8.1238 O   0  0  0  0  0  0  0  0  0  0  0  0
  -13.0859   -9.7121    5.8561 O   0  0  0  0  0  0  0  0  0  0  0  0
  -10.9170   -9.2751    7.2549 C   0  0  0  0  0  0  0  0  0  0  0  0
  -10.1063  -10.3867    7.1731 C   0  0  0  0  0  0  0  0  0  0  0  0
   -8.7305  -10.2946    7.1396 C   0  0  0  0  0  0  0  0  0  0  0  0
   -8.1162   -9.0721    7.1875 C   0  0  0  0  0  0  0  0  0  0  0  0
   -6.7268   -8.9925    7.1529 C   0  0  0  0  0  0  0  0  0  0  0  0
   -6.1075   -7.7611    7.2010 C   0  0  0  0  0  0  0  0  0  0  0  0
   -6.9051   -6.6391    7.2830 C   0  0  0  0  0  0  0  0  0  0  0  0
   -8.2952   -6.7079    7.3183 C   0  0  0  0  0  0  0  0  0  0  0  0
   -8.9017   -7.9431    7.2696 C   0  0  0  0  0  0  0  0  0  0  0  0
  -10.2924   -8.0452    7.3031 C   0  0  0  0  0  0  0  0  0  0  0  0
  -14.3009   -6.7479    9.6966 C   0  0  0  0  0  0  0  0  0  0  0  0
  -12.9609   -6.3339   10.1822 C   0  0  0  0  0  0  0  0  0  0  0  0
  -11.9888   -6.1608    9.2339 C   0  0  0  0  0  0  0  0  0  0  0  0
  -10.7101   -5.7779    9.5613 C   0  0  0  0  0  0  0  0  0  0  0  0
  -10.3899   -5.5603   10.8788 C   0  0  0  0  0  0  0  0  0  0  0  0
  -11.3784   -5.7362   11.8442 C   0  0  0  0  0  0  0  0  0  0  0  0
  -12.6434   -6.1184   11.4857 C   0  0  0  0  0  0  0  0  0  0  0  0
  -11.0028   -5.4944   13.2419 C   0  0  0  0  0  0  0  0  0  0  0  0
   -9.7715   -5.9686   13.7524 N   0  0  0  0  0  0  0  0  0  0  0  0
  -11.7852   -4.8462   14.0312 N   0  0  0  0  0  0  0  0  0  0  0  0
   -9.6935   -6.3694   14.7090 H   0  0  0  0  0  0  0  0  0  0  0  0
   -8.9088   -5.9246   13.1721 H   0  0  0  0  0  0  0  0  0  0  0  0
  -11.5832   -4.6427   15.0192 H   0  0  0  0  0  0  0  0  0  0  0  0
  2  3  1  0  0  0
  3  4  1  0  0  0
  4  5  1  0  0  0
  5  6  1  0  0  0
  6  7  1  0  0  0
  7  8  1  0  0  0
  6  9  1  0  0  0
  9 10  2  0  0  0
  9  1  1  0  0  0
  1 26  1  0  0  0
 26 27  1  0  0  0
 27 28  2  0  0  0
 28 29  1  0  0  0
 29 30  2  0  0  0
 30 31  1  0  0  0
 31 32  2  0  0  0
 31 33  1  0  0  0
 33 34  1  0  0  0
 33 35  2  0  0  0
  1 11  1  0  0  0
 11 13  1  0  0  0
 13 14  2  0  0  0
 13 15  2  0  0  0
 13 16  1  0  0  0
 16 17  2  0  0  0
 17 18  1  0  0  0
 18 19  2  0  0  0
 19 20  1  0  0  0
 20 21  2  0  0  0
 21 22  1  0  0  0
 22 23  2  0  0  0
 23 24  1  0  0  0
 24 25  2  0  0  0
  8  3  1  0  0  0
 32 27  1  0  0  0
 25 16  1  0  0  0
 24 19  1  0  0  0
 34 36  1  0  0  0
 34 37  1  0  0  0
 35 38  1  0  0  0
 11 12  1  0  0  0
M  END
> <minimizedAffinity>
-5.41060

> <CNNscore>
0.4031553268

> <CNNaffinity>
7.2574586868

> <CNN_VS>
2.9258830547

> <CNNaffinity_variance>
0.0825925469

$$$$
[H]N=C(c1c([H])c([H])c([H])c(C([H])([H])C([H])(C(=O)N2C([H])([H])C([H])([H])C([H])(C([H])([H])[H])C([H])([H])C2([H])[H])N([H])S(=O)(=O)c2c([H])c([H])c3c([H])c([H])c([H])c([H])c3c2[H])c1[H])N([H])[H]


 38 41  0  0  0  0  0  0  0  0999 V2000
  -14.5933   -8.8461    8.3913 C   0  0  0  0  0  0  0  0  0  0  0  0
  -15.5667   -7.5493    2.8086 C   0  0  0  0  0  0  0  0  0  0  0  0
  -16.0472   -6.5458    3.8452 C   0  0  0  0  0  0  0  0  0  0  0  0
  -14.9142   -6.2617    4.8210 C   0  0  0  0  0  0  0  0  0  0  0  0
  -14.7408   -7.5605    5.6286 C   0  0  0  0  0  0  0  0  0  0  0  0
  -15.8674   -7.6199    6.5122 N   0  0  0  0  0  0  0  0  0  0  0  0
  -17.1151   -7.0602    6.0507 C   0  0  0  0  0  0  0  0  0  0  0  0
  -17.2508   -7.1136    4.5436 C   0  0  0  0  0  0  0  0  0  0  0  0
  -15.7813   -8.1948    7.7768 C   0  0  0  0  0  0  0  0  0  0  0  0
  -16.8443   -8.1566    8.4945 O   0  0  0  0  0  0  0  0  0  0  0  0
  -13.4680   -8.4021    7.6351 N   0  0  0  0  0  0  0  0  0  0  0  0
  -13.4430   -7.4361    7.3310 H   0  0  0  0  0  0  0  0  0  0  0  0
  -12.2659   -9.4738    7.2646 S   0  0  0  0  0  0  0  0  0  0  0  0
  -12.2192  -10.7177    8.0853 O   0  0  0  0  0  0  0  0  0  0  0  0
  -12.2680   -9.8685    5.7926 O   0  0  0  0  0  0  0  0  0  0  0  0
  -10.7096   -8.6701    7.5208 C   0  0  0  0  0  0  0  0  0  0  0  0
  -10.6287   -7.4223    8.1006 C   0  0  0  0  0  0  0  0  0  0  0  0
   -9.4244   -6.7828    8.3084 C   0  0  0  0  0  0  0  0  0  0  0  0
   -8.2495   -7.3799    7.9378 C   0  0  0  0  0  0  0  0  0  0  0  0
   -7.0405   -6.7241    8.1530 C   0  0  0  0  0  0  0  0  0  0  0  0
   -5.8566   -7.3253    7.7799 C   0  0  0  0  0  0  0  0  0  0  0  0
   -5.9209   -8.5741    7.1983 C   0  0  0  0  0  0  0  0  0  0  0  0
   -7.1246   -9.2383    6.9787 C   0  0  0  0  0  0  0  0  0  0  0  0
   -8.2998   -8.6276    7.3556 C   0  0  0  0  0  0  0  0  0  0  0  0
   -9.5220   -9.2673    7.1490 C   0  0  0  0  0  0  0  0  0  0  0  0
  -14.5430   -8.4227    9.8264 C   0  0  0  0  0  0  0  0  0  0  0  0
  -13.7337   -7.2010   10.0619 C   0  0  0  0  0  0  0  0  0  0  0  0
  -13.9713   -6.1362    9.2348 C   0  0  0  0  0  0  0  0  0  0  0  0
  -13.2859   -4.9512    9.3558 C   0  0  0  0  0  0  0  0  0  0  0  0
  -12.3314   -4.8235   10.3347 C   0  0  0  0  0  0  0  0  0  0  0  0
  -12.0891   -5.9064   11.1766 C   0  0  0  0  0  0  0  0  0  0  0  0
  -12.7891   -7.0740   11.0302 C   0  0  0  0  0  0  0  0  0  0  0  0
  -11.0635   -5.7357   12.2121 C   0  0  0  0  0  0  0  0  0  0  0  0
  -11.4273   -5.4874   13.5566 N   0  0  0  0  0  0  0  0  0  0  0  0
   -9.8130   -5.8086   11.9185 N   0  0  0  0  0  0  0  0  0  0  0  0
  -10.9014   -4.8151   14.1507 H   0  0  0  0  0  0  0  0  0  0  0  0
  -12.2394   -5.9800   13.9820 H   0  0  0  0  0  0  0  0  0  0  0  0
   -9.0452   -5.6987   12.5944 H   0  0  0  0  0  0  0  0  0  0  0  0
  2  3  1  0  0  0
  3  4  1  0  0  0
  4  5  1  0  0  0
  5  6  1  0  0  0
  6  7  1  0  0  0
  7  8  1  0  0  0
  6  9  1  0  0  0
  9 10  2  0  0  0
  9  1  1  0  0  0
  1 26  1  0  0  0
 26 27  1  0  0  0
 27 28  2  0  0  0
 28 29  1  0  0  0
 29 30  2  0  0  0
 30 31  1  0  0  0
 31 32  2  0  0  0
 31 33  1  0  0  0
 33 34  1  0  0  0
 33 35  2  0  0  0
  1 11  1  0  0  0
 11 13  1  0  0  0
 13 14  2  0  0  0
 13 15  2  0  0  0
 13 16  1  0  0  0
 16 17  2  0  0  0
 17 18  1  0  0  0
 18 19  2  0  0  0
 19 20  1  0  0  0
 20 21  2  0  0  0
 21 22  1  0  0  0
 22 23  2  0  0  0
 23 24  1  0  0  0
 24 25  2  0  0  0
  8  3  1  0  0  0
 32 27  1  0  0  0
 25 16  1  0  0  0
 24 19  1  0  0  0
 34 36  1  0  0  0
 34 37  1  0  0  0
 35 38  1  0  0  0
 11 12  1  0  0  0
M  END
> <minimizedAffinity>
-3.88565

> <CNNscore>
0.3331737220

> <CNNaffinity>
7.1907553673

> <CNN_VS>
2.3957707882

> <CNNaffinity_variance>
0.2716907859

$$$$
[H]N=C(c1c([H])c([H])c([H])c(C([H])([H])C([H])(C(=O)N2C([H])([H])C([H])([H])C([H])(C([H])([H])[H])C([H])([H])C2([H])[H])N([H])S(=O)(=O)c2c([H])c([H])c3c([H])c([H])c([H])c([H])c3c2[H])c1[H])N([H])[H]


 38 41  0  0  0  0  0  0  0  0999 V2000
  -10.8334   -7.4121    7.8956 C   0  0  0  0  0  0  0  0  0  0  0  0
   -5.2134   -6.1347    7.1346 C   0  0  0  0  0  0  0  0  0  0  0  0
   -5.7955   -7.2376    6.2646 C   0  0  0  0  0  0  0  0  0  0  0  0
   -7.0924   -6.7429    5.6403 C   0  0  0  0  0  0  0  0  0  0  0  0
   -8.0896   -6.6398    6.8082 C   0  0  0  0  0  0  0  0  0  0  0  0
   -8.4337   -7.9898    7.1436 N   0  0  0  0  0  0  0  0  0  0  0  0
   -7.4227   -9.0051    6.9697 C   0  0  0  0  0  0  0  0  0  0  0  0
   -6.0196   -8.4555    7.1164 C   0  0  0  0  0  0  0  0  0  0  0  0
   -9.6951   -8.3304    7.6230 C   0  0  0  0  0  0  0  0  0  0  0  0
   -9.9009   -9.5759    7.8534 O   0  0  0  0  0  0  0  0  0  0  0  0
  -11.6529   -7.4468    6.7284 N   0  0  0  0  0  0  0  0  0  0  0  0
  -11.4293   -6.8206    5.9641 H   0  0  0  0  0  0  0  0  0  0  0  0
  -12.9408   -8.4808    6.6721 S   0  0  0  0  0  0  0  0  0  0  0  0
  -12.7664   -9.7020    5.8347 O   0  0  0  0  0  0  0  0  0  0  0  0
  -13.4063   -8.9105    8.0582 O   0  0  0  0  0  0  0  0  0  0  0  0
  -14.3174   -7.6128    5.9756 C   0  0  0  0  0  0  0  0  0  0  0  0
  -14.3082   -6.2421    5.8317 C   0  0  0  0  0  0  0  0  0  0  0  0
  -15.3717   -5.5507    5.2901 C   0  0  0  0  0  0  0  0  0  0  0  0
  -16.4909   -6.2181    4.8705 C   0  0  0  0  0  0  0  0  0  0  0  0
  -17.5576   -5.5088    4.3254 C   0  0  0  0  0  0  0  0  0  0  0  0
  -18.6853   -6.1808    3.9025 C   0  0  0  0  0  0  0  0  0  0  0  0
  -18.7099   -7.5528    4.0397 C   0  0  0  0  0  0  0  0  0  0  0  0
  -17.6486   -8.2714    4.5835 C   0  0  0  0  0  0  0  0  0  0  0  0
  -16.5282   -7.5891    5.0021 C   0  0  0  0  0  0  0  0  0  0  0  0
  -15.4484   -8.2805    5.5511 C   0  0  0  0  0  0  0  0  0  0  0  0
  -11.5312   -7.9157    9.1207 C   0  0  0  0  0  0  0  0  0  0  0  0
  -11.9032   -6.8459   10.0799 C   0  0  0  0  0  0  0  0  0  0  0  0
  -12.9722   -6.0604    9.7417 C   0  0  0  0  0  0  0  0  0  0  0  0
  -13.4116   -5.0390   10.5496 C   0  0  0  0  0  0  0  0  0  0  0  0
  -12.7630   -4.7927   11.7346 C   0  0  0  0  0  0  0  0  0  0  0  0
  -11.6753   -5.5915   12.0794 C   0  0  0  0  0  0  0  0  0  0  0  0
  -11.2619   -6.6017   11.2526 C   0  0  0  0  0  0  0  0  0  0  0  0
  -11.0060   -5.3018   13.3527 C   0  0  0  0  0  0  0  0  0  0  0  0
  -11.5484   -4.3583   14.2567 N   0  0  0  0  0  0  0  0  0  0  0  0
   -9.9128   -5.8998   13.6728 N   0  0  0  0  0  0  0  0  0  0  0  0
  -10.9445   -3.6972   14.7857 H   0  0  0  0  0  0  0  0  0  0  0  0
  -12.5764   -4.3076   14.4113 H   0  0  0  0  0  0  0  0  0  0  0  0
   -9.3940   -5.7435   14.5474 H   0  0  0  0  0  0  0  0  0  0  0  0
  2  3  1  0  0  0
  3  4  1  0  0  0
  4  5  1  0  0  0
  5  6  1  0  0  0
  6  7  1  0  0  0
  7  8  1  0  0  0
  6  9  1  0  0  0
  9 10  2  0  0  0
  9  1  1  0  0  0
  1 26  1  0  0  0
 26 27  1  0  0  0
 27 28  2  0  0  0
 28 29  1  0  0  0
 29 30  2  0  0  0
 30 31  1  0  0  0
 31 32  2  0  0  0
 31 33  1  0  0  0
 33 34  1  0  0  0
 33 35  2  0  0  0
  1 11  1  0  0  0
 11 13  1  0  0  0
 13 14  2  0  0  0
 13 15  2  0  0  0
 13 16  1  0  0  0
 16 17  2  0  0  0
 17 18  1  0  0  0
 18 19  2  0  0  0
 19 20  1  0  0  0
 20 21  2  0  0  0
 21 22  1  0  0  0
 22 23  2  0  0  0
 23 24  1  0  0  0
 24 25  2  0  0  0
  8  3  1  0  0  0
 32 27  1  0  0  0
 25 16  1  0  0  0
 24 19  1  0  0  0
 34 36  1  0  0  0
 34 37  1  0  0  0
 35 38  1  0  0  0
 11 12  1  0  0  0
M  END
> <minimizedAffinity>
-5.90773

> <CNNscore>
0.3167266250

> <CNNaffinity>
6.9755120277

> <CNN_VS>
2.2093303204

> <CNNaffinity_variance>
0.1478561461

$$$$
[H]N=C(c1c([H])c([H])c([H])c(C([H])([H])C([H])(C(=O)N2C([H])([H])C([H])([H])C([H])(C([H])([H])[H])C([H])([H])C2([H])[H])N([H])S(=O)(=O)c2c([H])c([H])c3c([H])c([H])c([H])c([H])c3c2[H])c1[H])N([H])[H]


 38 41  0  0  0  0  0  0  0  0999 V2000
  -14.0054   -8.8979    6.4312 C   0  0  0  0  0  0  0  0  0  0  0  0
  -18.3790   -5.7726    4.2176 C   0  0  0  0  0  0  0  0  0  0  0  0
  -18.1295   -7.1423    3.6060 C   0  0  0  0  0  0  0  0  0  0  0  0
  -18.0157   -8.1696    4.7232 C   0  0  0  0  0  0  0  0  0  0  0  0
  -16.6908   -7.8458    5.4367 C   0  0  0  0  0  0  0  0  0  0  0  0
  -15.6555   -8.2799    4.5462 N   0  0  0  0  0  0  0  0  0  0  0  0
  -15.9066   -8.1907    3.1277 C   0  0  0  0  0  0  0  0  0  0  0  0
  -16.8752   -7.0801    2.7804 C   0  0  0  0  0  0  0  0  0  0  0  0
  -14.4413   -8.7735    5.0142 C   0  0  0  0  0  0  0  0  0  0  0  0
  -13.6047   -9.1680    4.1248 O   0  0  0  0  0  0  0  0  0  0  0  0
  -15.1107   -9.4648    7.1328 N   0  0  0  0  0  0  0  0  0  0  0  0
  -15.4525  -10.3724    6.8402 H   0  0  0  0  0  0  0  0  0  0  0  0
  -15.8042   -8.6197    8.3721 S   0  0  0  0  0  0  0  0  0  0  0  0
  -16.7573   -7.5424    7.9797 O   0  0  0  0  0  0  0  0  0  0  0  0
  -16.4937   -9.5269    9.3840 O   0  0  0  0  0  0  0  0  0  0  0  0
  -14.5165   -7.8147    9.2817 C   0  0  0  0  0  0  0  0  0  0  0  0
  -13.6554   -8.5219   10.0928 C   0  0  0  0  0  0  0  0  0  0  0  0
  -12.6464   -7.9104   10.8072 C   0  0  0  0  0  0  0  0  0  0  0  0
  -12.4659   -6.5555   10.7308 C   0  0  0  0  0  0  0  0  0  0  0  0
  -11.4438   -5.9501   11.4567 C   0  0  0  0  0  0  0  0  0  0  0  0
  -11.2616   -4.5852   11.3799 C   0  0  0  0  0  0  0  0  0  0  0  0
  -12.1153   -3.8634   10.5724 C   0  0  0  0  0  0  0  0  0  0  0  0
  -13.1404   -4.4590    9.8426 C   0  0  0  0  0  0  0  0  0  0  0  0
  -13.3122   -5.8226    9.9276 C   0  0  0  0  0  0  0  0  0  0  0  0
  -14.3301   -6.4490    9.2085 C   0  0  0  0  0  0  0  0  0  0  0  0
  -12.7869   -9.7676    6.4499 C   0  0  0  0  0  0  0  0  0  0  0  0
  -11.5698   -9.0817    6.9511 C   0  0  0  0  0  0  0  0  0  0  0  0
  -11.7082   -7.7689    7.3136 C   0  0  0  0  0  0  0  0  0  0  0  0
  -10.6536   -7.0293    7.7929 C   0  0  0  0  0  0  0  0  0  0  0  0
   -9.4194   -7.6188    7.9148 C   0  0  0  0  0  0  0  0  0  0  0  0
   -9.2779   -8.9545    7.5462 C   0  0  0  0  0  0  0  0  0  0  0  0
  -10.3484   -9.6645    7.0719 C   0  0  0  0  0  0  0  0  0  0  0  0
   -7.9460   -9.5535    7.6900 C   0  0  0  0  0  0  0  0  0  0  0  0
   -6.8161   -8.9597    7.0799 N   0  0  0  0  0  0  0  0  0  0  0  0
   -7.7788  -10.6303    8.3739 N   0  0  0  0  0  0  0  0  0  0  0  0
   -6.0719   -9.5318    6.6320 H   0  0  0  0  0  0  0  0  0  0  0  0
   -6.7071   -7.9247    7.0677 H   0  0  0  0  0  0  0  0  0  0  0  0
   -6.8747  -11.1009    8.5139 H   0  0  0  0  0  0  0  0  0  0  0  0
  2  3  1  0  0  0
  3  4  1  0  0  0
  4  5  1  0  0  0
  5  6  1  0  0  0
  6  7  1  0  0  0
  7  8  1  0  0  0
  6  9  1  0  0  0
  9 10  2  0  0  0
  9  1  1  0  0  0
  1 26  1  0  0  0
 26 27  1  0  0  0
 27 28  2  0  0  0
 28 29  1  0  0  0
 29 30  2  0  0  0
 30 31  1  0  0  0
 31 32  2  0  0  0
 31 33  1  0  0  0
 33 34  1  0  0  0
 33 35  2  0  0  0
  1 11  1  0  0  0
 11 13  1  0  0  0
 13 14  2  0  0  0
 13 15  2  0  0  0
 13 16  1  0  0  0
 16 17  2  0  0  0
 17 18  1  0  0  0
 18 19  2  0  0  0
 19 20  1  0  0  0
 20 21  2  0  0  0
 21 22  1  0  0  0
 22 23  2  0  0  0
 23 24  1  0  0  0
 24 25  2  0  0  0
  8  3  1  0  0  0
 32 27  1  0  0  0
 25 16  1  0  0  0
 24 19  1  0  0  0
 34 36  1  0  0  0
 34 37  1  0  0  0
 35 38  1  0  0  0
 11 12  1  0  0  0
M  END
> <minimizedAffinity>
-3.79042

> <CNNscore>
0.3056764007

> <CNNaffinity>
6.9840974808

> <CNN_VS>
2.1348738670

> <CNNaffinity_variance>
0.1724108905

$$$$
[H]N=C(c1c([H])c([H])c([H])c(C([H])([H])C([H])(C(=O)N2C([H])([H])C([H])([H])C([H])(C([H])([H])[H])C([H])([H])C2([H])[H])N([H])S(=O)(=O)c2c([H])c([H])c3c([H])c([H])c([H])c([H])c3c2[H])c1[H])N([H])[H]


 38 41  0  0  0  0  0  0  0  0999 V2000
  -10.4585   -7.9537    7.5190 C   0  0  0  0  0  0  0  0  0  0  0  0
   -5.0920   -5.7909    6.9540 C   0  0  0  0  0  0  0  0  0  0  0  0
   -5.4270   -7.0305    6.1394 C   0  0  0  0  0  0  0  0  0  0  0  0
   -6.7461   -6.8047    5.4147 C   0  0  0  0  0  0  0  0  0  0  0  0
   -7.8182   -6.7977    6.5192 C   0  0  0  0  0  0  0  0  0  0  0  0
   -7.9536   -8.1622    6.9356 N   0  0  0  0  0  0  0  0  0  0  0  0
   -6.7792   -8.9998    6.8893 C   0  0  0  0  0  0  0  0  0  0  0  0
   -5.4989   -8.2113    7.0664 C   0  0  0  0  0  0  0  0  0  0  0  0
   -9.1686   -8.6807    7.3738 C   0  0  0  0  0  0  0  0  0  0  0  0
   -9.1788   -9.9255    7.6849 O   0  0  0  0  0  0  0  0  0  0  0  0
  -11.4222   -8.9367    7.8935 N   0  0  0  0  0  0  0  0  0  0  0  0
  -11.4977   -9.1888    8.8718 H   0  0  0  0  0  0  0  0  0  0  0  0
  -12.3577   -9.6409    6.7274 S   0  0  0  0  0  0  0  0  0  0  0  0
  -11.6391  -10.1318    5.5169 O   0  0  0  0  0  0  0  0  0  0  0  0
  -13.2140  -10.7775    7.2726 O   0  0  0  0  0  0  0  0  0  0  0  0
  -13.5151   -8.4353    6.1437 C   0  0  0  0  0  0  0  0  0  0  0  0
  -13.4509   -7.1189    6.5469 C   0  0  0  0  0  0  0  0  0  0  0  0
  -14.3438   -6.1670    6.1008 C   0  0  0  0  0  0  0  0  0  0  0  0
  -15.3408   -6.5075    5.2265 C   0  0  0  0  0  0  0  0  0  0  0  0
  -16.2358   -5.5376    4.7836 C   0  0  0  0  0  0  0  0  0  0  0  0
  -17.2402   -5.8802    3.9027 C   0  0  0  0  0  0  0  0  0  0  0  0
  -17.3177   -7.1936    3.4897 C   0  0  0  0  0  0  0  0  0  0  0  0
  -16.4278   -8.1712    3.9267 C   0  0  0  0  0  0  0  0  0  0  0  0
  -15.4293   -7.8167    4.8061 C   0  0  0  0  0  0  0  0  0  0  0  0
  -14.5222   -8.7730    5.2623 C   0  0  0  0  0  0  0  0  0  0  0  0
  -10.2611   -6.8955    8.5594 C   0  0  0  0  0  0  0  0  0  0  0  0
  -11.4900   -6.5750    9.3277 C   0  0  0  0  0  0  0  0  0  0  0  0
  -11.4966   -5.3892   10.0119 C   0  0  0  0  0  0  0  0  0  0  0  0
  -12.5773   -4.9831   10.7575 C   0  0  0  0  0  0  0  0  0  0  0  0
  -13.6889   -5.7865   10.8231 C   0  0  0  0  0  0  0  0  0  0  0  0
  -13.6830   -6.9931   10.1272 C   0  0  0  0  0  0  0  0  0  0  0  0
  -12.5903   -7.3695    9.3930 C   0  0  0  0  0  0  0  0  0  0  0  0
  -14.8872   -7.8267   10.2180 C   0  0  0  0  0  0  0  0  0  0  0  0
  -15.5703   -8.2404    9.0502 N   0  0  0  0  0  0  0  0  0  0  0  0
  -15.3459   -8.1984   11.3611 N   0  0  0  0  0  0  0  0  0  0  0  0
  -16.6090   -8.2678    9.0043 H   0  0  0  0  0  0  0  0  0  0  0  0
  -15.0386   -8.5292    8.2034 H   0  0  0  0  0  0  0  0  0  0  0  0
  -16.1831   -8.7812   11.4950 H   0  0  0  0  0  0  0  0  0  0  0  0
  2  3  1  0  0  0
  3  4  1  0  0  0
  4  5  1  0  0  0
  5  6  1  0  0  0
  6  7  1  0  0  0
  7  8  1  0  0  0
  6  9  1  0  0  0
  9 10  2  0  0  0
  9  1  1  0  0  0
  1 26  1  0  0  0
 26 27  1  0  0  0
 27 28  2  0  0  0
 28 29  1  0  0  0
 29 30  2  0  0  0
 30 31  1  0  0  0
 31 32  2  0  0  0
 31 33  1  0  0  0
 33 34  1  0  0  0
 33 35  2  0  0  0
  1 11  1  0  0  0
 11 13  1  0  0  0
 13 14  2  0  0  0
 13 15  2  0  0  0
 13 16  1  0  0  0
 16 17  2  0  0  0
 17 18  1  0  0  0
 18 19  2  0  0  0
 19 20  1  0  0  0
 20 21  2  0  0  0
 21 22  1  0  0  0
 22 23  2  0  0  0
 23 24  1  0  0  0
 24 25  2  0  0  0
  8  3  1  0  0  0
 32 27  1  0  0  0
 25 16  1  0  0  0
 24 19  1  0  0  0
 34 36  1  0  0  0
 34 37  1  0  0  0
 35 38  1  0  0  0
 11 12  1  0  0  0
M  END
> <minimizedAffinity>
-8.90698

> <CNNscore>
0.3001748621

> <CNNaffinity>
7.2702345848

> <CNN_VS>
2.1823415756

> <CNNaffinity_variance>
0.1186951548

$$$$
[H]N=C(c1c([H])c([H])c([H])c(C([H])([H])C([H])(C(=O)N2C([H])([H])C([H])([H])C([H])(C([H])([H])[H])C([H])([H])C2([H])[H])N([H])S(=O)(=O)c2c([H])c([H])c3c([H])c([H])c([H])c([H])c3c2[H])c1[H])N([H])[H]


 38 41  0  0  0  0  0  0  0  0999 V2000
  -10.6050   -7.6902    7.5352 C   0  0  0  0  0  0  0  0  0  0  0  0
   -5.1106   -5.8735    6.9809 C   0  0  0  0  0  0  0  0  0  0  0  0
   -5.4953   -7.1468    6.2439 C   0  0  0  0  0  0  0  0  0  0  0  0
   -6.7805   -6.8996    5.4669 C   0  0  0  0  0  0  0  0  0  0  0  0
   -7.8781   -6.7556    6.5364 C   0  0  0  0  0  0  0  0  0  0  0  0
   -8.1022   -8.0778    7.0414 N   0  0  0  0  0  0  0  0  0  0  0  0
   -6.9770   -8.9804    7.0873 C   0  0  0  0  0  0  0  0  0  0  0  0
   -5.6584   -8.2537    7.2474 C   0  0  0  0  0  0  0  0  0  0  0  0
   -9.3557   -8.4960    7.4782 C   0  0  0  0  0  0  0  0  0  0  0  0
   -9.4452   -9.7134    7.8737 O   0  0  0  0  0  0  0  0  0  0  0  0
  -11.5564   -8.4913    8.2339 N   0  0  0  0  0  0  0  0  0  0  0  0
  -11.5491   -8.4742    9.2468 H   0  0  0  0  0  0  0  0  0  0  0  0
  -12.6129   -9.4289    7.3762 S   0  0  0  0  0  0  0  0  0  0  0  0
  -12.0781  -10.0491    6.1302 O   0  0  0  0  0  0  0  0  0  0  0  0
  -13.2445  -10.5248    8.2262 O   0  0  0  0  0  0  0  0  0  0  0  0
  -13.9665   -8.4099    6.8633 C   0  0  0  0  0  0  0  0  0  0  0  0
  -15.2300   -8.5694    7.3905 C   0  0  0  0  0  0  0  0  0  0  0  0
  -16.2950   -7.7834    7.0029 C   0  0  0  0  0  0  0  0  0  0  0  0
  -16.1262   -6.8013    6.0640 C   0  0  0  0  0  0  0  0  0  0  0  0
  -17.2090   -6.0145    5.6813 C   0  0  0  0  0  0  0  0  0  0  0  0
  -17.0393   -5.0250    4.7356 C   0  0  0  0  0  0  0  0  0  0  0  0
  -15.7808   -4.8529    4.1986 C   0  0  0  0  0  0  0  0  0  0  0  0
  -14.6915   -5.6343    4.5744 C   0  0  0  0  0  0  0  0  0  0  0  0
  -14.8737   -6.6190    5.5196 C   0  0  0  0  0  0  0  0  0  0  0  0
  -13.8021   -7.4185    5.9172 C   0  0  0  0  0  0  0  0  0  0  0  0
  -10.2804   -6.4106    8.2412 C   0  0  0  0  0  0  0  0  0  0  0  0
  -11.1403   -6.1433    9.4211 C   0  0  0  0  0  0  0  0  0  0  0  0
  -12.4913   -6.1066    9.2025 C   0  0  0  0  0  0  0  0  0  0  0  0
  -13.3882   -5.8690   10.2164 C   0  0  0  0  0  0  0  0  0  0  0  0
  -12.9222   -5.6609   11.4912 C   0  0  0  0  0  0  0  0  0  0  0  0
  -11.5479   -5.6981   11.7143 C   0  0  0  0  0  0  0  0  0  0  0  0
  -10.6799   -5.9373   10.6827 C   0  0  0  0  0  0  0  0  0  0  0  0
  -11.0841   -5.4727   13.0882 C   0  0  0  0  0  0  0  0  0  0  0  0
   -9.8109   -5.9270   13.5055 N   0  0  0  0  0  0  0  0  0  0  0  0
  -11.8257   -4.8575   13.9407 N   0  0  0  0  0  0  0  0  0  0  0  0
   -9.6596   -6.3430   14.4467 H   0  0  0  0  0  0  0  0  0  0  0  0
   -8.9906   -5.8523   12.8696 H   0  0  0  0  0  0  0  0  0  0  0  0
  -11.5620   -4.6671   14.9167 H   0  0  0  0  0  0  0  0  0  0  0  0
  2  3  1  0  0  0
  3  4  1  0  0  0
  4  5  1  0  0  0
  5  6  1  0  0  0
  6  7  1  0  0  0
  7  8  1  0  0  0
  6  9  1  0  0  0
  9 10  2  0  0  0
  9  1  1  0  0  0
  1 26  1  0  0  0
 26 27  1  0  0  0
 27 28  2  0  0  0
 28 29  1  0  0  0
 29 30  2  0  0  0
 30 31  1  0  0  0
 31 32  2  0  0  0
 31 33  1  0  0  0
 33 34  1  0  0  0
 33 35  2  0  0  0
  1 11  1  0  0  0
 11 13  1  0  0  0
 13 14  2  0  0  0
 13 15  2  0  0  0
 13 16  1  0  0  0
 16 17  2  0  0  0
 17 18  1  0  0  0
 18 19  2  0  0  0
 19 20  1  0  0  0
 20 21  2  0  0  0
 21 22  1  0  0  0
 22 23  2  0  0  0
 23 24  1  0  0  0
 24 25  2  0  0  0
  8  3  1  0  0  0
 32 27  1  0  0  0
 25 16  1  0  0  0
 24 19  1  0  0  0
 34 36  1  0  0  0
 34 37  1  0  0  0
 35 38  1  0  0  0
 11 12  1  0  0  0
M  END
> <minimizedAffinity>
-7.73870

> <CNNscore>
0.2748978436

> <CNNaffinity>
6.9969930649

> <CNN_VS>
1.9234583378

> <CNNaffinity_variance>
0.0768706650

$$$$
[H]N=C(c1c([H])c([H])c([H])c(C([H])([H])C([H])(C(=O)N2C([H])([H])C([H])([H])C([H])(C([H])([H])[H])C([H])([H])C2([H])[H])N([H])S(=O)(=O)c2c([H])c([H])c3c([H])c([H])c([H])c([H])c3c2[H])c1[H])N([H])[H]


 38 41  0  0  0  0  0  0  0  0999 V2000
   -5.1791   -5.6329    6.8833 C   0  0  0  0  0  0  0  0  0  0  0  0
   -1.7308   -9.8507    4.8546 C   0  0  0  0  0  0  0  0  0  0  0  0
   -1.0599   -8.5538    5.2794 C   0  0  0  0  0  0  0  0  0  0  0  0
   -1.5644   -8.1656    6.6619 C   0  0  0  0  0  0  0  0  0  0  0  0
   -3.0352   -7.7611    6.4567 C   0  0  0  0  0  0  0  0  0  0  0  0
   -2.9984   -6.4876    5.8006 N   0  0  0  0  0  0  0  0  0  0  0  0
   -1.9061   -6.2292    4.8934 C   0  0  0  0  0  0  0  0  0  0  0  0
   -1.3692   -7.4947    4.2589 C   0  0  0  0  0  0  0  0  0  0  0  0
   -3.9745   -5.5196    6.0176 C   0  0  0  0  0  0  0  0  0  0  0  0
   -3.8172   -4.4032    5.4048 O   0  0  0  0  0  0  0  0  0  0  0  0
   -6.1780   -6.2644    6.0842 N   0  0  0  0  0  0  0  0  0  0  0  0
   -6.5635   -5.7509    5.3006 H   0  0  0  0  0  0  0  0  0  0  0  0
   -6.6842   -7.7886    6.4736 S   0  0  0  0  0  0  0  0  0  0  0  0
   -6.8240   -8.7442    5.3377 O   0  0  0  0  0  0  0  0  0  0  0  0
   -5.8150   -8.4374    7.5440 O   0  0  0  0  0  0  0  0  0  0  0  0
   -8.2933   -7.6682    7.2015 C   0  0  0  0  0  0  0  0  0  0  0  0
   -8.7056   -6.5276    7.8563 C   0  0  0  0  0  0  0  0  0  0  0  0
   -9.9560   -6.4170    8.4278 C   0  0  0  0  0  0  0  0  0  0  0  0
  -10.8433   -7.4574    8.3606 C   0  0  0  0  0  0  0  0  0  0  0  0
  -12.1025   -7.3333    8.9413 C   0  0  0  0  0  0  0  0  0  0  0  0
  -12.9968   -8.3811    8.8737 C   0  0  0  0  0  0  0  0  0  0  0  0
  -12.5991   -9.5294    8.2217 C   0  0  0  0  0  0  0  0  0  0  0  0
  -11.3423   -9.6636    7.6378 C   0  0  0  0  0  0  0  0  0  0  0  0
  -10.4584   -8.6104    7.7120 C   0  0  0  0  0  0  0  0  0  0  0  0
   -9.1919   -8.7139    7.1368 C   0  0  0  0  0  0  0  0  0  0  0  0
   -4.7919   -6.4361    8.0859 C   0  0  0  0  0  0  0  0  0  0  0  0
   -4.4371   -5.6111    9.2677 C   0  0  0  0  0  0  0  0  0  0  0  0
   -3.4802   -4.6497    9.0825 C   0  0  0  0  0  0  0  0  0  0  0  0
   -3.0692   -3.8236   10.1010 C   0  0  0  0  0  0  0  0  0  0  0  0
   -3.6314   -3.9608   11.3463 C   0  0  0  0  0  0  0  0  0  0  0  0
   -4.6051   -4.9387   11.5355 C   0  0  0  0  0  0  0  0  0  0  0  0
   -4.9930   -5.7463   10.5001 C   0  0  0  0  0  0  0  0  0  0  0  0
   -5.1856   -5.0576   12.8780 C   0  0  0  0  0  0  0  0  0  0  0  0
   -5.0470   -4.0123   13.8212 N   0  0  0  0  0  0  0  0  0  0  0  0
   -5.8325   -6.1145   13.2242 N   0  0  0  0  0  0  0  0  0  0  0  0
   -4.8672   -4.2034   14.8276 H   0  0  0  0  0  0  0  0  0  0  0  0
   -5.1234   -3.0187   13.5212 H   0  0  0  0  0  0  0  0  0  0  0  0
   -6.2631   -6.2617   14.1469 H   0  0  0  0  0  0  0  0  0  0  0  0
  2  3  1  0  0  0
  3  4  1  0  0  0
  4  5  1  0  0  0
  5  6  1  0  0  0
  6  7  1  0  0  0
  7  8  1  0  0  0
  6  9  1  0  0  0
  9 10  2  0  0  0
  9  1  1  0  0  0
  1 26  1  0  0  0
 26 27  1  0  0  0
 27 28  2  0  0  0
 28 29  1  0  0  0
 29 30  2  0  0  0
 30 31  1  0  0  0
 31 32  2  0  0  0
 31 33  1  0  0  0
 33 34  1  0  0  0
 33 35  2  0  0  0
  1 11  1  0  0  0
 11 13  1  0  0  0
 13 14  2  0  0  0
 13 15  2  0  0  0
 13 16  1  0  0  0
 16 17  2  0  0  0
 17 18  1  0  0  0
 18 19  2  0  0  0
 19 20  1  0  0  0
 20 21  2  0  0  0
 21 22  1  0  0  0
 22 23  2  0  0  0
 23 24  1  0  0  0
 24 25  2  0  0  0
  8  3  1  0  0  0
 32 27  1  0  0  0
 25 16  1  0  0  0
 24 19  1  0  0  0
 34 36  1  0  0  0
 34 37  1  0  0  0
 35 38  1  0  0  0
 11 12  1  0  0  0
M  END
> <minimizedAffinity>
-7.78044

> <CNNscore>
0.2744016051

> <CNNaffinity>
6.1934461594

> <CNN_VS>
1.6994916201

> <CNNaffinity_variance>
0.1040112600

$$$$
[H]N=C(c1c([H])c([H])c([H])c(C([H])([H])C([H])(C(=O)N2C([H])([H])C([H])([H])C([H])(C([H])([H])[H])C([H])([H])C2([H])[H])N([H])S(=O)(=O)c2c([H])c([H])c3c([H])c([H])c([H])c([H])c3c2[H])c1[H])N([H])[H]


 38 41  0  0  0  0  0  0  0  0999 V2000
   -5.3462   -5.8149    7.4159 C   0  0  0  0  0  0  0  0  0  0  0  0
   -1.5704  -10.2349    7.4635 C   0  0  0  0  0  0  0  0  0  0  0  0
   -1.0619   -8.8970    6.9500 C   0  0  0  0  0  0  0  0  0  0  0  0
   -1.4384   -7.8094    7.9458 C   0  0  0  0  0  0  0  0  0  0  0  0
   -2.9685   -7.6783    7.8420 C   0  0  0  0  0  0  0  0  0  0  0  0
   -3.2166   -7.0183    6.5945 N   0  0  0  0  0  0  0  0  0  0  0  0
   -2.3044   -7.2727    5.5054 C   0  0  0  0  0  0  0  0  0  0  0  0
   -1.6623   -8.6409    5.5962 C   0  0  0  0  0  0  0  0  0  0  0  0
   -4.2961   -6.1575    6.4193 C   0  0  0  0  0  0  0  0  0  0  0  0
   -4.3959   -5.5939    5.2708 O   0  0  0  0  0  0  0  0  0  0  0  0
   -6.5820   -6.2423    6.8456 N   0  0  0  0  0  0  0  0  0  0  0  0
   -7.1934   -5.5429    6.4415 H   0  0  0  0  0  0  0  0  0  0  0  0
   -6.9812   -7.8455    6.8835 S   0  0  0  0  0  0  0  0  0  0  0  0
   -6.9459   -8.5621    5.5765 O   0  0  0  0  0  0  0  0  0  0  0  0
   -6.1457   -8.6323    7.8862 O   0  0  0  0  0  0  0  0  0  0  0  0
   -8.6473   -7.9873    7.4647 C   0  0  0  0  0  0  0  0  0  0  0  0
   -9.4123   -9.1023    7.1976 C   0  0  0  0  0  0  0  0  0  0  0  0
  -10.7112   -9.2291    7.6439 C   0  0  0  0  0  0  0  0  0  0  0  0
  -11.2916   -8.2316    8.3803 C   0  0  0  0  0  0  0  0  0  0  0  0
  -12.6034   -8.3716    8.8250 C   0  0  0  0  0  0  0  0  0  0  0  0
  -13.1885   -7.3671    9.5670 C   0  0  0  0  0  0  0  0  0  0  0  0
  -12.4359   -6.2448    9.8428 C   0  0  0  0  0  0  0  0  0  0  0  0
  -11.1235   -6.0949    9.4027 C   0  0  0  0  0  0  0  0  0  0  0  0
  -10.5505   -7.1049    8.6627 C   0  0  0  0  0  0  0  0  0  0  0  0
   -9.2375   -6.9848    8.2075 C   0  0  0  0  0  0  0  0  0  0  0  0
   -5.0061   -6.5281    8.6875 C   0  0  0  0  0  0  0  0  0  0  0  0
   -4.6602   -5.6197    9.8091 C   0  0  0  0  0  0  0  0  0  0  0  0
   -3.8164   -4.5805    9.5219 C   0  0  0  0  0  0  0  0  0  0  0  0
   -3.4251   -3.6731   10.4769 C   0  0  0  0  0  0  0  0  0  0  0  0
   -3.8909   -3.8063   11.7618 C   0  0  0  0  0  0  0  0  0  0  0  0
   -4.7494   -4.8632   12.0548 C   0  0  0  0  0  0  0  0  0  0  0  0
   -5.1207   -5.7509   11.0806 C   0  0  0  0  0  0  0  0  0  0  0  0
   -5.2291   -4.9756   13.4371 C   0  0  0  0  0  0  0  0  0  0  0  0
   -5.2416   -6.2258   14.0990 N   0  0  0  0  0  0  0  0  0  0  0  0
   -5.6477   -3.9396   14.0749 N   0  0  0  0  0  0  0  0  0  0  0  0
   -6.0249   -6.5072   14.7227 H   0  0  0  0  0  0  0  0  0  0  0  0
   -4.4560   -6.8967   13.9724 H   0  0  0  0  0  0  0  0  0  0  0  0
   -5.9963   -3.9489   15.0427 H   0  0  0  0  0  0  0  0  0  0  0  0
  2  3  1  0  0  0
  3  4  1  0  0  0
  4  5  1  0  0  0
  5  6  1  0  0  0
  6  7  1  0  0  0
  7  8  1  0  0  0
  6  9  1  0  0  0
  9 10  2  0  0  0
  9  1  1  0  0  0
  1 26  1  0  0  0
 26 27  1  0  0  0
 27 28  2  0  0  0
 28 29  1  0  0  0
 29 30  2  0  0  0
 30 31  1  0  0  0
 31 32  2  0  0  0
 31 33  1  0  0  0
 33 34  1  0  0  0
 33 35  2  0  0  0
  1 11  1  0  0  0
 11 13  1  0  0  0
 13 14  2  0  0  0
 13 15  2  0  0  0
 13 16  1  0  0  0
 16 17  2  0  0  0
 17 18  1  0  0  0
 18 19  2  0  0  0
 19 20  1  0  0  0
 20 21  2  0  0  0
 21 22  1  0  0  0
 22 23  2  0  0  0
 23 24  1  0  0  0
 24 25  2  0  0  0
  8  3  1  0  0  0
 32 27  1  0  0  0
 25 16  1  0  0  0
 24 19  1  0  0  0
 34 36  1  0  0  0
 34 37  1  0  0  0
 35 38  1  0  0  0
 11 12  1  0  0  0
M  END
> <minimizedAffinity>
-8.13720

> <CNNscore>
0.2713133693

> <CNNaffinity>
6.2380042076

> <CNN_VS>
1.6924539804

> <CNNaffinity_variance>
0.0905019641

$$$$
[H]OC(=O)[C@]([H])(c1c([H])c([H])c([H])c([H])c1[H])N([H])C(=O)[C@@]([H])(N([H])C(=O)c1c([H])c(OC([H])([H])[H])c(OC([H])([H])[H])c(OC([H])([H])[H])c1[H])C([H])([H])c1c([H])c([H])c([H])c([H])c1[H]


 39 41  0  0  0  0  0  0  0  0999 V2000
  -10.8135   -7.3448    7.7476 C   0  0  0  0  0  0  0  0  0  0  0  0
   -8.3980   -6.8007    7.2784 C   0  0  0  0  0  0  0  0  0  0  0  0
   -8.7961   -6.0264    6.3771 O   0  0  0  0  0  0  0  0  0  0  0  0
   -9.3516   -7.5146    8.0282 N   0  0  0  0  0  0  0  0  0  0  0  0
   -9.0476   -8.1650    8.7809 H   0  0  0  0  0  0  0  0  0  0  0  0
   -4.9693   -6.2564    8.7378 C   0  0  0  0  0  0  0  0  0  0  0  0
   -6.3217   -6.1841    8.4925 C   0  0  0  0  0  0  0  0  0  0  0  0
   -6.9631   -6.9131    7.4965 C   0  0  0  0  0  0  0  0  0  0  0  0
   -6.1721   -7.7435    6.7315 C   0  0  0  0  0  0  0  0  0  0  0  0
   -4.8073   -7.8677    6.9201 C   0  0  0  0  0  0  0  0  0  0  0  0
   -4.2313   -7.1045    7.9399 C   0  0  0  0  0  0  0  0  0  0  0  0
   -5.0047   -5.4859   11.0102 C   0  0  0  0  0  0  0  0  0  0  0  0
   -4.3544   -5.5040    9.7544 O   0  0  0  0  0  0  0  0  0  0  0  0
   -4.0233   -8.7061    6.1431 O   0  0  0  0  0  0  0  0  0  0  0  0
   -2.8684   -9.2801    6.7192 C   0  0  0  0  0  0  0  0  0  0  0  0
   -2.8646   -7.1970    8.1662 O   0  0  0  0  0  0  0  0  0  0  0  0
   -2.0549   -6.1356    7.6534 C   0  0  0  0  0  0  0  0  0  0  0  0
  -11.4256   -7.2617    9.0758 C   0  0  0  0  0  0  0  0  0  0  0  0
  -11.7804   -8.2960    9.6747 O   0  0  0  0  0  0  0  0  0  0  0  0
  -11.6197   -6.0146    9.7126 N   0  0  0  0  0  0  0  0  0  0  0  0
  -11.3533   -5.1263    9.2605 H   0  0  0  0  0  0  0  0  0  0  0  0
  -12.2115   -5.9252   11.0512 C   0  0  0  0  0  0  0  0  0  0  0  0
  -11.0984   -5.7416   12.0448 C   0  0  0  0  0  0  0  0  0  0  0  0
  -11.3844   -5.2926   13.3351 C   0  0  0  0  0  0  0  0  0  0  0  0
  -10.3902   -5.1313   14.2585 C   0  0  0  0  0  0  0  0  0  0  0  0
   -9.0825   -5.4034   13.9525 C   0  0  0  0  0  0  0  0  0  0  0  0
   -8.7724   -5.8464   12.6908 C   0  0  0  0  0  0  0  0  0  0  0  0
   -9.7995   -6.0086   11.7522 C   0  0  0  0  0  0  0  0  0  0  0  0
  -13.0986   -4.7654   11.1007 C   0  0  0  0  0  0  0  0  0  0  0  0
  -14.2504   -4.6810   11.8989 O   0  0  0  0  0  0  0  0  0  0  0  0
  -12.8671   -3.7412   10.3965 O   0  0  0  0  0  0  0  0  0  0  0  0
  -15.1478   -4.8504   11.4548 H   0  0  0  0  0  0  0  0  0  0  0  0
  -11.1766   -8.5319    6.9195 C   0  0  0  0  0  0  0  0  0  0  0  0
  -12.5016   -8.5563    6.3073 C   0  0  0  0  0  0  0  0  0  0  0  0
  -13.4625   -7.5571    6.5019 C   0  0  0  0  0  0  0  0  0  0  0  0
  -14.6808   -7.6043    5.8696 C   0  0  0  0  0  0  0  0  0  0  0  0
  -15.0145   -8.6312    5.0187 C   0  0  0  0  0  0  0  0  0  0  0  0
  -14.0848   -9.6199    4.8166 C   0  0  0  0  0  0  0  0  0  0  0  0
  -12.8436   -9.5825    5.4534 C   0  0  0  0  0  0  0  0  0  0  0  0
 12 13  1  0  0  0
 13  6  1  0  0  0
  6  7  2  0  0  0
  7  8  1  0  0  0
  8  9  2  0  0  0
  9 10  1  0  0  0
 10 14  1  0  0  0
 14 15  1  0  0  0
 10 11  2  0  0  0
 11 16  1  0  0  0
 16 17  1  0  0  0
  8  2  1  0  0  0
  2  3  2  0  0  0
  2  4  1  0  0  0
  4  1  1  0  0  0
  1 33  1  0  0  0
 33 34  1  0  0  0
 34 35  2  0  0  0
 35 36  1  0  0  0
 36 37  2  0  0  0
 37 38  1  0  0  0
 38 39  2  0  0  0
  1 18  1  0  0  0
 18 19  2  0  0  0
 18 20  1  0  0  0
 20 22  1  0  0  0
 22 29  1  0  0  0
 29 30  1  0  0  0
 29 31  2  0  0  0
 22 23  1  0  0  0
 23 24  2  0  0  0
 24 25  1  0  0  0
 25 26  2  0  0  0
 26 27  1  0  0  0
 27 28  2  0  0  0
 11  6  1  0  0  0
 39 34  1  0  0  0
 28 23  1  0  0  0
  4  5  1  0  0  0
 20 21  1  0  0  0
 30 32  1  0  0  0
M  END
> <minimizedAffinity>
3.38741

> <CNNscore>
0.4792550206

> <CNNaffinity>
6.2636938095

> <CNN_VS>
3.0019066334

> <CNNaffinity_variance>
1.3453438282

$$$$
[H]OC(=O)[C@]([H])(c1c([H])c([H])c([H])c([H])c1[H])N([H])C(=O)[C@@]([H])(N([H])C(=O)c1c([H])c(OC([H])([H])[H])c(OC([H])([H])[H])c(OC([H])([H])[H])c1[H])C([H])([H])c1c([H])c([H])c([H])c([H])c1[H]


 39 41  0  0  0  0  0  0  0  0999 V2000
  -12.3556   -7.3998    7.6487 C   0  0  0  0  0  0  0  0  0  0  0  0
   -9.9211   -8.0005    7.9008 C   0  0  0  0  0  0  0  0  0  0  0  0
  -10.2841   -9.1762    8.1387 O   0  0  0  0  0  0  0  0  0  0  0  0
  -10.9044   -7.0276    7.6404 N   0  0  0  0  0  0  0  0  0  0  0  0
  -10.6299   -6.0441    7.4418 H   0  0  0  0  0  0  0  0  0  0  0  0
   -6.5016   -6.9929    9.1147 C   0  0  0  0  0  0  0  0  0  0  0  0
   -7.8472   -7.2769    9.0585 C   0  0  0  0  0  0  0  0  0  0  0  0
   -8.4942   -7.7128    7.9069 C   0  0  0  0  0  0  0  0  0  0  0  0
   -7.7164   -7.8574    6.7779 C   0  0  0  0  0  0  0  0  0  0  0  0
   -6.3590   -7.5911    6.7592 C   0  0  0  0  0  0  0  0  0  0  0  0
   -5.7767   -7.1569    7.9536 C   0  0  0  0  0  0  0  0  0  0  0  0
   -6.5954   -6.7577   11.5010 C   0  0  0  0  0  0  0  0  0  0  0  0
   -5.8807   -6.5539   10.2977 O   0  0  0  0  0  0  0  0  0  0  0  0
   -5.5885   -7.7401    5.6166 O   0  0  0  0  0  0  0  0  0  0  0  0
   -4.6344   -8.7808    5.5739 C   0  0  0  0  0  0  0  0  0  0  0  0
   -4.4169   -6.8779    7.9824 O   0  0  0  0  0  0  0  0  0  0  0  0
   -4.0284   -5.5400    7.6596 C   0  0  0  0  0  0  0  0  0  0  0  0
  -12.8579   -6.9104    6.3627 C   0  0  0  0  0  0  0  0  0  0  0  0
  -12.0779   -6.4138    5.5265 O   0  0  0  0  0  0  0  0  0  0  0  0
  -14.2304   -6.9968    6.0351 N   0  0  0  0  0  0  0  0  0  0  0  0
  -14.9220   -7.3902    6.6919 H   0  0  0  0  0  0  0  0  0  0  0  0
  -14.7370   -6.5293    4.7411 C   0  0  0  0  0  0  0  0  0  0  0  0
  -16.1099   -7.1071    4.5382 C   0  0  0  0  0  0  0  0  0  0  0  0
  -16.5424   -8.1693    5.3340 C   0  0  0  0  0  0  0  0  0  0  0  0
  -17.7910   -8.7014    5.1761 C   0  0  0  0  0  0  0  0  0  0  0  0
  -18.6597   -8.2136    4.2353 C   0  0  0  0  0  0  0  0  0  0  0  0
  -18.2607   -7.1693    3.4387 C   0  0  0  0  0  0  0  0  0  0  0  0
  -16.9787   -6.6312    3.6094 C   0  0  0  0  0  0  0  0  0  0  0  0
  -14.8261   -5.0712    4.7657 C   0  0  0  0  0  0  0  0  0  0  0  0
  -14.3485   -4.2298    3.7485 O   0  0  0  0  0  0  0  0  0  0  0  0
  -15.3543   -4.4701    5.7446 O   0  0  0  0  0  0  0  0  0  0  0  0
  -13.4484   -3.7810    3.8888 H   0  0  0  0  0  0  0  0  0  0  0  0
  -12.9039   -6.7437    8.8717 C   0  0  0  0  0  0  0  0  0  0  0  0
  -13.8819   -7.4850    9.6623 C   0  0  0  0  0  0  0  0  0  0  0  0
  -13.7549   -7.7090   11.0383 C   0  0  0  0  0  0  0  0  0  0  0  0
  -14.7239   -8.3769   11.7461 C   0  0  0  0  0  0  0  0  0  0  0  0
  -15.8610   -8.8564   11.1400 C   0  0  0  0  0  0  0  0  0  0  0  0
  -16.0019   -8.6464    9.7914 C   0  0  0  0  0  0  0  0  0  0  0  0
  -15.0240   -7.9690    9.0619 C   0  0  0  0  0  0  0  0  0  0  0  0
 12 13  1  0  0  0
 13  6  1  0  0  0
  6  7  2  0  0  0
  7  8  1  0  0  0
  8  9  2  0  0  0
  9 10  1  0  0  0
 10 14  1  0  0  0
 14 15  1  0  0  0
 10 11  2  0  0  0
 11 16  1  0  0  0
 16 17  1  0  0  0
  8  2  1  0  0  0
  2  3  2  0  0  0
  2  4  1  0  0  0
  4  1  1  0  0  0
  1 33  1  0  0  0
 33 34  1  0  0  0
 34 35  2  0  0  0
 35 36  1  0  0  0
 36 37  2  0  0  0
 37 38  1  0  0  0
 38 39  2  0  0  0
  1 18  1  0  0  0
 18 19  2  0  0  0
 18 20  1  0  0  0
 20 22  1  0  0  0
 22 29  1  0  0  0
 29 30  1  0  0  0
 29 31  2  0  0  0
 22 23  1  0  0  0
 23 24  2  0  0  0
 24 25  1  0  0  0
 25 26  2  0  0  0
 26 27  1  0  0  0
 27 28  2  0  0  0
 11  6  1  0  0  0
 39 34  1  0  0  0
 28 23  1  0  0  0
  4  5  1  0  0  0
 20 21  1  0  0  0
 30 32  1  0  0  0
M  END
> <minimizedAffinity>
2.88012

> <CNNscore>
0.4209851921

> <CNNaffinity>
6.6207556725

> <CNN_VS>
2.7872400284

> <CNNaffinity_variance>
2.3183510303

$$$$
[H]OC(=O)[C@]([H])(c1c([H])c([H])c([H])c([H])c1[H])N([H])C(=O)[C@@]([H])(N([H])C(=O)c1c([H])c(OC([H])([H])[H])c(OC([H])([H])[H])c(OC([H])([H])[H])c1[H])C([H])([H])c1c([H])c([H])c([H])c([H])c1[H]


 39 41  0  0  0  0  0  0  0  0999 V2000
  -11.1856   -7.9547    7.1288 C   0  0  0  0  0  0  0  0  0  0  0  0
   -8.8332   -7.0511    7.1577 C   0  0  0  0  0  0  0  0  0  0  0  0
   -9.3227   -5.9030    7.0444 O   0  0  0  0  0  0  0  0  0  0  0  0
   -9.7031   -8.1565    7.2086 N   0  0  0  0  0  0  0  0  0  0  0  0
   -9.3225   -9.1201    7.3007 H   0  0  0  0  0  0  0  0  0  0  0  0
   -5.2565   -6.3963    8.1381 C   0  0  0  0  0  0  0  0  0  0  0  0
   -6.6270   -6.3227    8.0337 C   0  0  0  0  0  0  0  0  0  0  0  0
   -7.3843   -7.1705    7.2322 C   0  0  0  0  0  0  0  0  0  0  0  0
   -6.6936   -8.1250    6.5163 C   0  0  0  0  0  0  0  0  0  0  0  0
   -5.3178   -8.2585    6.5712 C   0  0  0  0  0  0  0  0  0  0  0  0
   -4.6225   -7.3715    7.3982 C   0  0  0  0  0  0  0  0  0  0  0  0
   -4.8051   -5.5676   10.3445 C   0  0  0  0  0  0  0  0  0  0  0  0
   -4.5230   -5.5216    8.9593 O   0  0  0  0  0  0  0  0  0  0  0  0
   -4.6355   -9.2224    5.8454 O   0  0  0  0  0  0  0  0  0  0  0  0
   -3.2488   -9.3789    6.0632 C   0  0  0  0  0  0  0  0  0  0  0  0
   -3.2401   -7.4683    7.4853 O   0  0  0  0  0  0  0  0  0  0  0  0
   -2.4835   -6.4027    6.9047 C   0  0  0  0  0  0  0  0  0  0  0  0
  -11.6064   -7.8365    8.5268 C   0  0  0  0  0  0  0  0  0  0  0  0
  -10.7988   -7.4661    9.4014 O   0  0  0  0  0  0  0  0  0  0  0  0
  -12.9336   -8.1287    8.9162 N   0  0  0  0  0  0  0  0  0  0  0  0
  -13.6415   -8.4476    8.2367 H   0  0  0  0  0  0  0  0  0  0  0  0
  -13.3678   -7.9914   10.3100 C   0  0  0  0  0  0  0  0  0  0  0  0
  -13.0000   -6.6124   10.7822 C   0  0  0  0  0  0  0  0  0  0  0  0
  -12.1754   -6.4556   11.8975 C   0  0  0  0  0  0  0  0  0  0  0  0
  -11.8175   -5.2120   12.3363 C   0  0  0  0  0  0  0  0  0  0  0  0
  -12.2531   -4.0793   11.7002 C   0  0  0  0  0  0  0  0  0  0  0  0
  -13.0654   -4.2038   10.6007 C   0  0  0  0  0  0  0  0  0  0  0  0
  -13.4258   -5.4835   10.1591 C   0  0  0  0  0  0  0  0  0  0  0  0
  -14.8186   -8.1519   10.3725 C   0  0  0  0  0  0  0  0  0  0  0  0
  -15.6576   -8.2281    9.2494 O   0  0  0  0  0  0  0  0  0  0  0  0
  -15.4154   -8.2286   11.4845 O   0  0  0  0  0  0  0  0  0  0  0  0
  -16.1602   -7.3892    8.9760 H   0  0  0  0  0  0  0  0  0  0  0  0
  -11.6861   -9.1447    6.3804 C   0  0  0  0  0  0  0  0  0  0  0  0
  -12.9700   -9.0285    5.6955 C   0  0  0  0  0  0  0  0  0  0  0  0
  -13.1630   -9.3659    4.3507 C   0  0  0  0  0  0  0  0  0  0  0  0
  -14.4010   -9.2787    3.7625 C   0  0  0  0  0  0  0  0  0  0  0  0
  -15.5063   -8.8569    4.4630 C   0  0  0  0  0  0  0  0  0  0  0  0
  -15.3354   -8.5213    5.7825 C   0  0  0  0  0  0  0  0  0  0  0  0
  -14.0823   -8.6062    6.3908 C   0  0  0  0  0  0  0  0  0  0  0  0
 12 13  1  0  0  0
 13  6  1  0  0  0
  6  7  2  0  0  0
  7  8  1  0  0  0
  8  9  2  0  0  0
  9 10  1  0  0  0
 10 14  1  0  0  0
 14 15  1  0  0  0
 10 11  2  0  0  0
 11 16  1  0  0  0
 16 17  1  0  0  0
  8  2  1  0  0  0
  2  3  2  0  0  0
  2  4  1  0  0  0
  4  1  1  0  0  0
  1 33  1  0  0  0
 33 34  1  0  0  0
 34 35  2  0  0  0
 35 36  1  0  0  0
 36 37  2  0  0  0
 37 38  1  0  0  0
 38 39  2  0  0  0
  1 18  1  0  0  0
 18 19  2  0  0  0
 18 20  1  0  0  0
 20 22  1  0  0  0
 22 29  1  0  0  0
 29 30  1  0  0  0
 29 31  2  0  0  0
 22 23  1  0  0  0
 23 24  2  0  0  0
 24 25  1  0  0  0
 25 26  2  0  0  0
 26 27  1  0  0  0
 27 28  2  0  0  0
 11  6  1  0  0  0
 39 34  1  0  0  0
 28 23  1  0  0  0
  4  5  1  0  0  0
 20 21  1  0  0  0
 30 32  1  0  0  0
M  END
> <minimizedAffinity>
0.87699

> <CNNscore>
0.3605634272

> <CNNaffinity>
6.2539048195

> <CNN_VS>
2.2549293041

> <CNNaffinity_variance>
0.6426109672

$$$$
[H]OC(=O)[C@]([H])(c1c([H])c([H])c([H])c([H])c1[H])N([H])C(=O)[C@@]([H])(N([H])C(=O)c1c([H])c(OC([H])([H])[H])c(OC([H])([H])[H])c(OC([H])([H])[H])c1[H])C([H])([H])c1c([H])c([H])c([H])c([H])c1[H]


 39 41  0  0  0  0  0  0  0  0999 V2000
  -14.5465  -10.0209    7.7631 C   0  0  0  0  0  0  0  0  0  0  0  0
  -12.5685   -8.4629    7.6572 C   0  0  0  0  0  0  0  0  0  0  0  0
  -13.2613   -7.7077    6.9359 O   0  0  0  0  0  0  0  0  0  0  0  0
  -13.1376   -9.6623    8.1250 N   0  0  0  0  0  0  0  0  0  0  0  0
  -12.5834  -10.3076    8.7238 H   0  0  0  0  0  0  0  0  0  0  0  0
   -8.8152   -8.1856    7.5223 C   0  0  0  0  0  0  0  0  0  0  0  0
  -10.1182   -8.5469    7.2649 C   0  0  0  0  0  0  0  0  0  0  0  0
  -11.2086   -8.0484    7.9700 C   0  0  0  0  0  0  0  0  0  0  0  0
  -10.9345   -7.1455    8.9751 C   0  0  0  0  0  0  0  0  0  0  0  0
   -9.6513   -6.7359    9.2904 C   0  0  0  0  0  0  0  0  0  0  0  0
   -8.6048   -7.2789    8.5392 C   0  0  0  0  0  0  0  0  0  0  0  0
   -8.0627   -9.5257    5.6794 C   0  0  0  0  0  0  0  0  0  0  0  0
   -7.7367   -8.7105    6.7882 O   0  0  0  0  0  0  0  0  0  0  0  0
   -9.3895   -5.8276   10.3042 O   0  0  0  0  0  0  0  0  0  0  0  0
  -10.3919   -5.5810   11.2683 C   0  0  0  0  0  0  0  0  0  0  0  0
   -7.2998   -6.8966    8.8197 O   0  0  0  0  0  0  0  0  0  0  0  0
   -6.6162   -7.6396    9.8325 C   0  0  0  0  0  0  0  0  0  0  0  0
  -14.6073   -9.8148    6.3142 C   0  0  0  0  0  0  0  0  0  0  0  0
  -13.8693  -10.4681    5.5508 O   0  0  0  0  0  0  0  0  0  0  0  0
  -15.5058   -8.8822    5.7473 N   0  0  0  0  0  0  0  0  0  0  0  0
  -16.1334   -8.3081    6.3313 H   0  0  0  0  0  0  0  0  0  0  0  0
  -15.5878   -8.6864    4.2964 C   0  0  0  0  0  0  0  0  0  0  0  0
  -15.9840   -7.2596    4.0373 C   0  0  0  0  0  0  0  0  0  0  0  0
  -17.2402   -6.9726    3.5007 C   0  0  0  0  0  0  0  0  0  0  0  0
  -17.6264   -5.6825    3.2694 C   0  0  0  0  0  0  0  0  0  0  0  0
  -16.7983   -4.6287    3.5546 C   0  0  0  0  0  0  0  0  0  0  0  0
  -15.5569   -4.8817    4.0830 C   0  0  0  0  0  0  0  0  0  0  0  0
  -15.1713   -6.2080    4.3165 C   0  0  0  0  0  0  0  0  0  0  0  0
  -14.2735   -8.9364    3.7094 C   0  0  0  0  0  0  0  0  0  0  0  0
  -13.0766   -8.9976    4.4404 O   0  0  0  0  0  0  0  0  0  0  0  0
  -14.1422   -9.1127    2.4643 O   0  0  0  0  0  0  0  0  0  0  0  0
  -12.4801   -8.1758    4.4419 H   0  0  0  0  0  0  0  0  0  0  0  0
  -15.3899   -9.1187    8.6007 C   0  0  0  0  0  0  0  0  0  0  0  0
  -16.3631   -8.2697    7.9203 C   0  0  0  0  0  0  0  0  0  0  0  0
  -17.6775   -8.6655    7.6461 C   0  0  0  0  0  0  0  0  0  0  0  0
  -18.5688   -7.8140    7.0404 C   0  0  0  0  0  0  0  0  0  0  0  0
  -18.2144   -6.5368    6.6750 C   0  0  0  0  0  0  0  0  0  0  0  0
  -16.9295   -6.1321    6.9355 C   0  0  0  0  0  0  0  0  0  0  0  0
  -16.0154   -6.9884    7.5506 C   0  0  0  0  0  0  0  0  0  0  0  0
 12 13  1  0  0  0
 13  6  1  0  0  0
  6  7  2  0  0  0
  7  8  1  0  0  0
  8  9  2  0  0  0
  9 10  1  0  0  0
 10 14  1  0  0  0
 14 15  1  0  0  0
 10 11  2  0  0  0
 11 16  1  0  0  0
 16 17  1  0  0  0
  8  2  1  0  0  0
  2  3  2  0  0  0
  2  4  1  0  0  0
  4  1  1  0  0  0
  1 33  1  0  0  0
 33 34  1  0  0  0
 34 35  2  0  0  0
 35 36  1  0  0  0
 36 37  2  0  0  0
 37 38  1  0  0  0
 38 39  2  0  0  0
  1 18  1  0  0  0
 18 19  2  0  0  0
 18 20  1  0  0  0
 20 22  1  0  0  0
 22 29  1  0  0  0
 29 30  1  0  0  0
 29 31  2  0  0  0
 22 23  1  0  0  0
 23 24  2  0  0  0
 24 25  1  0  0  0
 25 26  2  0  0  0
 26 27  1  0  0  0
 27 28  2  0  0  0
 11  6  1  0  0  0
 39 34  1  0  0  0
 28 23  1  0  0  0
  4  5  1  0  0  0
 20 21  1  0  0  0
 30 32  1  0  0  0
M  END
> <minimizedAffinity>
5.99670

> <CNNscore>
0.3487388492

> <CNNaffinity>
6.4734687805

> <CNN_VS>
2.2575500011

> <CNNaffinity_variance>
0.9189659953

$$$$
[H]OC(=O)[C@]([H])(c1c([H])c([H])c([H])c([H])c1[H])N([H])C(=O)[C@@]([H])(N([H])C(=O)c1c([H])c(OC([H])([H])[H])c(OC([H])([H])[H])c(OC([H])([H])[H])c1[H])C([H])([H])c1c([H])c([H])c([H])c([H])c1[H]


 39 41  0  0  0  0  0  0  0  0999 V2000
   -9.9586   -6.6090    8.0651 C   0  0  0  0  0  0  0  0  0  0  0  0
  -12.4066   -6.8739    7.5280 C   0  0  0  0  0  0  0  0  0  0  0  0
  -12.6181   -6.9724    8.7593 O   0  0  0  0  0  0  0  0  0  0  0  0
  -11.0851   -6.6877    7.0805 N   0  0  0  0  0  0  0  0  0  0  0  0
  -10.8822   -6.6047    6.0637 H   0  0  0  0  0  0  0  0  0  0  0  0
  -14.9900   -8.2881    5.1811 C   0  0  0  0  0  0  0  0  0  0  0  0
  -13.9182   -8.1587    6.0349 C   0  0  0  0  0  0  0  0  0  0  0  0
  -13.5498   -6.9570    6.6307 C   0  0  0  0  0  0  0  0  0  0  0  0
  -14.3210   -5.8550    6.3284 C   0  0  0  0  0  0  0  0  0  0  0  0
  -15.4121   -5.9092    5.4796 C   0  0  0  0  0  0  0  0  0  0  0  0
  -15.7231   -7.1507    4.9174 C   0  0  0  0  0  0  0  0  0  0  0  0
  -15.2811   -9.5876    3.1847 C   0  0  0  0  0  0  0  0  0  0  0  0
  -15.3333   -9.5202    4.5965 O   0  0  0  0  0  0  0  0  0  0  0  0
  -16.1789   -4.7931    5.1834 O   0  0  0  0  0  0  0  0  0  0  0  0
  -15.8406   -4.0198    4.0509 C   0  0  0  0  0  0  0  0  0  0  0  0
  -16.8101   -7.2532    4.0597 O   0  0  0  0  0  0  0  0  0  0  0  0
  -18.0474   -7.6768    4.6382 C   0  0  0  0  0  0  0  0  0  0  0  0
   -8.7817   -6.3258    7.2405 C   0  0  0  0  0  0  0  0  0  0  0  0
   -8.9120   -5.8704    6.0872 O   0  0  0  0  0  0  0  0  0  0  0  0
   -7.4754   -6.5513    7.7318 N   0  0  0  0  0  0  0  0  0  0  0  0
   -7.3084   -6.9347    8.6750 H   0  0  0  0  0  0  0  0  0  0  0  0
   -6.2921   -6.2494    6.9203 C   0  0  0  0  0  0  0  0  0  0  0  0
   -5.2087   -5.7537    7.8370 C   0  0  0  0  0  0  0  0  0  0  0  0
   -4.1142   -5.0646    7.3120 C   0  0  0  0  0  0  0  0  0  0  0  0
   -3.1245   -4.5935    8.1279 C   0  0  0  0  0  0  0  0  0  0  0  0
   -3.1706   -4.7796    9.4846 C   0  0  0  0  0  0  0  0  0  0  0  0
   -4.2354   -5.4540   10.0283 C   0  0  0  0  0  0  0  0  0  0  0  0
   -5.2446   -5.9324    9.1827 C   0  0  0  0  0  0  0  0  0  0  0  0
   -5.8440   -7.4741    6.2617 C   0  0  0  0  0  0  0  0  0  0  0  0
   -4.8556   -8.3321    6.7695 O   0  0  0  0  0  0  0  0  0  0  0  0
   -6.3399   -7.8347    5.1560 O   0  0  0  0  0  0  0  0  0  0  0  0
   -3.9186   -8.2545    6.3858 H   0  0  0  0  0  0  0  0  0  0  0  0
   -9.9803   -7.9265    8.7656 C   0  0  0  0  0  0  0  0  0  0  0  0
   -9.7461   -9.1263    7.9679 C   0  0  0  0  0  0  0  0  0  0  0  0
  -10.7319   -9.7411    7.1870 C   0  0  0  0  0  0  0  0  0  0  0  0
  -10.4509  -10.8453    6.4203 C   0  0  0  0  0  0  0  0  0  0  0  0
   -9.1928  -11.3986    6.3830 C   0  0  0  0  0  0  0  0  0  0  0  0
   -8.2141  -10.8093    7.1430 C   0  0  0  0  0  0  0  0  0  0  0  0
   -8.4879   -9.6869    7.9257 C   0  0  0  0  0  0  0  0  0  0  0  0
 12 13  1  0  0  0
 13  6  1  0  0  0
  6  7  2  0  0  0
  7  8  1  0  0  0
  8  9  2  0  0  0
  9 10  1  0  0  0
 10 14  1  0  0  0
 14 15  1  0  0  0
 10 11  2  0  0  0
 11 16  1  0  0  0
 16 17  1  0  0  0
  8  2  1  0  0  0
  2  3  2  0  0  0
  2  4  1  0  0  0
  4  1  1  0  0  0
  1 33  1  0  0  0
 33 34  1  0  0  0
 34 35  2  0  0  0
 35 36  1  0  0  0
 36 37  2  0  0  0
 37 38  1  0  0  0
 38 39  2  0  0  0
  1 18  1  0  0  0
 18 19  2  0  0  0
 18 20  1  0  0  0
 20 22  1  0  0  0
 22 29  1  0  0  0
 29 30  1  0  0  0
 29 31  2  0  0  0
 22 23  1  0  0  0
 23 24  2  0  0  0
 24 25  1  0  0  0
 25 26  2  0  0  0
 26 27  1  0  0  0
 27 28  2  0  0  0
 11  6  1  0  0  0
 39 34  1  0  0  0
 28 23  1  0  0  0
  4  5  1  0  0  0
 20 21  1  0  0  0
 30 32  1  0  0  0
M  END
> <minimizedAffinity>
-2.99011

> <CNNscore>
0.3001841903

> <CNNaffinity>
6.3220586777

> <CNN_VS>
1.8977820873

> <CNNaffinity_variance>
0.2853951454

$$$$
[H]OC(=O)[C@]([H])(c1c([H])c([H])c([H])c([H])c1[H])N([H])C(=O)[C@@]([H])(N([H])C(=O)c1c([H])c(OC([H])([H])[H])c(OC([H])([H])[H])c(OC([H])([H])[H])c1[H])C([H])([H])c1c([H])c([H])c([H])c([H])c1[H]


 39 41  0  0  0  0  0  0  0  0999 V2000
   -9.7027   -6.6058    8.3085 C   0  0  0  0  0  0  0  0  0  0  0  0
  -12.1996   -6.8824    8.1084 C   0  0  0  0  0  0  0  0  0  0  0  0
  -12.2180   -7.1735    9.3272 O   0  0  0  0  0  0  0  0  0  0  0  0
  -10.9657   -6.5793    7.5029 N   0  0  0  0  0  0  0  0  0  0  0  0
  -10.9226   -6.3361    6.4924 H   0  0  0  0  0  0  0  0  0  0  0  0
  -14.7600   -6.2425    5.4220 C   0  0  0  0  0  0  0  0  0  0  0  0
  -13.5863   -6.2757    6.1402 C   0  0  0  0  0  0  0  0  0  0  0  0
  -13.4656   -6.8741    7.3900 C   0  0  0  0  0  0  0  0  0  0  0  0
  -14.6024   -7.4561    7.9091 C   0  0  0  0  0  0  0  0  0  0  0  0
  -15.8161   -7.4617    7.2454 C   0  0  0  0  0  0  0  0  0  0  0  0
  -15.8623   -6.8415    5.9934 C   0  0  0  0  0  0  0  0  0  0  0  0
  -14.8568   -4.2138    4.1438 C   0  0  0  0  0  0  0  0  0  0  0  0
  -14.8451   -5.6279    4.1600 O   0  0  0  0  0  0  0  0  0  0  0  0
  -16.9520   -8.0502    7.7792 O   0  0  0  0  0  0  0  0  0  0  0  0
  -16.8115   -8.9053    8.8945 C   0  0  0  0  0  0  0  0  0  0  0  0
  -17.0594   -6.8229    5.2901 O   0  0  0  0  0  0  0  0  0  0  0  0
  -17.3025   -7.9205    4.4062 C   0  0  0  0  0  0  0  0  0  0  0  0
   -8.6483   -6.3291    7.3301 C   0  0  0  0  0  0  0  0  0  0  0  0
   -8.9313   -5.8561    6.2118 O   0  0  0  0  0  0  0  0  0  0  0  0
   -7.2901   -6.5811    7.6306 N   0  0  0  0  0  0  0  0  0  0  0  0
   -6.9990   -6.9799    8.5365 H   0  0  0  0  0  0  0  0  0  0  0  0
   -6.2273   -6.2861    6.6645 C   0  0  0  0  0  0  0  0  0  0  0  0
   -5.0731   -5.6748    7.4090 C   0  0  0  0  0  0  0  0  0  0  0  0
   -4.9268   -5.9065    8.7776 C   0  0  0  0  0  0  0  0  0  0  0  0
   -3.8781   -5.3721    9.4717 C   0  0  0  0  0  0  0  0  0  0  0  0
   -2.9366   -4.5930    8.8519 C   0  0  0  0  0  0  0  0  0  0  0  0
   -3.0557   -4.3485    7.5065 C   0  0  0  0  0  0  0  0  0  0  0  0
   -4.1345   -4.9017    6.8046 C   0  0  0  0  0  0  0  0  0  0  0  0
   -5.7930   -7.5343    6.0417 C   0  0  0  0  0  0  0  0  0  0  0  0
   -4.5584   -8.1559    6.2872 O   0  0  0  0  0  0  0  0  0  0  0  0
   -6.5341   -8.1387    5.2147 O   0  0  0  0  0  0  0  0  0  0  0  0
   -3.8167   -8.0211    5.6068 H   0  0  0  0  0  0  0  0  0  0  0  0
   -9.6886   -7.9581    8.9391 C   0  0  0  0  0  0  0  0  0  0  0  0
   -9.4800   -9.1128    8.0708 C   0  0  0  0  0  0  0  0  0  0  0  0
   -8.2671   -9.8063    7.9833 C   0  0  0  0  0  0  0  0  0  0  0  0
   -8.1331  -10.9136    7.1821 C   0  0  0  0  0  0  0  0  0  0  0  0
   -9.1793  -11.3926    6.4296 C   0  0  0  0  0  0  0  0  0  0  0  0
  -10.3757  -10.7247    6.5025 C   0  0  0  0  0  0  0  0  0  0  0  0
  -10.5237   -9.5986    7.3133 C   0  0  0  0  0  0  0  0  0  0  0  0
 12 13  1  0  0  0
 13  6  1  0  0  0
  6  7  2  0  0  0
  7  8  1  0  0  0
  8  9  2  0  0  0
  9 10  1  0  0  0
 10 14  1  0  0  0
 14 15  1  0  0  0
 10 11  2  0  0  0
 11 16  1  0  0  0
 16 17  1  0  0  0
  8  2  1  0  0  0
  2  3  2  0  0  0
  2  4  1  0  0  0
  4  1  1  0  0  0
  1 33  1  0  0  0
 33 34  1  0  0  0
 34 35  2  0  0  0
 35 36  1  0  0  0
 36 37  2  0  0  0
 37 38  1  0  0  0
 38 39  2  0  0  0
  1 18  1  0  0  0
 18 19  2  0  0  0
 18 20  1  0  0  0
 20 22  1  0  0  0
 22 29  1  0  0  0
 29 30  1  0  0  0
 29 31  2  0  0  0
 22 23  1  0  0  0
 23 24  2  0  0  0
 24 25  1  0  0  0
 25 26  2  0  0  0
 26 27  1  0  0  0
 27 28  2  0  0  0
 11  6  1  0  0  0
 39 34  1  0  0  0
 28 23  1  0  0  0
  4  5  1  0  0  0
 20 21  1  0  0  0
 30 32  1  0  0  0
M  END
> <minimizedAffinity>
-3.18623

> <CNNscore>
0.2746613324

> <CNNaffinity>
6.3511891365

> <CNN_VS>
1.7444260120

> <CNNaffinity_variance>
0.2570467591

$$$$
[H]OC(=O)[C@]([H])(c1c([H])c([H])c([H])c([H])c1[H])N([H])C(=O)[C@@]([H])(N([H])C(=O)c1c([H])c(OC([H])([H])[H])c(OC([H])([H])[H])c(OC([H])([H])[H])c1[H])C([H])([H])c1c([H])c([H])c([H])c([H])c1[H]


 39 41  0  0  0  0  0  0  0  0999 V2000
   -5.2844   -6.8187    7.0694 C   0  0  0  0  0  0  0  0  0  0  0  0
   -7.6543   -7.6619    7.2240 C   0  0  0  0  0  0  0  0  0  0  0  0
   -7.3421   -8.5515    6.3983 O   0  0  0  0  0  0  0  0  0  0  0  0
   -6.6735   -6.7351    7.6245 N   0  0  0  0  0  0  0  0  0  0  0  0
   -6.9071   -5.9859    8.3072 H   0  0  0  0  0  0  0  0  0  0  0  0
  -11.2012   -8.7207    7.9175 C   0  0  0  0  0  0  0  0  0  0  0  0
   -9.9006   -8.6914    7.4679 C   0  0  0  0  0  0  0  0  0  0  0  0
   -9.0218   -7.6437    7.7226 C   0  0  0  0  0  0  0  0  0  0  0  0
   -9.5119   -6.5931    8.4686 C   0  0  0  0  0  0  0  0  0  0  0  0
  -10.8068   -6.5534    8.9538 C   0  0  0  0  0  0  0  0  0  0  0  0
  -11.6332   -7.6415    8.6586 C   0  0  0  0  0  0  0  0  0  0  0  0
  -12.7223   -9.7750    6.3900 C   0  0  0  0  0  0  0  0  0  0  0  0
  -12.0620   -9.7976    7.6405 O   0  0  0  0  0  0  0  0  0  0  0  0
  -11.2873   -5.4903    9.7024 O   0  0  0  0  0  0  0  0  0  0  0  0
  -11.7211   -5.7339   11.0243 C   0  0  0  0  0  0  0  0  0  0  0  0
  -12.9410   -7.6456    9.1252 O   0  0  0  0  0  0  0  0  0  0  0  0
  -13.9061   -6.9421    8.3386 C   0  0  0  0  0  0  0  0  0  0  0  0
   -4.4212   -6.5713    8.2266 C   0  0  0  0  0  0  0  0  0  0  0  0
   -3.3444   -7.1864    8.3556 O   0  0  0  0  0  0  0  0  0  0  0  0
   -4.7803   -5.6275    9.2159 N   0  0  0  0  0  0  0  0  0  0  0  0
   -5.6633   -5.0963    9.1650 H   0  0  0  0  0  0  0  0  0  0  0  0
   -3.9108   -5.3586   10.3655 C   0  0  0  0  0  0  0  0  0  0  0  0
   -3.1508   -4.0906   10.0924 C   0  0  0  0  0  0  0  0  0  0  0  0
   -1.7709   -4.1368    9.8874 C   0  0  0  0  0  0  0  0  0  0  0  0
   -1.0621   -2.9986    9.6245 C   0  0  0  0  0  0  0  0  0  0  0  0
   -1.6775   -1.7764    9.5528 C   0  0  0  0  0  0  0  0  0  0  0  0
   -3.0338   -1.7015    9.7504 C   0  0  0  0  0  0  0  0  0  0  0  0
   -3.7508   -2.8746   10.0189 C   0  0  0  0  0  0  0  0  0  0  0  0
   -4.7399   -5.1776   11.5548 C   0  0  0  0  0  0  0  0  0  0  0  0
   -6.0053   -5.7578   11.7357 O   0  0  0  0  0  0  0  0  0  0  0  0
   -4.3460   -4.4575   12.5166 O   0  0  0  0  0  0  0  0  0  0  0  0
   -6.8211   -5.1779   11.5644 H   0  0  0  0  0  0  0  0  0  0  0  0
   -5.2526   -5.7959    5.9833 C   0  0  0  0  0  0  0  0  0  0  0  0
   -4.0192   -5.0376    5.7972 C   0  0  0  0  0  0  0  0  0  0  0  0
   -3.8088   -3.7595    6.3282 C   0  0  0  0  0  0  0  0  0  0  0  0
   -2.6139   -3.1037    6.1606 C   0  0  0  0  0  0  0  0  0  0  0  0
   -1.5706   -3.6681    5.4655 C   0  0  0  0  0  0  0  0  0  0  0  0
   -1.7593   -4.9204    4.9374 C   0  0  0  0  0  0  0  0  0  0  0  0
   -2.9690   -5.5965    5.1015 C   0  0  0  0  0  0  0  0  0  0  0  0
 12 13  1  0  0  0
 13  6  1  0  0  0
  6  7  2  0  0  0
  7  8  1  0  0  0
  8  9  2  0  0  0
  9 10  1  0  0  0
 10 14  1  0  0  0
 14 15  1  0  0  0
 10 11  2  0  0  0
 11 16  1  0  0  0
 16 17  1  0  0  0
  8  2  1  0  0  0
  2  3  2  0  0  0
  2  4  1  0  0  0
  4  1  1  0  0  0
  1 33  1  0  0  0
 33 34  1  0  0  0
 34 35  2  0  0  0
 35 36  1  0  0  0
 36 37  2  0  0  0
 37 38  1  0  0  0
 38 39  2  0  0  0
  1 18  1  0  0  0
 18 19  2  0  0  0
 18 20  1  0  0  0
 20 22  1  0  0  0
 22 29  1  0  0  0
 29 30  1  0  0  0
 29 31  2  0  0  0
 22 23  1  0  0  0
 23 24  2  0  0  0
 24 25  1  0  0  0
 25 26  2  0  0  0
 26 27  1  0  0  0
 27 28  2  0  0  0
 11  6  1  0  0  0
 39 34  1  0  0  0
 28 23  1  0  0  0
  4  5  1  0  0  0
 20 21  1  0  0  0
 30 32  1  0  0  0
M  END
> <minimizedAffinity>
-6.25822

> <CNNscore>
0.2693304420

> <CNNaffinity>
5.7427997589

> <CNN_VS>
1.5467108488

> <CNNaffinity_variance>
0.1843418479

$$$$
[H]OC(=O)[C@]([H])(c1c([H])c([H])c([H])c([H])c1[H])N([H])C(=O)[C@@]([H])(N([H])C(=O)c1c([H])c(OC([H])([H])[H])c(OC([H])([H])[H])c(OC([H])([H])[H])c1[H])C([H])([H])c1c([H])c([H])c([H])c([H])c1[H]


 39 41  0  0  0  0  0  0  0  0999 V2000
   -5.6105   -6.2047    8.1927 C   0  0  0  0  0  0  0  0  0  0  0  0
   -8.0744   -6.6244    7.8697 C   0  0  0  0  0  0  0  0  0  0  0  0
   -8.1205   -5.5627    7.2055 O   0  0  0  0  0  0  0  0  0  0  0  0
   -6.8407   -7.0313    8.4117 N   0  0  0  0  0  0  0  0  0  0  0  0
   -6.7755   -7.9076    8.9684 H   0  0  0  0  0  0  0  0  0  0  0  0
  -10.6830   -9.3120    7.4774 C   0  0  0  0  0  0  0  0  0  0  0  0
   -9.5340   -8.5648    7.3507 C   0  0  0  0  0  0  0  0  0  0  0  0
   -9.3087   -7.3772    8.0390 C   0  0  0  0  0  0  0  0  0  0  0  0
  -10.3108   -6.9537    8.8857 C   0  0  0  0  0  0  0  0  0  0  0  0
  -11.4917   -7.6519    9.0638 C   0  0  0  0  0  0  0  0  0  0  0  0
  -11.6485   -8.8371    8.3393 C   0  0  0  0  0  0  0  0  0  0  0  0
   -9.7130  -11.1616    6.2955 C   0  0  0  0  0  0  0  0  0  0  0  0
  -10.8766  -10.5090    6.7650 O   0  0  0  0  0  0  0  0  0  0  0  0
  -12.4917   -7.2144    9.9181 O   0  0  0  0  0  0  0  0  0  0  0  0
  -13.1281   -5.9840    9.6422 C   0  0  0  0  0  0  0  0  0  0  0  0
  -12.8174   -9.5717    8.4864 O   0  0  0  0  0  0  0  0  0  0  0  0
  -13.9041   -9.2304    7.6216 C   0  0  0  0  0  0  0  0  0  0  0  0
   -4.8486   -6.9551    7.1918 C   0  0  0  0  0  0  0  0  0  0  0  0
   -5.2641   -8.0535    6.7733 O   0  0  0  0  0  0  0  0  0  0  0  0
   -3.6347   -6.4514    6.6708 N   0  0  0  0  0  0  0  0  0  0  0  0
   -3.2393   -5.5524    6.9870 H   0  0  0  0  0  0  0  0  0  0  0  0
   -2.8779   -7.1865    5.6526 C   0  0  0  0  0  0  0  0  0  0  0  0
   -2.3868   -6.2001    4.6300 C   0  0  0  0  0  0  0  0  0  0  0  0
   -1.5097   -6.6160    3.6270 C   0  0  0  0  0  0  0  0  0  0  0  0
   -1.0610   -5.7397    2.6794 C   0  0  0  0  0  0  0  0  0  0  0  0
   -1.4542   -4.4271    2.6796 C   0  0  0  0  0  0  0  0  0  0  0  0
   -2.3163   -3.9905    3.6545 C   0  0  0  0  0  0  0  0  0  0  0  0
   -2.7704   -4.8974    4.6208 C   0  0  0  0  0  0  0  0  0  0  0  0
   -1.7324   -7.8332    6.2883 C   0  0  0  0  0  0  0  0  0  0  0  0
   -1.2881   -9.1312    5.9907 O   0  0  0  0  0  0  0  0  0  0  0  0
   -1.0601   -7.2347    7.1762 O   0  0  0  0  0  0  0  0  0  0  0  0
   -1.5568   -9.8800    6.6218 H   0  0  0  0  0  0  0  0  0  0  0  0
   -4.9943   -6.0837    9.5464 C   0  0  0  0  0  0  0  0  0  0  0  0
   -3.8656   -5.1712    9.7023 C   0  0  0  0  0  0  0  0  0  0  0  0
   -2.5412   -5.5977    9.8559 C   0  0  0  0  0  0  0  0  0  0  0  0
   -1.5079   -4.6986    9.9569 C   0  0  0  0  0  0  0  0  0  0  0  0
   -1.7234   -3.3415    9.9127 C   0  0  0  0  0  0  0  0  0  0  0  0
   -3.0158   -2.9054    9.7632 C   0  0  0  0  0  0  0  0  0  0  0  0
   -4.0736   -3.8096    9.6593 C   0  0  0  0  0  0  0  0  0  0  0  0
 12 13  1  0  0  0
 13  6  1  0  0  0
  6  7  2  0  0  0
  7  8  1  0  0  0
  8  9  2  0  0  0
  9 10  1  0  0  0
 10 14  1  0  0  0
 14 15  1  0  0  0
 10 11  2  0  0  0
 11 16  1  0  0  0
 16 17  1  0  0  0
  8  2  1  0  0  0
  2  3  2  0  0  0
  2  4  1  0  0  0
  4  1  1  0  0  0
  1 33  1  0  0  0
 33 34  1  0  0  0
 34 35  2  0  0  0
 35 36  1  0  0  0
 36 37  2  0  0  0
 37 38  1  0  0  0
 38 39  2  0  0  0
  1 18  1  0  0  0
 18 19  2  0  0  0
 18 20  1  0  0  0
 20 22  1  0  0  0
 22 29  1  0  0  0
 29 30  1  0  0  0
 29 31  2  0  0  0
 22 23  1  0  0  0
 23 24  2  0  0  0
 24 25  1  0  0  0
 25 26  2  0  0  0
 26 27  1  0  0  0
 27 28  2  0  0  0
 11  6  1  0  0  0
 39 34  1  0  0  0
 28 23  1  0  0  0
  4  5  1  0  0  0
 20 21  1  0  0  0
 30 32  1  0  0  0
M  END
> <minimizedAffinity>
-4.54947

> <CNNscore>
0.2564882338

> <CNNaffinity>
5.9733290672

> <CNN_VS>
1.5320886374

> <CNNaffinity_variance>
0.3776576221

$$$$
[H]OC(=O)[C@]([H])(c1c([H])c([H])c([H])c([H])c1[H])N([H])C(=O)[C@@]([H])(N([H])C(=O)c1c([H])c(OC([H])([H])[H])c(OC([H])([H])[H])c(OC([H])([H])[H])c1[H])C([H])([H])c1c([H])c([H])c([H])c([H])c1[H]


 39 41  0  0  0  0  0  0  0  0999 V2000
   -5.7999   -5.8600    7.9904 C   0  0  0  0  0  0  0  0  0  0  0  0
   -8.2475   -6.4402    7.8371 C   0  0  0  0  0  0  0  0  0  0  0  0
   -8.4865   -5.2119    7.7697 O   0  0  0  0  0  0  0  0  0  0  0  0
   -6.9104   -6.8649    7.9516 N   0  0  0  0  0  0  0  0  0  0  0  0
   -6.6850   -7.8786    8.0110 H   0  0  0  0  0  0  0  0  0  0  0  0
  -10.2727   -9.5594    7.2436 C   0  0  0  0  0  0  0  0  0  0  0  0
   -9.2370   -8.6549    7.3070 C   0  0  0  0  0  0  0  0  0  0  0  0
   -9.3762   -7.3583    7.7907 C   0  0  0  0  0  0  0  0  0  0  0  0
  -10.6331   -6.9909    8.2218 C   0  0  0  0  0  0  0  0  0  0  0  0
  -11.7205   -7.8454    8.1883 C   0  0  0  0  0  0  0  0  0  0  0  0
  -11.5056   -9.1335    7.6895 C   0  0  0  0  0  0  0  0  0  0  0  0
   -9.2957  -10.9967    5.5888 C   0  0  0  0  0  0  0  0  0  0  0  0
  -10.0948  -10.8634    6.7481 O   0  0  0  0  0  0  0  0  0  0  0  0
  -12.9795   -7.4629    8.6245 O   0  0  0  0  0  0  0  0  0  0  0  0
  -13.3010   -7.6239    9.9905 C   0  0  0  0  0  0  0  0  0  0  0  0
  -12.5680  -10.0260    7.6373 O   0  0  0  0  0  0  0  0  0  0  0  0
  -13.4900   -9.8649    6.5561 C   0  0  0  0  0  0  0  0  0  0  0  0
   -5.2664   -5.8633    6.6262 C   0  0  0  0  0  0  0  0  0  0  0  0
   -5.5454   -6.7899    5.8401 O   0  0  0  0  0  0  0  0  0  0  0  0
   -4.4342   -4.8173    6.1660 N   0  0  0  0  0  0  0  0  0  0  0  0
   -4.1637   -4.0300    6.7755 H   0  0  0  0  0  0  0  0  0  0  0  0
   -3.9146   -4.8026    4.7950 C   0  0  0  0  0  0  0  0  0  0  0  0
   -3.9272   -3.3819    4.3038 C   0  0  0  0  0  0  0  0  0  0  0  0
   -4.2048   -2.3411    5.1914 C   0  0  0  0  0  0  0  0  0  0  0  0
   -4.2085   -1.0413    4.7698 C   0  0  0  0  0  0  0  0  0  0  0  0
   -3.9409   -0.7143    3.4663 C   0  0  0  0  0  0  0  0  0  0  0  0
   -3.6647   -1.7178    2.5715 C   0  0  0  0  0  0  0  0  0  0  0  0
   -3.6631   -3.0468    3.0145 C   0  0  0  0  0  0  0  0  0  0  0  0
   -2.5401   -5.2979    4.8037 C   0  0  0  0  0  0  0  0  0  0  0  0
   -1.9552   -6.0337    3.7610 O   0  0  0  0  0  0  0  0  0  0  0  0
   -1.7800   -5.0843    5.7913 O   0  0  0  0  0  0  0  0  0  0  0  0
   -1.8990   -7.0421    3.8666 H   0  0  0  0  0  0  0  0  0  0  0  0
   -4.8873   -6.3511    9.0641 C   0  0  0  0  0  0  0  0  0  0  0  0
   -3.8431   -5.4473    9.5371 C   0  0  0  0  0  0  0  0  0  0  0  0
   -2.5025   -5.5410    9.1450 C   0  0  0  0  0  0  0  0  0  0  0  0
   -1.5644   -4.6399    9.5855 C   0  0  0  0  0  0  0  0  0  0  0  0
   -1.8950   -3.6065   10.4301 C   0  0  0  0  0  0  0  0  0  0  0  0
   -3.2046   -3.4998   10.8253 C   0  0  0  0  0  0  0  0  0  0  0  0
   -4.1665   -4.4093   10.3840 C   0  0  0  0  0  0  0  0  0  0  0  0
 12 13  1  0  0  0
 13  6  1  0  0  0
  6  7  2  0  0  0
  7  8  1  0  0  0
  8  9  2  0  0  0
  9 10  1  0  0  0
 10 14  1  0  0  0
 14 15  1  0  0  0
 10 11  2  0  0  0
 11 16  1  0  0  0
 16 17  1  0  0  0
  8  2  1  0  0  0
  2  3  2  0  0  0
  2  4  1  0  0  0
  4  1  1  0  0  0
  1 33  1  0  0  0
 33 34  1  0  0  0
 34 35  2  0  0  0
 35 36  1  0  0  0
 36 37  2  0  0  0
 37 38  1  0  0  0
 38 39  2  0  0  0
  1 18  1  0  0  0
 18 19  2  0  0  0
 18 20  1  0  0  0
 20 22  1  0  0  0
 22 29  1  0  0  0
 29 30  1  0  0  0
 29 31  2  0  0  0
 22 23  1  0  0  0
 23 24  2  0  0  0
 24 25  1  0  0  0
 25 26  2  0  0  0
 26 27  1  0  0  0
 27 28  2  0  0  0
 11  6  1  0  0  0
 39 34  1  0  0  0
 28 23  1  0  0  0
  4  5  1  0  0  0
 20 21  1  0  0  0
 30 32  1  0  0  0
M  END
> <minimizedAffinity>
-4.01884

> <CNNscore>
0.2545924187

> <CNNaffinity>
5.9124650955

> <CNN_VS>
1.5052688122

> <CNNaffinity_variance>
0.3657032251

$$$$
[H]c1c([H])c([H])c(S(=O)(=O)[C@@]2([H])C([H])([H])N(C(=O)C3(c4c([H])c([H])c(Cl)c([H])c4[H])C([H])([H])C3([H])[H])[C@]([H])(C(=O)N([H])[C@]([H])(C(=O)C(=O)N([H])C3([H])C([H])([H])C3([H])[H])C([H])([H])C([H])([H])C([H])([H])[H])C2([H])[H])c(Cl)c1[H]


 44 48  0  0  0  0  0  0  0  0999 V2000
  -11.7204   -9.1309    8.2300 C   0  0  0  0  0  0  0  0  0  0  0  0
  -10.4166   -8.3556    8.1094 C   0  0  0  0  0  0  0  0  0  0  0  0
   -9.9931   -8.6306    6.6575 C   0  0  0  0  0  0  0  0  0  0  0  0
  -11.0446   -9.5418    6.1392 C   0  0  0  0  0  0  0  0  0  0  0  0
  -12.2526   -9.1267    6.9116 N   0  0  0  0  0  0  0  0  0  0  0  0
  -13.5269   -8.9203    6.3604 C   0  0  0  0  0  0  0  0  0  0  0  0
  -14.4305   -8.7561    7.3021 O   0  0  0  0  0  0  0  0  0  0  0  0
  -13.0604   -7.2636    9.1468 N   0  0  0  0  0  0  0  0  0  0  0  0
  -12.5090   -8.5472    9.3313 C   0  0  0  0  0  0  0  0  0  0  0  0
  -12.6606   -9.2013   10.3816 O   0  0  0  0  0  0  0  0  0  0  0  0
  -12.8775   -6.7472    8.2041 H   0  0  0  0  0  0  0  0  0  0  0  0
  -13.8612   -6.5198   10.0731 C   0  0  0  0  0  0  0  0  0  0  0  0
  -13.1267   -5.4705   10.7708 C   0  0  0  0  0  0  0  0  0  0  0  0
  -13.5791   -4.2779   10.5983 O   0  0  0  0  0  0  0  0  0  0  0  0
  -11.9701   -5.6034   11.6219 C   0  0  0  0  0  0  0  0  0  0  0  0
  -10.8495   -6.0469   11.2973 O   0  0  0  0  0  0  0  0  0  0  0  0
  -12.0881   -5.1874   13.0040 N   0  0  0  0  0  0  0  0  0  0  0  0
  -13.0073   -4.7982   13.3669 H   0  0  0  0  0  0  0  0  0  0  0  0
  -11.0041   -5.2751   13.9456 C   0  0  0  0  0  0  0  0  0  0  0  0
  -10.0944   -4.1228   14.1089 C   0  0  0  0  0  0  0  0  0  0  0  0
  -11.0760   -4.4905   15.1907 C   0  0  0  0  0  0  0  0  0  0  0  0
  -14.7457   -7.3818   10.9743 C   0  0  0  0  0  0  0  0  0  0  0  0
  -16.0262   -7.8456    8.8892 C   0  0  0  0  0  0  0  0  0  0  0  0
  -15.4439   -8.4676   10.1778 C   0  0  0  0  0  0  0  0  0  0  0  0
  -14.0211   -8.8526    5.0051 C   0  0  0  0  0  0  0  0  0  0  0  0
  -13.3988   -9.2822    3.7633 C   0  0  0  0  0  0  0  0  0  0  0  0
  -14.3763  -10.2093    4.3728 C   0  0  0  0  0  0  0  0  0  0  0  0
  -15.1159   -7.8145    4.8144 C   0  0  0  0  0  0  0  0  0  0  0  0
  -16.4020   -8.2136    4.5264 C   0  0  0  0  0  0  0  0  0  0  0  0
  -17.4208   -7.2852    4.3763 C   0  0  0  0  0  0  0  0  0  0  0  0
  -17.1657   -5.9390    4.5128 C   0  0  0  0  0  0  0  0  0  0  0  0
  -18.4743   -4.7607    4.3200 Cl  0  0  0  0  0  0  0  0  0  0  0  0
  -15.8917   -5.5265    4.7990 C   0  0  0  0  0  0  0  0  0  0  0  0
  -14.8744   -6.4776    4.9477 C   0  0  0  0  0  0  0  0  0  0  0  0
   -8.3490   -9.1986    6.7436 S   0  0  0  0  0  0  0  0  0  0  0  0
   -8.3545  -10.3834    7.7134 O   0  0  0  0  0  0  0  0  0  0  0  0
   -7.8812   -9.8100    5.4379 O   0  0  0  0  0  0  0  0  0  0  0  0
   -7.1451   -8.0627    7.2208 C   0  0  0  0  0  0  0  0  0  0  0  0
   -6.6837   -8.1119    8.5582 C   0  0  0  0  0  0  0  0  0  0  0  0
   -5.7676   -7.2252    9.0467 C   0  0  0  0  0  0  0  0  0  0  0  0
   -5.2887   -6.2561    8.1883 C   0  0  0  0  0  0  0  0  0  0  0  0
   -5.7048   -6.1703    6.8834 C   0  0  0  0  0  0  0  0  0  0  0  0
   -6.6528   -7.0974    6.3981 C   0  0  0  0  0  0  0  0  0  0  0  0
   -7.1085   -7.0020    4.7190 Cl  0  0  0  0  0  0  0  0  0  0  0  0
 23 24  1  0  0  0
 24 22  1  0  0  0
 22 12  1  0  0  0
 12  8  1  0  0  0
  8  9  1  0  0  0
  9 10  2  0  0  0
  9  1  1  0  0  0
  1  2  1  0  0  0
  2  3  1  0  0  0
  3  4  1  0  0  0
  4  5  1  0  0  0
  5  6  1  0  0  0
  6  7  2  0  0  0
  6 25  1  0  0  0
 25 26  1  0  0  0
 26 27  1  0  0  0
 25 28  1  0  0  0
 28 29  2  0  0  0
 29 30  1  0  0  0
 30 31  2  0  0  0
 31 32  1  0  0  0
 31 33  1  0  0  0
 33 34  2  0  0  0
  3 35  1  0  0  0
 35 36  2  0  0  0
 35 37  2  0  0  0
 35 38  1  0  0  0
 38 39  2  0  0  0
 39 40  1  0  0  0
 40 41  2  0  0  0
 41 42  1  0  0  0
 42 43  2  0  0  0
 43 44  1  0  0  0
 12 13  1  0  0  0
 13 14  2  0  0  0
 13 15  1  0  0  0
 15 16  2  0  0  0
 15 17  1  0  0  0
 17 19  1  0  0  0
 19 20  1  0  0  0
 20 21  1  0  0  0
  5  1  1  0  0  0
 27 25  1  0  0  0
 34 28  1  0  0  0
 43 38  1  0  0  0
 21 19  1  0  0  0
  8 11  1  0  0  0
 17 18  1  0  0  0
M  END
> <minimizedAffinity>
2.88558

> <CNNscore>
0.4424517155

> <CNNaffinity>
7.7707505226

> <CNN_VS>
3.4381818771

> <CNNaffinity_variance>
0.1586846709

$$$$
[H]c1c([H])c([H])c(S(=O)(=O)[C@@]2([H])C([H])([H])N(C(=O)C3(c4c([H])c([H])c(Cl)c([H])c4[H])C([H])([H])C3([H])[H])[C@]([H])(C(=O)N([H])[C@]([H])(C(=O)C(=O)N([H])C3([H])C([H])([H])C3([H])[H])C([H])([H])C([H])([H])C([H])([H])[H])C2([H])[H])c(Cl)c1[H]


 44 48  0  0  0  0  0  0  0  0999 V2000
  -12.5531   -9.2800    7.0831 C   0  0  0  0  0  0  0  0  0  0  0  0
  -12.6939   -8.7675    5.6572 C   0  0  0  0  0  0  0  0  0  0  0  0
  -13.8143   -7.7226    5.7829 C   0  0  0  0  0  0  0  0  0  0  0  0
  -14.2096   -7.7846    7.2127 C   0  0  0  0  0  0  0  0  0  0  0  0
  -12.9387   -8.1755    7.8910 N   0  0  0  0  0  0  0  0  0  0  0  0
  -12.4372   -7.5833    9.0607 C   0  0  0  0  0  0  0  0  0  0  0  0
  -11.4125   -8.2592    9.5332 O   0  0  0  0  0  0  0  0  0  0  0  0
  -10.1486   -8.9915    7.5905 N   0  0  0  0  0  0  0  0  0  0  0  0
  -11.2044   -9.8561    7.2397 C   0  0  0  0  0  0  0  0  0  0  0  0
  -11.0422  -11.0786    7.0573 O   0  0  0  0  0  0  0  0  0  0  0  0
  -10.3643   -7.9311    7.7243 H   0  0  0  0  0  0  0  0  0  0  0  0
   -8.7746   -9.3380    7.8024 C   0  0  0  0  0  0  0  0  0  0  0  0
   -7.9098   -8.1868    8.0354 C   0  0  0  0  0  0  0  0  0  0  0  0
   -7.5559   -8.0066    9.2596 O   0  0  0  0  0  0  0  0  0  0  0  0
   -7.4069   -7.2373    7.0734 C   0  0  0  0  0  0  0  0  0  0  0  0
   -8.0822   -6.5118    6.3149 O   0  0  0  0  0  0  0  0  0  0  0  0
   -5.9720   -7.0855    6.9501 N   0  0  0  0  0  0  0  0  0  0  0  0
   -5.3205   -7.6647    7.5569 H   0  0  0  0  0  0  0  0  0  0  0  0
   -5.3557   -6.1726    6.0249 C   0  0  0  0  0  0  0  0  0  0  0  0
   -4.4318   -5.1398    6.5364 C   0  0  0  0  0  0  0  0  0  0  0  0
   -3.9167   -6.3096    5.7396 C   0  0  0  0  0  0  0  0  0  0  0  0
   -8.2211  -10.3558    6.8048 C   0  0  0  0  0  0  0  0  0  0  0  0
   -8.8701  -10.8790    4.4580 C   0  0  0  0  0  0  0  0  0  0  0  0
   -8.2575   -9.8100    5.3899 C   0  0  0  0  0  0  0  0  0  0  0  0
  -12.8139   -6.4133    9.8189 C   0  0  0  0  0  0  0  0  0  0  0  0
  -13.6825   -5.3058    9.4542 C   0  0  0  0  0  0  0  0  0  0  0  0
  -14.2822   -6.3785   10.2764 C   0  0  0  0  0  0  0  0  0  0  0  0
  -11.8436   -6.0861   10.9431 C   0  0  0  0  0  0  0  0  0  0  0  0
  -12.3157   -5.8535   12.2157 C   0  0  0  0  0  0  0  0  0  0  0  0
  -11.4464   -5.5811   13.2610 C   0  0  0  0  0  0  0  0  0  0  0  0
  -10.0870   -5.5374   13.0464 C   0  0  0  0  0  0  0  0  0  0  0  0
   -8.9845   -5.1895   14.3885 Cl  0  0  0  0  0  0  0  0  0  0  0  0
   -9.6022   -5.7664   11.7864 C   0  0  0  0  0  0  0  0  0  0  0  0
  -10.4942   -6.0404   10.7419 C   0  0  0  0  0  0  0  0  0  0  0  0
  -14.9861   -8.1362    4.5627 S   0  0  0  0  0  0  0  0  0  0  0  0
  -14.2191   -8.2140    3.2398 O   0  0  0  0  0  0  0  0  0  0  0  0
  -15.5324   -9.5389    4.7400 O   0  0  0  0  0  0  0  0  0  0  0  0
  -16.3445   -7.0917    4.3861 C   0  0  0  0  0  0  0  0  0  0  0  0
  -17.6275   -7.6844    4.3057 C   0  0  0  0  0  0  0  0  0  0  0  0
  -18.7611   -6.9472    4.1171 C   0  0  0  0  0  0  0  0  0  0  0  0
  -18.6269   -5.5780    4.0039 C   0  0  0  0  0  0  0  0  0  0  0  0
  -17.4045   -4.9584    4.0776 C   0  0  0  0  0  0  0  0  0  0  0  0
  -16.2447   -5.7395    4.2733 C   0  0  0  0  0  0  0  0  0  0  0  0
  -14.7173   -4.9154    4.4297 Cl  0  0  0  0  0  0  0  0  0  0  0  0
 23 24  1  0  0  0
 24 22  1  0  0  0
 22 12  1  0  0  0
 12  8  1  0  0  0
  8  9  1  0  0  0
  9 10  2  0  0  0
  9  1  1  0  0  0
  1  2  1  0  0  0
  2  3  1  0  0  0
  3  4  1  0  0  0
  4  5  1  0  0  0
  5  6  1  0  0  0
  6  7  2  0  0  0
  6 25  1  0  0  0
 25 26  1  0  0  0
 26 27  1  0  0  0
 25 28  1  0  0  0
 28 29  2  0  0  0
 29 30  1  0  0  0
 30 31  2  0  0  0
 31 32  1  0  0  0
 31 33  1  0  0  0
 33 34  2  0  0  0
  3 35  1  0  0  0
 35 36  2  0  0  0
 35 37  2  0  0  0
 35 38  1  0  0  0
 38 39  2  0  0  0
 39 40  1  0  0  0
 40 41  2  0  0  0
 41 42  1  0  0  0
 42 43  2  0  0  0
 43 44  1  0  0  0
 12 13  1  0  0  0
 13 14  2  0  0  0
 13 15  1  0  0  0
 15 16  2  0  0  0
 15 17  1  0  0  0
 17 19  1  0  0  0
 19 20  1  0  0  0
 20 21  1  0  0  0
  5  1  1  0  0  0
 27 25  1  0  0  0
 34 28  1  0  0  0
 43 38  1  0  0  0
 21 19  1  0  0  0
  8 11  1  0  0  0
 17 18  1  0  0  0
M  END
> <minimizedAffinity>
2.66684

> <CNNscore>
0.4261097610

> <CNNaffinity>
7.4732446671

> <CNN_VS>
3.1844224930

> <CNNaffinity_variance>
0.2596518397

$$$$
[H]c1c([H])c([H])c(S(=O)(=O)[C@@]2([H])C([H])([H])N(C(=O)C3(c4c([H])c([H])c(Cl)c([H])c4[H])C([H])([H])C3([H])[H])[C@]([H])(C(=O)N([H])[C@]([H])(C(=O)C(=O)N([H])C3([H])C([H])([H])C3([H])[H])C([H])([H])C([H])([H])C([H])([H])[H])C2([H])[H])c(Cl)c1[H]


 44 48  0  0  0  0  0  0  0  0999 V2000
   -4.6723   -5.5838    6.6134 C   0  0  0  0  0  0  0  0  0  0  0  0
   -5.2369   -4.9340    5.3585 C   0  0  0  0  0  0  0  0  0  0  0  0
   -4.0541   -5.0063    4.3793 C   0  0  0  0  0  0  0  0  0  0  0  0
   -2.9637   -5.6278    5.1725 C   0  0  0  0  0  0  0  0  0  0  0  0
   -3.7059   -6.5053    6.1251 N   0  0  0  0  0  0  0  0  0  0  0  0
   -3.3642   -7.8327    6.4275 C   0  0  0  0  0  0  0  0  0  0  0  0
   -4.0722   -8.2864    7.4390 O   0  0  0  0  0  0  0  0  0  0  0  0
   -5.6533   -7.3205    8.0777 N   0  0  0  0  0  0  0  0  0  0  0  0
   -5.7978   -6.0784    7.4282 C   0  0  0  0  0  0  0  0  0  0  0  0
   -6.8327   -5.3888    7.5150 O   0  0  0  0  0  0  0  0  0  0  0  0
   -4.7221   -7.8725    7.9478 H   0  0  0  0  0  0  0  0  0  0  0  0
   -6.6082   -7.9781    8.9193 C   0  0  0  0  0  0  0  0  0  0  0  0
   -7.8021   -8.4259    8.2112 C   0  0  0  0  0  0  0  0  0  0  0  0
   -8.8011   -7.6157    8.2553 O   0  0  0  0  0  0  0  0  0  0  0  0
   -7.9981   -9.6502    7.4747 C   0  0  0  0  0  0  0  0  0  0  0  0
   -7.2969  -10.6809    7.5366 O   0  0  0  0  0  0  0  0  0  0  0  0
   -9.1173   -9.7240    6.5587 N   0  0  0  0  0  0  0  0  0  0  0  0
   -9.7666   -8.8916    6.4421 H   0  0  0  0  0  0  0  0  0  0  0  0
   -9.4106  -10.8907    5.7699 C   0  0  0  0  0  0  0  0  0  0  0  0
   -8.9578  -10.9452    4.3649 C   0  0  0  0  0  0  0  0  0  0  0  0
   -8.3124  -11.8077    5.4177 C   0  0  0  0  0  0  0  0  0  0  0  0
   -6.8860   -7.2575   10.2388 C   0  0  0  0  0  0  0  0  0  0  0  0
   -4.4094   -7.4799   10.3791 C   0  0  0  0  0  0  0  0  0  0  0  0
   -5.6248   -6.6189   10.7890 C   0  0  0  0  0  0  0  0  0  0  0  0
   -2.4197   -8.7665    5.8604 C   0  0  0  0  0  0  0  0  0  0  0  0
   -1.9184   -8.8751    4.5000 C   0  0  0  0  0  0  0  0  0  0  0  0
   -1.0602   -8.1617    5.4700 C   0  0  0  0  0  0  0  0  0  0  0  0
   -2.2792  -10.0468    6.6688 C   0  0  0  0  0  0  0  0  0  0  0  0
   -1.4391  -10.0852    7.7592 C   0  0  0  0  0  0  0  0  0  0  0  0
   -1.3174  -11.2335    8.5267 C   0  0  0  0  0  0  0  0  0  0  0  0
   -2.0376  -12.3642    8.2122 C   0  0  0  0  0  0  0  0  0  0  0  0
   -1.8759  -13.8261    9.1993 Cl  0  0  0  0  0  0  0  0  0  0  0  0
   -2.8771  -12.3417    7.1307 C   0  0  0  0  0  0  0  0  0  0  0  0
   -2.9885  -11.1733    6.3664 C   0  0  0  0  0  0  0  0  0  0  0  0
   -3.8421   -3.3874    3.7731 S   0  0  0  0  0  0  0  0  0  0  0  0
   -5.2486   -2.8220    3.5579 O   0  0  0  0  0  0  0  0  0  0  0  0
   -3.2400   -2.4585    4.8084 O   0  0  0  0  0  0  0  0  0  0  0  0
   -2.9135   -3.1982    2.3347 C   0  0  0  0  0  0  0  0  0  0  0  0
   -2.0888   -4.2768    1.9342 C   0  0  0  0  0  0  0  0  0  0  0  0
   -1.2790   -4.2075    0.8371 C   0  0  0  0  0  0  0  0  0  0  0  0
   -1.2813   -3.0351    0.1085 C   0  0  0  0  0  0  0  0  0  0  0  0
   -2.0653   -1.9639    0.4567 C   0  0  0  0  0  0  0  0  0  0  0  0
   -2.8957   -2.0565    1.5949 C   0  0  0  0  0  0  0  0  0  0  0  0
   -3.9280   -0.7036    1.9696 Cl  0  0  0  0  0  0  0  0  0  0  0  0
 23 24  1  0  0  0
 24 22  1  0  0  0
 22 12  1  0  0  0
 12  8  1  0  0  0
  8  9  1  0  0  0
  9 10  2  0  0  0
  9  1  1  0  0  0
  1  2  1  0  0  0
  2  3  1  0  0  0
  3  4  1  0  0  0
  4  5  1  0  0  0
  5  6  1  0  0  0
  6  7  2  0  0  0
  6 25  1  0  0  0
 25 26  1  0  0  0
 26 27  1  0  0  0
 25 28  1  0  0  0
 28 29  2  0  0  0
 29 30  1  0  0  0
 30 31  2  0  0  0
 31 32  1  0  0  0
 31 33  1  0  0  0
 33 34  2  0  0  0
  3 35  1  0  0  0
 35 36  2  0  0  0
 35 37  2  0  0  0
 35 38  1  0  0  0
 38 39  2  0  0  0
 39 40  1  0  0  0
 40 41  2  0  0  0
 41 42  1  0  0  0
 42 43  2  0  0  0
 43 44  1  0  0  0
 12 13  1  0  0  0
 13 14  2  0  0  0
 13 15  1  0  0  0
 15 16  2  0  0  0
 15 17  1  0  0  0
 17 19  1  0  0  0
 19 20  1  0  0  0
 20 21  1  0  0  0
  5  1  1  0  0  0
 27 25  1  0  0  0
 34 28  1  0  0  0
 43 38  1  0  0  0
 21 19  1  0  0  0
  8 11  1  0  0  0
 17 18  1  0  0  0
M  END
> <minimizedAffinity>
12.68476

> <CNNscore>
0.3929694891

> <CNNaffinity>
6.4837350845

> <CNN_VS>
2.5479099751

> <CNNaffinity_variance>
1.2908120155

$$$$
[H]c1c([H])c([H])c(S(=O)(=O)[C@@]2([H])C([H])([H])N(C(=O)C3(c4c([H])c([H])c(Cl)c([H])c4[H])C([H])([H])C3([H])[H])[C@]([H])(C(=O)N([H])[C@]([H])(C(=O)C(=O)N([H])C3([H])C([H])([H])C3([H])[H])C([H])([H])C([H])([H])C([H])([H])[H])C2([H])[H])c(Cl)c1[H]


 44 48  0  0  0  0  0  0  0  0999 V2000
   -9.9925   -7.1319    8.8790 C   0  0  0  0  0  0  0  0  0  0  0  0
   -8.8066   -6.6449    8.0592 C   0  0  0  0  0  0  0  0  0  0  0  0
   -8.7114   -7.6985    6.9440 C   0  0  0  0  0  0  0  0  0  0  0  0
   -9.7903   -8.6663    7.2661 C   0  0  0  0  0  0  0  0  0  0  0  0
  -10.8131   -7.8109    7.9371 N   0  0  0  0  0  0  0  0  0  0  0  0
  -12.1909   -7.8483    7.6720 C   0  0  0  0  0  0  0  0  0  0  0  0
  -12.8623   -7.1315    8.5470 O   0  0  0  0  0  0  0  0  0  0  0  0
  -10.9879   -6.2044   10.9458 N   0  0  0  0  0  0  0  0  0  0  0  0
  -10.5437   -5.9861    9.6265 C   0  0  0  0  0  0  0  0  0  0  0  0
  -10.5999   -4.8709    9.0722 O   0  0  0  0  0  0  0  0  0  0  0  0
  -10.9164   -7.2099   11.3613 H   0  0  0  0  0  0  0  0  0  0  0  0
  -11.5432   -5.2392   11.8474 C   0  0  0  0  0  0  0  0  0  0  0  0
  -11.1824   -5.4658   13.2423 C   0  0  0  0  0  0  0  0  0  0  0  0
  -10.8642   -6.6780   13.5357 O   0  0  0  0  0  0  0  0  0  0  0  0
  -11.1373   -4.5094   14.3207 C   0  0  0  0  0  0  0  0  0  0  0  0
  -11.9980   -4.3424   15.2090 O   0  0  0  0  0  0  0  0  0  0  0  0
   -9.9855   -3.6361   14.4110 N   0  0  0  0  0  0  0  0  0  0  0  0
   -9.2042   -3.7087   13.6952 H   0  0  0  0  0  0  0  0  0  0  0  0
   -9.8318   -2.6433   15.4405 C   0  0  0  0  0  0  0  0  0  0  0  0
   -8.8314   -1.5706   15.2658 C   0  0  0  0  0  0  0  0  0  0  0  0
  -10.3055   -1.2717   15.1846 C   0  0  0  0  0  0  0  0  0  0  0  0
  -13.0246   -4.9406   11.6157 C   0  0  0  0  0  0  0  0  0  0  0  0
  -14.0563   -7.1199   10.9920 C   0  0  0  0  0  0  0  0  0  0  0  0
  -13.5716   -5.7538   10.4578 C   0  0  0  0  0  0  0  0  0  0  0  0
  -12.9874   -8.4972    6.6570 C   0  0  0  0  0  0  0  0  0  0  0  0
  -12.6335   -9.5642    5.7349 C   0  0  0  0  0  0  0  0  0  0  0  0
  -13.3634   -9.9580    6.9591 C   0  0  0  0  0  0  0  0  0  0  0  0
  -14.1798   -7.6683    6.2057 C   0  0  0  0  0  0  0  0  0  0  0  0
  -15.4582   -8.0687    6.5244 C   0  0  0  0  0  0  0  0  0  0  0  0
  -16.5579   -7.3131    6.1471 C   0  0  0  0  0  0  0  0  0  0  0  0
  -16.3928   -6.1416    5.4426 C   0  0  0  0  0  0  0  0  0  0  0  0
  -17.8039   -5.1829    4.9658 Cl  0  0  0  0  0  0  0  0  0  0  0  0
  -15.1276   -5.7303    5.1180 C   0  0  0  0  0  0  0  0  0  0  0  0
  -14.0278   -6.5053    5.5073 C   0  0  0  0  0  0  0  0  0  0  0  0
   -7.0573   -8.2436    6.9480 S   0  0  0  0  0  0  0  0  0  0  0  0
   -6.7461   -8.6601    8.3881 O   0  0  0  0  0  0  0  0  0  0  0  0
   -6.8706   -9.5244    6.1592 O   0  0  0  0  0  0  0  0  0  0  0  0
   -5.8600   -7.1373    6.3915 C   0  0  0  0  0  0  0  0  0  0  0  0
   -6.2930   -6.0175    5.6415 C   0  0  0  0  0  0  0  0  0  0  0  0
   -5.4191   -5.1099    5.1154 C   0  0  0  0  0  0  0  0  0  0  0  0
   -4.0714   -5.3118    5.3356 C   0  0  0  0  0  0  0  0  0  0  0  0
   -3.6046   -6.3812    6.0580 C   0  0  0  0  0  0  0  0  0  0  0  0
   -4.5254   -7.3080    6.5935 C   0  0  0  0  0  0  0  0  0  0  0  0
   -3.9034   -8.6162    7.5621 Cl  0  0  0  0  0  0  0  0  0  0  0  0
 23 24  1  0  0  0
 24 22  1  0  0  0
 22 12  1  0  0  0
 12  8  1  0  0  0
  8  9  1  0  0  0
  9 10  2  0  0  0
  9  1  1  0  0  0
  1  2  1  0  0  0
  2  3  1  0  0  0
  3  4  1  0  0  0
  4  5  1  0  0  0
  5  6  1  0  0  0
  6  7  2  0  0  0
  6 25  1  0  0  0
 25 26  1  0  0  0
 26 27  1  0  0  0
 25 28  1  0  0  0
 28 29  2  0  0  0
 29 30  1  0  0  0
 30 31  2  0  0  0
 31 32  1  0  0  0
 31 33  1  0  0  0
 33 34  2  0  0  0
  3 35  1  0  0  0
 35 36  2  0  0  0
 35 37  2  0  0  0
 35 38  1  0  0  0
 38 39  2  0  0  0
 39 40  1  0  0  0
 40 41  2  0  0  0
 41 42  1  0  0  0
 42 43  2  0  0  0
 43 44  1  0  0  0
 12 13  1  0  0  0
 13 14  2  0  0  0
 13 15  1  0  0  0
 15 16  2  0  0  0
 15 17  1  0  0  0
 17 19  1  0  0  0
 19 20  1  0  0  0
 20 21  1  0  0  0
  5  1  1  0  0  0
 27 25  1  0  0  0
 34 28  1  0  0  0
 43 38  1  0  0  0
 21 19  1  0  0  0
  8 11  1  0  0  0
 17 18  1  0  0  0
M  END
> <minimizedAffinity>
-0.27276

> <CNNscore>
0.3767601252

> <CNNaffinity>
7.3289475441

> <CNN_VS>
2.7612552643

> <CNNaffinity_variance>
0.1716273576

$$$$
[H]c1c([H])c([H])c(S(=O)(=O)[C@@]2([H])C([H])([H])N(C(=O)C3(c4c([H])c([H])c(Cl)c([H])c4[H])C([H])([H])C3([H])[H])[C@]([H])(C(=O)N([H])[C@]([H])(C(=O)C(=O)N([H])C3([H])C([H])([H])C3([H])[H])C([H])([H])C([H])([H])C([H])([H])[H])C2([H])[H])c(Cl)c1[H]


 44 48  0  0  0  0  0  0  0  0999 V2000
  -10.0559   -7.3904    8.8462 C   0  0  0  0  0  0  0  0  0  0  0  0
   -8.9143   -6.9533    7.9399 C   0  0  0  0  0  0  0  0  0  0  0  0
   -8.9289   -8.0246    6.8376 C   0  0  0  0  0  0  0  0  0  0  0  0
  -10.0132   -8.9524    7.2477 C   0  0  0  0  0  0  0  0  0  0  0  0
  -10.9601   -8.0551    7.9732 N   0  0  0  0  0  0  0  0  0  0  0  0
  -12.3534   -8.0515    7.8031 C   0  0  0  0  0  0  0  0  0  0  0  0
  -12.9403   -7.3014    8.7103 O   0  0  0  0  0  0  0  0  0  0  0  0
  -11.0190   -6.4264   10.9116 N   0  0  0  0  0  0  0  0  0  0  0  0
  -10.5183   -6.2172    9.6113 C   0  0  0  0  0  0  0  0  0  0  0  0
  -10.4533   -5.0877    9.0877 O   0  0  0  0  0  0  0  0  0  0  0  0
  -11.0544   -7.4446   11.3001 H   0  0  0  0  0  0  0  0  0  0  0  0
  -11.5068   -5.4366   11.8254 C   0  0  0  0  0  0  0  0  0  0  0  0
  -11.0269   -5.6138   13.1913 C   0  0  0  0  0  0  0  0  0  0  0  0
  -11.6180   -6.5383   13.8638 O   0  0  0  0  0  0  0  0  0  0  0  0
   -9.9822   -4.8899   13.8727 C   0  0  0  0  0  0  0  0  0  0  0  0
  -10.1104   -3.8435   14.5409 O   0  0  0  0  0  0  0  0  0  0  0  0
   -8.6310   -5.4049   13.7931 N   0  0  0  0  0  0  0  0  0  0  0  0
   -8.4300   -6.2915   13.2438 H   0  0  0  0  0  0  0  0  0  0  0  0
   -7.5092   -4.7677   14.4293 C   0  0  0  0  0  0  0  0  0  0  0  0
   -6.3348   -5.5808   14.8060 C   0  0  0  0  0  0  0  0  0  0  0  0
   -6.2596   -4.5976   13.6674 C   0  0  0  0  0  0  0  0  0  0  0  0
  -13.0058   -5.1584   11.7107 C   0  0  0  0  0  0  0  0  0  0  0  0
  -12.7093   -3.1231   10.3063 C   0  0  0  0  0  0  0  0  0  0  0  0
  -13.3443   -4.5299   10.3723 C   0  0  0  0  0  0  0  0  0  0  0  0
  -13.2375   -8.6879    6.8550 C   0  0  0  0  0  0  0  0  0  0  0  0
  -12.9992   -9.8170    5.9706 C   0  0  0  0  0  0  0  0  0  0  0  0
  -13.6971  -10.1041    7.2422 C   0  0  0  0  0  0  0  0  0  0  0  0
  -14.3906   -7.7989    6.4161 C   0  0  0  0  0  0  0  0  0  0  0  0
  -14.1594   -6.7367    5.5709 C   0  0  0  0  0  0  0  0  0  0  0  0
  -15.2004   -5.9305    5.1362 C   0  0  0  0  0  0  0  0  0  0  0  0
  -16.4925   -6.1771    5.5431 C   0  0  0  0  0  0  0  0  0  0  0  0
  -17.8157   -5.1420    4.9815 Cl  0  0  0  0  0  0  0  0  0  0  0  0
  -16.7384   -7.2297    6.3837 C   0  0  0  0  0  0  0  0  0  0  0  0
  -15.6753   -8.0343    6.8130 C   0  0  0  0  0  0  0  0  0  0  0  0
   -7.2964   -8.6230    6.7376 S   0  0  0  0  0  0  0  0  0  0  0  0
   -7.1374   -9.6292    7.8806 O   0  0  0  0  0  0  0  0  0  0  0  0
   -7.0636   -9.4577    5.4941 O   0  0  0  0  0  0  0  0  0  0  0  0
   -6.0248   -7.4629    6.8037 C   0  0  0  0  0  0  0  0  0  0  0  0
   -5.0998   -7.5568    7.8711 C   0  0  0  0  0  0  0  0  0  0  0  0
   -4.0860   -6.6578    8.0391 C   0  0  0  0  0  0  0  0  0  0  0  0
   -3.9791   -5.6301    7.1237 C   0  0  0  0  0  0  0  0  0  0  0  0
   -4.8507   -5.4993    6.0718 C   0  0  0  0  0  0  0  0  0  0  0  0
   -5.8920   -6.4402    5.9163 C   0  0  0  0  0  0  0  0  0  0  0  0
   -6.9393   -6.2837    4.5324 Cl  0  0  0  0  0  0  0  0  0  0  0  0
 23 24  1  0  0  0
 24 22  1  0  0  0
 22 12  1  0  0  0
 12  8  1  0  0  0
  8  9  1  0  0  0
  9 10  2  0  0  0
  9  1  1  0  0  0
  1  2  1  0  0  0
  2  3  1  0  0  0
  3  4  1  0  0  0
  4  5  1  0  0  0
  5  6  1  0  0  0
  6  7  2  0  0  0
  6 25  1  0  0  0
 25 26  1  0  0  0
 26 27  1  0  0  0
 25 28  1  0  0  0
 28 29  2  0  0  0
 29 30  1  0  0  0
 30 31  2  0  0  0
 31 32  1  0  0  0
 31 33  1  0  0  0
 33 34  2  0  0  0
  3 35  1  0  0  0
 35 36  2  0  0  0
 35 37  2  0  0  0
 35 38  1  0  0  0
 38 39  2  0  0  0
 39 40  1  0  0  0
 40 41  2  0  0  0
 41 42  1  0  0  0
 42 43  2  0  0  0
 43 44  1  0  0  0
 12 13  1  0  0  0
 13 14  2  0  0  0
 13 15  1  0  0  0
 15 16  2  0  0  0
 15 17  1  0  0  0
 17 19  1  0  0  0
 19 20  1  0  0  0
 20 21  1  0  0  0
  5  1  1  0  0  0
 27 25  1  0  0  0
 34 28  1  0  0  0
 43 38  1  0  0  0
 21 19  1  0  0  0
  8 11  1  0  0  0
 17 18  1  0  0  0
M  END
> <minimizedAffinity>
-2.01667

> <CNNscore>
0.3528683186

> <CNNaffinity>
7.5918626785

> <CNN_VS>
2.6789278984

> <CNNaffinity_variance>
0.2401341945

$$$$
[H]c1c([H])c([H])c(S(=O)(=O)[C@@]2([H])C([H])([H])N(C(=O)C3(c4c([H])c([H])c(Cl)c([H])c4[H])C([H])([H])C3([H])[H])[C@]([H])(C(=O)N([H])[C@]([H])(C(=O)C(=O)N([H])C3([H])C([H])([H])C3([H])[H])C([H])([H])C([H])([H])C([H])([H])[H])C2([H])[H])c(Cl)c1[H]


 44 48  0  0  0  0  0  0  0  0999 V2000
  -12.4149   -8.6210    7.6284 C   0  0  0  0  0  0  0  0  0  0  0  0
  -13.0003   -8.0719    6.3355 C   0  0  0  0  0  0  0  0  0  0  0  0
  -14.1847   -7.2276    6.8328 C   0  0  0  0  0  0  0  0  0  0  0  0
  -14.1738   -7.4188    8.3052 C   0  0  0  0  0  0  0  0  0  0  0  0
  -12.7262   -7.6316    8.6008 N   0  0  0  0  0  0  0  0  0  0  0  0
  -12.0226   -7.0217    9.6511 C   0  0  0  0  0  0  0  0  0  0  0  0
  -10.8237   -7.5455    9.7864 O   0  0  0  0  0  0  0  0  0  0  0  0
  -10.0277   -7.9762    7.5386 N   0  0  0  0  0  0  0  0  0  0  0  0
  -11.0050   -8.9796    7.3857 C   0  0  0  0  0  0  0  0  0  0  0  0
  -10.7249  -10.1484    7.0547 O   0  0  0  0  0  0  0  0  0  0  0  0
  -10.3488   -6.9732    7.8211 H   0  0  0  0  0  0  0  0  0  0  0  0
   -8.6117   -8.1074    7.3642 C   0  0  0  0  0  0  0  0  0  0  0  0
   -7.9592   -6.8780    6.9284 C   0  0  0  0  0  0  0  0  0  0  0  0
   -8.6857   -6.0988    6.2062 O   0  0  0  0  0  0  0  0  0  0  0  0
   -6.6159   -6.4323    7.2053 C   0  0  0  0  0  0  0  0  0  0  0  0
   -6.0139   -6.5039    8.2963 O   0  0  0  0  0  0  0  0  0  0  0  0
   -5.8587   -5.8344    6.1252 N   0  0  0  0  0  0  0  0  0  0  0  0
   -6.2939   -5.7327    5.1617 H   0  0  0  0  0  0  0  0  0  0  0  0
   -4.5128   -5.3518    6.2832 C   0  0  0  0  0  0  0  0  0  0  0  0
   -3.4153   -6.0218    5.5562 C   0  0  0  0  0  0  0  0  0  0  0  0
   -3.8735   -4.6424    5.1611 C   0  0  0  0  0  0  0  0  0  0  0  0
   -8.1854   -9.3587    6.5961 C   0  0  0  0  0  0  0  0  0  0  0  0
   -7.3944   -9.7535    8.9244 C   0  0  0  0  0  0  0  0  0  0  0  0
   -7.5620  -10.3840    7.5240 C   0  0  0  0  0  0  0  0  0  0  0  0
  -12.3480   -5.9639   10.5790 C   0  0  0  0  0  0  0  0  0  0  0  0
  -13.2371   -4.8247   10.4196 C   0  0  0  0  0  0  0  0  0  0  0  0
  -13.7835   -6.0003   11.1308 C   0  0  0  0  0  0  0  0  0  0  0  0
  -11.3065   -5.7798   11.6716 C   0  0  0  0  0  0  0  0  0  0  0  0
   -9.9692   -5.9380   11.3834 C   0  0  0  0  0  0  0  0  0  0  0  0
   -9.0015   -5.7474   12.3580 C   0  0  0  0  0  0  0  0  0  0  0  0
   -9.3600   -5.3944   13.6397 C   0  0  0  0  0  0  0  0  0  0  0  0
   -8.1161   -5.1523   14.8774 Cl  0  0  0  0  0  0  0  0  0  0  0  0
  -10.6858   -5.2335   13.9418 C   0  0  0  0  0  0  0  0  0  0  0  0
  -11.6505   -5.4296   12.9454 C   0  0  0  0  0  0  0  0  0  0  0  0
  -15.5664   -7.7668    5.9201 S   0  0  0  0  0  0  0  0  0  0  0  0
  -15.0845   -8.9428    5.0662 O   0  0  0  0  0  0  0  0  0  0  0  0
  -16.6352   -8.3818    6.8015 O   0  0  0  0  0  0  0  0  0  0  0  0
  -16.3535   -6.6064    4.9194 C   0  0  0  0  0  0  0  0  0  0  0  0
  -15.7080   -5.3630    4.7164 C   0  0  0  0  0  0  0  0  0  0  0  0
  -16.2711   -4.3603    3.9804 C   0  0  0  0  0  0  0  0  0  0  0  0
  -17.5136   -4.5900    3.4245 C   0  0  0  0  0  0  0  0  0  0  0  0
  -18.1768   -5.7797    3.5920 C   0  0  0  0  0  0  0  0  0  0  0  0
  -17.5765   -6.8036    4.3568 C   0  0  0  0  0  0  0  0  0  0  0  0
  -18.4152   -8.3249    4.4932 Cl  0  0  0  0  0  0  0  0  0  0  0  0
 23 24  1  0  0  0
 24 22  1  0  0  0
 22 12  1  0  0  0
 12  8  1  0  0  0
  8  9  1  0  0  0
  9 10  2  0  0  0
  9  1  1  0  0  0
  1  2  1  0  0  0
  2  3  1  0  0  0
  3  4  1  0  0  0
  4  5  1  0  0  0
  5  6  1  0  0  0
  6  7  2  0  0  0
  6 25  1  0  0  0
 25 26  1  0  0  0
 26 27  1  0  0  0
 25 28  1  0  0  0
 28 29  2  0  0  0
 29 30  1  0  0  0
 30 31  2  0  0  0
 31 32  1  0  0  0
 31 33  1  0  0  0
 33 34  2  0  0  0
  3 35  1  0  0  0
 35 36  2  0  0  0
 35 37  2  0  0  0
 35 38  1  0  0  0
 38 39  2  0  0  0
 39 40  1  0  0  0
 40 41  2  0  0  0
 41 42  1  0  0  0
 42 43  2  0  0  0
 43 44  1  0  0  0
 12 13  1  0  0  0
 13 14  2  0  0  0
 13 15  1  0  0  0
 15 16  2  0  0  0
 15 17  1  0  0  0
 17 19  1  0  0  0
 19 20  1  0  0  0
 20 21  1  0  0  0
  5  1  1  0  0  0
 27 25  1  0  0  0
 34 28  1  0  0  0
 43 38  1  0  0  0
 21 19  1  0  0  0
  8 11  1  0  0  0
 17 18  1  0  0  0
M  END
> <minimizedAffinity>
-0.41577

> <CNNscore>
0.3183613122

> <CNNaffinity>
7.4059972763

> <CNN_VS>
2.3577830791

> <CNNaffinity_variance>
0.2762983143

$$$$
[H]c1c([H])c([H])c(S(=O)(=O)[C@@]2([H])C([H])([H])N(C(=O)C3(c4c([H])c([H])c(Cl)c([H])c4[H])C([H])([H])C3([H])[H])[C@]([H])(C(=O)N([H])[C@]([H])(C(=O)C(=O)N([H])C3([H])C([H])([H])C3([H])[H])C([H])([H])C([H])([H])C([H])([H])[H])C2([H])[H])c(Cl)c1[H]


 44 48  0  0  0  0  0  0  0  0999 V2000
   -7.9644   -6.9904    7.4548 C   0  0  0  0  0  0  0  0  0  0  0  0
   -8.2273   -6.8126    8.9431 C   0  0  0  0  0  0  0  0  0  0  0  0
   -9.6832   -7.2842    9.0877 C   0  0  0  0  0  0  0  0  0  0  0  0
  -10.0935   -7.6250    7.7020 C   0  0  0  0  0  0  0  0  0  0  0  0
   -8.8124   -8.0671    7.0765 N   0  0  0  0  0  0  0  0  0  0  0  0
   -8.6617   -9.2099    6.2755 C   0  0  0  0  0  0  0  0  0  0  0  0
   -7.4765   -9.2374    5.7058 O   0  0  0  0  0  0  0  0  0  0  0  0
   -5.8532   -6.0898    6.5305 N   0  0  0  0  0  0  0  0  0  0  0  0
   -6.5085   -7.1087    7.2501 C   0  0  0  0  0  0  0  0  0  0  0  0
   -5.9092   -8.0980    7.7150 O   0  0  0  0  0  0  0  0  0  0  0  0
   -6.4449   -5.2590    6.1453 H   0  0  0  0  0  0  0  0  0  0  0  0
   -4.4557   -6.0002    6.2271 C   0  0  0  0  0  0  0  0  0  0  0  0
   -3.5967   -6.0514    7.4047 C   0  0  0  0  0  0  0  0  0  0  0  0
   -3.8488   -5.1672    8.3053 O   0  0  0  0  0  0  0  0  0  0  0  0
   -2.5129   -6.9617    7.6817 C   0  0  0  0  0  0  0  0  0  0  0  0
   -1.7202   -6.9101    8.6444 O   0  0  0  0  0  0  0  0  0  0  0  0
   -2.2948   -8.0622    6.7660 N   0  0  0  0  0  0  0  0  0  0  0  0
   -2.9227   -8.1824    5.9179 H   0  0  0  0  0  0  0  0  0  0  0  0
   -1.2451   -9.0306    6.9383 C   0  0  0  0  0  0  0  0  0  0  0  0
   -1.5646  -10.3438    7.5345 C   0  0  0  0  0  0  0  0  0  0  0  0
   -1.2253  -10.2223    6.0720 C   0  0  0  0  0  0  0  0  0  0  0  0
   -4.0979   -4.8996    5.2281 C   0  0  0  0  0  0  0  0  0  0  0  0
   -2.0393   -5.5917    4.0092 C   0  0  0  0  0  0  0  0  0  0  0  0
   -2.5960   -4.7043    5.1446 C   0  0  0  0  0  0  0  0  0  0  0  0
   -9.5259  -10.3255    5.9683 C   0  0  0  0  0  0  0  0  0  0  0  0
   -9.3573  -11.3962    4.9993 C   0  0  0  0  0  0  0  0  0  0  0  0
   -8.9904  -11.7020    6.3987 C   0  0  0  0  0  0  0  0  0  0  0  0
  -10.9700  -10.1026    6.3896 C   0  0  0  0  0  0  0  0  0  0  0  0
  -11.3446  -10.3008    7.6998 C   0  0  0  0  0  0  0  0  0  0  0  0
  -12.6497  -10.0764    8.1109 C   0  0  0  0  0  0  0  0  0  0  0  0
  -13.6019   -9.6488    7.2129 C   0  0  0  0  0  0  0  0  0  0  0  0
  -15.2662   -9.3640    7.7480 Cl  0  0  0  0  0  0  0  0  0  0  0  0
  -13.2447   -9.4474    5.9064 C   0  0  0  0  0  0  0  0  0  0  0  0
  -11.9220   -9.6785    5.5080 C   0  0  0  0  0  0  0  0  0  0  0  0
  -10.5146   -6.0034    9.9252 S   0  0  0  0  0  0  0  0  0  0  0  0
   -9.7142   -5.7355   11.2026 O   0  0  0  0  0  0  0  0  0  0  0  0
  -10.4445   -4.6860    9.1788 O   0  0  0  0  0  0  0  0  0  0  0  0
  -12.1707   -6.2636   10.3211 C   0  0  0  0  0  0  0  0  0  0  0  0
  -12.6355   -7.5997   10.3724 C   0  0  0  0  0  0  0  0  0  0  0  0
  -13.9403   -7.9088   10.6296 C   0  0  0  0  0  0  0  0  0  0  0  0
  -14.8185   -6.8655   10.8440 C   0  0  0  0  0  0  0  0  0  0  0  0
  -14.4138   -5.5547   10.8064 C   0  0  0  0  0  0  0  0  0  0  0  0
  -13.0597   -5.2571   10.5389 C   0  0  0  0  0  0  0  0  0  0  0  0
  -12.5663   -3.5861   10.5653 Cl  0  0  0  0  0  0  0  0  0  0  0  0
 23 24  1  0  0  0
 24 22  1  0  0  0
 22 12  1  0  0  0
 12  8  1  0  0  0
  8  9  1  0  0  0
  9 10  2  0  0  0
  9  1  1  0  0  0
  1  2  1  0  0  0
  2  3  1  0  0  0
  3  4  1  0  0  0
  4  5  1  0  0  0
  5  6  1  0  0  0
  6  7  2  0  0  0
  6 25  1  0  0  0
 25 26  1  0  0  0
 26 27  1  0  0  0
 25 28  1  0  0  0
 28 29  2  0  0  0
 29 30  1  0  0  0
 30 31  2  0  0  0
 31 32  1  0  0  0
 31 33  1  0  0  0
 33 34  2  0  0  0
  3 35  1  0  0  0
 35 36  2  0  0  0
 35 37  2  0  0  0
 35 38  1  0  0  0
 38 39  2  0  0  0
 39 40  1  0  0  0
 40 41  2  0  0  0
 41 42  1  0  0  0
 42 43  2  0  0  0
 43 44  1  0  0  0
 12 13  1  0  0  0
 13 14  2  0  0  0
 13 15  1  0  0  0
 15 16  2  0  0  0
 15 17  1  0  0  0
 17 19  1  0  0  0
 19 20  1  0  0  0
 20 21  1  0  0  0
  5  1  1  0  0  0
 27 25  1  0  0  0
 34 28  1  0  0  0
 43 38  1  0  0  0
 21 19  1  0  0  0
  8 11  1  0  0  0
 17 18  1  0  0  0
M  END
> <minimizedAffinity>
4.53687

> <CNNscore>
0.2863806188

> <CNNaffinity>
6.6931700706

> <CNN_VS>
1.9167941809

> <CNNaffinity_variance>
0.2972590923

$$$$
[H]c1c([H])c([H])c(S(=O)(=O)[C@@]2([H])C([H])([H])N(C(=O)C3(c4c([H])c([H])c(Cl)c([H])c4[H])C([H])([H])C3([H])[H])[C@]([H])(C(=O)N([H])[C@]([H])(C(=O)C(=O)N([H])C3([H])C([H])([H])C3([H])[H])C([H])([H])C([H])([H])C([H])([H])[H])C2([H])[H])c(Cl)c1[H]


 44 48  0  0  0  0  0  0  0  0999 V2000
  -12.8171   -9.0207    6.2345 C   0  0  0  0  0  0  0  0  0  0  0  0
  -11.9243  -10.2530    6.2365 C   0  0  0  0  0  0  0  0  0  0  0  0
  -10.9328   -9.9499    7.3715 C   0  0  0  0  0  0  0  0  0  0  0  0
  -11.3273   -8.5998    7.8470 C   0  0  0  0  0  0  0  0  0  0  0  0
  -12.7963   -8.5720    7.5835 N   0  0  0  0  0  0  0  0  0  0  0  0
  -13.7659   -8.1087    8.4864 C   0  0  0  0  0  0  0  0  0  0  0  0
  -14.9456   -8.0195    7.9117 O   0  0  0  0  0  0  0  0  0  0  0  0
  -14.9925   -8.3392    5.2724 N   0  0  0  0  0  0  0  0  0  0  0  0
  -14.1044   -9.3796    5.6104 C   0  0  0  0  0  0  0  0  0  0  0  0
  -14.3644  -10.5813    5.4046 O   0  0  0  0  0  0  0  0  0  0  0  0
  -14.7009   -7.3117    5.4914 H   0  0  0  0  0  0  0  0  0  0  0  0
  -16.2794   -8.4607    4.6542 C   0  0  0  0  0  0  0  0  0  0  0  0
  -16.5305   -7.4597    3.6236 C   0  0  0  0  0  0  0  0  0  0  0  0
  -16.6953   -7.9265    2.4355 O   0  0  0  0  0  0  0  0  0  0  0  0
  -16.6175   -6.0277    3.7705 C   0  0  0  0  0  0  0  0  0  0  0  0
  -17.5495   -5.2916    3.3867 O   0  0  0  0  0  0  0  0  0  0  0  0
  -15.5250   -5.3413    4.4282 N   0  0  0  0  0  0  0  0  0  0  0  0
  -14.6891   -5.8901    4.7863 H   0  0  0  0  0  0  0  0  0  0  0  0
  -15.5002   -3.9171    4.6294 C   0  0  0  0  0  0  0  0  0  0  0  0
  -14.2046   -3.2078    4.6122 C   0  0  0  0  0  0  0  0  0  0  0  0
  -15.1908   -3.0409    3.4859 C   0  0  0  0  0  0  0  0  0  0  0  0
  -17.4331   -8.6628    5.6369 C   0  0  0  0  0  0  0  0  0  0  0  0
  -19.7727   -9.5023    5.7918 C   0  0  0  0  0  0  0  0  0  0  0  0
  -18.7633   -8.7327    4.9112 C   0  0  0  0  0  0  0  0  0  0  0  0
  -13.7213   -7.7265    9.8784 C   0  0  0  0  0  0  0  0  0  0  0  0
  -14.5167   -8.1977   11.0006 C   0  0  0  0  0  0  0  0  0  0  0  0
  -13.1786   -8.8042   10.8327 C   0  0  0  0  0  0  0  0  0  0  0  0
  -13.0821   -6.3661   10.1093 C   0  0  0  0  0  0  0  0  0  0  0  0
  -11.7695   -6.1514    9.7528 C   0  0  0  0  0  0  0  0  0  0  0  0
  -11.1756   -4.9109    9.9288 C   0  0  0  0  0  0  0  0  0  0  0  0
  -11.8900   -3.8637   10.4663 C   0  0  0  0  0  0  0  0  0  0  0  0
  -11.1227   -2.2824   10.6863 Cl  0  0  0  0  0  0  0  0  0  0  0  0
  -13.1964   -4.0616   10.8259 C   0  0  0  0  0  0  0  0  0  0  0  0
  -13.7809   -5.3209   10.6411 C   0  0  0  0  0  0  0  0  0  0  0  0
   -9.3471  -10.1758    6.6875 S   0  0  0  0  0  0  0  0  0  0  0  0
   -8.9193  -11.5988    7.0566 O   0  0  0  0  0  0  0  0  0  0  0  0
   -9.3701  -10.1932    5.1721 O   0  0  0  0  0  0  0  0  0  0  0  0
   -8.1198   -9.0607    7.1539 C   0  0  0  0  0  0  0  0  0  0  0  0
   -8.1512   -8.5594    8.4773 C   0  0  0  0  0  0  0  0  0  0  0  0
   -7.2527   -7.6358    8.9290 C   0  0  0  0  0  0  0  0  0  0  0  0
   -6.2893   -7.1902    8.0465 C   0  0  0  0  0  0  0  0  0  0  0  0
   -6.2181   -7.6487    6.7549 C   0  0  0  0  0  0  0  0  0  0  0  0
   -7.1569   -8.6040    6.3082 C   0  0  0  0  0  0  0  0  0  0  0  0
   -6.9965   -9.2147    4.6841 Cl  0  0  0  0  0  0  0  0  0  0  0  0
 23 24  1  0  0  0
 24 22  1  0  0  0
 22 12  1  0  0  0
 12  8  1  0  0  0
  8  9  1  0  0  0
  9 10  2  0  0  0
  9  1  1  0  0  0
  1  2  1  0  0  0
  2  3  1  0  0  0
  3  4  1  0  0  0
  4  5  1  0  0  0
  5  6  1  0  0  0
  6  7  2  0  0  0
  6 25  1  0  0  0
 25 26  1  0  0  0
 26 27  1  0  0  0
 25 28  1  0  0  0
 28 29  2  0  0  0
 29 30  1  0  0  0
 30 31  2  0  0  0
 31 32  1  0  0  0
 31 33  1  0  0  0
 33 34  2  0  0  0
  3 35  1  0  0  0
 35 36  2  0  0  0
 35 37  2  0  0  0
 35 38  1  0  0  0
 38 39  2  0  0  0
 39 40  1  0  0  0
 40 41  2  0  0  0
 41 42  1  0  0  0
 42 43  2  0  0  0
 43 44  1  0  0  0
 12 13  1  0  0  0
 13 14  2  0  0  0
 13 15  1  0  0  0
 15 16  2  0  0  0
 15 17  1  0  0  0
 17 19  1  0  0  0
 19 20  1  0  0  0
 20 21  1  0  0  0
  5  1  1  0  0  0
 27 25  1  0  0  0
 34 28  1  0  0  0
 43 38  1  0  0  0
 21 19  1  0  0  0
  8 11  1  0  0  0
 17 18  1  0  0  0
M  END
> <minimizedAffinity>
3.44892

> <CNNscore>
0.2600742877

> <CNNaffinity>
7.5125327110

> <CNN_VS>
1.9538166523

> <CNNaffinity_variance>
0.1930585355

$$$$
[H]c1c([H])c([H])c(S(=O)(=O)[C@@]2([H])C([H])([H])N(C(=O)C3(c4c([H])c([H])c(Cl)c([H])c4[H])C([H])([H])C3([H])[H])[C@]([H])(C(=O)N([H])[C@]([H])(C(=O)C(=O)N([H])C3([H])C([H])([H])C3([H])[H])C([H])([H])C([H])([H])C([H])([H])[H])C2([H])[H])c(Cl)c1[H]


 44 48  0  0  0  0  0  0  0  0999 V2000
   -6.9668   -6.7132    8.7386 C   0  0  0  0  0  0  0  0  0  0  0  0
   -6.3694   -7.9322    8.0510 C   0  0  0  0  0  0  0  0  0  0  0  0
   -4.8610   -7.7432    8.2789 C   0  0  0  0  0  0  0  0  0  0  0  0
   -4.7630   -6.4537    9.0084 C   0  0  0  0  0  0  0  0  0  0  0  0
   -6.0427   -6.4091    9.7755 N   0  0  0  0  0  0  0  0  0  0  0  0
   -6.1567   -6.0508   11.1278 C   0  0  0  0  0  0  0  0  0  0  0  0
   -7.4171   -5.9102   11.4769 O   0  0  0  0  0  0  0  0  0  0  0  0
   -9.1344   -7.7600    8.1653 N   0  0  0  0  0  0  0  0  0  0  0  0
   -8.3690   -7.0138    9.0834 C   0  0  0  0  0  0  0  0  0  0  0  0
   -8.8292   -6.6008   10.1659 O   0  0  0  0  0  0  0  0  0  0  0  0
   -8.6668   -8.0793    7.2335 H   0  0  0  0  0  0  0  0  0  0  0  0
  -10.5005   -8.1695    8.3022 C   0  0  0  0  0  0  0  0  0  0  0  0
  -10.8543   -9.3148    7.4714 C   0  0  0  0  0  0  0  0  0  0  0  0
   -9.8622  -10.0373    7.0836 O   0  0  0  0  0  0  0  0  0  0  0  0
  -12.1642   -9.7336    7.0371 C   0  0  0  0  0  0  0  0  0  0  0  0
  -12.8555  -10.6519    7.5236 O   0  0  0  0  0  0  0  0  0  0  0  0
  -12.7692   -9.0355    5.9218 N   0  0  0  0  0  0  0  0  0  0  0  0
  -12.2505   -8.2401    5.4462 H   0  0  0  0  0  0  0  0  0  0  0  0
  -14.0685   -9.3660    5.4004 C   0  0  0  0  0  0  0  0  0  0  0  0
  -15.0965   -8.3100    5.3001 C   0  0  0  0  0  0  0  0  0  0  0  0
  -14.4466   -8.8742    4.0639 C   0  0  0  0  0  0  0  0  0  0  0  0
  -11.5089   -7.0211    8.2623 C   0  0  0  0  0  0  0  0  0  0  0  0
  -12.4242   -7.1817   10.5730 C   0  0  0  0  0  0  0  0  0  0  0  0
  -12.7479   -7.3531    9.0722 C   0  0  0  0  0  0  0  0  0  0  0  0
   -5.1909   -5.8172   12.1758 C   0  0  0  0  0  0  0  0  0  0  0  0
   -5.2652   -6.1184   13.5962 C   0  0  0  0  0  0  0  0  0  0  0  0
   -4.5327   -7.0840   12.7491 C   0  0  0  0  0  0  0  0  0  0  0  0
   -4.1775   -4.7370   11.8311 C   0  0  0  0  0  0  0  0  0  0  0  0
   -4.2336   -4.1033   10.6098 C   0  0  0  0  0  0  0  0  0  0  0  0
   -3.3369   -3.0964   10.2862 C   0  0  0  0  0  0  0  0  0  0  0  0
   -2.3676   -2.7083   11.1838 C   0  0  0  0  0  0  0  0  0  0  0  0
   -1.2272   -1.4204   10.7613 Cl  0  0  0  0  0  0  0  0  0  0  0  0
   -2.2989   -3.3293   12.4023 C   0  0  0  0  0  0  0  0  0  0  0  0
   -3.2127   -4.3442   12.7133 C   0  0  0  0  0  0  0  0  0  0  0  0
   -4.1237   -7.8840    6.7074 S   0  0  0  0  0  0  0  0  0  0  0  0
   -2.9736   -8.8831    6.8608 O   0  0  0  0  0  0  0  0  0  0  0  0
   -5.0394   -8.5481    5.6984 O   0  0  0  0  0  0  0  0  0  0  0  0
   -3.5425   -6.4371    5.9753 C   0  0  0  0  0  0  0  0  0  0  0  0
   -2.1445   -6.2152    5.9693 C   0  0  0  0  0  0  0  0  0  0  0  0
   -1.5885   -5.0783    5.4571 C   0  0  0  0  0  0  0  0  0  0  0  0
   -2.4390   -4.1261    4.9321 C   0  0  0  0  0  0  0  0  0  0  0  0
   -3.8005   -4.2977    4.9139 C   0  0  0  0  0  0  0  0  0  0  0  0
   -4.3549   -5.4812    5.4486 C   0  0  0  0  0  0  0  0  0  0  0  0
   -6.0811   -5.6966    5.3484 Cl  0  0  0  0  0  0  0  0  0  0  0  0
 23 24  1  0  0  0
 24 22  1  0  0  0
 22 12  1  0  0  0
 12  8  1  0  0  0
  8  9  1  0  0  0
  9 10  2  0  0  0
  9  1  1  0  0  0
  1  2  1  0  0  0
  2  3  1  0  0  0
  3  4  1  0  0  0
  4  5  1  0  0  0
  5  6  1  0  0  0
  6  7  2  0  0  0
  6 25  1  0  0  0
 25 26  1  0  0  0
 26 27  1  0  0  0
 25 28  1  0  0  0
 28 29  2  0  0  0
 29 30  1  0  0  0
 30 31  2  0  0  0
 31 32  1  0  0  0
 31 33  1  0  0  0
 33 34  2  0  0  0
  3 35  1  0  0  0
 35 36  2  0  0  0
 35 37  2  0  0  0
 35 38  1  0  0  0
 38 39  2  0  0  0
 39 40  1  0  0  0
 40 41  2  0  0  0
 41 42  1  0  0  0
 42 43  2  0  0  0
 43 44  1  0  0  0
 12 13  1  0  0  0
 13 14  2  0  0  0
 13 15  1  0  0  0
 15 16  2  0  0  0
 15 17  1  0  0  0
 17 19  1  0  0  0
 19 20  1  0  0  0
 20 21  1  0  0  0
  5  1  1  0  0  0
 27 25  1  0  0  0
 34 28  1  0  0  0
 43 38  1  0  0  0
 21 19  1  0  0  0
  8 11  1  0  0  0
 17 18  1  0  0  0
M  END
> <minimizedAffinity>
1.47715

> <CNNscore>
0.2251362354

> <CNNaffinity>
6.9808259010

> <CNN_VS>
1.5716369152

> <CNNaffinity_variance>
0.6152750254

$$$$
[H]OC(=O)C([H])([H])C([H])([H])[C@@]([H])(C(=O)N1C([H])([H])C([H])([H])C([H])([H])[C@@]1([H])C(=O)N([H])[C@]([H])(C(=O)c1nc2c([H])c([H])c([H])c([H])c2s1)C([H])([H])c1c([H])c([H])c([H])c([H])c1[H])N([H])C(=O)OC(C([H])([H])[H])(C([H])([H])[H])C([H])([H])[H]


 46 49  0  0  0  0  0  0  0  0999 V2000
  -12.2302   -8.1923    7.0069 C   0  0  0  0  0  0  0  0  0  0  0  0
  -12.7491   -8.8921    5.9492 O   0  0  0  0  0  0  0  0  0  0  0  0
  -10.9485   -8.6462    7.2544 N   0  0  0  0  0  0  0  0  0  0  0  0
  -10.3259   -9.6649    6.3678 C   0  0  0  0  0  0  0  0  0  0  0  0
   -9.5659  -10.5294    7.3284 C   0  0  0  0  0  0  0  0  0  0  0  0
   -9.3522   -9.7327    8.5660 C   0  0  0  0  0  0  0  0  0  0  0  0
  -10.0011   -8.3753    8.2514 C   0  0  0  0  0  0  0  0  0  0  0  0
   -8.8748   -7.4818    7.7916 C   0  0  0  0  0  0  0  0  0  0  0  0
   -9.1735   -6.4056    7.2499 O   0  0  0  0  0  0  0  0  0  0  0  0
   -7.5634   -7.8679    7.9766 N   0  0  0  0  0  0  0  0  0  0  0  0
   -7.3208   -8.7656    8.4307 H   0  0  0  0  0  0  0  0  0  0  0  0
   -6.3795   -7.0336    7.5410 C   0  0  0  0  0  0  0  0  0  0  0  0
   -5.8150   -7.7029    6.4171 C   0  0  0  0  0  0  0  0  0  0  0  0
   -4.4861   -7.5473    6.2770 O   0  0  0  0  0  0  0  0  0  0  0  0
   -6.3426   -8.5479    5.3513 C   0  0  0  0  0  0  0  0  0  0  0  0
   -7.2785   -9.4368    5.2521 N   0  0  0  0  0  0  0  0  0  0  0  0
   -7.5634  -10.0714    4.1420 C   0  0  0  0  0  0  0  0  0  0  0  0
   -8.6095  -11.0131    3.9550 C   0  0  0  0  0  0  0  0  0  0  0  0
   -8.7855  -11.5274    2.7131 C   0  0  0  0  0  0  0  0  0  0  0  0
   -8.0389  -11.2261    1.6025 C   0  0  0  0  0  0  0  0  0  0  0  0
   -7.0221  -10.3164    1.7803 C   0  0  0  0  0  0  0  0  0  0  0  0
   -6.7953   -9.7442    3.0503 C   0  0  0  0  0  0  0  0  0  0  0  0
   -5.7496   -8.5731    3.7008 S   0  0  0  0  0  0  0  0  0  0  0  0
   -5.6359   -6.7064    8.7758 C   0  0  0  0  0  0  0  0  0  0  0  0
   -4.7257   -5.5699    8.7198 C   0  0  0  0  0  0  0  0  0  0  0  0
   -4.2707   -4.8311    9.7988 C   0  0  0  0  0  0  0  0  0  0  0  0
   -3.3776   -3.7703    9.6540 C   0  0  0  0  0  0  0  0  0  0  0  0
   -2.9073   -3.4090    8.4365 C   0  0  0  0  0  0  0  0  0  0  0  0
   -3.3345   -4.1210    7.3186 C   0  0  0  0  0  0  0  0  0  0  0  0
   -4.2052   -5.1552    7.4648 C   0  0  0  0  0  0  0  0  0  0  0  0
  -13.1924   -7.2397    7.4887 C   0  0  0  0  0  0  0  0  0  0  0  0
  -15.3259   -6.8078    6.1619 C   0  0  0  0  0  0  0  0  0  0  0  0
  -14.9501   -5.5801    6.0777 O   0  0  0  0  0  0  0  0  0  0  0  0
  -14.4964   -7.6778    6.8384 N   0  0  0  0  0  0  0  0  0  0  0  0
  -14.6783   -8.6877    6.9587 H   0  0  0  0  0  0  0  0  0  0  0  0
  -16.5186   -7.0818    5.5563 O   0  0  0  0  0  0  0  0  0  0  0  0
  -18.0507   -7.7781    3.8006 C   0  0  0  0  0  0  0  0  0  0  0  0
  -16.6737   -7.2416    4.1859 C   0  0  0  0  0  0  0  0  0  0  0  0
  -15.6406   -8.0852    3.5180 C   0  0  0  0  0  0  0  0  0  0  0  0
  -16.6044   -5.8513    3.5306 C   0  0  0  0  0  0  0  0  0  0  0  0
  -13.5019   -6.8653    8.8398 C   0  0  0  0  0  0  0  0  0  0  0  0
  -12.5848   -7.0416    9.9850 C   0  0  0  0  0  0  0  0  0  0  0  0
  -12.2405   -5.7936   10.7172 C   0  0  0  0  0  0  0  0  0  0  0  0
  -12.9443   -4.6513   10.3850 O   0  0  0  0  0  0  0  0  0  0  0  0
  -11.3641   -5.7606   11.5859 O   0  0  0  0  0  0  0  0  0  0  0  0
  -12.5707   -3.7200   10.6052 H   0  0  0  0  0  0  0  0  0  0  0  0
 37 38  1  0  0  0
 38 39  1  0  0  0
 38 40  1  0  0  0
 38 36  1  0  0  0
 36 32  1  0  0  0
 32 33  2  0  0  0
 32 34  1  0  0  0
 34 31  1  0  0  0
 31 41  1  0  0  0
 41 42  1  0  0  0
 42 43  1  0  0  0
 43 44  1  0  0  0
 43 45  2  0  0  0
 31  1  1  0  0  0
  1  2  2  0  0  0
  1  3  1  0  0  0
  3  4  1  0  0  0
  4  5  1  0  0  0
  5  6  1  0  0  0
  6  7  1  0  0  0
  7  8  1  0  0  0
  8  9  2  0  0  0
  8 10  1  0  0  0
 10 12  1  0  0  0
 12 24  1  0  0  0
 24 25  1  0  0  0
 25 26  2  0  0  0
 26 27  1  0  0  0
 27 28  2  0  0  0
 28 29  1  0  0  0
 29 30  2  0  0  0
 12 13  1  0  0  0
 13 14  2  0  0  0
 13 15  1  0  0  0
 15 16  2  0  0  0
 16 17  1  0  0  0
 17 18  2  0  0  0
 18 19  1  0  0  0
 19 20  2  0  0  0
 20 21  1  0  0  0
 21 22  2  0  0  0
 22 23  1  0  0  0
  7  3  1  0  0  0
 30 25  1  0  0  0
 23 15  1  0  0  0
 22 17  1  0  0  0
 34 35  1  0  0  0
 44 46  1  0  0  0
 10 11  1  0  0  0
M  END
> <minimizedAffinity>
4.83174

> <CNNscore>
0.3938460648

> <CNNaffinity>
7.2518906593

> <CNN_VS>
2.8561286926

> <CNNaffinity_variance>
0.3431169987

$$$$
[H]OC(=O)C([H])([H])C([H])([H])[C@@]([H])(C(=O)N1C([H])([H])C([H])([H])C([H])([H])[C@@]1([H])C(=O)N([H])[C@]([H])(C(=O)c1nc2c([H])c([H])c([H])c([H])c2s1)C([H])([H])c1c([H])c([H])c([H])c([H])c1[H])N([H])C(=O)OC(C([H])([H])[H])(C([H])([H])[H])C([H])([H])[H]


 46 49  0  0  0  0  0  0  0  0999 V2000
   -7.5710   -8.9749    7.5554 C   0  0  0  0  0  0  0  0  0  0  0  0
   -6.9131   -9.5441    8.6142 O   0  0  0  0  0  0  0  0  0  0  0  0
   -8.5097   -9.8716    7.0812 N   0  0  0  0  0  0  0  0  0  0  0  0
   -8.7287  -11.1693    7.7736 C   0  0  0  0  0  0  0  0  0  0  0  0
   -8.9530  -12.1237    6.6393 C   0  0  0  0  0  0  0  0  0  0  0  0
   -9.3590  -11.3174    5.4573 C   0  0  0  0  0  0  0  0  0  0  0  0
   -9.3786   -9.8725    5.9813 C   0  0  0  0  0  0  0  0  0  0  0  0
  -10.8163   -9.5898    6.3435 C   0  0  0  0  0  0  0  0  0  0  0  0
  -11.6971   -9.9617    5.5518 O   0  0  0  0  0  0  0  0  0  0  0  0
  -11.1198   -8.9375    7.5207 N   0  0  0  0  0  0  0  0  0  0  0  0
  -10.3810   -8.6316    8.1777 H   0  0  0  0  0  0  0  0  0  0  0  0
  -12.5321   -8.6129    7.9537 C   0  0  0  0  0  0  0  0  0  0  0  0
  -13.0290   -7.6690    7.0095 C   0  0  0  0  0  0  0  0  0  0  0  0
  -12.1787   -6.6708    6.7089 O   0  0  0  0  0  0  0  0  0  0  0  0
  -14.2721   -7.5201    6.2604 C   0  0  0  0  0  0  0  0  0  0  0  0
  -15.2771   -8.2839    5.9732 N   0  0  0  0  0  0  0  0  0  0  0  0
  -16.3055   -7.8947    5.2611 C   0  0  0  0  0  0  0  0  0  0  0  0
  -17.4601   -8.6640    4.9589 C   0  0  0  0  0  0  0  0  0  0  0  0
  -18.4509   -8.0692    4.2501 C   0  0  0  0  0  0  0  0  0  0  0  0
  -18.4468   -6.7786    3.7855 C   0  0  0  0  0  0  0  0  0  0  0  0
  -17.3283   -6.0309    4.0733 C   0  0  0  0  0  0  0  0  0  0  0  0
  -16.2672   -6.5962    4.8124 C   0  0  0  0  0  0  0  0  0  0  0  0
  -14.7843   -6.0557    5.4423 S   0  0  0  0  0  0  0  0  0  0  0  0
  -12.4668   -8.3778    9.4115 C   0  0  0  0  0  0  0  0  0  0  0  0
  -12.3450   -6.9952    9.8550 C   0  0  0  0  0  0  0  0  0  0  0  0
  -11.1909   -6.2304    9.8447 C   0  0  0  0  0  0  0  0  0  0  0  0
  -11.1718   -4.9017   10.2666 C   0  0  0  0  0  0  0  0  0  0  0  0
  -12.2950   -4.2895   10.7112 C   0  0  0  0  0  0  0  0  0  0  0  0
  -13.4828   -5.0157   10.7412 C   0  0  0  0  0  0  0  0  0  0  0  0
  -13.4966   -6.3112   10.3281 C   0  0  0  0  0  0  0  0  0  0  0  0
   -7.0583   -7.6555    7.3066 C   0  0  0  0  0  0  0  0  0  0  0  0
   -5.1508   -6.3726    8.4087 C   0  0  0  0  0  0  0  0  0  0  0  0
   -5.3932   -5.4218    7.5763 O   0  0  0  0  0  0  0  0  0  0  0  0
   -5.9447   -7.4979    8.3316 N   0  0  0  0  0  0  0  0  0  0  0  0
   -5.8610   -8.3185    8.9536 H   0  0  0  0  0  0  0  0  0  0  0  0
   -4.1198   -6.1276    9.2696 O   0  0  0  0  0  0  0  0  0  0  0  0
   -2.5085   -6.7174    7.5460 C   0  0  0  0  0  0  0  0  0  0  0  0
   -2.7908   -6.0290    8.8797 C   0  0  0  0  0  0  0  0  0  0  0  0
   -1.7928   -6.5149    9.8762 C   0  0  0  0  0  0  0  0  0  0  0  0
   -2.4761   -4.5452    8.6220 C   0  0  0  0  0  0  0  0  0  0  0  0
   -6.5836   -7.0820    6.0791 C   0  0  0  0  0  0  0  0  0  0  0  0
   -7.4494   -6.4363    5.0706 C   0  0  0  0  0  0  0  0  0  0  0  0
   -8.6653   -5.7729    5.6127 C   0  0  0  0  0  0  0  0  0  0  0  0
   -9.3795   -4.9613    4.7515 O   0  0  0  0  0  0  0  0  0  0  0  0
   -9.0339   -5.9273    6.7806 O   0  0  0  0  0  0  0  0  0  0  0  0
  -10.0224   -4.2464    5.1135 H   0  0  0  0  0  0  0  0  0  0  0  0
 37 38  1  0  0  0
 38 39  1  0  0  0
 38 40  1  0  0  0
 38 36  1  0  0  0
 36 32  1  0  0  0
 32 33  2  0  0  0
 32 34  1  0  0  0
 34 31  1  0  0  0
 31 41  1  0  0  0
 41 42  1  0  0  0
 42 43  1  0  0  0
 43 44  1  0  0  0
 43 45  2  0  0  0
 31  1  1  0  0  0
  1  2  2  0  0  0
  1  3  1  0  0  0
  3  4  1  0  0  0
  4  5  1  0  0  0
  5  6  1  0  0  0
  6  7  1  0  0  0
  7  8  1  0  0  0
  8  9  2  0  0  0
  8 10  1  0  0  0
 10 12  1  0  0  0
 12 24  1  0  0  0
 24 25  1  0  0  0
 25 26  2  0  0  0
 26 27  1  0  0  0
 27 28  2  0  0  0
 28 29  1  0  0  0
 29 30  2  0  0  0
 12 13  1  0  0  0
 13 14  2  0  0  0
 13 15  1  0  0  0
 15 16  2  0  0  0
 16 17  1  0  0  0
 17 18  2  0  0  0
 18 19  1  0  0  0
 19 20  2  0  0  0
 20 21  1  0  0  0
 21 22  2  0  0  0
 22 23  1  0  0  0
  7  3  1  0  0  0
 30 25  1  0  0  0
 23 15  1  0  0  0
 22 17  1  0  0  0
 34 35  1  0  0  0
 44 46  1  0  0  0
 10 11  1  0  0  0
M  END
> <minimizedAffinity>
0.56158

> <CNNscore>
0.3516928554

> <CNNaffinity>
7.2440848351

> <CNN_VS>
2.5476927757

> <CNNaffinity_variance>
0.2496055067

$$$$
[H]OC(=O)C([H])([H])C([H])([H])[C@@]([H])(C(=O)N1C([H])([H])C([H])([H])C([H])([H])[C@@]1([H])C(=O)N([H])[C@]([H])(C(=O)c1nc2c([H])c([H])c([H])c([H])c2s1)C([H])([H])c1c([H])c([H])c([H])c([H])c1[H])N([H])C(=O)OC(C([H])([H])[H])(C([H])([H])[H])C([H])([H])[H]


 46 49  0  0  0  0  0  0  0  0999 V2000
   -8.6558   -7.3590    8.1213 C   0  0  0  0  0  0  0  0  0  0  0  0
   -8.2021   -6.9965    9.3624 O   0  0  0  0  0  0  0  0  0  0  0  0
   -9.9633   -7.7920    8.2348 N   0  0  0  0  0  0  0  0  0  0  0  0
  -10.6686   -7.7233    9.5422 C   0  0  0  0  0  0  0  0  0  0  0  0
  -11.4757   -8.9866    9.5573 C   0  0  0  0  0  0  0  0  0  0  0  0
  -11.6158   -9.4383    8.1473 C   0  0  0  0  0  0  0  0  0  0  0  0
  -10.8758   -8.3624    7.3365 C   0  0  0  0  0  0  0  0  0  0  0  0
  -11.9413   -7.4037    6.8633 C   0  0  0  0  0  0  0  0  0  0  0  0
  -11.6177   -6.2181    6.6890 O   0  0  0  0  0  0  0  0  0  0  0  0
  -13.2267   -7.8512    6.6384 N   0  0  0  0  0  0  0  0  0  0  0  0
  -13.4899   -8.8415    6.7837 H   0  0  0  0  0  0  0  0  0  0  0  0
  -14.3511   -6.9553    6.1688 C   0  0  0  0  0  0  0  0  0  0  0  0
  -15.4367   -7.1796    7.0638 C   0  0  0  0  0  0  0  0  0  0  0  0
  -15.2666   -6.6676    8.2962 O   0  0  0  0  0  0  0  0  0  0  0  0
  -16.7314   -7.8444    6.9642 C   0  0  0  0  0  0  0  0  0  0  0  0
  -17.5451   -8.1476    6.0040 N   0  0  0  0  0  0  0  0  0  0  0  0
  -18.6836   -8.7697    6.1854 C   0  0  0  0  0  0  0  0  0  0  0  0
  -19.5908   -9.1782    5.1724 C   0  0  0  0  0  0  0  0  0  0  0  0
  -20.6981   -9.8625    5.5509 C   0  0  0  0  0  0  0  0  0  0  0  0
  -21.0362  -10.2017    6.8363 C   0  0  0  0  0  0  0  0  0  0  0  0
  -20.1613   -9.8048    7.8212 C   0  0  0  0  0  0  0  0  0  0  0  0
  -18.9894   -9.0936    7.4857 C   0  0  0  0  0  0  0  0  0  0  0  0
  -17.6384   -8.4885    8.3203 S   0  0  0  0  0  0  0  0  0  0  0  0
  -14.4287   -7.1336    4.7036 C   0  0  0  0  0  0  0  0  0  0  0  0
  -15.6257   -6.6362    4.0380 C   0  0  0  0  0  0  0  0  0  0  0  0
  -16.5250   -7.3877    3.3008 C   0  0  0  0  0  0  0  0  0  0  0  0
  -17.6618   -6.8303    2.7169 C   0  0  0  0  0  0  0  0  0  0  0  0
  -17.9431   -5.5118    2.8456 C   0  0  0  0  0  0  0  0  0  0  0  0
  -17.0694   -4.7121    3.5780 C   0  0  0  0  0  0  0  0  0  0  0  0
  -15.9623   -5.2604    4.1461 C   0  0  0  0  0  0  0  0  0  0  0  0
   -7.6218   -7.1669    7.1417 C   0  0  0  0  0  0  0  0  0  0  0  0
   -5.1365   -7.1640    7.7095 C   0  0  0  0  0  0  0  0  0  0  0  0
   -4.9738   -7.9700    6.7198 O   0  0  0  0  0  0  0  0  0  0  0  0
   -6.4194   -6.7249    7.9627 N   0  0  0  0  0  0  0  0  0  0  0  0
   -6.6756   -6.0647    8.7150 H   0  0  0  0  0  0  0  0  0  0  0  0
   -3.9913   -6.8502    8.3835 O   0  0  0  0  0  0  0  0  0  0  0  0
   -2.1212   -5.4196    8.9923 C   0  0  0  0  0  0  0  0  0  0  0  0
   -3.6169   -5.5549    8.7151 C   0  0  0  0  0  0  0  0  0  0  0  0
   -4.3600   -4.9451    9.8557 C   0  0  0  0  0  0  0  0  0  0  0  0
   -3.8651   -4.6564    7.4911 C   0  0  0  0  0  0  0  0  0  0  0  0
   -7.1367   -8.0768    6.1427 C   0  0  0  0  0  0  0  0  0  0  0  0
   -7.5794   -9.4801    6.0073 C   0  0  0  0  0  0  0  0  0  0  0  0
   -7.8261  -10.1918    7.2899 C   0  0  0  0  0  0  0  0  0  0  0  0
   -8.9937  -10.9244    7.3916 O   0  0  0  0  0  0  0  0  0  0  0  0
   -7.0336  -10.1390    8.2348 O   0  0  0  0  0  0  0  0  0  0  0  0
   -9.3790  -11.1761    8.3102 H   0  0  0  0  0  0  0  0  0  0  0  0
 37 38  1  0  0  0
 38 39  1  0  0  0
 38 40  1  0  0  0
 38 36  1  0  0  0
 36 32  1  0  0  0
 32 33  2  0  0  0
 32 34  1  0  0  0
 34 31  1  0  0  0
 31 41  1  0  0  0
 41 42  1  0  0  0
 42 43  1  0  0  0
 43 44  1  0  0  0
 43 45  2  0  0  0
 31  1  1  0  0  0
  1  2  2  0  0  0
  1  3  1  0  0  0
  3  4  1  0  0  0
  4  5  1  0  0  0
  5  6  1  0  0  0
  6  7  1  0  0  0
  7  8  1  0  0  0
  8  9  2  0  0  0
  8 10  1  0  0  0
 10 12  1  0  0  0
 12 24  1  0  0  0
 24 25  1  0  0  0
 25 26  2  0  0  0
 26 27  1  0  0  0
 27 28  2  0  0  0
 28 29  1  0  0  0
 29 30  2  0  0  0
 12 13  1  0  0  0
 13 14  2  0  0  0
 13 15  1  0  0  0
 15 16  2  0  0  0
 16 17  1  0  0  0
 17 18  2  0  0  0
 18 19  1  0  0  0
 19 20  2  0  0  0
 20 21  1  0  0  0
 21 22  2  0  0  0
 22 23  1  0  0  0
  7  3  1  0  0  0
 30 25  1  0  0  0
 23 15  1  0  0  0
 22 17  1  0  0  0
 34 35  1  0  0  0
 44 46  1  0  0  0
 10 11  1  0  0  0
M  END
> <minimizedAffinity>
3.81013

> <CNNscore>
0.3436657786

> <CNNaffinity>
6.8537673950

> <CNN_VS>
2.3554053307

> <CNNaffinity_variance>
0.4254271984

$$$$
[H]OC(=O)C([H])([H])C([H])([H])[C@@]([H])(C(=O)N1C([H])([H])C([H])([H])C([H])([H])[C@@]1([H])C(=O)N([H])[C@]([H])(C(=O)c1nc2c([H])c([H])c([H])c([H])c2s1)C([H])([H])c1c([H])c([H])c([H])c([H])c1[H])N([H])C(=O)OC(C([H])([H])[H])(C([H])([H])[H])C([H])([H])[H]


 46 49  0  0  0  0  0  0  0  0999 V2000
   -8.5890   -6.5211    7.0079 C   0  0  0  0  0  0  0  0  0  0  0  0
   -7.9432   -5.3323    7.2258 O   0  0  0  0  0  0  0  0  0  0  0  0
   -9.5953   -6.6587    7.9452 N   0  0  0  0  0  0  0  0  0  0  0  0
   -9.8805   -5.5639    8.9103 C   0  0  0  0  0  0  0  0  0  0  0  0
  -10.1943   -6.3030   10.1764 C   0  0  0  0  0  0  0  0  0  0  0  0
  -10.5765   -7.6890    9.7957 C   0  0  0  0  0  0  0  0  0  0  0  0
  -10.4896   -7.6908    8.2611 C   0  0  0  0  0  0  0  0  0  0  0  0
  -11.8966   -7.4454    7.7728 C   0  0  0  0  0  0  0  0  0  0  0  0
  -12.0871   -7.4150    6.5466 O   0  0  0  0  0  0  0  0  0  0  0  0
  -12.9226   -7.2627    8.6767 N   0  0  0  0  0  0  0  0  0  0  0  0
  -12.7578   -7.2911    9.6980 H   0  0  0  0  0  0  0  0  0  0  0  0
  -14.3567   -7.0076    8.2695 C   0  0  0  0  0  0  0  0  0  0  0  0
  -14.7387   -8.1100    7.4521 C   0  0  0  0  0  0  0  0  0  0  0  0
  -14.3594   -9.3144    7.9163 O   0  0  0  0  0  0  0  0  0  0  0  0
  -15.4699   -8.2563    6.1981 C   0  0  0  0  0  0  0  0  0  0  0  0
  -16.6693   -7.9908    5.7894 N   0  0  0  0  0  0  0  0  0  0  0  0
  -17.0901   -8.2242    4.5709 C   0  0  0  0  0  0  0  0  0  0  0  0
  -18.3710   -7.9065    4.0471 C   0  0  0  0  0  0  0  0  0  0  0  0
  -18.6063   -8.1763    2.7396 C   0  0  0  0  0  0  0  0  0  0  0  0
  -17.7166   -8.7380    1.8595 C   0  0  0  0  0  0  0  0  0  0  0  0
  -16.4754   -9.0504    2.3641 C   0  0  0  0  0  0  0  0  0  0  0  0
  -16.1721   -8.7874    3.7171 C   0  0  0  0  0  0  0  0  0  0  0  0
  -14.8075   -8.9291    4.7200 S   0  0  0  0  0  0  0  0  0  0  0  0
  -14.4127   -5.5940    7.8413 C   0  0  0  0  0  0  0  0  0  0  0  0
  -14.8355   -5.3327    6.4716 C   0  0  0  0  0  0  0  0  0  0  0  0
  -14.0354   -5.3872    5.3430 C   0  0  0  0  0  0  0  0  0  0  0  0
  -14.5323   -5.1451    4.0630 C   0  0  0  0  0  0  0  0  0  0  0  0
  -15.8368   -4.8423    3.8613 C   0  0  0  0  0  0  0  0  0  0  0  0
  -16.6839   -4.7752    4.9646 C   0  0  0  0  0  0  0  0  0  0  0  0
  -16.1948   -5.0126    6.2110 C   0  0  0  0  0  0  0  0  0  0  0  0
   -7.9985   -7.2069    5.8914 C   0  0  0  0  0  0  0  0  0  0  0  0
   -5.6298   -6.2643    5.8928 C   0  0  0  0  0  0  0  0  0  0  0  0
   -5.3472   -7.1455    6.7867 O   0  0  0  0  0  0  0  0  0  0  0  0
   -6.9199   -6.2500    5.4050 N   0  0  0  0  0  0  0  0  0  0  0  0
   -7.2640   -5.6046    4.6753 H   0  0  0  0  0  0  0  0  0  0  0  0
   -4.5900   -5.4503    5.5458 O   0  0  0  0  0  0  0  0  0  0  0  0
   -2.6839   -5.0666    7.0067 C   0  0  0  0  0  0  0  0  0  0  0  0
   -3.2551   -5.7588    5.7710 C   0  0  0  0  0  0  0  0  0  0  0  0
   -2.3356   -5.5013    4.6250 C   0  0  0  0  0  0  0  0  0  0  0  0
   -3.1579   -7.2606    6.0907 C   0  0  0  0  0  0  0  0  0  0  0  0
   -7.4458   -8.5304    5.8274 C   0  0  0  0  0  0  0  0  0  0  0  0
   -7.9637   -9.6880    6.5859 C   0  0  0  0  0  0  0  0  0  0  0  0
   -7.4883   -9.7866    7.9918 C   0  0  0  0  0  0  0  0  0  0  0  0
   -7.3777  -11.0532    8.5341 O   0  0  0  0  0  0  0  0  0  0  0  0
   -7.2029   -8.7898    8.6616 O   0  0  0  0  0  0  0  0  0  0  0  0
   -7.3621  -11.1906    9.5521 H   0  0  0  0  0  0  0  0  0  0  0  0
 37 38  1  0  0  0
 38 39  1  0  0  0
 38 40  1  0  0  0
 38 36  1  0  0  0
 36 32  1  0  0  0
 32 33  2  0  0  0
 32 34  1  0  0  0
 34 31  1  0  0  0
 31 41  1  0  0  0
 41 42  1  0  0  0
 42 43  1  0  0  0
 43 44  1  0  0  0
 43 45  2  0  0  0
 31  1  1  0  0  0
  1  2  2  0  0  0
  1  3  1  0  0  0
  3  4  1  0  0  0
  4  5  1  0  0  0
  5  6  1  0  0  0
  6  7  1  0  0  0
  7  8  1  0  0  0
  8  9  2  0  0  0
  8 10  1  0  0  0
 10 12  1  0  0  0
 12 24  1  0  0  0
 24 25  1  0  0  0
 25 26  2  0  0  0
 26 27  1  0  0  0
 27 28  2  0  0  0
 28 29  1  0  0  0
 29 30  2  0  0  0
 12 13  1  0  0  0
 13 14  2  0  0  0
 13 15  1  0  0  0
 15 16  2  0  0  0
 16 17  1  0  0  0
 17 18  2  0  0  0
 18 19  1  0  0  0
 19 20  2  0  0  0
 20 21  1  0  0  0
 21 22  2  0  0  0
 22 23  1  0  0  0
  7  3  1  0  0  0
 30 25  1  0  0  0
 23 15  1  0  0  0
 22 17  1  0  0  0
 34 35  1  0  0  0
 44 46  1  0  0  0
 10 11  1  0  0  0
M  END
> <minimizedAffinity>
5.01284

> <CNNscore>
0.3378115296

> <CNNaffinity>
7.0981397629

> <CNN_VS>
2.3978333473

> <CNNaffinity_variance>
0.4428055286

$$$$
[H]OC(=O)C([H])([H])C([H])([H])[C@@]([H])(C(=O)N1C([H])([H])C([H])([H])C([H])([H])[C@@]1([H])C(=O)N([H])[C@]([H])(C(=O)c1nc2c([H])c([H])c([H])c([H])c2s1)C([H])([H])c1c([H])c([H])c([H])c([H])c1[H])N([H])C(=O)OC(C([H])([H])[H])(C([H])([H])[H])C([H])([H])[H]


 46 49  0  0  0  0  0  0  0  0999 V2000
   -7.6390   -9.9448    7.9891 C   0  0  0  0  0  0  0  0  0  0  0  0
   -7.1042  -11.0299    8.6327 O   0  0  0  0  0  0  0  0  0  0  0  0
   -8.6017  -10.3847    7.1005 N   0  0  0  0  0  0  0  0  0  0  0  0
   -8.9641  -11.8255    7.0351 C   0  0  0  0  0  0  0  0  0  0  0  0
   -9.1713  -12.0554    5.5682 C   0  0  0  0  0  0  0  0  0  0  0  0
   -9.4292  -10.7298    4.9453 C   0  0  0  0  0  0  0  0  0  0  0  0
   -9.3841   -9.7481    6.1272 C   0  0  0  0  0  0  0  0  0  0  0  0
  -10.8209   -9.5434    6.5422 C   0  0  0  0  0  0  0  0  0  0  0  0
  -11.7072  -10.0183    5.8144 O   0  0  0  0  0  0  0  0  0  0  0  0
  -11.1173   -8.8479    7.6961 N   0  0  0  0  0  0  0  0  0  0  0  0
  -10.3736   -8.4560    8.2998 H   0  0  0  0  0  0  0  0  0  0  0  0
  -12.5285   -8.5958    8.1782 C   0  0  0  0  0  0  0  0  0  0  0  0
  -13.1237   -7.7226    7.2228 C   0  0  0  0  0  0  0  0  0  0  0  0
  -12.3727   -6.6581    6.8871 O   0  0  0  0  0  0  0  0  0  0  0  0
  -14.3861   -7.7045    6.4919 C   0  0  0  0  0  0  0  0  0  0  0  0
  -14.7604   -7.3686    5.2990 N   0  0  0  0  0  0  0  0  0  0  0  0
  -15.9970   -7.4527    4.8747 C   0  0  0  0  0  0  0  0  0  0  0  0
  -16.4606   -7.1535    3.5663 C   0  0  0  0  0  0  0  0  0  0  0  0
  -17.7740   -7.3544    3.2974 C   0  0  0  0  0  0  0  0  0  0  0  0
  -18.7151   -7.8221    4.1790 C   0  0  0  0  0  0  0  0  0  0  0  0
  -18.2705   -8.1101    5.4488 C   0  0  0  0  0  0  0  0  0  0  0  0
  -16.9123   -7.9251    5.7846 C   0  0  0  0  0  0  0  0  0  0  0  0
  -15.9347   -8.2040    7.1464 S   0  0  0  0  0  0  0  0  0  0  0  0
  -12.4184   -8.3002    9.6223 C   0  0  0  0  0  0  0  0  0  0  0  0
  -12.4332   -6.8970   10.0145 C   0  0  0  0  0  0  0  0  0  0  0  0
  -13.5156   -6.2005   10.5246 C   0  0  0  0  0  0  0  0  0  0  0  0
  -13.4323   -4.8597   10.8978 C   0  0  0  0  0  0  0  0  0  0  0  0
  -12.2743   -4.1678   10.7778 C   0  0  0  0  0  0  0  0  0  0  0  0
  -11.1556   -4.8231   10.2697 C   0  0  0  0  0  0  0  0  0  0  0  0
  -11.2416   -6.1310    9.9077 C   0  0  0  0  0  0  0  0  0  0  0  0
   -7.0159   -8.7368    8.4562 C   0  0  0  0  0  0  0  0  0  0  0  0
   -5.4065   -7.5228    6.8957 C   0  0  0  0  0  0  0  0  0  0  0  0
   -4.4848   -7.7656    7.7600 O   0  0  0  0  0  0  0  0  0  0  0  0
   -6.6752   -7.9846    7.1781 N   0  0  0  0  0  0  0  0  0  0  0  0
   -7.4932   -7.8688    6.5576 H   0  0  0  0  0  0  0  0  0  0  0  0
   -4.9893   -6.8276    5.7971 O   0  0  0  0  0  0  0  0  0  0  0  0
   -2.6211   -6.3158    5.5858 C   0  0  0  0  0  0  0  0  0  0  0  0
   -4.0416   -5.8135    5.8351 C   0  0  0  0  0  0  0  0  0  0  0  0
   -4.0339   -4.9898    7.0787 C   0  0  0  0  0  0  0  0  0  0  0  0
   -4.3215   -4.8525    4.6666 C   0  0  0  0  0  0  0  0  0  0  0  0
   -7.5042   -7.7678    9.3963 C   0  0  0  0  0  0  0  0  0  0  0  0
   -6.9827   -6.3907    9.5213 C   0  0  0  0  0  0  0  0  0  0  0  0
   -5.9291   -6.2049   10.5545 C   0  0  0  0  0  0  0  0  0  0  0  0
   -4.7349   -5.6421   10.1451 O   0  0  0  0  0  0  0  0  0  0  0  0
   -6.0961   -6.5363   11.7318 O   0  0  0  0  0  0  0  0  0  0  0  0
   -3.8782   -5.7641   10.6989 H   0  0  0  0  0  0  0  0  0  0  0  0
 37 38  1  0  0  0
 38 39  1  0  0  0
 38 40  1  0  0  0
 38 36  1  0  0  0
 36 32  1  0  0  0
 32 33  2  0  0  0
 32 34  1  0  0  0
 34 31  1  0  0  0
 31 41  1  0  0  0
 41 42  1  0  0  0
 42 43  1  0  0  0
 43 44  1  0  0  0
 43 45  2  0  0  0
 31  1  1  0  0  0
  1  2  2  0  0  0
  1  3  1  0  0  0
  3  4  1  0  0  0
  4  5  1  0  0  0
  5  6  1  0  0  0
  6  7  1  0  0  0
  7  8  1  0  0  0
  8  9  2  0  0  0
  8 10  1  0  0  0
 10 12  1  0  0  0
 12 24  1  0  0  0
 24 25  1  0  0  0
 25 26  2  0  0  0
 26 27  1  0  0  0
 27 28  2  0  0  0
 28 29  1  0  0  0
 29 30  2  0  0  0
 12 13  1  0  0  0
 13 14  2  0  0  0
 13 15  1  0  0  0
 15 16  2  0  0  0
 16 17  1  0  0  0
 17 18  2  0  0  0
 18 19  1  0  0  0
 19 20  2  0  0  0
 20 21  1  0  0  0
 21 22  2  0  0  0
 22 23  1  0  0  0
  7  3  1  0  0  0
 30 25  1  0  0  0
 23 15  1  0  0  0
 22 17  1  0  0  0
 34 35  1  0  0  0
 44 46  1  0  0  0
 10 11  1  0  0  0
M  END
> <minimizedAffinity>
2.88051

> <CNNscore>
0.2924662232

> <CNNaffinity>
7.0077500343

> <CNN_VS>
2.0495302677

> <CNNaffinity_variance>
0.3564320505

$$$$
[H]OC(=O)C([H])([H])C([H])([H])[C@@]([H])(C(=O)N1C([H])([H])C([H])([H])C([H])([H])[C@@]1([H])C(=O)N([H])[C@]([H])(C(=O)c1nc2c([H])c([H])c([H])c([H])c2s1)C([H])([H])c1c([H])c([H])c([H])c([H])c1[H])N([H])C(=O)OC(C([H])([H])[H])(C([H])([H])[H])C([H])([H])[H]


 46 49  0  0  0  0  0  0  0  0999 V2000
   -7.4941   -8.9895    7.5817 C   0  0  0  0  0  0  0  0  0  0  0  0
   -6.8024   -9.6071    8.5906 O   0  0  0  0  0  0  0  0  0  0  0  0
   -8.4486   -9.8637    7.0971 N   0  0  0  0  0  0  0  0  0  0  0  0
   -8.6458  -11.1926    7.7348 C   0  0  0  0  0  0  0  0  0  0  0  0
   -8.9079  -12.0930    6.5651 C   0  0  0  0  0  0  0  0  0  0  0  0
   -9.3517  -11.2326    5.4360 C   0  0  0  0  0  0  0  0  0  0  0  0
   -9.3530   -9.8138    6.0274 C   0  0  0  0  0  0  0  0  0  0  0  0
  -10.7779   -9.5494    6.4493 C   0  0  0  0  0  0  0  0  0  0  0  0
  -11.6863   -9.9427    5.7003 O   0  0  0  0  0  0  0  0  0  0  0  0
  -11.0401   -8.8900    7.6325 N   0  0  0  0  0  0  0  0  0  0  0  0
  -10.2783   -8.5663    8.2537 H   0  0  0  0  0  0  0  0  0  0  0  0
  -12.4371   -8.5827    8.1236 C   0  0  0  0  0  0  0  0  0  0  0  0
  -13.0092   -7.6990    7.1637 C   0  0  0  0  0  0  0  0  0  0  0  0
  -12.2442   -6.6386    6.8470 O   0  0  0  0  0  0  0  0  0  0  0  0
  -14.2590   -7.6663    6.4119 C   0  0  0  0  0  0  0  0  0  0  0  0
  -14.6442   -7.1768    5.2770 N   0  0  0  0  0  0  0  0  0  0  0  0
  -15.8639   -7.2912    4.8126 C   0  0  0  0  0  0  0  0  0  0  0  0
  -16.3333   -6.8267    3.5557 C   0  0  0  0  0  0  0  0  0  0  0  0
  -17.6219   -7.0867    3.2244 C   0  0  0  0  0  0  0  0  0  0  0  0
  -18.5325   -7.7616    3.9970 C   0  0  0  0  0  0  0  0  0  0  0  0
  -18.0824   -8.2104    5.2172 C   0  0  0  0  0  0  0  0  0  0  0  0
  -16.7487   -7.9731    5.6132 C   0  0  0  0  0  0  0  0  0  0  0  0
  -15.7694   -8.3850    6.9395 S   0  0  0  0  0  0  0  0  0  0  0  0
  -12.3039   -8.2758    9.5634 C   0  0  0  0  0  0  0  0  0  0  0  0
  -12.4061   -6.8760    9.9548 C   0  0  0  0  0  0  0  0  0  0  0  0
  -13.5541   -6.2236   10.3710 C   0  0  0  0  0  0  0  0  0  0  0  0
  -13.5545   -4.8824   10.7519 C   0  0  0  0  0  0  0  0  0  0  0  0
  -12.4179   -4.1463   10.7328 C   0  0  0  0  0  0  0  0  0  0  0  0
  -11.2354   -4.7563   10.3218 C   0  0  0  0  0  0  0  0  0  0  0  0
  -11.2399   -6.0648    9.9518 C   0  0  0  0  0  0  0  0  0  0  0  0
   -6.9888   -7.6595    7.3783 C   0  0  0  0  0  0  0  0  0  0  0  0
   -5.6084   -6.1934    8.9415 C   0  0  0  0  0  0  0  0  0  0  0  0
   -6.0348   -5.1832    8.2684 O   0  0  0  0  0  0  0  0  0  0  0  0
   -6.0508   -7.4418    8.5564 N   0  0  0  0  0  0  0  0  0  0  0  0
   -5.7949   -8.3256    9.0265 H   0  0  0  0  0  0  0  0  0  0  0  0
   -4.7599   -5.8799    9.9643 O   0  0  0  0  0  0  0  0  0  0  0  0
   -3.9703   -3.6175   10.3801 C   0  0  0  0  0  0  0  0  0  0  0  0
   -3.6803   -5.0159    9.8390 C   0  0  0  0  0  0  0  0  0  0  0  0
   -3.1268   -4.8774    8.4608 C   0  0  0  0  0  0  0  0  0  0  0  0
   -2.5391   -5.5435   10.7259 C   0  0  0  0  0  0  0  0  0  0  0  0
   -6.3487   -7.0979    6.2224 C   0  0  0  0  0  0  0  0  0  0  0  0
   -4.9181   -7.2706    5.8950 C   0  0  0  0  0  0  0  0  0  0  0  0
   -4.2175   -6.0359    5.4514 C   0  0  0  0  0  0  0  0  0  0  0  0
   -2.8625   -6.1350    5.1967 O   0  0  0  0  0  0  0  0  0  0  0  0
   -4.8050   -4.9590    5.3140 O   0  0  0  0  0  0  0  0  0  0  0  0
   -2.2650   -5.2993    5.1930 H   0  0  0  0  0  0  0  0  0  0  0  0
 37 38  1  0  0  0
 38 39  1  0  0  0
 38 40  1  0  0  0
 38 36  1  0  0  0
 36 32  1  0  0  0
 32 33  2  0  0  0
 32 34  1  0  0  0
 34 31  1  0  0  0
 31 41  1  0  0  0
 41 42  1  0  0  0
 42 43  1  0  0  0
 43 44  1  0  0  0
 43 45  2  0  0  0
 31  1  1  0  0  0
  1  2  2  0  0  0
  1  3  1  0  0  0
  3  4  1  0  0  0
  4  5  1  0  0  0
  5  6  1  0  0  0
  6  7  1  0  0  0
  7  8  1  0  0  0
  8  9  2  0  0  0
  8 10  1  0  0  0
 10 12  1  0  0  0
 12 24  1  0  0  0
 24 25  1  0  0  0
 25 26  2  0  0  0
 26 27  1  0  0  0
 27 28  2  0  0  0
 28 29  1  0  0  0
 29 30  2  0  0  0
 12 13  1  0  0  0
 13 14  2  0  0  0
 13 15  1  0  0  0
 15 16  2  0  0  0
 16 17  1  0  0  0
 17 18  2  0  0  0
 18 19  1  0  0  0
 19 20  2  0  0  0
 20 21  1  0  0  0
 21 22  2  0  0  0
 22 23  1  0  0  0
  7  3  1  0  0  0
 30 25  1  0  0  0
 23 15  1  0  0  0
 22 17  1  0  0  0
 34 35  1  0  0  0
 44 46  1  0  0  0
 10 11  1  0  0  0
M  END
> <minimizedAffinity>
0.98283

> <CNNscore>
0.2646433413

> <CNNaffinity>
7.2023835182

> <CNN_VS>
1.9060628414

> <CNNaffinity_variance>
0.5646597147

$$$$
[H]OC(=O)C([H])([H])C([H])([H])[C@@]([H])(C(=O)N1C([H])([H])C([H])([H])C([H])([H])[C@@]1([H])C(=O)N([H])[C@]([H])(C(=O)c1nc2c([H])c([H])c([H])c([H])c2s1)C([H])([H])c1c([H])c([H])c([H])c([H])c1[H])N([H])C(=O)OC(C([H])([H])[H])(C([H])([H])[H])C([H])([H])[H]


 46 49  0  0  0  0  0  0  0  0999 V2000
  -15.9609   -7.8546    3.8375 C   0  0  0  0  0  0  0  0  0  0  0  0
  -17.2518   -8.1344    3.4729 O   0  0  0  0  0  0  0  0  0  0  0  0
  -15.9686   -6.7897    4.7183 N   0  0  0  0  0  0  0  0  0  0  0  0
  -17.2550   -6.2071    5.1845 C   0  0  0  0  0  0  0  0  0  0  0  0
  -16.9630   -4.7374    5.2313 C   0  0  0  0  0  0  0  0  0  0  0  0
  -15.4856   -4.5826    5.3053 C   0  0  0  0  0  0  0  0  0  0  0  0
  -14.9606   -6.0272    5.3244 C   0  0  0  0  0  0  0  0  0  0  0  0
  -14.7390   -6.3612    6.7796 C   0  0  0  0  0  0  0  0  0  0  0  0
  -15.7322   -6.6527    7.4647 O   0  0  0  0  0  0  0  0  0  0  0  0
  -13.4661   -6.3369    7.3109 N   0  0  0  0  0  0  0  0  0  0  0  0
  -12.6417   -6.0949    6.7339 H   0  0  0  0  0  0  0  0  0  0  0  0
  -13.1605   -6.6538    8.7578 C   0  0  0  0  0  0  0  0  0  0  0  0
  -11.8459   -6.1622    9.0021 C   0  0  0  0  0  0  0  0  0  0  0  0
  -11.7762   -5.1572    9.8937 O   0  0  0  0  0  0  0  0  0  0  0  0
  -10.5140   -6.4982    8.5105 C   0  0  0  0  0  0  0  0  0  0  0  0
   -9.5221   -7.2119    8.9380 N   0  0  0  0  0  0  0  0  0  0  0  0
   -8.3972   -7.3592    8.2829 C   0  0  0  0  0  0  0  0  0  0  0  0
   -7.2972   -8.1692    8.6700 C   0  0  0  0  0  0  0  0  0  0  0  0
   -6.2345   -8.2387    7.8311 C   0  0  0  0  0  0  0  0  0  0  0  0
   -6.1133   -7.5910    6.6280 C   0  0  0  0  0  0  0  0  0  0  0  0
   -7.1759   -6.8024    6.2509 C   0  0  0  0  0  0  0  0  0  0  0  0
   -8.3114   -6.6959    7.0821 C   0  0  0  0  0  0  0  0  0  0  0  0
   -9.8275   -5.9328    6.9988 S   0  0  0  0  0  0  0  0  0  0  0  0
  -13.5771   -8.0569    8.9638 C   0  0  0  0  0  0  0  0  0  0  0  0
  -14.0015   -8.4319   10.3064 C   0  0  0  0  0  0  0  0  0  0  0  0
  -15.1846   -8.0637   10.9241 C   0  0  0  0  0  0  0  0  0  0  0  0
  -15.5212   -8.4910   12.2079 C   0  0  0  0  0  0  0  0  0  0  0  0
  -14.6968   -9.2964   12.9190 C   0  0  0  0  0  0  0  0  0  0  0  0
  -13.4938   -9.6954   12.3421 C   0  0  0  0  0  0  0  0  0  0  0  0
  -13.1701   -9.2766   11.0895 C   0  0  0  0  0  0  0  0  0  0  0  0
  -15.0553   -8.7567    3.1805 C   0  0  0  0  0  0  0  0  0  0  0  0
  -13.6555   -8.9358    5.3036 C   0  0  0  0  0  0  0  0  0  0  0  0
  -14.7082   -9.3951    5.8836 O   0  0  0  0  0  0  0  0  0  0  0  0
  -13.7610   -8.6110    3.9672 N   0  0  0  0  0  0  0  0  0  0  0  0
  -12.9848   -8.2509    3.3881 H   0  0  0  0  0  0  0  0  0  0  0  0
  -12.5589   -8.8330    6.1105 O   0  0  0  0  0  0  0  0  0  0  0  0
  -12.9696  -10.8670    7.3790 C   0  0  0  0  0  0  0  0  0  0  0  0
  -11.9596   -9.9124    6.7458 C   0  0  0  0  0  0  0  0  0  0  0  0
  -10.9380   -9.5637    7.7753 C   0  0  0  0  0  0  0  0  0  0  0  0
  -11.2448  -10.7596    5.6788 C   0  0  0  0  0  0  0  0  0  0  0  0
  -15.2156  -10.1536    2.8906 C   0  0  0  0  0  0  0  0  0  0  0  0
  -16.2103  -11.0316    3.5413 C   0  0  0  0  0  0  0  0  0  0  0  0
  -16.2279  -12.4369    3.0542 C   0  0  0  0  0  0  0  0  0  0  0  0
  -15.9819  -13.4307    3.9828 O   0  0  0  0  0  0  0  0  0  0  0  0
  -16.4484  -12.7214    1.8735 O   0  0  0  0  0  0  0  0  0  0  0  0
  -15.6748  -14.3649    3.6853 H   0  0  0  0  0  0  0  0  0  0  0  0
 37 38  1  0  0  0
 38 39  1  0  0  0
 38 40  1  0  0  0
 38 36  1  0  0  0
 36 32  1  0  0  0
 32 33  2  0  0  0
 32 34  1  0  0  0
 34 31  1  0  0  0
 31 41  1  0  0  0
 41 42  1  0  0  0
 42 43  1  0  0  0
 43 44  1  0  0  0
 43 45  2  0  0  0
 31  1  1  0  0  0
  1  2  2  0  0  0
  1  3  1  0  0  0
  3  4  1  0  0  0
  4  5  1  0  0  0
  5  6  1  0  0  0
  6  7  1  0  0  0
  7  8  1  0  0  0
  8  9  2  0  0  0
  8 10  1  0  0  0
 10 12  1  0  0  0
 12 24  1  0  0  0
 24 25  1  0  0  0
 25 26  2  0  0  0
 26 27  1  0  0  0
 27 28  2  0  0  0
 28 29  1  0  0  0
 29 30  2  0  0  0
 12 13  1  0  0  0
 13 14  2  0  0  0
 13 15  1  0  0  0
 15 16  2  0  0  0
 16 17  1  0  0  0
 17 18  2  0  0  0
 18 19  1  0  0  0
 19 20  2  0  0  0
 20 21  1  0  0  0
 21 22  2  0  0  0
 22 23  1  0  0  0
  7  3  1  0  0  0
 30 25  1  0  0  0
 23 15  1  0  0  0
 22 17  1  0  0  0
 34 35  1  0  0  0
 44 46  1  0  0  0
 10 11  1  0  0  0
M  END
> <minimizedAffinity>
11.72309

> <CNNscore>
0.2642437816

> <CNNaffinity>
7.2757186890

> <CNN_VS>
1.9225634336

> <CNNaffinity_variance>
0.0797782242

$$$$
[H]OC(=O)C([H])([H])C([H])([H])[C@@]([H])(C(=O)N1C([H])([H])C([H])([H])C([H])([H])[C@@]1([H])C(=O)N([H])[C@]([H])(C(=O)c1nc2c([H])c([H])c([H])c([H])c2s1)C([H])([H])c1c([H])c([H])c([H])c([H])c1[H])N([H])C(=O)OC(C([H])([H])[H])(C([H])([H])[H])C([H])([H])[H]


 46 49  0  0  0  0  0  0  0  0999 V2000
   -6.7922   -6.8012    7.6198 C   0  0  0  0  0  0  0  0  0  0  0  0
   -7.5753   -5.9922    6.8387 O   0  0  0  0  0  0  0  0  0  0  0  0
   -5.4958   -6.7598    7.1429 N   0  0  0  0  0  0  0  0  0  0  0  0
   -5.1358   -5.8576    6.0170 C   0  0  0  0  0  0  0  0  0  0  0  0
   -4.1641   -6.6786    5.2236 C   0  0  0  0  0  0  0  0  0  0  0  0
   -3.6283   -7.7280    6.1311 C   0  0  0  0  0  0  0  0  0  0  0  0
   -4.3198   -7.4467    7.4747 C   0  0  0  0  0  0  0  0  0  0  0  0
   -3.3396   -6.6216    8.2727 C   0  0  0  0  0  0  0  0  0  0  0  0
   -2.4831   -7.2241    8.9392 O   0  0  0  0  0  0  0  0  0  0  0  0
   -3.4112   -5.2441    8.2485 N   0  0  0  0  0  0  0  0  0  0  0  0
   -4.1265   -4.7475    7.6892 H   0  0  0  0  0  0  0  0  0  0  0  0
   -2.4713   -4.3468    9.0223 C   0  0  0  0  0  0  0  0  0  0  0  0
   -3.2870   -3.5949    9.9160 C   0  0  0  0  0  0  0  0  0  0  0  0
   -4.3865   -4.2365   10.3511 O   0  0  0  0  0  0  0  0  0  0  0  0
   -3.2148   -2.2591   10.4980 C   0  0  0  0  0  0  0  0  0  0  0  0
   -2.8650   -1.7655   11.6425 N   0  0  0  0  0  0  0  0  0  0  0  0
   -2.8902   -0.4855   11.9202 C   0  0  0  0  0  0  0  0  0  0  0  0
   -2.4687    0.1216   13.1326 C   0  0  0  0  0  0  0  0  0  0  0  0
   -2.5186    1.4738   13.2156 C   0  0  0  0  0  0  0  0  0  0  0  0
   -2.9461    2.3269   12.2302 C   0  0  0  0  0  0  0  0  0  0  0  0
   -3.3585    1.7423   11.0550 C   0  0  0  0  0  0  0  0  0  0  0  0
   -3.3238    0.3389   10.9096 C   0  0  0  0  0  0  0  0  0  0  0  0
   -3.6509   -0.7760    9.6694 S   0  0  0  0  0  0  0  0  0  0  0  0
   -1.5626   -3.7495    8.0211 C   0  0  0  0  0  0  0  0  0  0  0  0
   -2.1061   -3.5143    6.6898 C   0  0  0  0  0  0  0  0  0  0  0  0
   -3.1669   -2.6828    6.3734 C   0  0  0  0  0  0  0  0  0  0  0  0
   -3.6060   -2.4981    5.0631 C   0  0  0  0  0  0  0  0  0  0  0  0
   -3.0076   -3.1307    4.0259 C   0  0  0  0  0  0  0  0  0  0  0  0
   -1.9351   -3.9785    4.2911 C   0  0  0  0  0  0  0  0  0  0  0  0
   -1.5101   -4.1550    5.5707 C   0  0  0  0  0  0  0  0  0  0  0  0
   -7.5856   -7.4084    8.6530 C   0  0  0  0  0  0  0  0  0  0  0  0
  -10.1201   -7.2607    8.4221 C   0  0  0  0  0  0  0  0  0  0  0  0
  -10.1218   -8.5428    8.3133 O   0  0  0  0  0  0  0  0  0  0  0  0
   -8.8997   -6.6431    8.6007 N   0  0  0  0  0  0  0  0  0  0  0  0
   -8.7691   -5.6250    8.7182 H   0  0  0  0  0  0  0  0  0  0  0  0
  -11.3534   -6.6802    8.3440 O   0  0  0  0  0  0  0  0  0  0  0  0
  -12.1238   -5.9981   10.5477 C   0  0  0  0  0  0  0  0  0  0  0  0
  -12.3498   -6.8448    9.2969 C   0  0  0  0  0  0  0  0  0  0  0  0
  -12.6012   -8.2515    9.7248 C   0  0  0  0  0  0  0  0  0  0  0  0
  -13.6689   -6.3167    8.7069 C   0  0  0  0  0  0  0  0  0  0  0  0
   -7.9129   -8.7921    8.8520 C   0  0  0  0  0  0  0  0  0  0  0  0
   -7.4823   -9.8877    7.9588 C   0  0  0  0  0  0  0  0  0  0  0  0
   -7.9790   -9.7953    6.5598 C   0  0  0  0  0  0  0  0  0  0  0  0
   -9.2502  -10.2758    6.3076 O   0  0  0  0  0  0  0  0  0  0  0  0
   -7.2971   -9.3153    5.6497 O   0  0  0  0  0  0  0  0  0  0  0  0
   -9.5373  -10.5305    5.3546 H   0  0  0  0  0  0  0  0  0  0  0  0
 37 38  1  0  0  0
 38 39  1  0  0  0
 38 40  1  0  0  0
 38 36  1  0  0  0
 36 32  1  0  0  0
 32 33  2  0  0  0
 32 34  1  0  0  0
 34 31  1  0  0  0
 31 41  1  0  0  0
 41 42  1  0  0  0
 42 43  1  0  0  0
 43 44  1  0  0  0
 43 45  2  0  0  0
 31  1  1  0  0  0
  1  2  2  0  0  0
  1  3  1  0  0  0
  3  4  1  0  0  0
  4  5  1  0  0  0
  5  6  1  0  0  0
  6  7  1  0  0  0
  7  8  1  0  0  0
  8  9  2  0  0  0
  8 10  1  0  0  0
 10 12  1  0  0  0
 12 24  1  0  0  0
 24 25  1  0  0  0
 25 26  2  0  0  0
 26 27  1  0  0  0
 27 28  2  0  0  0
 28 29  1  0  0  0
 29 30  2  0  0  0
 12 13  1  0  0  0
 13 14  2  0  0  0
 13 15  1  0  0  0
 15 16  2  0  0  0
 16 17  1  0  0  0
 17 18  2  0  0  0
 18 19  1  0  0  0
 19 20  2  0  0  0
 20 21  1  0  0  0
 21 22  2  0  0  0
 22 23  1  0  0  0
  7  3  1  0  0  0
 30 25  1  0  0  0
 23 15  1  0  0  0
 22 17  1  0  0  0
 34 35  1  0  0  0
 44 46  1  0  0  0
 10 11  1  0  0  0
M  END
> <minimizedAffinity>
-4.22504

> <CNNscore>
0.2624540627

> <CNNaffinity>
6.4306092262

> <CNN_VS>
1.6877394915

> <CNNaffinity_variance>
0.2562650740

$$$$
[H]OC(=O)C([H])([H])C([H])([H])[C@@]([H])(C(=O)N1C([H])([H])C([H])([H])C([H])([H])[C@@]1([H])C(=O)N([H])[C@]([H])(C(=O)c1nc2c([H])c([H])c([H])c([H])c2s1)C([H])([H])c1c([H])c([H])c([H])c([H])c1[H])N([H])C(=O)OC(C([H])([H])[H])(C([H])([H])[H])C([H])([H])[H]


 46 49  0  0  0  0  0  0  0  0999 V2000
   -5.7641   -8.1310    7.4130 C   0  0  0  0  0  0  0  0  0  0  0  0
   -4.9612   -8.8806    8.2322 O   0  0  0  0  0  0  0  0  0  0  0  0
   -6.9854   -8.7652    7.2860 N   0  0  0  0  0  0  0  0  0  0  0  0
   -7.2742  -10.0044    8.0555 C   0  0  0  0  0  0  0  0  0  0  0  0
   -8.0562  -10.8328    7.0809 C   0  0  0  0  0  0  0  0  0  0  0  0
   -8.6100   -9.9060    6.0580 C   0  0  0  0  0  0  0  0  0  0  0  0
   -8.1284   -8.5190    6.5128 C   0  0  0  0  0  0  0  0  0  0  0  0
   -9.2745   -7.9260    7.2957 C   0  0  0  0  0  0  0  0  0  0  0  0
   -9.0476   -6.9144    7.9785 O   0  0  0  0  0  0  0  0  0  0  0  0
  -10.5254   -8.5052    7.2407 N   0  0  0  0  0  0  0  0  0  0  0  0
  -10.7088   -9.3475    6.6680 H   0  0  0  0  0  0  0  0  0  0  0  0
  -11.7231   -7.9761    7.9977 C   0  0  0  0  0  0  0  0  0  0  0  0
  -12.8722   -8.4231    7.2840 C   0  0  0  0  0  0  0  0  0  0  0  0
  -13.1392   -9.7356    7.4104 O   0  0  0  0  0  0  0  0  0  0  0  0
  -13.8650   -7.7829    6.4279 C   0  0  0  0  0  0  0  0  0  0  0  0
  -14.1935   -6.5636    6.1431 N   0  0  0  0  0  0  0  0  0  0  0  0
  -15.1543   -6.2452    5.3113 C   0  0  0  0  0  0  0  0  0  0  0  0
  -15.5255   -4.9329    4.9161 C   0  0  0  0  0  0  0  0  0  0  0  0
  -16.5147   -4.8029    3.9983 C   0  0  0  0  0  0  0  0  0  0  0  0
  -17.2058   -5.8296    3.4069 C   0  0  0  0  0  0  0  0  0  0  0  0
  -16.8513   -7.1027    3.7896 C   0  0  0  0  0  0  0  0  0  0  0  0
  -15.8248   -7.2991    4.7380 C   0  0  0  0  0  0  0  0  0  0  0  0
  -15.0304   -8.6326    5.4299 S   0  0  0  0  0  0  0  0  0  0  0  0
  -11.4245   -6.5587    8.2924 C   0  0  0  0  0  0  0  0  0  0  0  0
  -11.9436   -6.0181    9.5419 C   0  0  0  0  0  0  0  0  0  0  0  0
  -13.1786   -5.4196    9.7250 C   0  0  0  0  0  0  0  0  0  0  0  0
  -13.6045   -4.9508   10.9670 C   0  0  0  0  0  0  0  0  0  0  0  0
  -12.8207   -5.0608   12.0660 C   0  0  0  0  0  0  0  0  0  0  0  0
  -11.5684   -5.6556   11.9349 C   0  0  0  0  0  0  0  0  0  0  0  0
  -11.1576   -6.1119   10.7215 C   0  0  0  0  0  0  0  0  0  0  0  0
   -5.0617   -6.9571    6.9722 C   0  0  0  0  0  0  0  0  0  0  0  0
   -4.0857   -5.4901    8.8147 C   0  0  0  0  0  0  0  0  0  0  0  0
   -4.9736   -4.6136    8.5002 O   0  0  0  0  0  0  0  0  0  0  0  0
   -4.0839   -6.6715    8.1026 N   0  0  0  0  0  0  0  0  0  0  0  0
   -3.4346   -7.4572    8.2715 H   0  0  0  0  0  0  0  0  0  0  0  0
   -3.2530   -5.1190    9.8310 O   0  0  0  0  0  0  0  0  0  0  0  0
   -1.2469   -5.4738    8.5025 C   0  0  0  0  0  0  0  0  0  0  0  0
   -1.9317   -4.7330    9.6491 C   0  0  0  0  0  0  0  0  0  0  0  0
   -1.0619   -4.8360   10.8566 C   0  0  0  0  0  0  0  0  0  0  0  0
   -1.9192   -3.2567    9.2164 C   0  0  0  0  0  0  0  0  0  0  0  0
   -4.3593   -6.7274    5.7413 C   0  0  0  0  0  0  0  0  0  0  0  0
   -3.2803   -5.7323    5.5700 C   0  0  0  0  0  0  0  0  0  0  0  0
   -3.7249   -4.3916    5.1040 C   0  0  0  0  0  0  0  0  0  0  0  0
   -5.0149   -4.2869    4.6189 O   0  0  0  0  0  0  0  0  0  0  0  0
   -2.9852   -3.4040    5.1392 O   0  0  0  0  0  0  0  0  0  0  0  0
   -5.2865   -3.5056    4.0096 H   0  0  0  0  0  0  0  0  0  0  0  0
 37 38  1  0  0  0
 38 39  1  0  0  0
 38 40  1  0  0  0
 38 36  1  0  0  0
 36 32  1  0  0  0
 32 33  2  0  0  0
 32 34  1  0  0  0
 34 31  1  0  0  0
 31 41  1  0  0  0
 41 42  1  0  0  0
 42 43  1  0  0  0
 43 44  1  0  0  0
 43 45  2  0  0  0
 31  1  1  0  0  0
  1  2  2  0  0  0
  1  3  1  0  0  0
  3  4  1  0  0  0
  4  5  1  0  0  0
  5  6  1  0  0  0
  6  7  1  0  0  0
  7  8  1  0  0  0
  8  9  2  0  0  0
  8 10  1  0  0  0
 10 12  1  0  0  0
 12 24  1  0  0  0
 24 25  1  0  0  0
 25 26  2  0  0  0
 26 27  1  0  0  0
 27 28  2  0  0  0
 28 29  1  0  0  0
 29 30  2  0  0  0
 12 13  1  0  0  0
 13 14  2  0  0  0
 13 15  1  0  0  0
 15 16  2  0  0  0
 16 17  1  0  0  0
 17 18  2  0  0  0
 18 19  1  0  0  0
 19 20  2  0  0  0
 20 21  1  0  0  0
 21 22  2  0  0  0
 22 23  1  0  0  0
  7  3  1  0  0  0
 30 25  1  0  0  0
 23 15  1  0  0  0
 22 17  1  0  0  0
 34 35  1  0  0  0
 44 46  1  0  0  0
 10 11  1  0  0  0
M  END
> <minimizedAffinity>
-3.16878

> <CNNscore>
0.2606986761

> <CNNaffinity>
7.2338209152

> <CNN_VS>
1.8858475685

> <CNNaffinity_variance>
0.8897342682

$$$$
[H]Oc1c([H])c(F)c(C(=O)N2C([H])([H])c3nc(-c4nn([H])c5c([H])c(-c6c([H])c(F)c(O[H])c([H])c6C([H])([H])C([H])([H])[H])c([H])c([H])c45)n([H])c3C([H])([H])C2([H])[H])c([H])c1F


 43 48  0  0  0  0  0  0  0  0999 V2000
   -8.1571   -4.9030   13.8796 C   0  0  0  0  0  0  0  0  0  0  0  0
   -7.2640   -5.9412   13.7760 N   0  0  0  0  0  0  0  0  0  0  0  0
   -6.0211   -5.5333   14.0415 C   0  0  0  0  0  0  0  0  0  0  0  0
   -4.7480   -6.2966   14.0452 C   0  0  0  0  0  0  0  0  0  0  0  0
   -3.6109   -5.4264   14.1161 N   0  0  0  0  0  0  0  0  0  0  0  0
   -3.6518   -3.9905   14.1348 C   0  0  0  0  0  0  0  0  0  0  0  0
   -4.8983   -3.3906   14.6789 C   0  0  0  0  0  0  0  0  0  0  0  0
   -6.1122   -4.2036   14.3226 C   0  0  0  0  0  0  0  0  0  0  0  0
   -7.4205   -3.8738   14.2106 N   0  0  0  0  0  0  0  0  0  0  0  0
   -2.3226   -6.0594   14.1619 C   0  0  0  0  0  0  0  0  0  0  0  0
   -1.2888   -5.3134   14.2369 O   0  0  0  0  0  0  0  0  0  0  0  0
   -7.7402   -2.9121   14.3763 H   0  0  0  0  0  0  0  0  0  0  0  0
  -12.0982   -6.4523   10.6187 C   0  0  0  0  0  0  0  0  0  0  0  0
  -10.7200   -6.4356   10.3444 C   0  0  0  0  0  0  0  0  0  0  0  0
   -9.7996   -6.0023   11.2963 C   0  0  0  0  0  0  0  0  0  0  0  0
  -10.2257   -5.5860   12.5153 C   0  0  0  0  0  0  0  0  0  0  0  0
   -9.5752   -5.1169   13.6280 C   0  0  0  0  0  0  0  0  0  0  0  0
  -10.5699   -4.8669   14.5335 N   0  0  0  0  0  0  0  0  0  0  0  0
  -11.7426   -5.1605   14.0142 N   0  0  0  0  0  0  0  0  0  0  0  0
  -11.6059   -5.6115   12.7663 C   0  0  0  0  0  0  0  0  0  0  0  0
  -12.5358   -6.0350   11.8422 C   0  0  0  0  0  0  0  0  0  0  0  0
  -12.6931   -5.0688   14.4803 H   0  0  0  0  0  0  0  0  0  0  0  0
  -14.0534   -7.7524    9.8066 C   0  0  0  0  0  0  0  0  0  0  0  0
  -14.8558   -8.0931    8.7146 C   0  0  0  0  0  0  0  0  0  0  0  0
  -14.6178   -7.6107    7.4454 C   0  0  0  0  0  0  0  0  0  0  0  0
  -15.4888   -8.0200    6.4251 O   0  0  0  0  0  0  0  0  0  0  0  0
  -13.5560   -6.7559    7.2031 C   0  0  0  0  0  0  0  0  0  0  0  0
  -13.3247   -6.2847    5.9609 F   0  0  0  0  0  0  0  0  0  0  0  0
  -12.7565   -6.4097    8.2632 C   0  0  0  0  0  0  0  0  0  0  0  0
  -12.9937   -6.8979    9.5600 C   0  0  0  0  0  0  0  0  0  0  0  0
  -15.3971   -7.7234    5.4828 H   0  0  0  0  0  0  0  0  0  0  0  0
  -13.3517   -9.4624   11.3793 C   0  0  0  0  0  0  0  0  0  0  0  0
  -14.3392   -8.3056   11.1436 C   0  0  0  0  0  0  0  0  0  0  0  0
   -2.1036   -7.4783   14.1290 C   0  0  0  0  0  0  0  0  0  0  0  0
   -1.6738   -8.1718   13.0257 C   0  0  0  0  0  0  0  0  0  0  0  0
   -1.4944   -9.5346   13.0798 C   0  0  0  0  0  0  0  0  0  0  0  0
   -1.0717  -10.1793   11.9784 F   0  0  0  0  0  0  0  0  0  0  0  0
   -1.7385  -10.2381   14.2352 C   0  0  0  0  0  0  0  0  0  0  0  0
   -1.5512  -11.6087   14.2672 O   0  0  0  0  0  0  0  0  0  0  0  0
   -2.1648   -9.5587   15.3349 C   0  0  0  0  0  0  0  0  0  0  0  0
   -2.3476   -8.1965   15.2912 C   0  0  0  0  0  0  0  0  0  0  0  0
   -2.7729   -7.5523   16.3998 F   0  0  0  0  0  0  0  0  0  0  0  0
   -1.2335  -12.1030   13.4446 H   0  0  0  0  0  0  0  0  0  0  0  0
 32 33  1  0  0  0
 33 23  1  0  0  0
 23 24  2  0  0  0
 24 25  1  0  0  0
 25 26  1  0  0  0
 25 27  2  0  0  0
 27 28  1  0  0  0
 27 29  1  0  0  0
 29 30  2  0  0  0
 30 13  1  0  0  0
 13 14  2  0  0  0
 14 15  1  0  0  0
 15 16  2  0  0  0
 16 17  1  0  0  0
 17 18  2  0  0  0
 18 19  1  0  0  0
 19 20  1  0  0  0
 20 21  2  0  0  0
 17  1  1  0  0  0
  1  2  2  0  0  0
  2  3  1  0  0  0
  3  4  1  0  0  0
  4  5  1  0  0  0
  5  6  1  0  0  0
  6  7  1  0  0  0
  7  8  1  0  0  0
  8  9  1  0  0  0
  5 10  1  0  0  0
 10 11  2  0  0  0
 10 34  1  0  0  0
 34 35  2  0  0  0
 35 36  1  0  0  0
 36 37  1  0  0  0
 36 38  2  0  0  0
 38 39  1  0  0  0
 38 40  1  0  0  0
 40 41  2  0  0  0
 41 42  1  0  0  0
 30 23  1  0  0  0
 21 13  1  0  0  0
  9  1  1  0  0  0
 41 34  1  0  0  0
 20 16  1  0  0  0
  8  3  2  0  0  0
 26 31  1  0  0  0
 19 22  1  0  0  0
  9 12  1  0  0  0
 39 43  1  0  0  0
M  END
> <minimizedAffinity>
5.84792

> <CNNscore>
0.5360605717

> <CNNaffinity>
6.8951301575

> <CNN_VS>
3.6962075233

> <CNNaffinity_variance>
1.8479095697

$$$$
[H]Oc1c([H])c(F)c(C(=O)N2C([H])([H])c3nc(-c4nn([H])c5c([H])c(-c6c([H])c(F)c(O[H])c([H])c6C([H])([H])C([H])([H])[H])c([H])c([H])c45)n([H])c3C([H])([H])C2([H])[H])c([H])c1F


 43 48  0  0  0  0  0  0  0  0999 V2000
   -8.0604   -5.2442   13.5893 C   0  0  0  0  0  0  0  0  0  0  0  0
   -7.2040   -5.4066   12.5279 N   0  0  0  0  0  0  0  0  0  0  0  0
   -5.9326   -5.2769   12.9131 C   0  0  0  0  0  0  0  0  0  0  0  0
   -4.6823   -5.3643   12.1177 C   0  0  0  0  0  0  0  0  0  0  0  0
   -3.5497   -4.8955   12.8612 N   0  0  0  0  0  0  0  0  0  0  0  0
   -3.5833   -4.3566   14.1925 C   0  0  0  0  0  0  0  0  0  0  0  0
   -4.7068   -4.8240   15.0463 C   0  0  0  0  0  0  0  0  0  0  0  0
   -5.9673   -5.0254   14.2513 C   0  0  0  0  0  0  0  0  0  0  0  0
   -7.2732   -5.0158   14.6089 N   0  0  0  0  0  0  0  0  0  0  0  0
   -2.2765   -4.9674   12.2008 C   0  0  0  0  0  0  0  0  0  0  0  0
   -1.2449   -4.5683   12.8393 O   0  0  0  0  0  0  0  0  0  0  0  0
   -7.5548   -4.8428   15.5811 H   0  0  0  0  0  0  0  0  0  0  0  0
  -12.2558   -6.4739   10.5147 C   0  0  0  0  0  0  0  0  0  0  0  0
  -10.8943   -6.5738   10.1810 C   0  0  0  0  0  0  0  0  0  0  0  0
   -9.9002   -6.2145   11.0886 C   0  0  0  0  0  0  0  0  0  0  0  0
  -10.2364   -5.7582   12.3213 C   0  0  0  0  0  0  0  0  0  0  0  0
   -9.5010   -5.3400   13.4010 C   0  0  0  0  0  0  0  0  0  0  0  0
  -10.4308   -5.0034   14.3464 N   0  0  0  0  0  0  0  0  0  0  0  0
  -11.6455   -5.2003   13.8808 N   0  0  0  0  0  0  0  0  0  0  0  0
  -11.6017   -5.6670   12.6319 C   0  0  0  0  0  0  0  0  0  0  0  0
  -12.6032   -6.0157   11.7524 C   0  0  0  0  0  0  0  0  0  0  0  0
  -12.5637   -5.0272   14.3867 H   0  0  0  0  0  0  0  0  0  0  0  0
  -14.0797   -7.9285    9.6603 C   0  0  0  0  0  0  0  0  0  0  0  0
  -14.9869   -8.1767    8.6270 C   0  0  0  0  0  0  0  0  0  0  0  0
  -15.0473   -7.3933    7.4943 C   0  0  0  0  0  0  0  0  0  0  0  0
  -15.9978   -7.7363    6.5218 O   0  0  0  0  0  0  0  0  0  0  0  0
  -14.1955   -6.3131    7.3375 C   0  0  0  0  0  0  0  0  0  0  0  0
  -14.2560   -5.5476    6.2288 F   0  0  0  0  0  0  0  0  0  0  0  0
  -13.2974   -6.0533    8.3418 C   0  0  0  0  0  0  0  0  0  0  0  0
  -13.2308   -6.8481    9.4995 C   0  0  0  0  0  0  0  0  0  0  0  0
  -16.1152   -7.2304    5.6765 H   0  0  0  0  0  0  0  0  0  0  0  0
  -15.2988   -8.4945   11.6810 C   0  0  0  0  0  0  0  0  0  0  0  0
  -14.0429   -8.8038   10.8468 C   0  0  0  0  0  0  0  0  0  0  0  0
   -2.0704   -5.4567   10.8665 C   0  0  0  0  0  0  0  0  0  0  0  0
   -2.4456   -4.7885    9.7283 C   0  0  0  0  0  0  0  0  0  0  0  0
   -2.2143   -5.3332    8.4865 C   0  0  0  0  0  0  0  0  0  0  0  0
   -2.5958   -4.6484    7.3943 F   0  0  0  0  0  0  0  0  0  0  0  0
   -1.6027   -6.5567    8.3501 C   0  0  0  0  0  0  0  0  0  0  0  0
   -1.3797   -7.0858    7.0911 O   0  0  0  0  0  0  0  0  0  0  0  0
   -1.2266   -7.2269    9.4735 C   0  0  0  0  0  0  0  0  0  0  0  0
   -1.4536   -6.6912   10.7194 C   0  0  0  0  0  0  0  0  0  0  0  0
   -1.0692   -7.3826   11.8145 F   0  0  0  0  0  0  0  0  0  0  0  0
   -1.6625   -6.5789    6.2635 H   0  0  0  0  0  0  0  0  0  0  0  0
 32 33  1  0  0  0
 33 23  1  0  0  0
 23 24  2  0  0  0
 24 25  1  0  0  0
 25 26  1  0  0  0
 25 27  2  0  0  0
 27 28  1  0  0  0
 27 29  1  0  0  0
 29 30  2  0  0  0
 30 13  1  0  0  0
 13 14  2  0  0  0
 14 15  1  0  0  0
 15 16  2  0  0  0
 16 17  1  0  0  0
 17 18  2  0  0  0
 18 19  1  0  0  0
 19 20  1  0  0  0
 20 21  2  0  0  0
 17  1  1  0  0  0
  1  2  2  0  0  0
  2  3  1  0  0  0
  3  4  1  0  0  0
  4  5  1  0  0  0
  5  6  1  0  0  0
  6  7  1  0  0  0
  7  8  1  0  0  0
  8  9  1  0  0  0
  5 10  1  0  0  0
 10 11  2  0  0  0
 10 34  1  0  0  0
 34 35  2  0  0  0
 35 36  1  0  0  0
 36 37  1  0  0  0
 36 38  2  0  0  0
 38 39  1  0  0  0
 38 40  1  0  0  0
 40 41  2  0  0  0
 41 42  1  0  0  0
 30 23  1  0  0  0
 21 13  1  0  0  0
  9  1  1  0  0  0
 41 34  1  0  0  0
 20 16  1  0  0  0
  8  3  2  0  0  0
 26 31  1  0  0  0
 19 22  1  0  0  0
  9 12  1  0  0  0
 39 43  1  0  0  0
M  END
> <minimizedAffinity>
4.95317

> <CNNscore>
0.5207544565

> <CNNaffinity>
6.8980751038

> <CNN_VS>
3.5922033787

> <CNNaffinity_variance>
1.2392388582

$$$$
[H]Oc1c([H])c(F)c(C(=O)N2C([H])([H])c3nc(-c4nn([H])c5c([H])c(-c6c([H])c(F)c(O[H])c([H])c6C([H])([H])C([H])([H])[H])c([H])c([H])c45)n([H])c3C([H])([H])C2([H])[H])c([H])c1F


 43 48  0  0  0  0  0  0  0  0999 V2000
   -8.6750   -5.1336   13.5007 C   0  0  0  0  0  0  0  0  0  0  0  0
   -7.6397   -6.0108   13.2891 N   0  0  0  0  0  0  0  0  0  0  0  0
   -6.5049   -5.5508   13.8205 C   0  0  0  0  0  0  0  0  0  0  0  0
   -5.1466   -6.1495   13.8314 C   0  0  0  0  0  0  0  0  0  0  0  0
   -4.1581   -5.2074   14.2682 N   0  0  0  0  0  0  0  0  0  0  0  0
   -4.4010   -3.8347   14.6150 C   0  0  0  0  0  0  0  0  0  0  0  0
   -5.7735   -3.5272   15.0965 C   0  0  0  0  0  0  0  0  0  0  0  0
   -6.8126   -4.3512   14.3875 C   0  0  0  0  0  0  0  0  0  0  0  0
   -8.1326   -4.1465   14.1662 N   0  0  0  0  0  0  0  0  0  0  0  0
   -2.8079   -5.6895   14.3523 C   0  0  0  0  0  0  0  0  0  0  0  0
   -1.9040   -4.8792   14.7489 O   0  0  0  0  0  0  0  0  0  0  0  0
   -8.6005   -3.2968   14.5031 H   0  0  0  0  0  0  0  0  0  0  0  0
  -11.8925   -6.7160    9.5371 C   0  0  0  0  0  0  0  0  0  0  0  0
  -10.4942   -6.5807    9.4992 C   0  0  0  0  0  0  0  0  0  0  0  0
   -9.7796   -6.1541   10.6165 C   0  0  0  0  0  0  0  0  0  0  0  0
  -10.4309   -5.8601   11.7698 C   0  0  0  0  0  0  0  0  0  0  0  0
  -10.0108   -5.4290   13.0024 C   0  0  0  0  0  0  0  0  0  0  0  0
  -11.1566   -5.3181   13.7417 N   0  0  0  0  0  0  0  0  0  0  0  0
  -12.2011   -5.6556   13.0163 N   0  0  0  0  0  0  0  0  0  0  0  0
  -11.8268   -6.0025   11.7839 C   0  0  0  0  0  0  0  0  0  0  0  0
  -12.5560   -6.4222   10.6929 C   0  0  0  0  0  0  0  0  0  0  0  0
  -13.2189   -5.6665   13.3211 H   0  0  0  0  0  0  0  0  0  0  0  0
  -12.1039   -8.2083    7.5621 C   0  0  0  0  0  0  0  0  0  0  0  0
  -12.8441   -8.5403    6.4245 C   0  0  0  0  0  0  0  0  0  0  0  0
  -13.9810   -7.8523    6.0575 C   0  0  0  0  0  0  0  0  0  0  0  0
  -14.6440   -8.2736    4.8956 O   0  0  0  0  0  0  0  0  0  0  0  0
  -14.4380   -6.7888    6.8170 C   0  0  0  0  0  0  0  0  0  0  0  0
  -15.5505   -6.1170    6.4568 F   0  0  0  0  0  0  0  0  0  0  0  0
  -13.7243   -6.4478    7.9382 C   0  0  0  0  0  0  0  0  0  0  0  0
  -12.5643   -7.1452    8.3181 C   0  0  0  0  0  0  0  0  0  0  0  0
  -15.4694   -7.8409    4.5555 H   0  0  0  0  0  0  0  0  0  0  0  0
  -10.7048  -10.0519    6.8315 C   0  0  0  0  0  0  0  0  0  0  0  0
  -10.8854   -8.9649    7.9060 C   0  0  0  0  0  0  0  0  0  0  0  0
   -2.3904   -7.0232   14.0216 C   0  0  0  0  0  0  0  0  0  0  0  0
   -2.6465   -8.1299   14.7915 C   0  0  0  0  0  0  0  0  0  0  0  0
   -2.2045   -9.3729   14.4021 C   0  0  0  0  0  0  0  0  0  0  0  0
   -2.4751  -10.4336   15.1825 F   0  0  0  0  0  0  0  0  0  0  0  0
   -1.4972   -9.5422   13.2355 C   0  0  0  0  0  0  0  0  0  0  0  0
   -1.0622  -10.8019   12.8630 O   0  0  0  0  0  0  0  0  0  0  0  0
   -1.2386   -8.4503   12.4651 C   0  0  0  0  0  0  0  0  0  0  0  0
   -1.6758   -7.2034   12.8457 C   0  0  0  0  0  0  0  0  0  0  0  0
   -1.4015   -6.1399   12.0591 F   0  0  0  0  0  0  0  0  0  0  0  0
   -1.2607  -11.6060   13.4426 H   0  0  0  0  0  0  0  0  0  0  0  0
 32 33  1  0  0  0
 33 23  1  0  0  0
 23 24  2  0  0  0
 24 25  1  0  0  0
 25 26  1  0  0  0
 25 27  2  0  0  0
 27 28  1  0  0  0
 27 29  1  0  0  0
 29 30  2  0  0  0
 30 13  1  0  0  0
 13 14  2  0  0  0
 14 15  1  0  0  0
 15 16  2  0  0  0
 16 17  1  0  0  0
 17 18  2  0  0  0
 18 19  1  0  0  0
 19 20  1  0  0  0
 20 21  2  0  0  0
 17  1  1  0  0  0
  1  2  2  0  0  0
  2  3  1  0  0  0
  3  4  1  0  0  0
  4  5  1  0  0  0
  5  6  1  0  0  0
  6  7  1  0  0  0
  7  8  1  0  0  0
  8  9  1  0  0  0
  5 10  1  0  0  0
 10 11  2  0  0  0
 10 34  1  0  0  0
 34 35  2  0  0  0
 35 36  1  0  0  0
 36 37  1  0  0  0
 36 38  2  0  0  0
 38 39  1  0  0  0
 38 40  1  0  0  0
 40 41  2  0  0  0
 41 42  1  0  0  0
 30 23  1  0  0  0
 21 13  1  0  0  0
  9  1  1  0  0  0
 41 34  1  0  0  0
 20 16  1  0  0  0
  8  3  2  0  0  0
 26 31  1  0  0  0
 19 22  1  0  0  0
  9 12  1  0  0  0
 39 43  1  0  0  0
M  END
> <minimizedAffinity>
1.92192

> <CNNscore>
0.4357636273

> <CNNaffinity>
6.8864197731

> <CNN_VS>
3.0008511543

> <CNNaffinity_variance>
1.2498085499

$$$$
[H]Oc1c([H])c(F)c(C(=O)N2C([H])([H])c3nc(-c4nn([H])c5c([H])c(-c6c([H])c(F)c(O[H])c([H])c6C([H])([H])C([H])([H])[H])c([H])c([H])c45)n([H])c3C([H])([H])C2([H])[H])c([H])c1F


 43 48  0  0  0  0  0  0  0  0999 V2000
   -8.7492   -5.4933   13.1272 C   0  0  0  0  0  0  0  0  0  0  0  0
   -7.7151   -5.5273   12.2242 N   0  0  0  0  0  0  0  0  0  0  0  0
   -6.5418   -5.3347   12.8308 C   0  0  0  0  0  0  0  0  0  0  0  0
   -5.1717   -5.2839   12.2616 C   0  0  0  0  0  0  0  0  0  0  0  0
   -4.2226   -4.7862   13.2139 N   0  0  0  0  0  0  0  0  0  0  0  0
   -4.5243   -4.3375   14.5449 C   0  0  0  0  0  0  0  0  0  0  0  0
   -5.7356   -4.9357   15.1651 C   0  0  0  0  0  0  0  0  0  0  0  0
   -6.8230   -5.1727   14.1537 C   0  0  0  0  0  0  0  0  0  0  0  0
   -8.1671   -5.2767   14.2786 N   0  0  0  0  0  0  0  0  0  0  0  0
   -2.8542   -4.7271   12.7823 C   0  0  0  0  0  0  0  0  0  0  0  0
   -1.9809   -4.2991   13.6101 O   0  0  0  0  0  0  0  0  0  0  0  0
   -8.6224   -5.1864   15.1945 H   0  0  0  0  0  0  0  0  0  0  0  0
  -12.2523   -6.7787    9.3006 C   0  0  0  0  0  0  0  0  0  0  0  0
  -10.8506   -6.7556    9.2021 C   0  0  0  0  0  0  0  0  0  0  0  0
  -10.0562   -6.3973   10.2892 C   0  0  0  0  0  0  0  0  0  0  0  0
  -10.6312   -6.0620   11.4714 C   0  0  0  0  0  0  0  0  0  0  0  0
  -10.1248   -5.6765   12.6865 C   0  0  0  0  0  0  0  0  0  0  0  0
  -11.2248   -5.4805   13.4760 N   0  0  0  0  0  0  0  0  0  0  0  0
  -12.3235   -5.7269   12.7954 N   0  0  0  0  0  0  0  0  0  0  0  0
  -12.0321   -6.0922   11.5459 C   0  0  0  0  0  0  0  0  0  0  0  0
  -12.8393   -6.4427   10.4860 C   0  0  0  0  0  0  0  0  0  0  0  0
  -13.3248   -5.6590   13.1445 H   0  0  0  0  0  0  0  0  0  0  0  0
  -12.9685   -8.4181    7.5767 C   0  0  0  0  0  0  0  0  0  0  0  0
  -13.7531   -8.6529    6.4446 C   0  0  0  0  0  0  0  0  0  0  0  0
  -14.5355   -7.6724    5.8730 C   0  0  0  0  0  0  0  0  0  0  0  0
  -15.2819   -8.0216    4.7381 O   0  0  0  0  0  0  0  0  0  0  0  0
  -14.5723   -6.3968    6.4101 C   0  0  0  0  0  0  0  0  0  0  0  0
  -15.3384   -5.4388    5.8498 F   0  0  0  0  0  0  0  0  0  0  0  0
  -13.8084   -6.1469    7.5222 C   0  0  0  0  0  0  0  0  0  0  0  0
  -13.0085   -7.1423    8.1102 C   0  0  0  0  0  0  0  0  0  0  0  0
  -15.8736   -7.3838    4.2612 H   0  0  0  0  0  0  0  0  0  0  0  0
  -10.9714   -9.7347    7.1668 C   0  0  0  0  0  0  0  0  0  0  0  0
  -12.1363   -9.4955    8.1439 C   0  0  0  0  0  0  0  0  0  0  0  0
   -2.3865   -5.1142   11.4809 C   0  0  0  0  0  0  0  0  0  0  0  0
   -1.9331   -6.3691   11.1607 C   0  0  0  0  0  0  0  0  0  0  0  0
   -1.4973   -6.6539    9.8875 C   0  0  0  0  0  0  0  0  0  0  0  0
   -1.0606   -7.8951    9.6117 F   0  0  0  0  0  0  0  0  0  0  0  0
   -1.5040   -5.6945    8.9030 C   0  0  0  0  0  0  0  0  0  0  0  0
   -1.0612   -6.0030    7.6288 O   0  0  0  0  0  0  0  0  0  0  0  0
   -1.9524   -4.4468    9.2110 C   0  0  0  0  0  0  0  0  0  0  0  0
   -2.3898   -4.1519   10.4809 C   0  0  0  0  0  0  0  0  0  0  0  0
   -2.8274   -2.9034   10.7542 F   0  0  0  0  0  0  0  0  0  0  0  0
   -0.7311   -6.9333    7.4110 H   0  0  0  0  0  0  0  0  0  0  0  0
 32 33  1  0  0  0
 33 23  1  0  0  0
 23 24  2  0  0  0
 24 25  1  0  0  0
 25 26  1  0  0  0
 25 27  2  0  0  0
 27 28  1  0  0  0
 27 29  1  0  0  0
 29 30  2  0  0  0
 30 13  1  0  0  0
 13 14  2  0  0  0
 14 15  1  0  0  0
 15 16  2  0  0  0
 16 17  1  0  0  0
 17 18  2  0  0  0
 18 19  1  0  0  0
 19 20  1  0  0  0
 20 21  2  0  0  0
 17  1  1  0  0  0
  1  2  2  0  0  0
  2  3  1  0  0  0
  3  4  1  0  0  0
  4  5  1  0  0  0
  5  6  1  0  0  0
  6  7  1  0  0  0
  7  8  1  0  0  0
  8  9  1  0  0  0
  5 10  1  0  0  0
 10 11  2  0  0  0
 10 34  1  0  0  0
 34 35  2  0  0  0
 35 36  1  0  0  0
 36 37  1  0  0  0
 36 38  2  0  0  0
 38 39  1  0  0  0
 38 40  1  0  0  0
 40 41  2  0  0  0
 41 42  1  0  0  0
 30 23  1  0  0  0
 21 13  1  0  0  0
  9  1  1  0  0  0
 41 34  1  0  0  0
 20 16  1  0  0  0
  8  3  2  0  0  0
 26 31  1  0  0  0
 19 22  1  0  0  0
  9 12  1  0  0  0
 39 43  1  0  0  0
M  END
> <minimizedAffinity>
1.96364

> <CNNscore>
0.4195449054

> <CNNaffinity>
7.1309332848

> <CNN_VS>
2.9917466640

> <CNNaffinity_variance>
1.0114680529

$$$$
[H]Oc1c([H])c(F)c(C(=O)N2C([H])([H])c3nc(-c4nn([H])c5c([H])c(-c6c([H])c(F)c(O[H])c([H])c6C([H])([H])C([H])([H])[H])c([H])c([H])c45)n([H])c3C([H])([H])C2([H])[H])c([H])c1F


 43 48  0  0  0  0  0  0  0  0999 V2000
  -10.1875   -8.1952    7.9296 C   0  0  0  0  0  0  0  0  0  0  0  0
   -9.9839   -7.2608    8.9153 N   0  0  0  0  0  0  0  0  0  0  0  0
  -11.1111   -7.0200    9.5885 C   0  0  0  0  0  0  0  0  0  0  0  0
  -11.3662   -6.0923   10.7189 C   0  0  0  0  0  0  0  0  0  0  0  0
  -12.7694   -5.9383   10.9689 N   0  0  0  0  0  0  0  0  0  0  0  0
  -13.8291   -6.5483   10.2148 C   0  0  0  0  0  0  0  0  0  0  0  0
  -13.4802   -7.8212    9.5309 C   0  0  0  0  0  0  0  0  0  0  0  0
  -12.0635   -7.8151    9.0264 C   0  0  0  0  0  0  0  0  0  0  0  0
  -11.4551   -8.5025    8.0313 N   0  0  0  0  0  0  0  0  0  0  0  0
  -13.1340   -5.0880   12.0674 C   0  0  0  0  0  0  0  0  0  0  0  0
  -14.3759   -4.9379   12.3247 O   0  0  0  0  0  0  0  0  0  0  0  0
  -11.9771   -9.1729    7.4547 H   0  0  0  0  0  0  0  0  0  0  0  0
   -8.3622  -11.1548    3.8706 C   0  0  0  0  0  0  0  0  0  0  0  0
   -9.6718  -11.1179    4.3790 C   0  0  0  0  0  0  0  0  0  0  0  0
  -10.0076  -10.2928    5.4501 C   0  0  0  0  0  0  0  0  0  0  0  0
   -9.0643   -9.5042    6.0239 C   0  0  0  0  0  0  0  0  0  0  0  0
   -9.0929   -8.6104    7.0639 C   0  0  0  0  0  0  0  0  0  0  0  0
   -7.8121   -8.1376    7.1522 N   0  0  0  0  0  0  0  0  0  0  0  0
   -7.0549   -8.7000    6.2349 N   0  0  0  0  0  0  0  0  0  0  0  0
   -7.7639   -9.5579    5.4995 C   0  0  0  0  0  0  0  0  0  0  0  0
   -7.4068  -10.3651    4.4417 C   0  0  0  0  0  0  0  0  0  0  0  0
   -6.0201   -8.5303    6.0631 H   0  0  0  0  0  0  0  0  0  0  0  0
   -8.1954  -13.4351    2.8988 C   0  0  0  0  0  0  0  0  0  0  0  0
   -7.9307  -14.2021    1.7612 C   0  0  0  0  0  0  0  0  0  0  0  0
   -7.5806  -13.6351    0.5544 C   0  0  0  0  0  0  0  0  0  0  0  0
   -7.3377  -14.5028   -0.5204 O   0  0  0  0  0  0  0  0  0  0  0  0
   -7.4769  -12.2606    0.4243 C   0  0  0  0  0  0  0  0  0  0  0  0
   -7.1346  -11.7076   -0.7571 F   0  0  0  0  0  0  0  0  0  0  0  0
   -7.7332  -11.4905    1.5307 C   0  0  0  0  0  0  0  0  0  0  0  0
   -8.0908  -12.0623    2.7642 C   0  0  0  0  0  0  0  0  0  0  0  0
   -7.0824  -14.1863   -1.4254 H   0  0  0  0  0  0  0  0  0  0  0  0
   -7.7514  -15.4002    4.2521 C   0  0  0  0  0  0  0  0  0  0  0  0
   -8.5523  -14.0882    4.1721 C   0  0  0  0  0  0  0  0  0  0  0  0
  -12.2033   -4.3864   12.9064 C   0  0  0  0  0  0  0  0  0  0  0  0
  -11.8862   -4.7534   14.1900 C   0  0  0  0  0  0  0  0  0  0  0  0
  -10.9857   -4.0201   14.9271 C   0  0  0  0  0  0  0  0  0  0  0  0
  -10.7001   -4.4112   16.1813 F   0  0  0  0  0  0  0  0  0  0  0  0
  -10.3794   -2.9038   14.4018 C   0  0  0  0  0  0  0  0  0  0  0  0
   -9.4763   -2.1810   15.1612 O   0  0  0  0  0  0  0  0  0  0  0  0
  -10.6873   -2.5322   13.1292 C   0  0  0  0  0  0  0  0  0  0  0  0
  -11.5865   -3.2583   12.3841 C   0  0  0  0  0  0  0  0  0  0  0  0
  -11.8713   -2.8618   11.1244 F   0  0  0  0  0  0  0  0  0  0  0  0
   -9.2544   -2.4667   16.1051 H   0  0  0  0  0  0  0  0  0  0  0  0
 32 33  1  0  0  0
 33 23  1  0  0  0
 23 24  2  0  0  0
 24 25  1  0  0  0
 25 26  1  0  0  0
 25 27  2  0  0  0
 27 28  1  0  0  0
 27 29  1  0  0  0
 29 30  2  0  0  0
 30 13  1  0  0  0
 13 14  2  0  0  0
 14 15  1  0  0  0
 15 16  2  0  0  0
 16 17  1  0  0  0
 17 18  2  0  0  0
 18 19  1  0  0  0
 19 20  1  0  0  0
 20 21  2  0  0  0
 17  1  1  0  0  0
  1  2  2  0  0  0
  2  3  1  0  0  0
  3  4  1  0  0  0
  4  5  1  0  0  0
  5  6  1  0  0  0
  6  7  1  0  0  0
  7  8  1  0  0  0
  8  9  1  0  0  0
  5 10  1  0  0  0
 10 11  2  0  0  0
 10 34  1  0  0  0
 34 35  2  0  0  0
 35 36  1  0  0  0
 36 37  1  0  0  0
 36 38  2  0  0  0
 38 39  1  0  0  0
 38 40  1  0  0  0
 40 41  2  0  0  0
 41 42  1  0  0  0
 30 23  1  0  0  0
 21 13  1  0  0  0
  9  1  1  0  0  0
 41 34  1  0  0  0
 20 16  1  0  0  0
  8  3  2  0  0  0
 26 31  1  0  0  0
 19 22  1  0  0  0
  9 12  1  0  0  0
 39 43  1  0  0  0
M  END
> <minimizedAffinity>
31.98984

> <CNNscore>
0.4142406285

> <CNNaffinity>
6.7655549049

> <CNN_VS>
2.8025677204

> <CNNaffinity_variance>
0.7147091627

$$$$
[H]Oc1c([H])c(F)c(C(=O)N2C([H])([H])c3nc(-c4nn([H])c5c([H])c(-c6c([H])c(F)c(O[H])c([H])c6C([H])([H])C([H])([H])[H])c([H])c([H])c45)n([H])c3C([H])([H])C2([H])[H])c([H])c1F


 43 48  0  0  0  0  0  0  0  0999 V2000
  -11.8977   -9.3036    7.6838 C   0  0  0  0  0  0  0  0  0  0  0  0
  -12.8507   -8.8765    6.7919 N   0  0  0  0  0  0  0  0  0  0  0  0
  -13.9664   -8.5047    7.4233 C   0  0  0  0  0  0  0  0  0  0  0  0
  -15.2452   -7.9885    6.8740 C   0  0  0  0  0  0  0  0  0  0  0  0
  -16.2771   -7.9682    7.8690 N   0  0  0  0  0  0  0  0  0  0  0  0
  -16.1461   -8.4249    9.2247 C   0  0  0  0  0  0  0  0  0  0  0  0
  -14.7713   -8.3772    9.7884 C   0  0  0  0  0  0  0  0  0  0  0  0
  -13.7301   -8.6954    8.7511 C   0  0  0  0  0  0  0  0  0  0  0  0
  -12.4694   -9.1783    8.8538 N   0  0  0  0  0  0  0  0  0  0  0  0
  -17.5526   -7.4521    7.4575 C   0  0  0  0  0  0  0  0  0  0  0  0
  -18.4910   -7.4093    8.3227 O   0  0  0  0  0  0  0  0  0  0  0  0
  -12.0616   -9.4039    9.7688 H   0  0  0  0  0  0  0  0  0  0  0  0
   -8.7223  -10.9498    3.7121 C   0  0  0  0  0  0  0  0  0  0  0  0
  -10.0758  -10.5815    3.6263 C   0  0  0  0  0  0  0  0  0  0  0  0
  -10.7849  -10.1697    4.7527 C   0  0  0  0  0  0  0  0  0  0  0  0
  -10.1717  -10.1179    5.9618 C   0  0  0  0  0  0  0  0  0  0  0  0
  -10.5971   -9.7620    7.2164 C   0  0  0  0  0  0  0  0  0  0  0  0
   -9.4985   -9.9237    8.0156 N   0  0  0  0  0  0  0  0  0  0  0  0
   -8.4762  -10.3475    7.3040 N   0  0  0  0  0  0  0  0  0  0  0  0
   -8.8203  -10.4903    6.0231 C   0  0  0  0  0  0  0  0  0  0  0  0
   -8.0975  -10.9008    4.9245 C   0  0  0  0  0  0  0  0  0  0  0  0
   -7.4953  -10.5613    7.6521 H   0  0  0  0  0  0  0  0  0  0  0  0
   -6.9763  -10.7169    1.9601 C   0  0  0  0  0  0  0  0  0  0  0  0
   -6.4135  -11.2466    0.7961 C   0  0  0  0  0  0  0  0  0  0  0  0
   -6.9035  -12.3846    0.1917 C   0  0  0  0  0  0  0  0  0  0  0  0
   -6.2593  -12.8255   -0.9735 O   0  0  0  0  0  0  0  0  0  0  0  0
   -7.9904  -13.0552    0.7263 C   0  0  0  0  0  0  0  0  0  0  0  0
   -8.4684  -14.1684    0.1339 F   0  0  0  0  0  0  0  0  0  0  0  0
   -8.5567  -12.5501    1.8696 C   0  0  0  0  0  0  0  0  0  0  0  0
   -8.0619  -11.3902    2.4910 C   0  0  0  0  0  0  0  0  0  0  0  0
   -6.5400  -13.6341   -1.4751 H   0  0  0  0  0  0  0  0  0  0  0  0
   -7.3340   -8.3226    2.1314 C   0  0  0  0  0  0  0  0  0  0  0  0
   -6.4258   -9.4881    2.5623 C   0  0  0  0  0  0  0  0  0  0  0  0
  -17.8587   -6.9769    6.1374 C   0  0  0  0  0  0  0  0  0  0  0  0
  -18.0099   -7.7837    5.0378 C   0  0  0  0  0  0  0  0  0  0  0  0
  -18.2985   -7.2438    3.8060 C   0  0  0  0  0  0  0  0  0  0  0  0
  -18.4398   -8.0664    2.7520 F   0  0  0  0  0  0  0  0  0  0  0  0
  -18.4438   -5.8868    3.6413 C   0  0  0  0  0  0  0  0  0  0  0  0
  -18.7342   -5.3653    2.3930 O   0  0  0  0  0  0  0  0  0  0  0  0
  -18.2959   -5.0785    4.7264 C   0  0  0  0  0  0  0  0  0  0  0  0
  -18.0071   -5.6083    5.9620 C   0  0  0  0  0  0  0  0  0  0  0  0
  -17.8654   -4.7784    7.0185 F   0  0  0  0  0  0  0  0  0  0  0  0
  -18.8427   -5.9752    1.5941 H   0  0  0  0  0  0  0  0  0  0  0  0
 32 33  1  0  0  0
 33 23  1  0  0  0
 23 24  2  0  0  0
 24 25  1  0  0  0
 25 26  1  0  0  0
 25 27  2  0  0  0
 27 28  1  0  0  0
 27 29  1  0  0  0
 29 30  2  0  0  0
 30 13  1  0  0  0
 13 14  2  0  0  0
 14 15  1  0  0  0
 15 16  2  0  0  0
 16 17  1  0  0  0
 17 18  2  0  0  0
 18 19  1  0  0  0
 19 20  1  0  0  0
 20 21  2  0  0  0
 17  1  1  0  0  0
  1  2  2  0  0  0
  2  3  1  0  0  0
  3  4  1  0  0  0
  4  5  1  0  0  0
  5  6  1  0  0  0
  6  7  1  0  0  0
  7  8  1  0  0  0
  8  9  1  0  0  0
  5 10  1  0  0  0
 10 11  2  0  0  0
 10 34  1  0  0  0
 34 35  2  0  0  0
 35 36  1  0  0  0
 36 37  1  0  0  0
 36 38  2  0  0  0
 38 39  1  0  0  0
 38 40  1  0  0  0
 40 41  2  0  0  0
 41 42  1  0  0  0
 30 23  1  0  0  0
 21 13  1  0  0  0
  9  1  1  0  0  0
 41 34  1  0  0  0
 20 16  1  0  0  0
  8  3  2  0  0  0
 26 31  1  0  0  0
 19 22  1  0  0  0
  9 12  1  0  0  0
 39 43  1  0  0  0
M  END
> <minimizedAffinity>
31.71369

> <CNNscore>
0.4107086957

> <CNNaffinity>
7.0172967911

> <CNN_VS>
2.8820648193

> <CNNaffinity_variance>
0.6682136059

$$$$
[H]Oc1c([H])c(F)c(C(=O)N2C([H])([H])c3nc(-c4nn([H])c5c([H])c(-c6c([H])c(F)c(O[H])c([H])c6C([H])([H])C([H])([H])[H])c([H])c([H])c45)n([H])c3C([H])([H])C2([H])[H])c([H])c1F


 43 48  0  0  0  0  0  0  0  0999 V2000
  -11.3155   -5.7792   12.9143 C   0  0  0  0  0  0  0  0  0  0  0  0
   -9.9688   -6.0488   12.9223 N   0  0  0  0  0  0  0  0  0  0  0  0
   -9.3077   -5.1681   13.6767 C   0  0  0  0  0  0  0  0  0  0  0  0
   -7.8561   -5.0640   13.9691 C   0  0  0  0  0  0  0  0  0  0  0  0
   -7.5328   -3.8181   14.6003 N   0  0  0  0  0  0  0  0  0  0  0  0
   -8.4577   -2.7572   14.8881 C   0  0  0  0  0  0  0  0  0  0  0  0
   -9.8729   -3.1721   15.0748 C   0  0  0  0  0  0  0  0  0  0  0  0
  -10.2463   -4.3112   14.1668 C   0  0  0  0  0  0  0  0  0  0  0  0
  -11.4392   -4.7234   13.6768 N   0  0  0  0  0  0  0  0  0  0  0  0
   -6.1569   -3.6224   14.9624 C   0  0  0  0  0  0  0  0  0  0  0  0
   -5.8366   -2.5277   15.5369 O   0  0  0  0  0  0  0  0  0  0  0  0
  -12.3073   -4.2264   13.9089 H   0  0  0  0  0  0  0  0  0  0  0  0
  -13.4275   -7.2477    8.2292 C   0  0  0  0  0  0  0  0  0  0  0  0
  -12.4474   -6.2659    8.4536 C   0  0  0  0  0  0  0  0  0  0  0  0
  -11.9871   -5.9855    9.7384 C   0  0  0  0  0  0  0  0  0  0  0  0
  -12.4842   -6.6641   10.8029 C   0  0  0  0  0  0  0  0  0  0  0  0
  -12.2338   -6.6119   12.1505 C   0  0  0  0  0  0  0  0  0  0  0  0
  -13.0616   -7.5550   12.6954 N   0  0  0  0  0  0  0  0  0  0  0  0
  -13.7671   -8.1413   11.7522 N   0  0  0  0  0  0  0  0  0  0  0  0
  -13.4618   -7.6396   10.5545 C   0  0  0  0  0  0  0  0  0  0  0  0
  -13.9333   -7.9352    9.2942 C   0  0  0  0  0  0  0  0  0  0  0  0
  -14.4906   -8.9098   11.8744 H   0  0  0  0  0  0  0  0  0  0  0  0
  -13.7749   -8.6965    6.2411 C   0  0  0  0  0  0  0  0  0  0  0  0
  -14.2511   -8.7844    4.9304 C   0  0  0  0  0  0  0  0  0  0  0  0
  -14.7921   -7.7032    4.2681 C   0  0  0  0  0  0  0  0  0  0  0  0
  -15.2382   -7.9079    2.9543 O   0  0  0  0  0  0  0  0  0  0  0  0
  -14.8846   -6.4694    4.8894 C   0  0  0  0  0  0  0  0  0  0  0  0
  -15.4143   -5.4127    4.2401 F   0  0  0  0  0  0  0  0  0  0  0  0
  -14.4222   -6.3634    6.1769 C   0  0  0  0  0  0  0  0  0  0  0  0
  -13.8695   -7.4620    6.8581 C   0  0  0  0  0  0  0  0  0  0  0  0
  -15.6425   -7.1902    2.4012 H   0  0  0  0  0  0  0  0  0  0  0  0
  -11.6610   -9.7548    6.7898 C   0  0  0  0  0  0  0  0  0  0  0  0
  -13.1910   -9.8780    6.9033 C   0  0  0  0  0  0  0  0  0  0  0  0
   -5.1034   -4.5693   14.7265 C   0  0  0  0  0  0  0  0  0  0  0  0
   -4.3653   -4.6375   13.5717 C   0  0  0  0  0  0  0  0  0  0  0  0
   -3.3753   -5.5814   13.4266 C   0  0  0  0  0  0  0  0  0  0  0  0
   -2.6732   -5.6169   12.2807 F   0  0  0  0  0  0  0  0  0  0  0  0
   -3.0972   -6.4794   14.4296 C   0  0  0  0  0  0  0  0  0  0  0  0
   -2.0967   -7.4205   14.2622 O   0  0  0  0  0  0  0  0  0  0  0  0
   -3.8238   -6.4193   15.5789 C   0  0  0  0  0  0  0  0  0  0  0  0
   -4.8158   -5.4797   15.7338 C   0  0  0  0  0  0  0  0  0  0  0  0
   -5.5194   -5.4475   16.8866 F   0  0  0  0  0  0  0  0  0  0  0  0
   -1.5628   -7.4555   13.4045 H   0  0  0  0  0  0  0  0  0  0  0  0
 32 33  1  0  0  0
 33 23  1  0  0  0
 23 24  2  0  0  0
 24 25  1  0  0  0
 25 26  1  0  0  0
 25 27  2  0  0  0
 27 28  1  0  0  0
 27 29  1  0  0  0
 29 30  2  0  0  0
 30 13  1  0  0  0
 13 14  2  0  0  0
 14 15  1  0  0  0
 15 16  2  0  0  0
 16 17  1  0  0  0
 17 18  2  0  0  0
 18 19  1  0  0  0
 19 20  1  0  0  0
 20 21  2  0  0  0
 17  1  1  0  0  0
  1  2  2  0  0  0
  2  3  1  0  0  0
  3  4  1  0  0  0
  4  5  1  0  0  0
  5  6  1  0  0  0
  6  7  1  0  0  0
  7  8  1  0  0  0
  8  9  1  0  0  0
  5 10  1  0  0  0
 10 11  2  0  0  0
 10 34  1  0  0  0
 34 35  2  0  0  0
 35 36  1  0  0  0
 36 37  1  0  0  0
 36 38  2  0  0  0
 38 39  1  0  0  0
 38 40  1  0  0  0
 40 41  2  0  0  0
 41 42  1  0  0  0
 30 23  1  0  0  0
 21 13  1  0  0  0
  9  1  1  0  0  0
 41 34  1  0  0  0
 20 16  1  0  0  0
  8  3  2  0  0  0
 26 31  1  0  0  0
 19 22  1  0  0  0
  9 12  1  0  0  0
 39 43  1  0  0  0
M  END
> <minimizedAffinity>
6.43148

> <CNNscore>
0.4073156118

> <CNNaffinity>
7.1277837753

> <CNN_VS>
2.9032576084

> <CNNaffinity_variance>
0.7720370889

$$$$
[H]Oc1c([H])c(F)c(C(=O)N2C([H])([H])c3nc(-c4nn([H])c5c([H])c(-c6c([H])c(F)c(O[H])c([H])c6C([H])([H])C([H])([H])[H])c([H])c([H])c45)n([H])c3C([H])([H])C2([H])[H])c([H])c1F


 43 48  0  0  0  0  0  0  0  0999 V2000
   -9.4559   -5.6094   12.7825 C   0  0  0  0  0  0  0  0  0  0  0  0
   -8.3285   -5.6726   12.0008 N   0  0  0  0  0  0  0  0  0  0  0  0
   -7.2249   -5.5295   12.7379 C   0  0  0  0  0  0  0  0  0  0  0  0
   -5.7985   -5.5237   12.3268 C   0  0  0  0  0  0  0  0  0  0  0  0
   -4.9456   -5.0710   13.3864 N   0  0  0  0  0  0  0  0  0  0  0  0
   -5.3790   -4.6248   14.6813 C   0  0  0  0  0  0  0  0  0  0  0  0
   -6.6730   -5.1840   15.1533 C   0  0  0  0  0  0  0  0  0  0  0  0
   -7.6473   -5.3705   14.0230 C   0  0  0  0  0  0  0  0  0  0  0  0
   -8.9998   -5.4260   13.9949 N   0  0  0  0  0  0  0  0  0  0  0  0
   -3.5360   -5.0582   13.1119 C   0  0  0  0  0  0  0  0  0  0  0  0
   -2.7468   -4.6711   14.0385 O   0  0  0  0  0  0  0  0  0  0  0  0
   -9.5518   -5.3281   14.8551 H   0  0  0  0  0  0  0  0  0  0  0  0
  -12.5760   -7.1142    8.7122 C   0  0  0  0  0  0  0  0  0  0  0  0
  -11.1775   -7.2205    8.8006 C   0  0  0  0  0  0  0  0  0  0  0  0
  -10.4901   -6.7832    9.9308 C   0  0  0  0  0  0  0  0  0  0  0  0
  -11.1689   -6.2426   10.9737 C   0  0  0  0  0  0  0  0  0  0  0  0
  -10.7787   -5.7372   12.1877 C   0  0  0  0  0  0  0  0  0  0  0  0
  -11.9419   -5.3446   12.7916 N   0  0  0  0  0  0  0  0  0  0  0  0
  -12.9683   -5.5906   12.0061 N   0  0  0  0  0  0  0  0  0  0  0  0
  -12.5643   -6.1466   10.8628 C   0  0  0  0  0  0  0  0  0  0  0  0
  -13.2669   -6.5714    9.7565 C   0  0  0  0  0  0  0  0  0  0  0  0
  -13.9929   -5.3930   12.2064 H   0  0  0  0  0  0  0  0  0  0  0  0
  -14.0134   -6.7453    6.7197 C   0  0  0  0  0  0  0  0  0  0  0  0
  -14.5536   -7.2930    5.5533 C   0  0  0  0  0  0  0  0  0  0  0  0
  -14.3123   -8.5947    5.1691 C   0  0  0  0  0  0  0  0  0  0  0  0
  -14.9071   -9.0376    3.9787 O   0  0  0  0  0  0  0  0  0  0  0  0
  -13.5114   -9.4207    5.9394 C   0  0  0  0  0  0  0  0  0  0  0  0
  -13.2760  -10.6938    5.5619 F   0  0  0  0  0  0  0  0  0  0  0  0
  -12.9716   -8.9006    7.0887 C   0  0  0  0  0  0  0  0  0  0  0  0
  -13.2136   -7.5740    7.4862 C   0  0  0  0  0  0  0  0  0  0  0  0
  -14.7888   -9.9561    3.6228 H   0  0  0  0  0  0  0  0  0  0  0  0
  -15.0323   -4.6998    5.9027 C   0  0  0  0  0  0  0  0  0  0  0  0
  -14.3122   -5.3511    7.0969 C   0  0  0  0  0  0  0  0  0  0  0  0
   -2.9388   -5.4493   11.8659 C   0  0  0  0  0  0  0  0  0  0  0  0
   -3.3339   -4.9853   10.6364 C   0  0  0  0  0  0  0  0  0  0  0  0
   -2.7090   -5.4171    9.4896 C   0  0  0  0  0  0  0  0  0  0  0  0
   -3.1239   -4.9395    8.3034 F   0  0  0  0  0  0  0  0  0  0  0  0
   -1.6749   -6.3213    9.5414 C   0  0  0  0  0  0  0  0  0  0  0  0
   -1.0604   -6.7420    8.3751 O   0  0  0  0  0  0  0  0  0  0  0  0
   -1.2757   -6.7870   10.7564 C   0  0  0  0  0  0  0  0  0  0  0  0
   -1.8941   -6.3618   11.9087 C   0  0  0  0  0  0  0  0  0  0  0  0
   -1.4747   -6.8444   13.0988 F   0  0  0  0  0  0  0  0  0  0  0  0
   -1.3646   -6.3888    7.4781 H   0  0  0  0  0  0  0  0  0  0  0  0
 32 33  1  0  0  0
 33 23  1  0  0  0
 23 24  2  0  0  0
 24 25  1  0  0  0
 25 26  1  0  0  0
 25 27  2  0  0  0
 27 28  1  0  0  0
 27 29  1  0  0  0
 29 30  2  0  0  0
 30 13  1  0  0  0
 13 14  2  0  0  0
 14 15  1  0  0  0
 15 16  2  0  0  0
 16 17  1  0  0  0
 17 18  2  0  0  0
 18 19  1  0  0  0
 19 20  1  0  0  0
 20 21  2  0  0  0
 17  1  1  0  0  0
  1  2  2  0  0  0
  2  3  1  0  0  0
  3  4  1  0  0  0
  4  5  1  0  0  0
  5  6  1  0  0  0
  6  7  1  0  0  0
  7  8  1  0  0  0
  8  9  1  0  0  0
  5 10  1  0  0  0
 10 11  2  0  0  0
 10 34  1  0  0  0
 34 35  2  0  0  0
 35 36  1  0  0  0
 36 37  1  0  0  0
 36 38  2  0  0  0
 38 39  1  0  0  0
 38 40  1  0  0  0
 40 41  2  0  0  0
 41 42  1  0  0  0
 30 23  1  0  0  0
 21 13  1  0  0  0
  9  1  1  0  0  0
 41 34  1  0  0  0
 20 16  1  0  0  0
  8  3  2  0  0  0
 26 31  1  0  0  0
 19 22  1  0  0  0
  9 12  1  0  0  0
 39 43  1  0  0  0
M  END
> <minimizedAffinity>
7.33648

> <CNNscore>
0.3657956421

> <CNNaffinity>
6.9254140854

> <CNN_VS>
2.5332863331

> <CNNaffinity_variance>
1.2608467340

$$$$
[H]Oc1c([H])c(F)c(C(=O)N2C([H])([H])c3nc(-c4nn([H])c5c([H])c(-c6c([H])c(F)c(O[H])c([H])c6C([H])([H])C([H])([H])[H])c([H])c([H])c45)n([H])c3C([H])([H])C2([H])[H])c([H])c1F


 43 48  0  0  0  0  0  0  0  0999 V2000
   -7.1945   -7.3590    6.1016 C   0  0  0  0  0  0  0  0  0  0  0  0
   -6.3143   -7.0206    7.1000 N   0  0  0  0  0  0  0  0  0  0  0  0
   -5.6569   -5.8983    6.8001 C   0  0  0  0  0  0  0  0  0  0  0  0
   -4.6169   -5.1690    7.5682 C   0  0  0  0  0  0  0  0  0  0  0  0
   -3.9786   -4.1639    6.7697 N   0  0  0  0  0  0  0  0  0  0  0  0
   -4.2475   -3.8954    5.3843 C   0  0  0  0  0  0  0  0  0  0  0  0
   -5.6102   -4.2569    4.9129 C   0  0  0  0  0  0  0  0  0  0  0  0
   -6.1216   -5.5026    5.5825 C   0  0  0  0  0  0  0  0  0  0  0  0
   -7.0459   -6.4173    5.2057 N   0  0  0  0  0  0  0  0  0  0  0  0
   -2.9765   -3.3690    7.4226 C   0  0  0  0  0  0  0  0  0  0  0  0
   -2.3960   -2.4567    6.7429 O   0  0  0  0  0  0  0  0  0  0  0  0
   -7.5406   -6.3323    4.3099 H   0  0  0  0  0  0  0  0  0  0  0  0
   -8.0674  -12.5049    4.9508 C   0  0  0  0  0  0  0  0  0  0  0  0
   -6.9806  -11.7117    4.5450 C   0  0  0  0  0  0  0  0  0  0  0  0
   -6.8823  -10.3741    4.9220 C   0  0  0  0  0  0  0  0  0  0  0  0
   -7.8453   -9.8122    5.6951 C   0  0  0  0  0  0  0  0  0  0  0  0
   -8.0187   -8.5540    6.2133 C   0  0  0  0  0  0  0  0  0  0  0  0
   -9.1937   -8.6235    6.9107 N   0  0  0  0  0  0  0  0  0  0  0  0
   -9.7027   -9.8338    6.8260 N   0  0  0  0  0  0  0  0  0  0  0  0
   -8.9207  -10.6234    6.0880 C   0  0  0  0  0  0  0  0  0  0  0  0
   -9.0409  -11.9479    5.7284 C   0  0  0  0  0  0  0  0  0  0  0  0
  -10.6055  -10.1836    7.2638 H   0  0  0  0  0  0  0  0  0  0  0  0
   -8.2191  -14.2138    3.1539 C   0  0  0  0  0  0  0  0  0  0  0  0
   -8.2231  -15.5742    2.8349 C   0  0  0  0  0  0  0  0  0  0  0  0
   -8.1193  -16.5574    3.7955 C   0  0  0  0  0  0  0  0  0  0  0  0
   -8.1343  -17.8904    3.3596 O   0  0  0  0  0  0  0  0  0  0  0  0
   -8.0053  -16.2259    5.1349 C   0  0  0  0  0  0  0  0  0  0  0  0
   -7.9036  -17.1890    6.0734 F   0  0  0  0  0  0  0  0  0  0  0  0
   -7.9994  -14.8947    5.4679 C   0  0  0  0  0  0  0  0  0  0  0  0
   -8.1048  -13.8871    4.4933 C   0  0  0  0  0  0  0  0  0  0  0  0
   -8.0632  -18.6634    3.9773 H   0  0  0  0  0  0  0  0  0  0  0  0
   -7.8111  -13.8263    0.7931 C   0  0  0  0  0  0  0  0  0  0  0  0
   -8.3474  -13.1983    2.0920 C   0  0  0  0  0  0  0  0  0  0  0  0
   -2.5716   -3.5212    8.7920 C   0  0  0  0  0  0  0  0  0  0  0  0
   -2.0932   -4.6871    9.3349 C   0  0  0  0  0  0  0  0  0  0  0  0
   -1.7319   -4.7471   10.6608 C   0  0  0  0  0  0  0  0  0  0  0  0
   -1.2671   -5.9071   11.1565 F   0  0  0  0  0  0  0  0  0  0  0  0
   -1.8384   -3.6460   11.4768 C   0  0  0  0  0  0  0  0  0  0  0  0
   -1.4691   -3.7289   12.8077 O   0  0  0  0  0  0  0  0  0  0  0  0
   -2.3116   -2.4849   10.9471 C   0  0  0  0  0  0  0  0  0  0  0  0
   -2.6757   -2.4146    9.6230 C   0  0  0  0  0  0  0  0  0  0  0  0
   -3.1429   -1.2473    9.1287 F   0  0  0  0  0  0  0  0  0  0  0  0
   -1.1181   -4.5963   13.1903 H   0  0  0  0  0  0  0  0  0  0  0  0
 32 33  1  0  0  0
 33 23  1  0  0  0
 23 24  2  0  0  0
 24 25  1  0  0  0
 25 26  1  0  0  0
 25 27  2  0  0  0
 27 28  1  0  0  0
 27 29  1  0  0  0
 29 30  2  0  0  0
 30 13  1  0  0  0
 13 14  2  0  0  0
 14 15  1  0  0  0
 15 16  2  0  0  0
 16 17  1  0  0  0
 17 18  2  0  0  0
 18 19  1  0  0  0
 19 20  1  0  0  0
 20 21  2  0  0  0
 17  1  1  0  0  0
  1  2  2  0  0  0
  2  3  1  0  0  0
  3  4  1  0  0  0
  4  5  1  0  0  0
  5  6  1  0  0  0
  6  7  1  0  0  0
  7  8  1  0  0  0
  8  9  1  0  0  0
  5 10  1  0  0  0
 10 11  2  0  0  0
 10 34  1  0  0  0
 34 35  2  0  0  0
 35 36  1  0  0  0
 36 37  1  0  0  0
 36 38  2  0  0  0
 38 39  1  0  0  0
 38 40  1  0  0  0
 40 41  2  0  0  0
 41 42  1  0  0  0
 30 23  1  0  0  0
 21 13  1  0  0  0
  9  1  1  0  0  0
 41 34  1  0  0  0
 20 16  1  0  0  0
  8  3  2  0  0  0
 26 31  1  0  0  0
 19 22  1  0  0  0
  9 12  1  0  0  0
 39 43  1  0  0  0
M  END
> <minimizedAffinity>
36.35664

> <CNNscore>
0.2606874406

> <CNNaffinity>
6.3924503326

> <CNN_VS>
1.6664315462

> <CNNaffinity_variance>
0.9148029089

$$$$
[H]c1nc(N([H])[H])c2c(-c3c([H])c([H])c(Oc4c([H])c([H])c([H])c([H])c4[H])c([H])c3[H])c([H])n(C3([H])C([H])([H])C([H])([H])C([H])([H])C3([H])[H])c2n1


 30 34  0  0  0  0  0  0  0  0999 V2000
  -12.5830  -10.9426    5.4680 N   0  0  0  0  0  0  0  0  0  0  0  0
  -13.6491  -10.1352    5.0030 C   0  0  0  0  0  0  0  0  0  0  0  0
  -14.7099  -10.6955    4.3534 N   0  0  0  0  0  0  0  0  0  0  0  0
  -15.6918   -9.9081    3.9017 C   0  0  0  0  0  0  0  0  0  0  0  0
  -15.6552   -8.5796    4.0737 N   0  0  0  0  0  0  0  0  0  0  0  0
  -14.6124   -7.9981    4.7160 C   0  0  0  0  0  0  0  0  0  0  0  0
  -14.3213   -6.7161    5.0115 N   0  0  0  0  0  0  0  0  0  0  0  0
  -13.1556   -6.6645    5.6555 C   0  0  0  0  0  0  0  0  0  0  0  0
  -12.6384   -7.9636    5.8016 C   0  0  0  0  0  0  0  0  0  0  0  0
  -13.5670   -8.7746    5.2051 C   0  0  0  0  0  0  0  0  0  0  0  0
  -11.6585  -10.8706    5.0211 H   0  0  0  0  0  0  0  0  0  0  0  0
  -12.7510  -11.5981    6.2562 H   0  0  0  0  0  0  0  0  0  0  0  0
  -11.3978   -8.3000    6.4950 C   0  0  0  0  0  0  0  0  0  0  0  0
  -10.8596   -7.5731    7.5284 C   0  0  0  0  0  0  0  0  0  0  0  0
   -9.6937   -7.9617    8.1379 C   0  0  0  0  0  0  0  0  0  0  0  0
   -9.0328   -9.0970    7.7236 C   0  0  0  0  0  0  0  0  0  0  0  0
   -9.5487   -9.8469    6.6884 C   0  0  0  0  0  0  0  0  0  0  0  0
  -10.7141   -9.4406    6.0943 C   0  0  0  0  0  0  0  0  0  0  0  0
   -7.8682   -9.4389    8.3709 O   0  0  0  0  0  0  0  0  0  0  0  0
   -6.6293   -8.9454    7.9247 C   0  0  0  0  0  0  0  0  0  0  0  0
   -5.9866   -9.4944    6.8401 C   0  0  0  0  0  0  0  0  0  0  0  0
   -4.7696   -9.0211    6.3896 C   0  0  0  0  0  0  0  0  0  0  0  0
   -4.1634   -7.9566    7.0437 C   0  0  0  0  0  0  0  0  0  0  0  0
   -4.8102   -7.4083    8.1310 C   0  0  0  0  0  0  0  0  0  0  0  0
   -6.0254   -7.8980    8.5626 C   0  0  0  0  0  0  0  0  0  0  0  0
  -15.2179   -5.6384    4.6348 C   0  0  0  0  0  0  0  0  0  0  0  0
  -14.5715   -4.2833    4.8460 C   0  0  0  0  0  0  0  0  0  0  0  0
  -15.7846   -3.3549    4.7297 C   0  0  0  0  0  0  0  0  0  0  0  0
  -16.9722   -4.1772    5.1802 C   0  0  0  0  0  0  0  0  0  0  0  0
  -16.4323   -5.5583    5.5086 C   0  0  0  0  0  0  0  0  0  0  0  0
  1  2  1  0  0  0
  2  3  2  0  0  0
  3  4  1  0  0  0
  4  5  2  0  0  0
  5  6  1  0  0  0
  6  7  1  0  0  0
  7  8  1  0  0  0
  8  9  2  0  0  0
  9 13  1  0  0  0
 13 14  2  0  0  0
 14 15  1  0  0  0
 15 16  2  0  0  0
 16 19  1  0  0  0
 19 20  1  0  0  0
 20 21  2  0  0  0
 21 22  1  0  0  0
 22 23  2  0  0  0
 23 24  1  0  0  0
 24 25  2  0  0  0
 16 17  1  0  0  0
 17 18  2  0  0  0
  9 10  1  0  0  0
  7 26  1  0  0  0
 26 27  1  0  0  0
 27 28  1  0  0  0
 28 29  1  0  0  0
 29 30  1  0  0  0
 10  2  1  0  0  0
 30 26  1  0  0  0
 10  6  2  0  0  0
 18 13  1  0  0  0
 25 20  1  0  0  0
  1 11  1  0  0  0
  1 12  1  0  0  0
M  END
> <minimizedAffinity>
12.73516

> <CNNscore>
0.4501774609

> <CNNaffinity>
6.6852631569

> <CNN_VS>
3.0095548630

> <CNNaffinity_variance>
1.4136831760

$$$$
[H]c1nc(N([H])[H])c2c(-c3c([H])c([H])c(Oc4c([H])c([H])c([H])c([H])c4[H])c([H])c3[H])c([H])n(C3([H])C([H])([H])C([H])([H])C([H])([H])C3([H])[H])c2n1


 30 34  0  0  0  0  0  0  0  0999 V2000
  -12.5686   -5.9949   12.2074 N   0  0  0  0  0  0  0  0  0  0  0  0
  -11.1558   -5.9924   12.2998 C   0  0  0  0  0  0  0  0  0  0  0  0
  -10.5390   -5.6674   13.4724 N   0  0  0  0  0  0  0  0  0  0  0  0
   -9.2030   -5.6478   13.5265 C   0  0  0  0  0  0  0  0  0  0  0  0
   -8.4572   -5.9408   12.4523 N   0  0  0  0  0  0  0  0  0  0  0  0
   -9.0456   -6.2672   11.2753 C   0  0  0  0  0  0  0  0  0  0  0  0
   -8.5502   -6.5882   10.0640 N   0  0  0  0  0  0  0  0  0  0  0  0
   -9.5568   -6.8189    9.2215 C   0  0  0  0  0  0  0  0  0  0  0  0
  -10.7815   -6.6476    9.8902 C   0  0  0  0  0  0  0  0  0  0  0  0
  -10.4322   -6.3023   11.1687 C   0  0  0  0  0  0  0  0  0  0  0  0
  -13.0418   -5.2817   11.6354 H   0  0  0  0  0  0  0  0  0  0  0  0
  -13.1082   -6.7192   12.7205 H   0  0  0  0  0  0  0  0  0  0  0  0
  -12.0988   -6.8585    9.2960 C   0  0  0  0  0  0  0  0  0  0  0  0
  -12.8209   -5.8943    8.6364 C   0  0  0  0  0  0  0  0  0  0  0  0
  -14.0493   -6.1742    8.0938 C   0  0  0  0  0  0  0  0  0  0  0  0
  -14.5892   -7.4370    8.1997 C   0  0  0  0  0  0  0  0  0  0  0  0
  -13.8879   -8.4255    8.8565 C   0  0  0  0  0  0  0  0  0  0  0  0
  -12.6631   -8.1240    9.3905 C   0  0  0  0  0  0  0  0  0  0  0  0
  -15.8242   -7.6608    7.6368 O   0  0  0  0  0  0  0  0  0  0  0  0
  -15.9722   -7.7338    6.2403 C   0  0  0  0  0  0  0  0  0  0  0  0
  -14.9147   -8.0558    5.4224 C   0  0  0  0  0  0  0  0  0  0  0  0
  -15.0438   -8.1316    4.0493 C   0  0  0  0  0  0  0  0  0  0  0  0
  -16.2759   -7.8766    3.4614 C   0  0  0  0  0  0  0  0  0  0  0  0
  -17.3343   -7.5539    4.2842 C   0  0  0  0  0  0  0  0  0  0  0  0
  -17.1812   -7.4843    5.6533 C   0  0  0  0  0  0  0  0  0  0  0  0
   -7.1184   -6.6427    9.8309 C   0  0  0  0  0  0  0  0  0  0  0  0
   -6.4166   -5.4358   10.4222 C   0  0  0  0  0  0  0  0  0  0  0  0
   -5.0394   -5.5395    9.7592 C   0  0  0  0  0  0  0  0  0  0  0  0
   -5.2750   -6.2347    8.4360 C   0  0  0  0  0  0  0  0  0  0  0  0
   -6.7603   -6.5472    8.3793 C   0  0  0  0  0  0  0  0  0  0  0  0
  1  2  1  0  0  0
  2  3  2  0  0  0
  3  4  1  0  0  0
  4  5  2  0  0  0
  5  6  1  0  0  0
  6  7  1  0  0  0
  7  8  1  0  0  0
  8  9  2  0  0  0
  9 13  1  0  0  0
 13 14  2  0  0  0
 14 15  1  0  0  0
 15 16  2  0  0  0
 16 19  1  0  0  0
 19 20  1  0  0  0
 20 21  2  0  0  0
 21 22  1  0  0  0
 22 23  2  0  0  0
 23 24  1  0  0  0
 24 25  2  0  0  0
 16 17  1  0  0  0
 17 18  2  0  0  0
  9 10  1  0  0  0
  7 26  1  0  0  0
 26 27  1  0  0  0
 27 28  1  0  0  0
 28 29  1  0  0  0
 29 30  1  0  0  0
 10  2  1  0  0  0
 30 26  1  0  0  0
 10  6  2  0  0  0
 18 13  1  0  0  0
 25 20  1  0  0  0
  1 11  1  0  0  0
  1 12  1  0  0  0
M  END
> <minimizedAffinity>
14.16528

> <CNNscore>
0.4416217506

> <CNNaffinity>
6.5525655746

> <CNN_VS>
2.8937554359

> <CNNaffinity_variance>
0.8361039162

$$$$
[H]c1nc(N([H])[H])c2c(-c3c([H])c([H])c(Oc4c([H])c([H])c([H])c([H])c4[H])c([H])c3[H])c([H])n(C3([H])C([H])([H])C([H])([H])C([H])([H])C3([H])[H])c2n1


 30 34  0  0  0  0  0  0  0  0999 V2000
   -9.8771   -6.2483   10.1412 N   0  0  0  0  0  0  0  0  0  0  0  0
  -11.2536   -6.2969    9.8135 C   0  0  0  0  0  0  0  0  0  0  0  0
  -12.1824   -5.7335   10.6389 N   0  0  0  0  0  0  0  0  0  0  0  0
  -13.4783   -5.8154   10.3195 C   0  0  0  0  0  0  0  0  0  0  0  0
  -13.8838   -6.4397    9.2052 N   0  0  0  0  0  0  0  0  0  0  0  0
  -12.9810   -7.0075    8.3681 C   0  0  0  0  0  0  0  0  0  0  0  0
  -13.1086   -7.6903    7.2135 N   0  0  0  0  0  0  0  0  0  0  0  0
  -11.9021   -8.0519    6.7779 C   0  0  0  0  0  0  0  0  0  0  0  0
  -10.9196   -7.5948    7.6736 C   0  0  0  0  0  0  0  0  0  0  0  0
  -11.6213   -6.9484    8.6563 C   0  0  0  0  0  0  0  0  0  0  0  0
   -9.3854   -7.1147   10.4004 H   0  0  0  0  0  0  0  0  0  0  0  0
   -9.3825   -5.3351   10.1150 H   0  0  0  0  0  0  0  0  0  0  0  0
   -9.4799   -7.7678    7.4999 C   0  0  0  0  0  0  0  0  0  0  0  0
   -8.7736   -8.8767    7.8970 C   0  0  0  0  0  0  0  0  0  0  0  0
   -7.4212   -8.9695    7.6874 C   0  0  0  0  0  0  0  0  0  0  0  0
   -6.7373   -7.9455    7.0702 C   0  0  0  0  0  0  0  0  0  0  0  0
   -7.4193   -6.8196    6.6608 C   0  0  0  0  0  0  0  0  0  0  0  0
   -8.7694   -6.7481    6.8800 C   0  0  0  0  0  0  0  0  0  0  0  0
   -5.3821   -8.0927    6.8859 O   0  0  0  0  0  0  0  0  0  0  0  0
   -4.4701   -7.3303    7.6372 C   0  0  0  0  0  0  0  0  0  0  0  0
   -4.8814   -6.2534    8.3868 C   0  0  0  0  0  0  0  0  0  0  0  0
   -3.9983   -5.4946    9.1300 C   0  0  0  0  0  0  0  0  0  0  0  0
   -2.6477   -5.8181    9.1295 C   0  0  0  0  0  0  0  0  0  0  0  0
   -2.2384   -6.8984    8.3768 C   0  0  0  0  0  0  0  0  0  0  0  0
   -3.1391   -7.6416    7.6425 C   0  0  0  0  0  0  0  0  0  0  0  0
  -14.4144   -7.9338    6.6278 C   0  0  0  0  0  0  0  0  0  0  0  0
  -14.3050   -8.7520    5.3561 C   0  0  0  0  0  0  0  0  0  0  0  0
  -15.7066   -8.5700    4.7651 C   0  0  0  0  0  0  0  0  0  0  0  0
  -16.1877   -7.2246    5.2630 C   0  0  0  0  0  0  0  0  0  0  0  0
  -15.0819   -6.6803    6.1506 C   0  0  0  0  0  0  0  0  0  0  0  0
  1  2  1  0  0  0
  2  3  2  0  0  0
  3  4  1  0  0  0
  4  5  2  0  0  0
  5  6  1  0  0  0
  6  7  1  0  0  0
  7  8  1  0  0  0
  8  9  2  0  0  0
  9 13  1  0  0  0
 13 14  2  0  0  0
 14 15  1  0  0  0
 15 16  2  0  0  0
 16 19  1  0  0  0
 19 20  1  0  0  0
 20 21  2  0  0  0
 21 22  1  0  0  0
 22 23  2  0  0  0
 23 24  1  0  0  0
 24 25  2  0  0  0
 16 17  1  0  0  0
 17 18  2  0  0  0
  9 10  1  0  0  0
  7 26  1  0  0  0
 26 27  1  0  0  0
 27 28  1  0  0  0
 28 29  1  0  0  0
 29 30  1  0  0  0
 10  2  1  0  0  0
 30 26  1  0  0  0
 10  6  2  0  0  0
 18 13  1  0  0  0
 25 20  1  0  0  0
  1 11  1  0  0  0
  1 12  1  0  0  0
M  END
> <minimizedAffinity>
-8.62364

> <CNNscore>
0.4107550085

> <CNNaffinity>
6.8995957375

> <CNN_VS>
2.8340435028

> <CNNaffinity_variance>
0.0658243746

$$$$
[H]c1nc(N([H])[H])c2c(-c3c([H])c([H])c(Oc4c([H])c([H])c([H])c([H])c4[H])c([H])c3[H])c([H])n(C3([H])C([H])([H])C([H])([H])C([H])([H])C3([H])[H])c2n1


 30 34  0  0  0  0  0  0  0  0999 V2000
  -11.5790  -10.4682    7.2346 N   0  0  0  0  0  0  0  0  0  0  0  0
  -10.2185  -10.0786    7.2752 C   0  0  0  0  0  0  0  0  0  0  0  0
   -9.2279  -11.0082    7.1500 N   0  0  0  0  0  0  0  0  0  0  0  0
   -7.9507  -10.6178    7.2173 C   0  0  0  0  0  0  0  0  0  0  0  0
   -7.6236   -9.3320    7.4055 N   0  0  0  0  0  0  0  0  0  0  0  0
   -8.5890   -8.3886    7.5326 C   0  0  0  0  0  0  0  0  0  0  0  0
   -8.5446   -7.0572    7.7351 N   0  0  0  0  0  0  0  0  0  0  0  0
   -9.7866   -6.5778    7.7980 C   0  0  0  0  0  0  0  0  0  0  0  0
  -10.7072   -7.6270    7.6307 C   0  0  0  0  0  0  0  0  0  0  0  0
   -9.9323   -8.7447    7.4688 C   0  0  0  0  0  0  0  0  0  0  0  0
  -12.1511  -10.4066    8.0881 H   0  0  0  0  0  0  0  0  0  0  0  0
  -11.9807  -10.8117    6.3403 H   0  0  0  0  0  0  0  0  0  0  0  0
  -12.1591   -7.4725    7.5987 C   0  0  0  0  0  0  0  0  0  0  0  0
  -12.9371   -7.1808    8.6922 C   0  0  0  0  0  0  0  0  0  0  0  0
  -14.2968   -7.0393    8.5785 C   0  0  0  0  0  0  0  0  0  0  0  0
  -14.9157   -7.1881    7.3570 C   0  0  0  0  0  0  0  0  0  0  0  0
  -14.1609   -7.4815    6.2414 C   0  0  0  0  0  0  0  0  0  0  0  0
  -12.8049   -7.6182    6.3778 C   0  0  0  0  0  0  0  0  0  0  0  0
  -16.2817   -7.0352    7.3020 O   0  0  0  0  0  0  0  0  0  0  0  0
  -16.9545   -7.0463    6.0673 C   0  0  0  0  0  0  0  0  0  0  0  0
  -17.0950   -5.9031    5.3162 C   0  0  0  0  0  0  0  0  0  0  0  0
  -17.7530   -5.8975    4.1017 C   0  0  0  0  0  0  0  0  0  0  0  0
  -18.2957   -7.0778    3.6107 C   0  0  0  0  0  0  0  0  0  0  0  0
  -18.1533   -8.2224    4.3662 C   0  0  0  0  0  0  0  0  0  0  0  0
  -17.4918   -8.2035    5.5765 C   0  0  0  0  0  0  0  0  0  0  0  0
   -7.2771   -6.3590    7.8512 C   0  0  0  0  0  0  0  0  0  0  0  0
   -6.4858   -6.4333    6.5601 C   0  0  0  0  0  0  0  0  0  0  0  0
   -5.1059   -5.9629    7.0308 C   0  0  0  0  0  0  0  0  0  0  0  0
   -5.0185   -6.3513    8.4906 C   0  0  0  0  0  0  0  0  0  0  0  0
   -6.3484   -6.9976    8.8382 C   0  0  0  0  0  0  0  0  0  0  0  0
  1  2  1  0  0  0
  2  3  2  0  0  0
  3  4  1  0  0  0
  4  5  2  0  0  0
  5  6  1  0  0  0
  6  7  1  0  0  0
  7  8  1  0  0  0
  8  9  2  0  0  0
  9 13  1  0  0  0
 13 14  2  0  0  0
 14 15  1  0  0  0
 15 16  2  0  0  0
 16 19  1  0  0  0
 19 20  1  0  0  0
 20 21  2  0  0  0
 21 22  1  0  0  0
 22 23  2  0  0  0
 23 24  1  0  0  0
 24 25  2  0  0  0
 16 17  1  0  0  0
 17 18  2  0  0  0
  9 10  1  0  0  0
  7 26  1  0  0  0
 26 27  1  0  0  0
 27 28  1  0  0  0
 28 29  1  0  0  0
 29 30  1  0  0  0
 10  2  1  0  0  0
 30 26  1  0  0  0
 10  6  2  0  0  0
 18 13  1  0  0  0
 25 20  1  0  0  0
  1 11  1  0  0  0
  1 12  1  0  0  0
M  END
> <minimizedAffinity>
-7.81082

> <CNNscore>
0.2558227479

> <CNNaffinity>
6.8023481369

> <CNN_VS>
1.7401953936

> <CNNaffinity_variance>
0.0760448202

$$$$
[H]c1nc(N([H])[H])c2c(-c3c([H])c([H])c(Oc4c([H])c([H])c([H])c([H])c4[H])c([H])c3[H])c([H])n(C3([H])C([H])([H])C([H])([H])C([H])([H])C3([H])[H])c2n1


 30 34  0  0  0  0  0  0  0  0999 V2000
  -12.5463   -7.7005    5.5186 N   0  0  0  0  0  0  0  0  0  0  0  0
  -13.5056   -7.8079    6.5543 C   0  0  0  0  0  0  0  0  0  0  0  0
  -14.8392   -7.7962    6.2669 N   0  0  0  0  0  0  0  0  0  0  0  0
  -15.7253   -7.8733    7.2655 C   0  0  0  0  0  0  0  0  0  0  0  0
  -15.3303   -7.9618    8.5430 N   0  0  0  0  0  0  0  0  0  0  0  0
  -14.0110   -7.9757    8.8552 C   0  0  0  0  0  0  0  0  0  0  0  0
  -13.3500   -8.0447   10.0273 N   0  0  0  0  0  0  0  0  0  0  0  0
  -12.0376   -8.0151    9.7973 C   0  0  0  0  0  0  0  0  0  0  0  0
  -11.8021   -7.9229    8.4144 C   0  0  0  0  0  0  0  0  0  0  0  0
  -13.0506   -7.8986    7.8518 C   0  0  0  0  0  0  0  0  0  0  0  0
  -11.9743   -6.8482    5.4420 H   0  0  0  0  0  0  0  0  0  0  0  0
  -12.4340   -8.4868    4.8490 H   0  0  0  0  0  0  0  0  0  0  0  0
  -10.4835   -7.9106    7.7866 C   0  0  0  0  0  0  0  0  0  0  0  0
   -9.7998   -9.0319    7.3852 C   0  0  0  0  0  0  0  0  0  0  0  0
   -8.5673   -8.9369    6.7904 C   0  0  0  0  0  0  0  0  0  0  0  0
   -7.9846   -7.7064    6.5816 C   0  0  0  0  0  0  0  0  0  0  0  0
   -8.6468   -6.5629    6.9743 C   0  0  0  0  0  0  0  0  0  0  0  0
   -9.8764   -6.6810    7.5661 C   0  0  0  0  0  0  0  0  0  0  0  0
   -6.7476   -7.6711    5.9810 O   0  0  0  0  0  0  0  0  0  0  0  0
   -5.7126   -6.8853    6.5183 C   0  0  0  0  0  0  0  0  0  0  0  0
   -5.1457   -5.8577    5.8018 C   0  0  0  0  0  0  0  0  0  0  0  0
   -4.1286   -5.0769    6.3153 C   0  0  0  0  0  0  0  0  0  0  0  0
   -3.6526   -5.3265    7.5959 C   0  0  0  0  0  0  0  0  0  0  0  0
   -4.2230   -6.3576    8.3119 C   0  0  0  0  0  0  0  0  0  0  0  0
   -5.2381   -7.1240    7.7779 C   0  0  0  0  0  0  0  0  0  0  0  0
  -14.0662   -8.1349   11.2869 C   0  0  0  0  0  0  0  0  0  0  0  0
  -13.5335   -9.2658   12.1449 C   0  0  0  0  0  0  0  0  0  0  0  0
  -14.6357   -9.3795   13.2028 C   0  0  0  0  0  0  0  0  0  0  0  0
  -15.9041   -8.9133   12.5222 C   0  0  0  0  0  0  0  0  0  0  0  0
  -15.5061   -8.5101   11.1130 C   0  0  0  0  0  0  0  0  0  0  0  0
  1  2  1  0  0  0
  2  3  2  0  0  0
  3  4  1  0  0  0
  4  5  2  0  0  0
  5  6  1  0  0  0
  6  7  1  0  0  0
  7  8  1  0  0  0
  8  9  2  0  0  0
  9 13  1  0  0  0
 13 14  2  0  0  0
 14 15  1  0  0  0
 15 16  2  0  0  0
 16 19  1  0  0  0
 19 20  1  0  0  0
 20 21  2  0  0  0
 21 22  1  0  0  0
 22 23  2  0  0  0
 23 24  1  0  0  0
 24 25  2  0  0  0
 16 17  1  0  0  0
 17 18  2  0  0  0
  9 10  1  0  0  0
  7 26  1  0  0  0
 26 27  1  0  0  0
 27 28  1  0  0  0
 28 29  1  0  0  0
 29 30  1  0  0  0
 10  2  1  0  0  0
 30 26  1  0  0  0
 10  6  2  0  0  0
 18 13  1  0  0  0
 25 20  1  0  0  0
  1 11  1  0  0  0
  1 12  1  0  0  0
M  END
> <minimizedAffinity>
3.01120

> <CNNscore>
0.2407854646

> <CNNaffinity>
6.4327249527

> <CNN_VS>
1.5489066839

> <CNNaffinity_variance>
0.2635704875

$$$$
[H]c1nc(N([H])[H])c2c(-c3c([H])c([H])c(Oc4c([H])c([H])c([H])c([H])c4[H])c([H])c3[H])c([H])n(C3([H])C([H])([H])C([H])([H])C([H])([H])C3([H])[H])c2n1


 30 34  0  0  0  0  0  0  0  0999 V2000
  -11.9999   -7.9844   10.1197 N   0  0  0  0  0  0  0  0  0  0  0  0
  -13.2500   -7.9932    9.4551 C   0  0  0  0  0  0  0  0  0  0  0  0
  -14.4010   -7.7369   10.1413 N   0  0  0  0  0  0  0  0  0  0  0  0
  -15.5713   -7.7764    9.4956 C   0  0  0  0  0  0  0  0  0  0  0  0
  -15.6371   -8.0627    8.1881 N   0  0  0  0  0  0  0  0  0  0  0  0
  -14.5080   -8.3210    7.4833 C   0  0  0  0  0  0  0  0  0  0  0  0
  -14.2893   -8.6395    6.1925 N   0  0  0  0  0  0  0  0  0  0  0  0
  -12.9820   -8.8057    5.9934 C   0  0  0  0  0  0  0  0  0  0  0  0
  -12.2894   -8.5903    7.1976 C   0  0  0  0  0  0  0  0  0  0  0  0
  -13.2663   -8.2913    8.1098 C   0  0  0  0  0  0  0  0  0  0  0  0
  -11.4856   -8.8670   10.2468 H   0  0  0  0  0  0  0  0  0  0  0  0
  -11.6193   -7.0836   10.4703 H   0  0  0  0  0  0  0  0  0  0  0  0
  -10.8381   -8.6434    7.3522 C   0  0  0  0  0  0  0  0  0  0  0  0
  -10.0846   -9.7878    7.2587 C   0  0  0  0  0  0  0  0  0  0  0  0
   -8.7211   -9.7538    7.4044 C   0  0  0  0  0  0  0  0  0  0  0  0
   -8.0735   -8.5632    7.6498 C   0  0  0  0  0  0  0  0  0  0  0  0
   -8.8033   -7.3979    7.7492 C   0  0  0  0  0  0  0  0  0  0  0  0
  -10.1636   -7.4549    7.6001 C   0  0  0  0  0  0  0  0  0  0  0  0
   -6.7050   -8.5885    7.7871 O   0  0  0  0  0  0  0  0  0  0  0  0
   -5.9291   -7.4695    7.4363 C   0  0  0  0  0  0  0  0  0  0  0  0
   -5.3250   -6.6869    8.3921 C   0  0  0  0  0  0  0  0  0  0  0  0
   -4.5599   -5.5847    8.0638 C   0  0  0  0  0  0  0  0  0  0  0  0
   -4.3864   -5.2436    6.7288 C   0  0  0  0  0  0  0  0  0  0  0  0
   -4.9934   -6.0302    5.7728 C   0  0  0  0  0  0  0  0  0  0  0  0
   -5.7531   -7.1265    6.1248 C   0  0  0  0  0  0  0  0  0  0  0  0
  -15.3898   -8.7556    5.2528 C   0  0  0  0  0  0  0  0  0  0  0  0
  -14.8915   -8.7950    3.8214 C   0  0  0  0  0  0  0  0  0  0  0  0
  -16.1931   -8.5616    3.0480 C   0  0  0  0  0  0  0  0  0  0  0  0
  -17.0728   -7.7430    3.9675 C   0  0  0  0  0  0  0  0  0  0  0  0
  -16.2845   -7.5540    5.2520 C   0  0  0  0  0  0  0  0  0  0  0  0
  1  2  1  0  0  0
  2  3  2  0  0  0
  3  4  1  0  0  0
  4  5  2  0  0  0
  5  6  1  0  0  0
  6  7  1  0  0  0
  7  8  1  0  0  0
  8  9  2  0  0  0
  9 13  1  0  0  0
 13 14  2  0  0  0
 14 15  1  0  0  0
 15 16  2  0  0  0
 16 19  1  0  0  0
 19 20  1  0  0  0
 20 21  2  0  0  0
 21 22  1  0  0  0
 22 23  2  0  0  0
 23 24  1  0  0  0
 24 25  2  0  0  0
 16 17  1  0  0  0
 17 18  2  0  0  0
  9 10  1  0  0  0
  7 26  1  0  0  0
 26 27  1  0  0  0
 27 28  1  0  0  0
 28 29  1  0  0  0
 29 30  1  0  0  0
 10  2  1  0  0  0
 30 26  1  0  0  0
 10  6  2  0  0  0
 18 13  1  0  0  0
 25 20  1  0  0  0
  1 11  1  0  0  0
  1 12  1  0  0  0
M  END
> <minimizedAffinity>
-7.49002

> <CNNscore>
0.2234843671

> <CNNaffinity>
6.8307123184

> <CNN_VS>
1.5265574455

> <CNNaffinity_variance>
0.0547695979

$$$$
[H]c1nc(N([H])[H])c2c(-c3c([H])c([H])c(Oc4c([H])c([H])c([H])c([H])c4[H])c([H])c3[H])c([H])n(C3([H])C([H])([H])C([H])([H])C([H])([H])C3([H])[H])c2n1


 30 34  0  0  0  0  0  0  0  0999 V2000
   -8.7206   -5.5745    4.6352 N   0  0  0  0  0  0  0  0  0  0  0  0
  -10.0191   -5.8397    5.1332 C   0  0  0  0  0  0  0  0  0  0  0  0
  -11.1221   -5.4098    4.4551 N   0  0  0  0  0  0  0  0  0  0  0  0
  -12.3367   -5.6509    4.9598 C   0  0  0  0  0  0  0  0  0  0  0  0
  -12.4930   -6.3062    6.1183 N   0  0  0  0  0  0  0  0  0  0  0  0
  -11.4132   -6.7442    6.8114 C   0  0  0  0  0  0  0  0  0  0  0  0
  -11.2829   -7.4040    7.9790 N   0  0  0  0  0  0  0  0  0  0  0  0
   -9.9894   -7.5959    8.2365 C   0  0  0  0  0  0  0  0  0  0  0  0
   -9.2145   -7.0442    7.2014 C   0  0  0  0  0  0  0  0  0  0  0  0
  -10.1286   -6.5185    6.3274 C   0  0  0  0  0  0  0  0  0  0  0  0
   -8.1090   -4.9152    5.1361 H   0  0  0  0  0  0  0  0  0  0  0  0
   -8.4038   -6.0511    3.7683 H   0  0  0  0  0  0  0  0  0  0  0  0
   -7.7573   -7.1023    7.1214 C   0  0  0  0  0  0  0  0  0  0  0  0
   -6.9941   -6.3708    6.2448 C   0  0  0  0  0  0  0  0  0  0  0  0
   -5.6261   -6.4722    6.2392 C   0  0  0  0  0  0  0  0  0  0  0  0
   -4.9838   -7.3158    7.1184 C   0  0  0  0  0  0  0  0  0  0  0  0
   -5.7234   -8.0631    8.0099 C   0  0  0  0  0  0  0  0  0  0  0  0
   -7.0881   -7.9461    7.9983 C   0  0  0  0  0  0  0  0  0  0  0  0
   -3.6105   -7.3772    7.0682 O   0  0  0  0  0  0  0  0  0  0  0  0
   -2.8916   -6.5927    6.1489 C   0  0  0  0  0  0  0  0  0  0  0  0
   -1.7897   -7.0868    5.4911 C   0  0  0  0  0  0  0  0  0  0  0  0
   -1.0730   -6.3291    4.5855 C   0  0  0  0  0  0  0  0  0  0  0  0
   -1.4664   -5.0238    4.3207 C   0  0  0  0  0  0  0  0  0  0  0  0
   -2.5717   -4.5312    4.9818 C   0  0  0  0  0  0  0  0  0  0  0  0
   -3.2718   -5.3070    5.8823 C   0  0  0  0  0  0  0  0  0  0  0  0
  -12.4475   -7.7953    8.7522 C   0  0  0  0  0  0  0  0  0  0  0  0
  -12.7025   -6.8297    9.8930 C   0  0  0  0  0  0  0  0  0  0  0  0
  -13.7095   -7.6222   10.7325 C   0  0  0  0  0  0  0  0  0  0  0  0
  -13.4024   -9.0802   10.4690 C   0  0  0  0  0  0  0  0  0  0  0  0
  -12.2618   -9.0992    9.4662 C   0  0  0  0  0  0  0  0  0  0  0  0
  1  2  1  0  0  0
  2  3  2  0  0  0
  3  4  1  0  0  0
  4  5  2  0  0  0
  5  6  1  0  0  0
  6  7  1  0  0  0
  7  8  1  0  0  0
  8  9  2  0  0  0
  9 13  1  0  0  0
 13 14  2  0  0  0
 14 15  1  0  0  0
 15 16  2  0  0  0
 16 19  1  0  0  0
 19 20  1  0  0  0
 20 21  2  0  0  0
 21 22  1  0  0  0
 22 23  2  0  0  0
 23 24  1  0  0  0
 24 25  2  0  0  0
 16 17  1  0  0  0
 17 18  2  0  0  0
  9 10  1  0  0  0
  7 26  1  0  0  0
 26 27  1  0  0  0
 27 28  1  0  0  0
 28 29  1  0  0  0
 29 30  1  0  0  0
 10  2  1  0  0  0
 30 26  1  0  0  0
 10  6  2  0  0  0
 18 13  1  0  0  0
 25 20  1  0  0  0
  1 11  1  0  0  0
  1 12  1  0  0  0
M  END
> <minimizedAffinity>
16.65518

> <CNNscore>
0.1790541559

> <CNNaffinity>
6.0646185875

> <CNN_VS>
1.0858951807

> <CNNaffinity_variance>
0.7309935689

$$$$
[H]c1nc(N([H])[H])c2c(-c3c([H])c([H])c(Oc4c([H])c([H])c([H])c([H])c4[H])c([H])c3[H])c([H])n(C3([H])C([H])([H])C([H])([H])C([H])([H])C3([H])[H])c2n1


 30 34  0  0  0  0  0  0  0  0999 V2000
   -9.6779  -10.4637    6.2653 N   0  0  0  0  0  0  0  0  0  0  0  0
  -10.8269   -9.9054    6.8757 C   0  0  0  0  0  0  0  0  0  0  0  0
  -12.0298  -10.5449    6.8026 N   0  0  0  0  0  0  0  0  0  0  0  0
  -13.1053   -9.9841    7.3656 C   0  0  0  0  0  0  0  0  0  0  0  0
  -13.0260   -8.8065    8.0002 N   0  0  0  0  0  0  0  0  0  0  0  0
  -11.8425   -8.1508    8.0872 C   0  0  0  0  0  0  0  0  0  0  0  0
  -11.4874   -6.9761    8.6436 N   0  0  0  0  0  0  0  0  0  0  0  0
  -10.1853   -6.7698    8.4478 C   0  0  0  0  0  0  0  0  0  0  0  0
   -9.6384   -7.8483    7.7308 C   0  0  0  0  0  0  0  0  0  0  0  0
  -10.6949   -8.6936    7.5182 C   0  0  0  0  0  0  0  0  0  0  0  0
   -9.2651  -10.0033    5.4424 H   0  0  0  0  0  0  0  0  0  0  0  0
   -9.2674  -11.3330    6.6590 H   0  0  0  0  0  0  0  0  0  0  0  0
   -8.2300   -7.9889    7.3709 C   0  0  0  0  0  0  0  0  0  0  0  0
   -7.3629   -8.8845    7.9473 C   0  0  0  0  0  0  0  0  0  0  0  0
   -6.0539   -8.9644    7.5451 C   0  0  0  0  0  0  0  0  0  0  0  0
   -5.5772   -8.1425    6.5478 C   0  0  0  0  0  0  0  0  0  0  0  0
   -6.4240   -7.2331    5.9508 C   0  0  0  0  0  0  0  0  0  0  0  0
   -7.7272   -7.1704    6.3678 C   0  0  0  0  0  0  0  0  0  0  0  0
   -4.2562   -8.2663    6.1850 O   0  0  0  0  0  0  0  0  0  0  0  0
   -3.2315   -8.0158    7.1148 C   0  0  0  0  0  0  0  0  0  0  0  0
   -3.1588   -6.8253    7.7993 C   0  0  0  0  0  0  0  0  0  0  0  0
   -2.1588   -6.5640    8.7156 C   0  0  0  0  0  0  0  0  0  0  0  0
   -1.1881   -7.5256    8.9639 C   0  0  0  0  0  0  0  0  0  0  0  0
   -1.2636   -8.7182    8.2760 C   0  0  0  0  0  0  0  0  0  0  0  0
   -2.2720   -8.9566    7.3653 C   0  0  0  0  0  0  0  0  0  0  0  0
  -12.4625   -6.1460    9.3273 C   0  0  0  0  0  0  0  0  0  0  0  0
  -11.7966   -4.9841   10.0382 C   0  0  0  0  0  0  0  0  0  0  0  0
  -12.9358   -4.4953   10.9383 C   0  0  0  0  0  0  0  0  0  0  0  0
  -13.7884   -5.7142   11.2156 C   0  0  0  0  0  0  0  0  0  0  0  0
  -13.1520   -6.8606   10.4491 C   0  0  0  0  0  0  0  0  0  0  0  0
  1  2  1  0  0  0
  2  3  2  0  0  0
  3  4  1  0  0  0
  4  5  2  0  0  0
  5  6  1  0  0  0
  6  7  1  0  0  0
  7  8  1  0  0  0
  8  9  2  0  0  0
  9 13  1  0  0  0
 13 14  2  0  0  0
 14 15  1  0  0  0
 15 16  2  0  0  0
 16 19  1  0  0  0
 19 20  1  0  0  0
 20 21  2  0  0  0
 21 22  1  0  0  0
 22 23  2  0  0  0
 23 24  1  0  0  0
 24 25  2  0  0  0
 16 17  1  0  0  0
 17 18  2  0  0  0
  9 10  1  0  0  0
  7 26  1  0  0  0
 26 27  1  0  0  0
 27 28  1  0  0  0
 28 29  1  0  0  0
 29 30  1  0  0  0
 10  2  1  0  0  0
 30 26  1  0  0  0
 10  6  2  0  0  0
 18 13  1  0  0  0
 25 20  1  0  0  0
  1 11  1  0  0  0
  1 12  1  0  0  0
M  END
> <minimizedAffinity>
-6.68749

> <CNNscore>
0.1730879247

> <CNNaffinity>
6.2895636559

> <CNN_VS>
1.0886474848

> <CNNaffinity_variance>
0.0661244839

$$$$
[H]c1nc(N([H])[H])c2c(-c3c([H])c([H])c(Oc4c([H])c([H])c([H])c([H])c4[H])c([H])c3[H])c([H])n(C3([H])C([H])([H])C([H])([H])C([H])([H])C3([H])[H])c2n1


 30 34  0  0  0  0  0  0  0  0999 V2000
   -7.6194   -9.7169    6.3516 N   0  0  0  0  0  0  0  0  0  0  0  0
   -8.9457   -9.5397    6.8142 C   0  0  0  0  0  0  0  0  0  0  0  0
   -9.8759  -10.5228    6.6433 N   0  0  0  0  0  0  0  0  0  0  0  0
  -11.1282  -10.3206    7.0664 C   0  0  0  0  0  0  0  0  0  0  0  0
  -11.4885   -9.1718    7.6549 N   0  0  0  0  0  0  0  0  0  0  0  0
  -10.5831   -8.1792    7.8369 C   0  0  0  0  0  0  0  0  0  0  0  0
  -10.6731   -6.9479    8.3766 N   0  0  0  0  0  0  0  0  0  0  0  0
   -9.4851   -6.3476    8.3092 C   0  0  0  0  0  0  0  0  0  0  0  0
   -8.5548   -7.2077    7.7001 C   0  0  0  0  0  0  0  0  0  0  0  0
   -9.2676   -8.3419    7.4146 C   0  0  0  0  0  0  0  0  0  0  0  0
   -7.2791   -9.1574    5.5573 H   0  0  0  0  0  0  0  0  0  0  0  0
   -7.0075  -10.4117    6.8227 H   0  0  0  0  0  0  0  0  0  0  0  0
   -7.1407   -6.9052    7.4956 C   0  0  0  0  0  0  0  0  0  0  0  0
   -6.1844   -6.9423    8.4805 C   0  0  0  0  0  0  0  0  0  0  0  0
   -4.8712   -6.6559    8.2061 C   0  0  0  0  0  0  0  0  0  0  0  0
   -4.4806   -6.3224    6.9280 C   0  0  0  0  0  0  0  0  0  0  0  0
   -5.4182   -6.2766    5.9185 C   0  0  0  0  0  0  0  0  0  0  0  0
   -6.7237   -6.5663    6.2149 C   0  0  0  0  0  0  0  0  0  0  0  0
   -3.1509   -6.0450    6.7106 O   0  0  0  0  0  0  0  0  0  0  0  0
   -2.7145   -5.5619    5.4642 C   0  0  0  0  0  0  0  0  0  0  0  0
   -3.0993   -4.3265    4.9986 C   0  0  0  0  0  0  0  0  0  0  0  0
   -2.6793   -3.8378    3.7768 C   0  0  0  0  0  0  0  0  0  0  0  0
   -1.8410   -4.6083    2.9818 C   0  0  0  0  0  0  0  0  0  0  0  0
   -1.4570   -5.8466    3.4513 C   0  0  0  0  0  0  0  0  0  0  0  0
   -1.8893   -6.3136    4.6752 C   0  0  0  0  0  0  0  0  0  0  0  0
  -11.9274   -6.4575    8.9186 C   0  0  0  0  0  0  0  0  0  0  0  0
  -11.6940   -5.4064    9.9860 C   0  0  0  0  0  0  0  0  0  0  0  0
  -13.0837   -5.3191   10.6249 C   0  0  0  0  0  0  0  0  0  0  0  0
  -13.7080   -6.6837   10.4313 C   0  0  0  0  0  0  0  0  0  0  0  0
  -12.6923   -7.5099    9.6615 C   0  0  0  0  0  0  0  0  0  0  0  0
  1  2  1  0  0  0
  2  3  2  0  0  0
  3  4  1  0  0  0
  4  5  2  0  0  0
  5  6  1  0  0  0
  6  7  1  0  0  0
  7  8  1  0  0  0
  8  9  2  0  0  0
  9 13  1  0  0  0
 13 14  2  0  0  0
 14 15  1  0  0  0
 15 16  2  0  0  0
 16 19  1  0  0  0
 19 20  1  0  0  0
 20 21  2  0  0  0
 21 22  1  0  0  0
 22 23  2  0  0  0
 23 24  1  0  0  0
 24 25  2  0  0  0
 16 17  1  0  0  0
 17 18  2  0  0  0
  9 10  1  0  0  0
  7 26  1  0  0  0
 26 27  1  0  0  0
 27 28  1  0  0  0
 28 29  1  0  0  0
 29 30  1  0  0  0
 10  2  1  0  0  0
 30 26  1  0  0  0
 10  6  2  0  0  0
 18 13  1  0  0  0
 25 20  1  0  0  0
  1 11  1  0  0  0
  1 12  1  0  0  0
M  END
> <minimizedAffinity>
-7.66391

> <CNNscore>
0.1297594309

> <CNNaffinity>
6.0551052094

> <CNN_VS>
0.7857069969

> <CNNaffinity_variance>
0.1245504767

$$$$
[H]c1nc2c([H])c([H])c([H])c(-c3c([H])nn4c([H])c(-c5c([H])nc(N6C([H])([H])C([H])([H])N([H])C([H])([H])C6([H])[H])c([H])c5[H])c([H])nc34)c2c([H])c1[H]


 32 37  0  0  0  0  0  0  0  0999 V2000
  -12.9222   -9.1263    5.5276 C   0  0  0  0  0  0  0  0  0  0  0  0
  -12.7142  -10.0858    4.5569 C   0  0  0  0  0  0  0  0  0  0  0  0
  -11.6098  -10.8612    4.5539 N   0  0  0  0  0  0  0  0  0  0  0  0
  -10.7056  -10.6876    5.5159 C   0  0  0  0  0  0  0  0  0  0  0  0
   -9.5033  -11.3520    5.7248 C   0  0  0  0  0  0  0  0  0  0  0  0
   -8.9513  -10.7899    6.8554 C   0  0  0  0  0  0  0  0  0  0  0  0
   -9.7795   -9.8350    7.3042 N   0  0  0  0  0  0  0  0  0  0  0  0
  -10.8214   -9.7839    6.4971 N   0  0  0  0  0  0  0  0  0  0  0  0
  -11.9407   -9.0052    6.4915 C   0  0  0  0  0  0  0  0  0  0  0  0
   -8.9664  -12.4497    4.9276 C   0  0  0  0  0  0  0  0  0  0  0  0
   -8.8897  -13.7136    5.5173 C   0  0  0  0  0  0  0  0  0  0  0  0
   -8.3647  -14.8019    4.8436 C   0  0  0  0  0  0  0  0  0  0  0  0
   -7.8972  -14.6645    3.5545 C   0  0  0  0  0  0  0  0  0  0  0  0
   -7.9671  -13.4197    2.9572 C   0  0  0  0  0  0  0  0  0  0  0  0
   -7.5132  -13.3130    1.6960 N   0  0  0  0  0  0  0  0  0  0  0  0
   -7.5560  -12.1396    1.0443 C   0  0  0  0  0  0  0  0  0  0  0  0
   -8.0742  -11.0650    1.7039 C   0  0  0  0  0  0  0  0  0  0  0  0
   -8.5595  -11.1044    3.0039 C   0  0  0  0  0  0  0  0  0  0  0  0
   -8.5012  -12.3208    3.6467 C   0  0  0  0  0  0  0  0  0  0  0  0
  -16.4505   -6.6980    5.5139 C   0  0  0  0  0  0  0  0  0  0  0  0
  -15.2718   -6.2086    6.0237 C   0  0  0  0  0  0  0  0  0  0  0  0
  -14.1176   -7.0023    6.0293 C   0  0  0  0  0  0  0  0  0  0  0  0
  -14.1055   -8.2875    5.5343 C   0  0  0  0  0  0  0  0  0  0  0  0
  -15.3106   -8.7347    5.0340 C   0  0  0  0  0  0  0  0  0  0  0  0
  -16.4095   -7.9715    5.0315 N   0  0  0  0  0  0  0  0  0  0  0  0
  -19.6376   -5.2929    4.3065 C   0  0  0  0  0  0  0  0  0  0  0  0
  -18.7180   -6.4314    4.5974 C   0  0  0  0  0  0  0  0  0  0  0  0
  -17.6501   -5.9525    5.4754 N   0  0  0  0  0  0  0  0  0  0  0  0
  -17.8998   -4.7760    6.2201 C   0  0  0  0  0  0  0  0  0  0  0  0
  -18.2791   -3.5927    5.3459 C   0  0  0  0  0  0  0  0  0  0  0  0
  -18.9994   -4.0142    4.1638 N   0  0  0  0  0  0  0  0  0  0  0  0
  -19.7549   -3.3298    3.9110 H   0  0  0  0  0  0  0  0  0  0  0  0
 26 27  1  0  0  0
 27 28  1  0  0  0
 28 29  1  0  0  0
 29 30  1  0  0  0
 30 31  1  0  0  0
 28 20  1  0  0  0
 20 21  2  0  0  0
 21 22  1  0  0  0
 22 23  2  0  0  0
 23 24  1  0  0  0
 24 25  2  0  0  0
 23  1  1  0  0  0
  1  2  1  0  0  0
  2  3  2  0  0  0
  3  4  1  0  0  0
  4  5  2  0  0  0
  5  6  1  0  0  0
  6  7  2  0  0  0
  7  8  1  0  0  0
  8  9  1  0  0  0
  5 10  1  0  0  0
 10 11  2  0  0  0
 11 12  1  0  0  0
 12 13  2  0  0  0
 13 14  1  0  0  0
 14 15  2  0  0  0
 15 16  1  0  0  0
 16 17  2  0  0  0
 17 18  1  0  0  0
 18 19  2  0  0  0
 31 26  1  0  0  0
 25 20  1  0  0  0
  9  1  2  0  0  0
 19 10  1  0  0  0
  8  4  1  0  0  0
 19 14  1  0  0  0
 31 32  1  0  0  0
M  END
> <minimizedAffinity>
26.04548

> <CNNscore>
0.4047307074

> <CNNaffinity>
6.6617217064

> <CNN_VS>
2.6962032318

> <CNNaffinity_variance>
0.8408421278

$$$$
[H]c1nc2c([H])c([H])c([H])c(-c3c([H])nn4c([H])c(-c5c([H])nc(N6C([H])([H])C([H])([H])N([H])C([H])([H])C6([H])[H])c([H])c5[H])c([H])nc34)c2c([H])c1[H]


 32 37  0  0  0  0  0  0  0  0999 V2000
   -9.3955   -6.7057    7.3979 C   0  0  0  0  0  0  0  0  0  0  0  0
  -10.1043   -6.9349    8.5603 C   0  0  0  0  0  0  0  0  0  0  0  0
  -11.4168   -7.2479    8.5385 N   0  0  0  0  0  0  0  0  0  0  0  0
  -12.0324   -7.3348    7.3609 C   0  0  0  0  0  0  0  0  0  0  0  0
  -13.3596   -7.6367    7.0812 C   0  0  0  0  0  0  0  0  0  0  0  0
  -13.4766   -7.5940    5.7089 C   0  0  0  0  0  0  0  0  0  0  0  0
  -12.2804   -7.2818    5.1887 N   0  0  0  0  0  0  0  0  0  0  0  0
  -11.4281   -7.1299    6.1838 N   0  0  0  0  0  0  0  0  0  0  0  0
  -10.1020   -6.8142    6.2164 C   0  0  0  0  0  0  0  0  0  0  0  0
  -14.3979   -7.9721    8.0499 C   0  0  0  0  0  0  0  0  0  0  0  0
  -14.0100   -8.5887    9.2416 C   0  0  0  0  0  0  0  0  0  0  0  0
  -14.9327   -8.9689   10.1998 C   0  0  0  0  0  0  0  0  0  0  0  0
  -16.2777   -8.7454    9.9998 C   0  0  0  0  0  0  0  0  0  0  0  0
  -16.6770   -8.1353    8.8251 C   0  0  0  0  0  0  0  0  0  0  0  0
  -17.9935   -7.9198    8.6571 N   0  0  0  0  0  0  0  0  0  0  0  0
  -18.4590   -7.3236    7.5475 C   0  0  0  0  0  0  0  0  0  0  0  0
  -17.5530   -6.9459    6.6015 C   0  0  0  0  0  0  0  0  0  0  0  0
  -16.1824   -7.1374    6.7101 C   0  0  0  0  0  0  0  0  0  0  0  0
  -15.7353   -7.7523    7.8582 C   0  0  0  0  0  0  0  0  0  0  0  0
   -5.2260   -5.7313    7.5097 C   0  0  0  0  0  0  0  0  0  0  0  0
   -6.0125   -5.3022    6.4676 C   0  0  0  0  0  0  0  0  0  0  0  0
   -7.3759   -5.6210    6.4298 C   0  0  0  0  0  0  0  0  0  0  0  0
   -7.9855   -6.3657    7.4151 C   0  0  0  0  0  0  0  0  0  0  0  0
   -7.1565   -6.7738    8.4393 C   0  0  0  0  0  0  0  0  0  0  0  0
   -5.8549   -6.4658    8.4695 N   0  0  0  0  0  0  0  0  0  0  0  0
   -2.0735   -4.1122    8.5242 C   0  0  0  0  0  0  0  0  0  0  0  0
   -3.3830   -4.7630    8.8206 C   0  0  0  0  0  0  0  0  0  0  0  0
   -3.8462   -5.4450    7.6118 N   0  0  0  0  0  0  0  0  0  0  0  0
   -2.8753   -5.7657    6.6343 C   0  0  0  0  0  0  0  0  0  0  0  0
   -2.0981   -4.5522    6.1531 C   0  0  0  0  0  0  0  0  0  0  0  0
   -1.9488   -3.5663    7.2016 N   0  0  0  0  0  0  0  0  0  0  0  0
   -1.0087   -3.1001    7.1583 H   0  0  0  0  0  0  0  0  0  0  0  0
 26 27  1  0  0  0
 27 28  1  0  0  0
 28 29  1  0  0  0
 29 30  1  0  0  0
 30 31  1  0  0  0
 28 20  1  0  0  0
 20 21  2  0  0  0
 21 22  1  0  0  0
 22 23  2  0  0  0
 23 24  1  0  0  0
 24 25  2  0  0  0
 23  1  1  0  0  0
  1  2  1  0  0  0
  2  3  2  0  0  0
  3  4  1  0  0  0
  4  5  2  0  0  0
  5  6  1  0  0  0
  6  7  2  0  0  0
  7  8  1  0  0  0
  8  9  1  0  0  0
  5 10  1  0  0  0
 10 11  2  0  0  0
 11 12  1  0  0  0
 12 13  2  0  0  0
 13 14  1  0  0  0
 14 15  2  0  0  0
 15 16  1  0  0  0
 16 17  2  0  0  0
 17 18  1  0  0  0
 18 19  2  0  0  0
 31 26  1  0  0  0
 25 20  1  0  0  0
  9  1  2  0  0  0
 19 10  1  0  0  0
  8  4  1  0  0  0
 19 14  1  0  0  0
 31 32  1  0  0  0
M  END
> <minimizedAffinity>
16.40769

> <CNNscore>
0.3902986050

> <CNNaffinity>
6.6215105057

> <CNN_VS>
2.5843663216

> <CNNaffinity_variance>
2.4234223366

$$$$
[H]c1nc2c([H])c([H])c([H])c(-c3c([H])nn4c([H])c(-c5c([H])nc(N6C([H])([H])C([H])([H])N([H])C([H])([H])C6([H])[H])c([H])c5[H])c([H])nc34)c2c([H])c1[H]


 32 37  0  0  0  0  0  0  0  0999 V2000
   -7.6995   -7.2820    7.2669 C   0  0  0  0  0  0  0  0  0  0  0  0
   -8.7989   -6.5213    7.6116 C   0  0  0  0  0  0  0  0  0  0  0  0
  -10.0313   -7.0625    7.7088 N   0  0  0  0  0  0  0  0  0  0  0  0
  -10.1781   -8.3630    7.4638 C   0  0  0  0  0  0  0  0  0  0  0  0
  -11.3290   -9.1410    7.4966 C   0  0  0  0  0  0  0  0  0  0  0  0
  -10.9326  -10.4181    7.1638 C   0  0  0  0  0  0  0  0  0  0  0  0
   -9.6099  -10.4093    6.9415 N   0  0  0  0  0  0  0  0  0  0  0  0
   -9.1721   -9.1785    7.1236 N   0  0  0  0  0  0  0  0  0  0  0  0
   -7.9308   -8.6223    7.0281 C   0  0  0  0  0  0  0  0  0  0  0  0
  -12.6709   -8.6939    7.8549 C   0  0  0  0  0  0  0  0  0  0  0  0
  -12.9246   -8.3841    9.1930 C   0  0  0  0  0  0  0  0  0  0  0  0
  -14.1767   -7.9835    9.6239 C   0  0  0  0  0  0  0  0  0  0  0  0
  -15.2208   -7.8784    8.7306 C   0  0  0  0  0  0  0  0  0  0  0  0
  -14.9848   -8.1812    7.4024 C   0  0  0  0  0  0  0  0  0  0  0  0
  -16.0168   -8.0623    6.5486 N   0  0  0  0  0  0  0  0  0  0  0  0
  -15.8648   -8.3287    5.2413 C   0  0  0  0  0  0  0  0  0  0  0  0
  -14.6322   -8.7222    4.8121 C   0  0  0  0  0  0  0  0  0  0  0  0
  -13.5252   -8.8655    5.6374 C   0  0  0  0  0  0  0  0  0  0  0  0
  -13.7122   -8.5864    6.9729 C   0  0  0  0  0  0  0  0  0  0  0  0
   -3.7887   -5.5793    6.8764 C   0  0  0  0  0  0  0  0  0  0  0  0
   -4.2727   -5.9327    8.1132 C   0  0  0  0  0  0  0  0  0  0  0  0
   -5.5519   -6.4889    8.2419 C   0  0  0  0  0  0  0  0  0  0  0  0
   -6.3731   -6.7055    7.1576 C   0  0  0  0  0  0  0  0  0  0  0  0
   -5.8447   -6.3351    5.9384 C   0  0  0  0  0  0  0  0  0  0  0  0
   -4.6221   -5.8043    5.8223 N   0  0  0  0  0  0  0  0  0  0  0  0
   -1.0613   -3.1044    6.7186 C   0  0  0  0  0  0  0  0  0  0  0  0
   -2.1763   -3.8031    7.4221 C   0  0  0  0  0  0  0  0  0  0  0  0
   -2.5089   -5.0158    6.6741 N   0  0  0  0  0  0  0  0  0  0  0  0
   -1.5221   -5.5327    5.8023 C   0  0  0  0  0  0  0  0  0  0  0  0
   -1.0600   -4.5214    4.7671 C   0  0  0  0  0  0  0  0  0  0  0  0
   -1.1076   -3.1710    5.2846 N   0  0  0  0  0  0  0  0  0  0  0  0
   -0.3015   -2.5970    4.9327 H   0  0  0  0  0  0  0  0  0  0  0  0
 26 27  1  0  0  0
 27 28  1  0  0  0
 28 29  1  0  0  0
 29 30  1  0  0  0
 30 31  1  0  0  0
 28 20  1  0  0  0
 20 21  2  0  0  0
 21 22  1  0  0  0
 22 23  2  0  0  0
 23 24  1  0  0  0
 24 25  2  0  0  0
 23  1  1  0  0  0
  1  2  1  0  0  0
  2  3  2  0  0  0
  3  4  1  0  0  0
  4  5  2  0  0  0
  5  6  1  0  0  0
  6  7  2  0  0  0
  7  8  1  0  0  0
  8  9  1  0  0  0
  5 10  1  0  0  0
 10 11  2  0  0  0
 11 12  1  0  0  0
 12 13  2  0  0  0
 13 14  1  0  0  0
 14 15  2  0  0  0
 15 16  1  0  0  0
 16 17  2  0  0  0
 17 18  1  0  0  0
 18 19  2  0  0  0
 31 26  1  0  0  0
 25 20  1  0  0  0
  9  1  2  0  0  0
 19 10  1  0  0  0
  8  4  1  0  0  0
 19 14  1  0  0  0
 31 32  1  0  0  0
M  END
> <minimizedAffinity>
-8.88406

> <CNNscore>
0.3847543299

> <CNNaffinity>
6.9021234512

> <CNN_VS>
2.6556217670

> <CNNaffinity_variance>
0.1666378081

$$$$
[H]c1nc2c([H])c([H])c([H])c(-c3c([H])nn4c([H])c(-c5c([H])nc(N6C([H])([H])C([H])([H])N([H])C([H])([H])C6([H])[H])c([H])c5[H])c([H])nc34)c2c([H])c1[H]


 32 37  0  0  0  0  0  0  0  0999 V2000
  -11.9594   -7.6458    7.2424 C   0  0  0  0  0  0  0  0  0  0  0  0
  -12.4811   -8.3680    6.1876 C   0  0  0  0  0  0  0  0  0  0  0  0
  -13.8005   -8.3534    5.9044 N   0  0  0  0  0  0  0  0  0  0  0  0
  -14.6089   -7.6210    6.6679 C   0  0  0  0  0  0  0  0  0  0  0  0
  -15.9848   -7.4472    6.5803 C   0  0  0  0  0  0  0  0  0  0  0  0
  -16.3250   -6.5942    7.6077 C   0  0  0  0  0  0  0  0  0  0  0  0
  -15.2103   -6.2712    8.2801 N   0  0  0  0  0  0  0  0  0  0  0  0
  -14.1943   -6.8896    7.7100 N   0  0  0  0  0  0  0  0  0  0  0  0
  -12.8596   -6.9108    7.9881 C   0  0  0  0  0  0  0  0  0  0  0  0
  -16.8714   -8.0213    5.5738 C   0  0  0  0  0  0  0  0  0  0  0  0
  -16.4370   -8.0348    4.2464 C   0  0  0  0  0  0  0  0  0  0  0  0
  -17.2276   -8.5312    3.2254 C   0  0  0  0  0  0  0  0  0  0  0  0
  -18.4824   -9.0324    3.4962 C   0  0  0  0  0  0  0  0  0  0  0  0
  -18.9261   -9.0264    4.8056 C   0  0  0  0  0  0  0  0  0  0  0  0
  -20.1499   -9.5291    5.0458 N   0  0  0  0  0  0  0  0  0  0  0  0
  -20.6475   -9.5673    6.2925 C   0  0  0  0  0  0  0  0  0  0  0  0
  -19.8711   -9.0807    7.3017 C   0  0  0  0  0  0  0  0  0  0  0  0
  -18.6012   -8.5486    7.1251 C   0  0  0  0  0  0  0  0  0  0  0  0
  -18.1184   -8.5217    5.8357 C   0  0  0  0  0  0  0  0  0  0  0  0
   -7.7709   -7.7489    8.1325 C   0  0  0  0  0  0  0  0  0  0  0  0
   -8.5507   -6.7083    8.5773 C   0  0  0  0  0  0  0  0  0  0  0  0
   -9.9204   -6.6734    8.2860 C   0  0  0  0  0  0  0  0  0  0  0  0
  -10.5428   -7.6600    7.5538 C   0  0  0  0  0  0  0  0  0  0  0  0
   -9.7201   -8.6827    7.1292 C   0  0  0  0  0  0  0  0  0  0  0  0
   -8.4125   -8.7101    7.4108 N   0  0  0  0  0  0  0  0  0  0  0  0
   -4.3602   -6.8619    9.2139 C   0  0  0  0  0  0  0  0  0  0  0  0
   -5.8289   -6.9948    9.4411 C   0  0  0  0  0  0  0  0  0  0  0  0
   -6.3854   -7.8481    8.3909 N   0  0  0  0  0  0  0  0  0  0  0  0
   -5.4917   -8.7089    7.7116 C   0  0  0  0  0  0  0  0  0  0  0  0
   -4.3300   -7.9684    7.0712 C   0  0  0  0  0  0  0  0  0  0  0  0
   -3.9591   -6.7975    7.8363 N   0  0  0  0  0  0  0  0  0  0  0  0
   -2.9190   -6.6521    7.8344 H   0  0  0  0  0  0  0  0  0  0  0  0
 26 27  1  0  0  0
 27 28  1  0  0  0
 28 29  1  0  0  0
 29 30  1  0  0  0
 30 31  1  0  0  0
 28 20  1  0  0  0
 20 21  2  0  0  0
 21 22  1  0  0  0
 22 23  2  0  0  0
 23 24  1  0  0  0
 24 25  2  0  0  0
 23  1  1  0  0  0
  1  2  1  0  0  0
  2  3  2  0  0  0
  3  4  1  0  0  0
  4  5  2  0  0  0
  5  6  1  0  0  0
  6  7  2  0  0  0
  7  8  1  0  0  0
  8  9  1  0  0  0
  5 10  1  0  0  0
 10 11  2  0  0  0
 11 12  1  0  0  0
 12 13  2  0  0  0
 13 14  1  0  0  0
 14 15  2  0  0  0
 15 16  1  0  0  0
 16 17  2  0  0  0
 17 18  1  0  0  0
 18 19  2  0  0  0
 31 26  1  0  0  0
 25 20  1  0  0  0
  9  1  2  0  0  0
 19 10  1  0  0  0
  8  4  1  0  0  0
 19 14  1  0  0  0
 31 32  1  0  0  0
M  END
> <minimizedAffinity>
7.58368

> <CNNscore>
0.3662645221

> <CNNaffinity>
6.7155151367

> <CNN_VS>
2.4596550465

> <CNNaffinity_variance>
1.2389501333

$$$$
[H]c1nc2c([H])c([H])c([H])c(-c3c([H])nn4c([H])c(-c5c([H])nc(N6C([H])([H])C([H])([H])N([H])C([H])([H])C6([H])[H])c([H])c5[H])c([H])nc34)c2c([H])c1[H]


 32 37  0  0  0  0  0  0  0  0999 V2000
  -12.3285   -9.3475    4.9766 C   0  0  0  0  0  0  0  0  0  0  0  0
  -12.0702  -10.2448    3.9596 C   0  0  0  0  0  0  0  0  0  0  0  0
  -11.0369  -11.1103    4.0253 N   0  0  0  0  0  0  0  0  0  0  0  0
  -10.2543  -11.0890    5.1025 C   0  0  0  0  0  0  0  0  0  0  0  0
   -9.1432  -11.8688    5.3993 C   0  0  0  0  0  0  0  0  0  0  0  0
   -8.7012  -11.4440    6.6335 C   0  0  0  0  0  0  0  0  0  0  0  0
   -9.5054  -10.4580    7.0579 N   0  0  0  0  0  0  0  0  0  0  0  0
  -10.4271  -10.2559    6.1364 N   0  0  0  0  0  0  0  0  0  0  0  0
  -11.4738   -9.3853    6.0605 C   0  0  0  0  0  0  0  0  0  0  0  0
   -8.5928  -12.9450    4.5823 C   0  0  0  0  0  0  0  0  0  0  0  0
   -8.3547  -14.1780    5.1938 C   0  0  0  0  0  0  0  0  0  0  0  0
   -7.8052  -15.2417    4.5006 C   0  0  0  0  0  0  0  0  0  0  0  0
   -7.4739  -15.1097    3.1695 C   0  0  0  0  0  0  0  0  0  0  0  0
   -7.7042  -13.8953    2.5502 C   0  0  0  0  0  0  0  0  0  0  0  0
   -7.3812  -13.7940    1.2489 N   0  0  0  0  0  0  0  0  0  0  0  0
   -7.5838  -12.6504    0.5747 C   0  0  0  0  0  0  0  0  0  0  0  0
   -8.1267  -11.6003    1.2536 C   0  0  0  0  0  0  0  0  0  0  0  0
   -8.4830  -11.6358    2.5948 C   0  0  0  0  0  0  0  0  0  0  0  0
   -8.2623  -12.8213    3.2597 C   0  0  0  0  0  0  0  0  0  0  0  0
  -15.5854   -6.5780    4.7142 C   0  0  0  0  0  0  0  0  0  0  0  0
  -15.2190   -7.1072    5.9285 C   0  0  0  0  0  0  0  0  0  0  0  0
  -14.1545   -8.0136    6.0151 C   0  0  0  0  0  0  0  0  0  0  0  0
  -13.4354   -8.4125    4.9103 C   0  0  0  0  0  0  0  0  0  0  0  0
  -13.8397   -7.8554    3.7149 C   0  0  0  0  0  0  0  0  0  0  0  0
  -14.8573   -6.9902    3.6389 N   0  0  0  0  0  0  0  0  0  0  0  0
  -17.3967   -3.4094    4.1959 C   0  0  0  0  0  0  0  0  0  0  0  0
  -16.3694   -4.4243    3.8202 C   0  0  0  0  0  0  0  0  0  0  0  0
  -16.6465   -5.6588    4.5548 N   0  0  0  0  0  0  0  0  0  0  0  0
  -17.9586   -5.8385    5.0519 C   0  0  0  0  0  0  0  0  0  0  0  0
  -18.4063   -4.7065    5.9608 C   0  0  0  0  0  0  0  0  0  0  0  0
  -17.8157   -3.4448    5.5692 N   0  0  0  0  0  0  0  0  0  0  0  0
  -18.4904   -2.6500    5.6962 H   0  0  0  0  0  0  0  0  0  0  0  0
 26 27  1  0  0  0
 27 28  1  0  0  0
 28 29  1  0  0  0
 29 30  1  0  0  0
 30 31  1  0  0  0
 28 20  1  0  0  0
 20 21  2  0  0  0
 21 22  1  0  0  0
 22 23  2  0  0  0
 23 24  1  0  0  0
 24 25  2  0  0  0
 23  1  1  0  0  0
  1  2  1  0  0  0
  2  3  2  0  0  0
  3  4  1  0  0  0
  4  5  2  0  0  0
  5  6  1  0  0  0
  6  7  2  0  0  0
  7  8  1  0  0  0
  8  9  1  0  0  0
  5 10  1  0  0  0
 10 11  2  0  0  0
 11 12  1  0  0  0
 12 13  2  0  0  0
 13 14  1  0  0  0
 14 15  2  0  0  0
 15 16  1  0  0  0
 16 17  2  0  0  0
 17 18  1  0  0  0
 18 19  2  0  0  0
 31 26  1  0  0  0
 25 20  1  0  0  0
  9  1  2  0  0  0
 19 10  1  0  0  0
  8  4  1  0  0  0
 19 14  1  0  0  0
 31 32  1  0  0  0
M  END
> <minimizedAffinity>
37.48361

> <CNNscore>
0.3660804629

> <CNNaffinity>
6.4692535400

> <CNN_VS>
2.3682672977

> <CNNaffinity_variance>
0.5902122259

$$$$
[H]c1nc2c([H])c([H])c([H])c(-c3c([H])nn4c([H])c(-c5c([H])nc(N6C([H])([H])C([H])([H])N([H])C([H])([H])C6([H])[H])c([H])c5[H])c([H])nc34)c2c([H])c1[H]


 32 37  0  0  0  0  0  0  0  0999 V2000
  -15.9784   -6.0638    5.9985 C   0  0  0  0  0  0  0  0  0  0  0  0
  -14.8068   -6.2326    5.2878 C   0  0  0  0  0  0  0  0  0  0  0  0
  -13.7749   -6.9466    5.7842 N   0  0  0  0  0  0  0  0  0  0  0  0
  -13.9015   -7.4971    6.9900 C   0  0  0  0  0  0  0  0  0  0  0  0
  -12.9927   -8.2655    7.7072 C   0  0  0  0  0  0  0  0  0  0  0  0
  -13.6175   -8.5820    8.8939 C   0  0  0  0  0  0  0  0  0  0  0  0
  -14.8407   -8.0316    8.8914 N   0  0  0  0  0  0  0  0  0  0  0  0
  -14.9977   -7.3877    7.7510 N   0  0  0  0  0  0  0  0  0  0  0  0
  -16.0349   -6.6643    7.2407 C   0  0  0  0  0  0  0  0  0  0  0  0
  -11.6664   -8.6824    7.2645 C   0  0  0  0  0  0  0  0  0  0  0  0
  -11.5432   -9.9252    6.6389 C   0  0  0  0  0  0  0  0  0  0  0  0
  -10.3185  -10.4110    6.2171 C   0  0  0  0  0  0  0  0  0  0  0  0
   -9.1721   -9.6701    6.4063 C   0  0  0  0  0  0  0  0  0  0  0  0
   -9.2781   -8.4376    7.0236 C   0  0  0  0  0  0  0  0  0  0  0  0
   -8.1469   -7.7296    7.1886 N   0  0  0  0  0  0  0  0  0  0  0  0
   -8.1690   -6.5197    7.7706 C   0  0  0  0  0  0  0  0  0  0  0  0
   -9.3741   -6.0365    8.1862 C   0  0  0  0  0  0  0  0  0  0  0  0
  -10.5783   -6.7128    8.0475 C   0  0  0  0  0  0  0  0  0  0  0  0
  -10.5238   -7.9514    7.4482 C   0  0  0  0  0  0  0  0  0  0  0  0
  -19.3030   -3.8300    4.4809 C   0  0  0  0  0  0  0  0  0  0  0  0
  -18.0342   -3.5965    4.0071 C   0  0  0  0  0  0  0  0  0  0  0  0
  -16.9463   -4.3260    4.5034 C   0  0  0  0  0  0  0  0  0  0  0  0
  -17.0897   -5.2948    5.4718 C   0  0  0  0  0  0  0  0  0  0  0  0
  -18.3804   -5.4933    5.9162 C   0  0  0  0  0  0  0  0  0  0  0  0
  -19.4153   -4.7931    5.4380 N   0  0  0  0  0  0  0  0  0  0  0  0
  -21.5127   -1.7884    2.3506 C   0  0  0  0  0  0  0  0  0  0  0  0
  -20.5840   -2.9331    2.5816 C   0  0  0  0  0  0  0  0  0  0  0  0
  -20.4441   -3.1331    4.0242 N   0  0  0  0  0  0  0  0  0  0  0  0
  -21.4638   -2.6114    4.8544 C   0  0  0  0  0  0  0  0  0  0  0  0
  -21.6768   -1.1196    4.6619 C   0  0  0  0  0  0  0  0  0  0  0  0
  -21.4063   -0.7152    3.2992 N   0  0  0  0  0  0  0  0  0  0  0  0
  -22.0729    0.0316    2.9814 H   0  0  0  0  0  0  0  0  0  0  0  0
 26 27  1  0  0  0
 27 28  1  0  0  0
 28 29  1  0  0  0
 29 30  1  0  0  0
 30 31  1  0  0  0
 28 20  1  0  0  0
 20 21  2  0  0  0
 21 22  1  0  0  0
 22 23  2  0  0  0
 23 24  1  0  0  0
 24 25  2  0  0  0
 23  1  1  0  0  0
  1  2  1  0  0  0
  2  3  2  0  0  0
  3  4  1  0  0  0
  4  5  2  0  0  0
  5  6  1  0  0  0
  6  7  2  0  0  0
  7  8  1  0  0  0
  8  9  1  0  0  0
  5 10  1  0  0  0
 10 11  2  0  0  0
 11 12  1  0  0  0
 12 13  2  0  0  0
 13 14  1  0  0  0
 14 15  2  0  0  0
 15 16  1  0  0  0
 16 17  2  0  0  0
 17 18  1  0  0  0
 18 19  2  0  0  0
 31 26  1  0  0  0
 25 20  1  0  0  0
  9  1  2  0  0  0
 19 10  1  0  0  0
  8  4  1  0  0  0
 19 14  1  0  0  0
 31 32  1  0  0  0
M  END
> <minimizedAffinity>
18.04473

> <CNNscore>
0.3271240592

> <CNNaffinity>
7.0908813477

> <CNN_VS>
2.3195979595

> <CNNaffinity_variance>
0.8678878546

$$$$
[H]c1nc2c([H])c([H])c([H])c(-c3c([H])nn4c([H])c(-c5c([H])nc(N6C([H])([H])C([H])([H])N([H])C([H])([H])C6([H])[H])c([H])c5[H])c([H])nc34)c2c([H])c1[H]


 32 37  0  0  0  0  0  0  0  0999 V2000
  -11.3589   -7.2600    8.4167 C   0  0  0  0  0  0  0  0  0  0  0  0
  -12.4254   -6.4100    8.2015 C   0  0  0  0  0  0  0  0  0  0  0  0
  -13.4281   -6.7326    7.3580 N   0  0  0  0  0  0  0  0  0  0  0  0
  -13.3767   -7.9022    6.7235 C   0  0  0  0  0  0  0  0  0  0  0  0
  -14.2746   -8.4526    5.8171 C   0  0  0  0  0  0  0  0  0  0  0  0
  -13.7512   -9.6766    5.4612 C   0  0  0  0  0  0  0  0  0  0  0  0
  -12.5963   -9.8540    6.1199 N   0  0  0  0  0  0  0  0  0  0  0  0
  -12.3843   -8.7892    6.8689 N   0  0  0  0  0  0  0  0  0  0  0  0
  -11.3759   -8.4541    7.7233 C   0  0  0  0  0  0  0  0  0  0  0  0
  -15.5338   -7.8638    5.3739 C   0  0  0  0  0  0  0  0  0  0  0  0
  -16.6875   -8.6478    5.4474 C   0  0  0  0  0  0  0  0  0  0  0  0
  -17.9164   -8.1788    5.0187 C   0  0  0  0  0  0  0  0  0  0  0  0
  -18.0351   -6.9074    4.5006 C   0  0  0  0  0  0  0  0  0  0  0  0
  -16.9021   -6.1191    4.4220 C   0  0  0  0  0  0  0  0  0  0  0  0
  -17.0451   -4.8794    3.9215 N   0  0  0  0  0  0  0  0  0  0  0  0
  -15.9937   -4.0500    3.8218 C   0  0  0  0  0  0  0  0  0  0  0  0
  -14.7812   -4.5076    4.2447 C   0  0  0  0  0  0  0  0  0  0  0  0
  -14.5627   -5.7735    4.7707 C   0  0  0  0  0  0  0  0  0  0  0  0
  -15.6593   -6.6016    4.8592 C   0  0  0  0  0  0  0  0  0  0  0  0
   -8.1185   -6.2789   11.0404 C   0  0  0  0  0  0  0  0  0  0  0  0
   -9.4128   -5.9788   11.3918 C   0  0  0  0  0  0  0  0  0  0  0  0
  -10.4731   -6.2986   10.5341 C   0  0  0  0  0  0  0  0  0  0  0  0
  -10.2765   -6.9174    9.3194 C   0  0  0  0  0  0  0  0  0  0  0  0
   -8.9619   -7.1984    9.0103 C   0  0  0  0  0  0  0  0  0  0  0  0
   -7.9536   -6.8903    9.8340 N   0  0  0  0  0  0  0  0  0  0  0  0
   -4.7316   -6.4254   12.4884 C   0  0  0  0  0  0  0  0  0  0  0  0
   -5.6768   -6.3218   11.3385 C   0  0  0  0  0  0  0  0  0  0  0  0
   -7.0033   -5.9866   11.8571 N   0  0  0  0  0  0  0  0  0  0  0  0
   -7.0687   -5.3950   13.1404 C   0  0  0  0  0  0  0  0  0  0  0  0
   -6.4053   -6.2396   14.2149 C   0  0  0  0  0  0  0  0  0  0  0  0
   -5.2873   -6.9907   13.6861 N   0  0  0  0  0  0  0  0  0  0  0  0
   -4.5019   -7.0494   14.3809 H   0  0  0  0  0  0  0  0  0  0  0  0
 26 27  1  0  0  0
 27 28  1  0  0  0
 28 29  1  0  0  0
 29 30  1  0  0  0
 30 31  1  0  0  0
 28 20  1  0  0  0
 20 21  2  0  0  0
 21 22  1  0  0  0
 22 23  2  0  0  0
 23 24  1  0  0  0
 24 25  2  0  0  0
 23  1  1  0  0  0
  1  2  1  0  0  0
  2  3  2  0  0  0
  3  4  1  0  0  0
  4  5  2  0  0  0
  5  6  1  0  0  0
  6  7  2  0  0  0
  7  8  1  0  0  0
  8  9  1  0  0  0
  5 10  1  0  0  0
 10 11  2  0  0  0
 11 12  1  0  0  0
 12 13  2  0  0  0
 13 14  1  0  0  0
 14 15  2  0  0  0
 15 16  1  0  0  0
 16 17  2  0  0  0
 17 18  1  0  0  0
 18 19  2  0  0  0
 31 26  1  0  0  0
 25 20  1  0  0  0
  9  1  2  0  0  0
 19 10  1  0  0  0
  8  4  1  0  0  0
 19 14  1  0  0  0
 31 32  1  0  0  0
M  END
> <minimizedAffinity>
8.18374

> <CNNscore>
0.2971058786

> <CNNaffinity>
6.6167097092

> <CNN_VS>
1.9658633471

> <CNNaffinity_variance>
0.9429767728

$$$$
[H]c1nc2c([H])c([H])c([H])c(-c3c([H])nn4c([H])c(-c5c([H])nc(N6C([H])([H])C([H])([H])N([H])C([H])([H])C6([H])[H])c([H])c5[H])c([H])nc34)c2c([H])c1[H]


 32 37  0  0  0  0  0  0  0  0999 V2000
   -8.0703   -7.4616    7.3606 C   0  0  0  0  0  0  0  0  0  0  0  0
   -9.1766   -6.6908    7.6574 C   0  0  0  0  0  0  0  0  0  0  0  0
  -10.4223   -7.2098    7.6524 N   0  0  0  0  0  0  0  0  0  0  0  0
  -10.5756   -8.4980    7.3523 C   0  0  0  0  0  0  0  0  0  0  0  0
  -11.7399   -9.2530    7.2803 C   0  0  0  0  0  0  0  0  0  0  0  0
  -11.3449  -10.5258    6.9300 C   0  0  0  0  0  0  0  0  0  0  0  0
  -10.0102  -10.5364    6.7975 N   0  0  0  0  0  0  0  0  0  0  0  0
   -9.5637   -9.3217    7.0519 N   0  0  0  0  0  0  0  0  0  0  0  0
   -8.3090   -8.7880    7.0596 C   0  0  0  0  0  0  0  0  0  0  0  0
  -13.0947   -8.7912    7.5633 C   0  0  0  0  0  0  0  0  0  0  0  0
  -13.4293   -8.5103    8.8900 C   0  0  0  0  0  0  0  0  0  0  0  0
  -14.6999   -8.0983    9.2500 C   0  0  0  0  0  0  0  0  0  0  0  0
  -15.6823   -7.9524    8.2946 C   0  0  0  0  0  0  0  0  0  0  0  0
  -15.3660   -8.2262    6.9768 C   0  0  0  0  0  0  0  0  0  0  0  0
  -16.3386   -8.0676    6.0620 N   0  0  0  0  0  0  0  0  0  0  0  0
  -16.1069   -8.3041    4.7606 C   0  0  0  0  0  0  0  0  0  0  0  0
  -14.8556   -8.7087    4.4013 C   0  0  0  0  0  0  0  0  0  0  0  0
  -13.8067   -8.8922    5.2919 C   0  0  0  0  0  0  0  0  0  0  0  0
  -14.0750   -8.6431    6.6194 C   0  0  0  0  0  0  0  0  0  0  0  0
   -4.1117   -5.8273    7.4301 C   0  0  0  0  0  0  0  0  0  0  0  0
   -4.7526   -6.0460    6.2342 C   0  0  0  0  0  0  0  0  0  0  0  0
   -6.0469   -6.5811    6.2105 C   0  0  0  0  0  0  0  0  0  0  0  0
   -6.7293   -6.9089    7.3611 C   0  0  0  0  0  0  0  0  0  0  0  0
   -6.0461   -6.6721    8.5358 C   0  0  0  0  0  0  0  0  0  0  0  0
   -4.8099   -6.1607    8.5516 N   0  0  0  0  0  0  0  0  0  0  0  0
   -1.0603   -4.3357    8.8630 C   0  0  0  0  0  0  0  0  0  0  0  0
   -2.1389   -5.3661    8.8258 C   0  0  0  0  0  0  0  0  0  0  0  0
   -2.8087   -5.2896    7.5272 N   0  0  0  0  0  0  0  0  0  0  0  0
   -2.0998   -4.6808    6.4653 C   0  0  0  0  0  0  0  0  0  0  0  0
   -1.6566   -3.2636    6.7866 C   0  0  0  0  0  0  0  0  0  0  0  0
   -1.3712   -3.1023    8.1960 N   0  0  0  0  0  0  0  0  0  0  0  0
   -0.5514   -2.4643    8.3505 H   0  0  0  0  0  0  0  0  0  0  0  0
 26 27  1  0  0  0
 27 28  1  0  0  0
 28 29  1  0  0  0
 29 30  1  0  0  0
 30 31  1  0  0  0
 28 20  1  0  0  0
 20 21  2  0  0  0
 21 22  1  0  0  0
 22 23  2  0  0  0
 23 24  1  0  0  0
 24 25  2  0  0  0
 23  1  1  0  0  0
  1  2  1  0  0  0
  2  3  2  0  0  0
  3  4  1  0  0  0
  4  5  2  0  0  0
  5  6  1  0  0  0
  6  7  2  0  0  0
  7  8  1  0  0  0
  8  9  1  0  0  0
  5 10  1  0  0  0
 10 11  2  0  0  0
 11 12  1  0  0  0
 12 13  2  0  0  0
 13 14  1  0  0  0
 14 15  2  0  0  0
 15 16  1  0  0  0
 16 17  2  0  0  0
 17 18  1  0  0  0
 18 19  2  0  0  0
 31 26  1  0  0  0
 25 20  1  0  0  0
  9  1  2  0  0  0
 19 10  1  0  0  0
  8  4  1  0  0  0
 19 14  1  0  0  0
 31 32  1  0  0  0
M  END
> <minimizedAffinity>
-8.64203

> <CNNscore>
0.2753214240

> <CNNaffinity>
6.8595862389

> <CNN_VS>
1.8885910511

> <CNNaffinity_variance>
0.1299002469

$$$$
[H]c1nc2c([H])c([H])c([H])c(-c3c([H])nn4c([H])c(-c5c([H])nc(N6C([H])([H])C([H])([H])N([H])C([H])([H])C6([H])[H])c([H])c5[H])c([H])nc34)c2c([H])c1[H]


 32 37  0  0  0  0  0  0  0  0999 V2000
   -5.3149   -6.4348    7.8196 C   0  0  0  0  0  0  0  0  0  0  0  0
   -5.2124   -6.2532    9.1844 C   0  0  0  0  0  0  0  0  0  0  0  0
   -4.3808   -5.3323    9.7150 N   0  0  0  0  0  0  0  0  0  0  0  0
   -3.6462   -4.5865    8.8920 C   0  0  0  0  0  0  0  0  0  0  0  0
   -2.7286   -3.5872    9.1919 C   0  0  0  0  0  0  0  0  0  0  0  0
   -2.2497   -3.1368    7.9808 C   0  0  0  0  0  0  0  0  0  0  0  0
   -2.8487   -3.8304    7.0013 N   0  0  0  0  0  0  0  0  0  0  0  0
   -3.6787   -4.6913    7.5576 N   0  0  0  0  0  0  0  0  0  0  0  0
   -4.5221   -5.6245    7.0311 C   0  0  0  0  0  0  0  0  0  0  0  0
   -2.3834   -3.0937   10.5209 C   0  0  0  0  0  0  0  0  0  0  0  0
   -2.4645   -1.7187   10.7526 C   0  0  0  0  0  0  0  0  0  0  0  0
   -2.1250   -1.1638   11.9735 C   0  0  0  0  0  0  0  0  0  0  0  0
   -1.6919   -1.9655   13.0074 C   0  0  0  0  0  0  0  0  0  0  0  0
   -1.6071   -3.3287   12.7933 C   0  0  0  0  0  0  0  0  0  0  0  0
   -1.1908   -4.0908   13.8199 N   0  0  0  0  0  0  0  0  0  0  0  0
   -1.0914   -5.4240   13.6935 C   0  0  0  0  0  0  0  0  0  0  0  0
   -1.4265   -5.9751   12.4926 C   0  0  0  0  0  0  0  0  0  0  0  0
   -1.8630   -5.2489   11.3930 C   0  0  0  0  0  0  0  0  0  0  0  0
   -1.9535   -3.8842   11.5524 C   0  0  0  0  0  0  0  0  0  0  0  0
   -7.9595   -9.3788    6.1809 C   0  0  0  0  0  0  0  0  0  0  0  0
   -7.1606   -8.6252    5.3547 C   0  0  0  0  0  0  0  0  0  0  0  0
   -6.2960   -7.6616    5.8896 C   0  0  0  0  0  0  0  0  0  0  0  0
   -6.2044   -7.4251    7.2434 C   0  0  0  0  0  0  0  0  0  0  0  0
   -7.0248   -8.2049    8.0318 C   0  0  0  0  0  0  0  0  0  0  0  0
   -7.8484   -9.1236    7.5146 N   0  0  0  0  0  0  0  0  0  0  0  0
  -10.0958  -12.3818    6.0931 C   0  0  0  0  0  0  0  0  0  0  0  0
   -9.6399  -11.0983    6.7024 C   0  0  0  0  0  0  0  0  0  0  0  0
   -8.8520  -10.3675    5.7095 N   0  0  0  0  0  0  0  0  0  0  0  0
   -9.0432  -10.7078    4.3499 C   0  0  0  0  0  0  0  0  0  0  0  0
   -8.7991  -12.1809    4.0696 C   0  0  0  0  0  0  0  0  0  0  0  0
   -9.1539  -13.0043    5.2053 N   0  0  0  0  0  0  0  0  0  0  0  0
   -9.5855  -13.9120    4.9008 H   0  0  0  0  0  0  0  0  0  0  0  0
 26 27  1  0  0  0
 27 28  1  0  0  0
 28 29  1  0  0  0
 29 30  1  0  0  0
 30 31  1  0  0  0
 28 20  1  0  0  0
 20 21  2  0  0  0
 21 22  1  0  0  0
 22 23  2  0  0  0
 23 24  1  0  0  0
 24 25  2  0  0  0
 23  1  1  0  0  0
  1  2  1  0  0  0
  2  3  2  0  0  0
  3  4  1  0  0  0
  4  5  2  0  0  0
  5  6  1  0  0  0
  6  7  2  0  0  0
  7  8  1  0  0  0
  8  9  1  0  0  0
  5 10  1  0  0  0
 10 11  2  0  0  0
 11 12  1  0  0  0
 12 13  2  0  0  0
 13 14  1  0  0  0
 14 15  2  0  0  0
 15 16  1  0  0  0
 16 17  2  0  0  0
 17 18  1  0  0  0
 18 19  2  0  0  0
 31 26  1  0  0  0
 25 20  1  0  0  0
  9  1  2  0  0  0
 19 10  1  0  0  0
  8  4  1  0  0  0
 19 14  1  0  0  0
 31 32  1  0  0  0
M  END
> <minimizedAffinity>
9.48991

> <CNNscore>
0.2571484447

> <CNNaffinity>
5.8693246841

> <CNN_VS>
1.5092877150

> <CNNaffinity_variance>
0.8086791039

$$$$
[H]c1nc([H])c(-c2c(OC([H])(C([H])([H])[H])C([H])([H])[H])nc3sc(N([H])C(=O)N([H])C([H])([H])C([H])([H])[H])nc3c2[H])c([H])c1[H]


 27 29  0  0  0  0  0  0  0  0999 V2000
   -6.8947   -8.7824    5.4726 C   0  0  0  0  0  0  0  0  0  0  0  0
   -6.2041   -7.7289    5.0816 N   0  0  0  0  0  0  0  0  0  0  0  0
   -5.5208   -7.0384    5.9457 C   0  0  0  0  0  0  0  0  0  0  0  0
   -4.7304   -5.8952    5.7203 C   0  0  0  0  0  0  0  0  0  0  0  0
   -4.0555   -5.2543    6.7194 C   0  0  0  0  0  0  0  0  0  0  0  0
   -4.1279   -5.7176    8.0161 C   0  0  0  0  0  0  0  0  0  0  0  0
   -4.8775   -6.8096    8.2571 N   0  0  0  0  0  0  0  0  0  0  0  0
   -5.5533   -7.4507    7.2532 C   0  0  0  0  0  0  0  0  0  0  0  0
   -6.5758   -8.8192    7.1518 S   0  0  0  0  0  0  0  0  0  0  0  0
   -8.1208  -10.9392    2.6336 N   0  0  0  0  0  0  0  0  0  0  0  0
   -7.3047  -10.0688    3.3822 C   0  0  0  0  0  0  0  0  0  0  0  0
   -6.2224   -9.6553    2.8793 O   0  0  0  0  0  0  0  0  0  0  0  0
   -7.7084   -9.6720    4.6826 N   0  0  0  0  0  0  0  0  0  0  0  0
   -9.0107  -11.2882    3.0289 H   0  0  0  0  0  0  0  0  0  0  0  0
   -8.5812  -10.0122    5.0744 H   0  0  0  0  0  0  0  0  0  0  0  0
   -7.9299  -12.8322    1.1513 C   0  0  0  0  0  0  0  0  0  0  0  0
   -7.7185  -11.3447    1.3177 C   0  0  0  0  0  0  0  0  0  0  0  0
   -3.2332   -4.0541    6.4099 C   0  0  0  0  0  0  0  0  0  0  0  0
   -3.8444   -2.8871    6.0680 C   0  0  0  0  0  0  0  0  0  0  0  0
   -3.0774   -1.7748    5.7753 C   0  0  0  0  0  0  0  0  0  0  0  0
   -1.7067   -1.8945    5.8424 C   0  0  0  0  0  0  0  0  0  0  0  0
   -1.1355   -3.0554    6.1815 N   0  0  0  0  0  0  0  0  0  0  0  0
   -1.8675   -4.1247    6.4630 C   0  0  0  0  0  0  0  0  0  0  0  0
   -3.4382   -5.0503    8.9991 O   0  0  0  0  0  0  0  0  0  0  0  0
   -4.1543   -4.2272    9.8870 C   0  0  0  0  0  0  0  0  0  0  0  0
   -3.5122   -2.8744    9.9728 C   0  0  0  0  0  0  0  0  0  0  0  0
   -4.1336   -4.9254   11.2445 C   0  0  0  0  0  0  0  0  0  0  0  0
 16 17  1  0  0  0
 17 10  1  0  0  0
 10 11  1  0  0  0
 11 12  2  0  0  0
 11 13  1  0  0  0
 13  1  1  0  0  0
  1  2  2  0  0  0
  2  3  1  0  0  0
  3  4  2  0  0  0
  4  5  1  0  0  0
  5 18  1  0  0  0
 18 19  2  0  0  0
 19 20  1  0  0  0
 20 21  2  0  0  0
 21 22  1  0  0  0
 22 23  2  0  0  0
  5  6  2  0  0  0
  6 24  1  0  0  0
 24 25  1  0  0  0
 25 26  1  0  0  0
 25 27  1  0  0  0
  6  7  1  0  0  0
  7  8  2  0  0  0
  8  9  1  0  0  0
  9  1  1  0  0  0
  8  3  1  0  0  0
 23 18  1  0  0  0
 10 14  1  0  0  0
 13 15  1  0  0  0
M  END
> <minimizedAffinity>
2.21101

> <CNNscore>
0.5323849916

> <CNNaffinity>
5.4348969460

> <CNN_VS>
2.8934576511

> <CNNaffinity_variance>
0.5068883300

$$$$
[H]c1nc([H])c(-c2c(OC([H])(C([H])([H])[H])C([H])([H])[H])nc3sc(N([H])C(=O)N([H])C([H])([H])C([H])([H])[H])nc3c2[H])c([H])c1[H]


 27 29  0  0  0  0  0  0  0  0999 V2000
  -12.1840   -5.1693    4.4424 C   0  0  0  0  0  0  0  0  0  0  0  0
  -12.9813   -6.0977    4.9347 N   0  0  0  0  0  0  0  0  0  0  0  0
  -14.2710   -5.9782    4.8210 C   0  0  0  0  0  0  0  0  0  0  0  0
  -15.2723   -6.8563    5.2777 C   0  0  0  0  0  0  0  0  0  0  0  0
  -16.6043   -6.6175    5.0955 C   0  0  0  0  0  0  0  0  0  0  0  0
  -17.0236   -5.4784    4.4412 C   0  0  0  0  0  0  0  0  0  0  0  0
  -16.0847   -4.6230    3.9950 N   0  0  0  0  0  0  0  0  0  0  0  0
  -14.7493   -4.8649    4.1788 C   0  0  0  0  0  0  0  0  0  0  0  0
  -13.2966   -4.0550    3.7767 S   0  0  0  0  0  0  0  0  0  0  0  0
   -8.5947   -5.7178    5.4579 N   0  0  0  0  0  0  0  0  0  0  0  0
  -10.0014   -5.7908    5.4635 C   0  0  0  0  0  0  0  0  0  0  0  0
  -10.5791   -6.4619    6.3640 O   0  0  0  0  0  0  0  0  0  0  0  0
  -10.7438   -5.1133    4.4629 N   0  0  0  0  0  0  0  0  0  0  0  0
   -8.1040   -5.1730    4.7282 H   0  0  0  0  0  0  0  0  0  0  0  0
  -10.2662   -4.5774    3.7448 H   0  0  0  0  0  0  0  0  0  0  0  0
   -8.5883   -6.3746    7.7785 C   0  0  0  0  0  0  0  0  0  0  0  0
   -7.8374   -6.4006    6.4669 C   0  0  0  0  0  0  0  0  0  0  0  0
  -17.6097   -7.5913    5.5988 C   0  0  0  0  0  0  0  0  0  0  0  0
  -17.8965   -7.6389    6.9283 C   0  0  0  0  0  0  0  0  0  0  0  0
  -18.8272   -8.5489    7.3940 C   0  0  0  0  0  0  0  0  0  0  0  0
  -19.4349   -9.3822    6.4807 C   0  0  0  0  0  0  0  0  0  0  0  0
  -19.1316   -9.3113    5.1799 N   0  0  0  0  0  0  0  0  0  0  0  0
  -18.2395   -8.4399    4.7291 C   0  0  0  0  0  0  0  0  0  0  0  0
  -18.3706   -5.2662    4.2745 O   0  0  0  0  0  0  0  0  0  0  0  0
  -18.8950   -3.9935    4.5639 C   0  0  0  0  0  0  0  0  0  0  0  0
  -18.6680   -3.6546    6.0073 C   0  0  0  0  0  0  0  0  0  0  0  0
  -20.3875   -4.0528    4.2480 C   0  0  0  0  0  0  0  0  0  0  0  0
 16 17  1  0  0  0
 17 10  1  0  0  0
 10 11  1  0  0  0
 11 12  2  0  0  0
 11 13  1  0  0  0
 13  1  1  0  0  0
  1  2  2  0  0  0
  2  3  1  0  0  0
  3  4  2  0  0  0
  4  5  1  0  0  0
  5 18  1  0  0  0
 18 19  2  0  0  0
 19 20  1  0  0  0
 20 21  2  0  0  0
 21 22  1  0  0  0
 22 23  2  0  0  0
  5  6  2  0  0  0
  6 24  1  0  0  0
 24 25  1  0  0  0
 25 26  1  0  0  0
 25 27  1  0  0  0
  6  7  1  0  0  0
  7  8  2  0  0  0
  8  9  1  0  0  0
  9  1  1  0  0  0
  8  3  1  0  0  0
 23 18  1  0  0  0
 10 14  1  0  0  0
 13 15  1  0  0  0
M  END
> <minimizedAffinity>
21.02158

> <CNNscore>
0.3837146163

> <CNNaffinity>
6.1502122879

> <CNN_VS>
2.3599264622

> <CNNaffinity_variance>
1.2172811031

$$$$
[H]c1nc([H])c(-c2c(OC([H])(C([H])([H])[H])C([H])([H])[H])nc3sc(N([H])C(=O)N([H])C([H])([H])C([H])([H])[H])nc3c2[H])c([H])c1[H]


 27 29  0  0  0  0  0  0  0  0999 V2000
   -4.4689   -5.9815    6.8692 C   0  0  0  0  0  0  0  0  0  0  0  0
   -5.3143   -6.9250    6.5023 N   0  0  0  0  0  0  0  0  0  0  0  0
   -6.4741   -7.0240    7.0816 C   0  0  0  0  0  0  0  0  0  0  0  0
   -7.4991   -7.9556    6.8290 C   0  0  0  0  0  0  0  0  0  0  0  0
   -8.6821   -7.9562    7.5108 C   0  0  0  0  0  0  0  0  0  0  0  0
   -8.9180   -7.0199    8.4952 C   0  0  0  0  0  0  0  0  0  0  0  0
   -7.9528   -6.1181    8.7552 N   0  0  0  0  0  0  0  0  0  0  0  0
   -6.7672   -6.1195    8.0699 C   0  0  0  0  0  0  0  0  0  0  0  0
   -5.3397   -5.1764    8.1006 S   0  0  0  0  0  0  0  0  0  0  0  0
   -1.4623   -5.8578    4.5975 N   0  0  0  0  0  0  0  0  0  0  0  0
   -2.7584   -6.1438    5.0690 C   0  0  0  0  0  0  0  0  0  0  0  0
   -3.5533   -6.7900    4.3301 O   0  0  0  0  0  0  0  0  0  0  0  0
   -3.1494   -5.7040    6.3593 N   0  0  0  0  0  0  0  0  0  0  0  0
   -0.7975   -5.3297    5.1885 H   0  0  0  0  0  0  0  0  0  0  0  0
   -2.5001   -5.1854    6.9427 H   0  0  0  0  0  0  0  0  0  0  0  0
   -1.8290   -5.5426    2.2347 C   0  0  0  0  0  0  0  0  0  0  0  0
   -1.0601   -6.2996    3.2933 C   0  0  0  0  0  0  0  0  0  0  0  0
   -9.7252   -8.9664    7.1886 C   0  0  0  0  0  0  0  0  0  0  0  0
   -9.3876  -10.0874    6.4945 C   0  0  0  0  0  0  0  0  0  0  0  0
  -10.3603  -11.0218    6.1914 C   0  0  0  0  0  0  0  0  0  0  0  0
  -11.6497  -10.7770    6.6101 C   0  0  0  0  0  0  0  0  0  0  0  0
  -11.9503   -9.6654    7.2908 N   0  0  0  0  0  0  0  0  0  0  0  0
  -11.0203   -8.7666    7.5834 C   0  0  0  0  0  0  0  0  0  0  0  0
  -10.1178   -7.0473    9.1638 O   0  0  0  0  0  0  0  0  0  0  0  0
  -10.4802   -5.9367    9.9472 C   0  0  0  0  0  0  0  0  0  0  0  0
  -11.1840   -6.3875   11.1926 C   0  0  0  0  0  0  0  0  0  0  0  0
  -11.3994   -5.0745    9.0856 C   0  0  0  0  0  0  0  0  0  0  0  0
 16 17  1  0  0  0
 17 10  1  0  0  0
 10 11  1  0  0  0
 11 12  2  0  0  0
 11 13  1  0  0  0
 13  1  1  0  0  0
  1  2  2  0  0  0
  2  3  1  0  0  0
  3  4  2  0  0  0
  4  5  1  0  0  0
  5 18  1  0  0  0
 18 19  2  0  0  0
 19 20  1  0  0  0
 20 21  2  0  0  0
 21 22  1  0  0  0
 22 23  2  0  0  0
  5  6  2  0  0  0
  6 24  1  0  0  0
 24 25  1  0  0  0
 25 26  1  0  0  0
 25 27  1  0  0  0
  6  7  1  0  0  0
  7  8  2  0  0  0
  8  9  1  0  0  0
  9  1  1  0  0  0
  8  3  1  0  0  0
 23 18  1  0  0  0
 10 14  1  0  0  0
 13 15  1  0  0  0
M  END
> <minimizedAffinity>
4.39449

> <CNNscore>
0.3581403792

> <CNNaffinity>
5.6919450760

> <CNN_VS>
2.0385153294

> <CNNaffinity_variance>
1.1822538376

$$$$
[H]c1nc([H])c(-c2c(OC([H])(C([H])([H])[H])C([H])([H])[H])nc3sc(N([H])C(=O)N([H])C([H])([H])C([H])([H])[H])nc3c2[H])c([H])c1[H]


 27 29  0  0  0  0  0  0  0  0999 V2000
  -10.5084   -6.9866    9.3431 C   0  0  0  0  0  0  0  0  0  0  0  0
  -11.1496   -6.4375    8.3297 N   0  0  0  0  0  0  0  0  0  0  0  0
  -12.3113   -6.8950    7.9668 C   0  0  0  0  0  0  0  0  0  0  0  0
  -13.1387   -6.4442    6.9206 C   0  0  0  0  0  0  0  0  0  0  0  0
  -14.3474   -7.0126    6.6367 C   0  0  0  0  0  0  0  0  0  0  0  0
  -14.8093   -8.0748    7.3847 C   0  0  0  0  0  0  0  0  0  0  0  0
  -14.0359   -8.5241    8.3909 N   0  0  0  0  0  0  0  0  0  0  0  0
  -12.8242   -7.9522    8.6738 C   0  0  0  0  0  0  0  0  0  0  0  0
  -11.5881   -8.2209    9.8263 S   0  0  0  0  0  0  0  0  0  0  0  0
   -7.8394   -5.8643   11.7581 N   0  0  0  0  0  0  0  0  0  0  0  0
   -9.1062   -6.2033   11.2439 C   0  0  0  0  0  0  0  0  0  0  0  0
  -10.1181   -6.1183   11.9951 O   0  0  0  0  0  0  0  0  0  0  0  0
   -9.2258   -6.6330    9.8976 N   0  0  0  0  0  0  0  0  0  0  0  0
   -6.9994   -5.9277   11.1579 H   0  0  0  0  0  0  0  0  0  0  0  0
   -8.4038   -6.6966    9.3050 H   0  0  0  0  0  0  0  0  0  0  0  0
   -6.4454   -5.9940   13.7220 C   0  0  0  0  0  0  0  0  0  0  0  0
   -7.7112   -5.4290   13.1190 C   0  0  0  0  0  0  0  0  0  0  0  0
  -15.1742   -6.4821    5.5198 C   0  0  0  0  0  0  0  0  0  0  0  0
  -15.8831   -7.3413    4.7378 C   0  0  0  0  0  0  0  0  0  0  0  0
  -16.6462   -6.8460    3.6968 C   0  0  0  0  0  0  0  0  0  0  0  0
  -16.6582   -5.4839    3.4906 C   0  0  0  0  0  0  0  0  0  0  0  0
  -15.9505   -4.6651    4.2766 N   0  0  0  0  0  0  0  0  0  0  0  0
  -15.2173   -5.1362    5.2760 C   0  0  0  0  0  0  0  0  0  0  0  0
  -16.0288   -8.6255    7.0736 O   0  0  0  0  0  0  0  0  0  0  0  0
  -17.0872   -8.4845    7.9892 C   0  0  0  0  0  0  0  0  0  0  0  0
  -17.8017   -7.1856    7.7605 C   0  0  0  0  0  0  0  0  0  0  0  0
  -16.4679   -8.5255    9.3840 C   0  0  0  0  0  0  0  0  0  0  0  0
 16 17  1  0  0  0
 17 10  1  0  0  0
 10 11  1  0  0  0
 11 12  2  0  0  0
 11 13  1  0  0  0
 13  1  1  0  0  0
  1  2  2  0  0  0
  2  3  1  0  0  0
  3  4  2  0  0  0
  4  5  1  0  0  0
  5 18  1  0  0  0
 18 19  2  0  0  0
 19 20  1  0  0  0
 20 21  2  0  0  0
 21 22  1  0  0  0
 22 23  2  0  0  0
  5  6  2  0  0  0
  6 24  1  0  0  0
 24 25  1  0  0  0
 25 26  1  0  0  0
 25 27  1  0  0  0
  6  7  1  0  0  0
  7  8  2  0  0  0
  8  9  1  0  0  0
  9  1  1  0  0  0
  8  3  1  0  0  0
 23 18  1  0  0  0
 10 14  1  0  0  0
 13 15  1  0  0  0
M  END
> <minimizedAffinity>
10.36736

> <CNNscore>
0.3575636446

> <CNNaffinity>
6.1562299728

> <CNN_VS>
2.2012441158

> <CNNaffinity_variance>
0.8576614261

$$$$
[H]c1nc([H])c(-c2c(OC([H])(C([H])([H])[H])C([H])([H])[H])nc3sc(N([H])C(=O)N([H])C([H])([H])C([H])([H])[H])nc3c2[H])c([H])c1[H]


 27 29  0  0  0  0  0  0  0  0999 V2000
  -16.1303   -8.1965    7.8111 C   0  0  0  0  0  0  0  0  0  0  0  0
  -15.1093   -9.0314    7.8196 N   0  0  0  0  0  0  0  0  0  0  0  0
  -13.9021   -8.5888    7.6263 C   0  0  0  0  0  0  0  0  0  0  0  0
  -12.6986   -9.3189    7.6003 C   0  0  0  0  0  0  0  0  0  0  0  0
  -11.4835   -8.7341    7.3860 C   0  0  0  0  0  0  0  0  0  0  0  0
  -11.3928   -7.3734    7.1823 C   0  0  0  0  0  0  0  0  0  0  0  0
  -12.5301   -6.6532    7.2026 N   0  0  0  0  0  0  0  0  0  0  0  0
  -13.7475   -7.2421    7.4180 C   0  0  0  0  0  0  0  0  0  0  0  0
  -15.3663   -6.6960    7.5151 S   0  0  0  0  0  0  0  0  0  0  0  0
  -19.7385   -9.0430    7.1182 N   0  0  0  0  0  0  0  0  0  0  0  0
  -18.3742   -8.7686    6.8998 C   0  0  0  0  0  0  0  0  0  0  0  0
  -17.9248   -8.7836    5.7196 O   0  0  0  0  0  0  0  0  0  0  0  0
  -17.5303   -8.4812    8.0028 N   0  0  0  0  0  0  0  0  0  0  0  0
  -20.1246   -9.0353    8.0778 H   0  0  0  0  0  0  0  0  0  0  0  0
  -17.9051   -8.4725    8.9465 H   0  0  0  0  0  0  0  0  0  0  0  0
  -21.5874  -10.4106    6.3915 C   0  0  0  0  0  0  0  0  0  0  0  0
  -20.5979   -9.3345    6.0071 C   0  0  0  0  0  0  0  0  0  0  0  0
  -10.2498   -9.5650    7.3772 C   0  0  0  0  0  0  0  0  0  0  0  0
  -10.1089  -10.5541    6.4530 C   0  0  0  0  0  0  0  0  0  0  0  0
   -8.9637  -11.3285    6.4508 C   0  0  0  0  0  0  0  0  0  0  0  0
   -7.9984  -11.0640    7.3974 C   0  0  0  0  0  0  0  0  0  0  0  0
   -8.1662  -10.0847    8.2929 N   0  0  0  0  0  0  0  0  0  0  0  0
   -9.2631   -9.3396    8.2984 C   0  0  0  0  0  0  0  0  0  0  0  0
  -10.1560   -6.8149    6.9684 O   0  0  0  0  0  0  0  0  0  0  0  0
   -9.2962   -6.6361    8.0671 C   0  0  0  0  0  0  0  0  0  0  0  0
   -9.9031   -5.6802    9.0508 C   0  0  0  0  0  0  0  0  0  0  0  0
   -7.9852   -6.0848    7.5119 C   0  0  0  0  0  0  0  0  0  0  0  0
 16 17  1  0  0  0
 17 10  1  0  0  0
 10 11  1  0  0  0
 11 12  2  0  0  0
 11 13  1  0  0  0
 13  1  1  0  0  0
  1  2  2  0  0  0
  2  3  1  0  0  0
  3  4  2  0  0  0
  4  5  1  0  0  0
  5 18  1  0  0  0
 18 19  2  0  0  0
 19 20  1  0  0  0
 20 21  2  0  0  0
 21 22  1  0  0  0
 22 23  2  0  0  0
  5  6  2  0  0  0
  6 24  1  0  0  0
 24 25  1  0  0  0
 25 26  1  0  0  0
 25 27  1  0  0  0
  6  7  1  0  0  0
  7  8  2  0  0  0
  8  9  1  0  0  0
  9  1  1  0  0  0
  8  3  1  0  0  0
 23 18  1  0  0  0
 10 14  1  0  0  0
 13 15  1  0  0  0
M  END
> <minimizedAffinity>
2.18922

> <CNNscore>
0.3452111185

> <CNNaffinity>
6.3118829727

> <CNN_VS>
2.1789321899

> <CNNaffinity_variance>
1.3475458622

$$$$
[H]c1nc([H])c(-c2c(OC([H])(C([H])([H])[H])C([H])([H])[H])nc3sc(N([H])C(=O)N([H])C([H])([H])C([H])([H])[H])nc3c2[H])c([H])c1[H]


 27 29  0  0  0  0  0  0  0  0999 V2000
   -9.4432   -8.8924    7.5083 C   0  0  0  0  0  0  0  0  0  0  0  0
   -8.2556   -9.1625    7.0021 N   0  0  0  0  0  0  0  0  0  0  0  0
   -7.2579   -8.3552    7.2104 C   0  0  0  0  0  0  0  0  0  0  0  0
   -5.9302   -8.4736    6.7571 C   0  0  0  0  0  0  0  0  0  0  0  0
   -4.9655   -7.5512    7.0454 C   0  0  0  0  0  0  0  0  0  0  0  0
   -5.2680   -6.4442    7.8098 C   0  0  0  0  0  0  0  0  0  0  0  0
   -6.5312   -6.3086    8.2552 N   0  0  0  0  0  0  0  0  0  0  0  0
   -7.4968   -7.2352    7.9649 C   0  0  0  0  0  0  0  0  0  0  0  0
   -9.1587   -7.4197    8.3286 S   0  0  0  0  0  0  0  0  0  0  0  0
  -13.0892   -9.7631    7.1034 N   0  0  0  0  0  0  0  0  0  0  0  0
  -11.9116   -8.9977    7.2100 C   0  0  0  0  0  0  0  0  0  0  0  0
  -11.9871   -7.7390    7.1376 O   0  0  0  0  0  0  0  0  0  0  0  0
  -10.6653   -9.6485    7.3958 N   0  0  0  0  0  0  0  0  0  0  0  0
  -13.0470  -10.7951    7.1604 H   0  0  0  0  0  0  0  0  0  0  0  0
  -10.6193  -10.6613    7.4523 H   0  0  0  0  0  0  0  0  0  0  0  0
  -14.9460   -8.7430    8.2561 C   0  0  0  0  0  0  0  0  0  0  0  0
  -14.3533   -9.1114    6.9153 C   0  0  0  0  0  0  0  0  0  0  0  0
   -3.5801   -7.7415    6.5387 C   0  0  0  0  0  0  0  0  0  0  0  0
   -2.8416   -8.7987    6.9738 C   0  0  0  0  0  0  0  0  0  0  0  0
   -1.5521   -8.9698    6.5056 C   0  0  0  0  0  0  0  0  0  0  0  0
   -1.0602   -8.0505    5.6052 C   0  0  0  0  0  0  0  0  0  0  0  0
   -1.8108   -7.0215    5.1966 N   0  0  0  0  0  0  0  0  0  0  0  0
   -3.0481   -6.8538    5.6432 C   0  0  0  0  0  0  0  0  0  0  0  0
   -4.2758   -5.5337    8.0817 O   0  0  0  0  0  0  0  0  0  0  0  0
   -3.6707   -5.5528    9.3513 C   0  0  0  0  0  0  0  0  0  0  0  0
   -4.0598   -4.3313   10.1300 C   0  0  0  0  0  0  0  0  0  0  0  0
   -2.1626   -5.5901    9.1169 C   0  0  0  0  0  0  0  0  0  0  0  0
 16 17  1  0  0  0
 17 10  1  0  0  0
 10 11  1  0  0  0
 11 12  2  0  0  0
 11 13  1  0  0  0
 13  1  1  0  0  0
  1  2  2  0  0  0
  2  3  1  0  0  0
  3  4  2  0  0  0
  4  5  1  0  0  0
  5 18  1  0  0  0
 18 19  2  0  0  0
 19 20  1  0  0  0
 20 21  2  0  0  0
 21 22  1  0  0  0
 22 23  2  0  0  0
  5  6  2  0  0  0
  6 24  1  0  0  0
 24 25  1  0  0  0
 25 26  1  0  0  0
 25 27  1  0  0  0
  6  7  1  0  0  0
  7  8  2  0  0  0
  8  9  1  0  0  0
  9  1  1  0  0  0
  8  3  1  0  0  0
 23 18  1  0  0  0
 10 14  1  0  0  0
 13 15  1  0  0  0
M  END
> <minimizedAffinity>
-5.65326

> <CNNscore>
0.2742071152

> <CNNaffinity>
5.7758455276

> <CNN_VS>
1.5837779045

> <CNNaffinity_variance>
0.0568457022

$$$$
[H]c1nc([H])c(-c2c(OC([H])(C([H])([H])[H])C([H])([H])[H])nc3sc(N([H])C(=O)N([H])C([H])([H])C([H])([H])[H])nc3c2[H])c([H])c1[H]


 27 29  0  0  0  0  0  0  0  0999 V2000
  -16.7316   -6.8391    5.1350 C   0  0  0  0  0  0  0  0  0  0  0  0
  -16.1914   -6.4018    6.2560 N   0  0  0  0  0  0  0  0  0  0  0  0
  -14.9990   -6.7891    6.6008 C   0  0  0  0  0  0  0  0  0  0  0  0
  -14.2639   -6.4342    7.7480 C   0  0  0  0  0  0  0  0  0  0  0  0
  -13.0098   -6.9120    7.9995 C   0  0  0  0  0  0  0  0  0  0  0  0
  -12.4063   -7.7810    7.1152 C   0  0  0  0  0  0  0  0  0  0  0  0
  -13.0893   -8.1354    6.0105 N   0  0  0  0  0  0  0  0  0  0  0  0
  -14.3469   -7.6545    5.7604 C   0  0  0  0  0  0  0  0  0  0  0  0
  -15.5045   -7.8561    4.5164 S   0  0  0  0  0  0  0  0  0  0  0  0
  -19.7781   -4.9346    3.9916 N   0  0  0  0  0  0  0  0  0  0  0  0
  -18.5093   -5.2017    4.5419 C   0  0  0  0  0  0  0  0  0  0  0  0
  -17.8213   -4.2444    4.9953 O   0  0  0  0  0  0  0  0  0  0  0  0
  -18.0259   -6.5345    4.5783 N   0  0  0  0  0  0  0  0  0  0  0  0
  -20.3559   -5.7058    3.6155 H   0  0  0  0  0  0  0  0  0  0  0  0
  -18.5897   -7.2945    4.2102 H   0  0  0  0  0  0  0  0  0  0  0  0
  -20.5337   -3.0952    5.3564 C   0  0  0  0  0  0  0  0  0  0  0  0
  -20.2733   -3.5888    3.9516 C   0  0  0  0  0  0  0  0  0  0  0  0
  -12.2866   -6.4908    9.2292 C   0  0  0  0  0  0  0  0  0  0  0  0
  -10.9270   -6.4290    9.2247 C   0  0  0  0  0  0  0  0  0  0  0  0
  -10.2573   -6.0427   10.3708 C   0  0  0  0  0  0  0  0  0  0  0  0
  -11.0037   -5.7319   11.4863 C   0  0  0  0  0  0  0  0  0  0  0  0
  -12.3391   -5.8024   11.4593 N   0  0  0  0  0  0  0  0  0  0  0  0
  -12.9853   -6.1725   10.3621 C   0  0  0  0  0  0  0  0  0  0  0  0
  -11.1443   -8.2450    7.3970 O   0  0  0  0  0  0  0  0  0  0  0  0
  -10.9453   -9.6323    7.5155 C   0  0  0  0  0  0  0  0  0  0  0  0
   -9.4904   -9.9630    7.3618 C   0  0  0  0  0  0  0  0  0  0  0  0
  -11.7711  -10.2889    6.4120 C   0  0  0  0  0  0  0  0  0  0  0  0
 16 17  1  0  0  0
 17 10  1  0  0  0
 10 11  1  0  0  0
 11 12  2  0  0  0
 11 13  1  0  0  0
 13  1  1  0  0  0
  1  2  2  0  0  0
  2  3  1  0  0  0
  3  4  2  0  0  0
  4  5  1  0  0  0
  5 18  1  0  0  0
 18 19  2  0  0  0
 19 20  1  0  0  0
 20 21  2  0  0  0
 21 22  1  0  0  0
 22 23  2  0  0  0
  5  6  2  0  0  0
  6 24  1  0  0  0
 24 25  1  0  0  0
 25 26  1  0  0  0
 25 27  1  0  0  0
  6  7  1  0  0  0
  7  8  2  0  0  0
  8  9  1  0  0  0
  9  1  1  0  0  0
  8  3  1  0  0  0
 23 18  1  0  0  0
 10 14  1  0  0  0
 13 15  1  0  0  0
M  END
> <minimizedAffinity>
0.51627

> <CNNscore>
0.2496819794

> <CNNaffinity>
6.3566217422

> <CNN_VS>
1.5871338844

> <CNNaffinity_variance>
0.4679109454

$$$$
[H]c1nc([H])c(-c2c(OC([H])(C([H])([H])[H])C([H])([H])[H])nc3sc(N([H])C(=O)N([H])C([H])([H])C([H])([H])[H])nc3c2[H])c([H])c1[H]


 27 29  0  0  0  0  0  0  0  0999 V2000
  -11.4052   -8.4995    7.5876 C   0  0  0  0  0  0  0  0  0  0  0  0
  -12.6048   -9.0388    7.4888 N   0  0  0  0  0  0  0  0  0  0  0  0
  -13.6136   -8.3199    7.0940 C   0  0  0  0  0  0  0  0  0  0  0  0
  -14.9548   -8.7147    6.9282 C   0  0  0  0  0  0  0  0  0  0  0  0
  -15.9304   -7.8588    6.5036 C   0  0  0  0  0  0  0  0  0  0  0  0
  -15.6261   -6.5450    6.2160 C   0  0  0  0  0  0  0  0  0  0  0  0
  -14.3500   -6.1433    6.3668 N   0  0  0  0  0  0  0  0  0  0  0  0
  -13.3734   -7.0038    6.7926 C   0  0  0  0  0  0  0  0  0  0  0  0
  -11.6942   -6.8865    7.1004 S   0  0  0  0  0  0  0  0  0  0  0  0
   -7.7366   -9.0849    8.2309 N   0  0  0  0  0  0  0  0  0  0  0  0
   -8.9276   -8.4571    7.8169 C   0  0  0  0  0  0  0  0  0  0  0  0
   -8.8676   -7.3123    7.2867 O   0  0  0  0  0  0  0  0  0  0  0  0
  -10.1697   -9.1164    8.0009 N   0  0  0  0  0  0  0  0  0  0  0  0
   -7.7660  -10.0224    8.6671 H   0  0  0  0  0  0  0  0  0  0  0  0
  -10.2032  -10.0367    8.4287 H   0  0  0  0  0  0  0  0  0  0  0  0
   -5.9601   -8.6802    6.6507 C   0  0  0  0  0  0  0  0  0  0  0  0
   -6.4766   -8.4238    8.0479 C   0  0  0  0  0  0  0  0  0  0  0  0
  -17.3273   -8.3442    6.3443 C   0  0  0  0  0  0  0  0  0  0  0  0
  -17.7837   -8.6938    5.1107 C   0  0  0  0  0  0  0  0  0  0  0  0
  -19.0843   -9.1391    4.9647 C   0  0  0  0  0  0  0  0  0  0  0  0
  -19.8765   -9.2120    6.0894 C   0  0  0  0  0  0  0  0  0  0  0  0
  -19.3988   -8.8612    7.2885 N   0  0  0  0  0  0  0  0  0  0  0  0
  -18.1520   -8.4334    7.4328 C   0  0  0  0  0  0  0  0  0  0  0  0
  -16.6299   -5.7085    5.7920 O   0  0  0  0  0  0  0  0  0  0  0  0
  -16.7464   -5.4358    4.4170 C   0  0  0  0  0  0  0  0  0  0  0  0
  -15.8482   -4.2966    4.0359 C   0  0  0  0  0  0  0  0  0  0  0  0
  -18.2098   -5.0820    4.1634 C   0  0  0  0  0  0  0  0  0  0  0  0
 16 17  1  0  0  0
 17 10  1  0  0  0
 10 11  1  0  0  0
 11 12  2  0  0  0
 11 13  1  0  0  0
 13  1  1  0  0  0
  1  2  2  0  0  0
  2  3  1  0  0  0
  3  4  2  0  0  0
  4  5  1  0  0  0
  5 18  1  0  0  0
 18 19  2  0  0  0
 19 20  1  0  0  0
 20 21  2  0  0  0
 21 22  1  0  0  0
 22 23  2  0  0  0
  5  6  2  0  0  0
  6 24  1  0  0  0
 24 25  1  0  0  0
 25 26  1  0  0  0
 25 27  1  0  0  0
  6  7  1  0  0  0
  7  8  2  0  0  0
  8  9  1  0  0  0
  9  1  1  0  0  0
  8  3  1  0  0  0
 23 18  1  0  0  0
 10 14  1  0  0  0
 13 15  1  0  0  0
M  END
> <minimizedAffinity>
-2.17397

> <CNNscore>
0.2203605771

> <CNNaffinity>
6.1997208595

> <CNN_VS>
1.3661741018

> <CNNaffinity_variance>
0.6336280107

$$$$
[H]c1nc([H])c(-c2c(OC([H])(C([H])([H])[H])C([H])([H])[H])nc3sc(N([H])C(=O)N([H])C([H])([H])C([H])([H])[H])nc3c2[H])c([H])c1[H]


 27 29  0  0  0  0  0  0  0  0999 V2000
   -9.4235   -8.0098    7.4746 C   0  0  0  0  0  0  0  0  0  0  0  0
   -8.6586   -6.9578    7.2556 N   0  0  0  0  0  0  0  0  0  0  0  0
   -7.3812   -7.1074    7.0649 C   0  0  0  0  0  0  0  0  0  0  0  0
   -6.4134   -6.1149    6.8189 C   0  0  0  0  0  0  0  0  0  0  0  0
   -5.0913   -6.4012    6.6335 C   0  0  0  0  0  0  0  0  0  0  0  0
   -4.6488   -7.7063    6.6826 C   0  0  0  0  0  0  0  0  0  0  0  0
   -5.5554   -8.6736    6.9164 N   0  0  0  0  0  0  0  0  0  0  0  0
   -6.8810   -8.3838    7.1019 C   0  0  0  0  0  0  0  0  0  0  0  0
   -8.2965   -9.2939    7.4119 S   0  0  0  0  0  0  0  0  0  0  0  0
  -12.8072   -7.5533    9.0738 N   0  0  0  0  0  0  0  0  0  0  0  0
  -11.4142   -7.4897    8.8743 C   0  0  0  0  0  0  0  0  0  0  0  0
  -10.6933   -6.9237    9.7433 O   0  0  0  0  0  0  0  0  0  0  0  0
  -10.8453   -8.0591    7.7066 N   0  0  0  0  0  0  0  0  0  0  0  0
  -13.4136   -8.0128    8.3731 H   0  0  0  0  0  0  0  0  0  0  0  0
  -11.4369   -8.5112    7.0162 H   0  0  0  0  0  0  0  0  0  0  0  0
  -13.3630   -5.4710   10.1565 C   0  0  0  0  0  0  0  0  0  0  0  0
  -13.3894   -6.9793   10.2526 C   0  0  0  0  0  0  0  0  0  0  0  0
   -4.1225   -5.3033    6.3715 C   0  0  0  0  0  0  0  0  0  0  0  0
   -3.5595   -4.6366    7.4160 C   0  0  0  0  0  0  0  0  0  0  0  0
   -2.6639   -3.6128    7.1694 C   0  0  0  0  0  0  0  0  0  0  0  0
   -2.3736   -3.3048    5.8584 C   0  0  0  0  0  0  0  0  0  0  0  0
   -2.9435   -3.9786    4.8533 N   0  0  0  0  0  0  0  0  0  0  0  0
   -3.8032   -4.9612    5.0855 C   0  0  0  0  0  0  0  0  0  0  0  0
   -3.3124   -7.9618    6.4931 O   0  0  0  0  0  0  0  0  0  0  0  0
   -2.6045   -8.6402    7.5016 C   0  0  0  0  0  0  0  0  0  0  0  0
   -1.7811   -7.6723    8.2985 C   0  0  0  0  0  0  0  0  0  0  0  0
   -1.7135   -9.6620    6.7996 C   0  0  0  0  0  0  0  0  0  0  0  0
 16 17  1  0  0  0
 17 10  1  0  0  0
 10 11  1  0  0  0
 11 12  2  0  0  0
 11 13  1  0  0  0
 13  1  1  0  0  0
  1  2  2  0  0  0
  2  3  1  0  0  0
  3  4  2  0  0  0
  4  5  1  0  0  0
  5 18  1  0  0  0
 18 19  2  0  0  0
 19 20  1  0  0  0
 20 21  2  0  0  0
 21 22  1  0  0  0
 22 23  2  0  0  0
  5  6  2  0  0  0
  6 24  1  0  0  0
 24 25  1  0  0  0
 25 26  1  0  0  0
 25 27  1  0  0  0
  6  7  1  0  0  0
  7  8  2  0  0  0
  8  9  1  0  0  0
  9  1  1  0  0  0
  8  3  1  0  0  0
 23 18  1  0  0  0
 10 14  1  0  0  0
 13 15  1  0  0  0
M  END
> <minimizedAffinity>
-5.75436

> <CNNscore>
0.2193149328

> <CNNaffinity>
5.7483334541

> <CNN_VS>
1.2606953382

> <CNNaffinity_variance>
0.0539149344

$$$$
[H]c1sc(-c2nc3c([H])c(N([H])C(=O)[C@@]([H])(Oc4c([H])c([H])c([H])c5c([H])c([H])c([H])c([H])c45)C([H])([H])[H])c([H])c([H])c3o2)c([H])c1[H]


 31 35  0  0  0  0  0  0  0  0999 V2000
  -10.1304  -10.6978    6.3640 C   0  0  0  0  0  0  0  0  0  0  0  0
  -10.1290  -10.4306    5.1316 O   0  0  0  0  0  0  0  0  0  0  0  0
  -10.9728  -10.1413    7.3235 N   0  0  0  0  0  0  0  0  0  0  0  0
  -10.8160  -10.4898    8.3240 H   0  0  0  0  0  0  0  0  0  0  0  0
  -11.9744   -9.1975    7.1499 C   0  0  0  0  0  0  0  0  0  0  0  0
  -11.9488   -8.0095    7.8988 C   0  0  0  0  0  0  0  0  0  0  0  0
  -12.9227   -7.0528    7.7553 C   0  0  0  0  0  0  0  0  0  0  0  0
  -13.9723   -7.1983    6.8778 C   0  0  0  0  0  0  0  0  0  0  0  0
  -15.0017   -6.4371    6.5724 O   0  0  0  0  0  0  0  0  0  0  0  0
  -15.6921   -7.0760    5.6613 C   0  0  0  0  0  0  0  0  0  0  0  0
  -15.1095   -8.2539    5.3752 N   0  0  0  0  0  0  0  0  0  0  0  0
  -14.0073   -8.3570    6.1395 C   0  0  0  0  0  0  0  0  0  0  0  0
  -13.0082   -9.3356    6.2888 C   0  0  0  0  0  0  0  0  0  0  0  0
  -16.9406   -6.6031    5.0141 C   0  0  0  0  0  0  0  0  0  0  0  0
  -17.8331   -7.3531    4.2868 C   0  0  0  0  0  0  0  0  0  0  0  0
  -18.8997   -6.7161    3.7906 C   0  0  0  0  0  0  0  0  0  0  0  0
  -19.0145   -5.3780    4.0459 C   0  0  0  0  0  0  0  0  0  0  0  0
  -17.6242   -5.0457    4.9756 S   0  0  0  0  0  0  0  0  0  0  0  0
   -7.9084  -10.8855    7.2619 C   0  0  0  0  0  0  0  0  0  0  0  0
   -9.0827  -11.7293    6.7324 C   0  0  0  0  0  0  0  0  0  0  0  0
   -8.8265  -12.5577    5.7824 O   0  0  0  0  0  0  0  0  0  0  0  0
   -8.5685  -13.3919    4.8256 C   0  0  0  0  0  0  0  0  0  0  0  0
   -8.5042  -14.7803    4.9681 C   0  0  0  0  0  0  0  0  0  0  0  0
   -8.2294  -15.6212    3.9340 C   0  0  0  0  0  0  0  0  0  0  0  0
   -8.0050  -15.0776    2.6936 C   0  0  0  0  0  0  0  0  0  0  0  0
   -8.0485  -13.7183    2.4619 C   0  0  0  0  0  0  0  0  0  0  0  0
   -7.8088  -13.2346    1.1689 C   0  0  0  0  0  0  0  0  0  0  0  0
   -7.8616  -11.8740    0.9831 C   0  0  0  0  0  0  0  0  0  0  0  0
   -8.1409  -11.0356    2.0390 C   0  0  0  0  0  0  0  0  0  0  0  0
   -8.3719  -11.5374    3.2964 C   0  0  0  0  0  0  0  0  0  0  0  0
   -8.3265  -12.9127    3.5228 C   0  0  0  0  0  0  0  0  0  0  0  0
 19 20  1  0  0  0
 20 21  1  0  0  0
 21 22  1  0  0  0
 22 23  2  0  0  0
 23 24  1  0  0  0
 24 25  2  0  0  0
 25 26  1  0  0  0
 26 27  2  0  0  0
 27 28  1  0  0  0
 28 29  2  0  0  0
 29 30  1  0  0  0
 30 31  2  0  0  0
 20  1  1  0  0  0
  1  2  2  0  0  0
  1  3  1  0  0  0
  3  5  1  0  0  0
  5  6  2  0  0  0
  6  7  1  0  0  0
  7  8  2  0  0  0
  8  9  1  0  0  0
  9 10  1  0  0  0
 10 11  2  0  0  0
 11 12  1  0  0  0
 12 13  2  0  0  0
 10 14  1  0  0  0
 14 15  2  0  0  0
 15 16  1  0  0  0
 16 17  2  0  0  0
 17 18  1  0  0  0
 31 22  1  0  0  0
 13  5  1  0  0  0
 18 14  1  0  0  0
 31 26  1  0  0  0
 12  8  1  0  0  0
  3  4  1  0  0  0
M  END
> <minimizedAffinity>
7.07532

> <CNNscore>
0.4786879122

> <CNNaffinity>
6.3386549950

> <CNN_VS>
3.0342376232

> <CNNaffinity_variance>
0.5189743638

$$$$
[H]c1sc(-c2nc3c([H])c(N([H])C(=O)[C@@]([H])(Oc4c([H])c([H])c([H])c5c([H])c([H])c([H])c([H])c45)C([H])([H])[H])c([H])c([H])c3o2)c([H])c1[H]


 31 35  0  0  0  0  0  0  0  0999 V2000
  -12.5793   -7.0760    8.2006 C   0  0  0  0  0  0  0  0  0  0  0  0
  -12.1259   -6.2803    9.0676 O   0  0  0  0  0  0  0  0  0  0  0  0
  -11.8349   -7.9824    7.4495 N   0  0  0  0  0  0  0  0  0  0  0  0
  -12.3997   -8.5695    6.7542 H   0  0  0  0  0  0  0  0  0  0  0  0
  -10.4677   -8.2137    7.4829 C   0  0  0  0  0  0  0  0  0  0  0  0
   -9.9838   -9.5320    7.4538 C   0  0  0  0  0  0  0  0  0  0  0  0
   -8.6380   -9.8006    7.4863 C   0  0  0  0  0  0  0  0  0  0  0  0
   -7.6911   -8.8044    7.5487 C   0  0  0  0  0  0  0  0  0  0  0  0
   -6.3755   -8.8149    7.5887 O   0  0  0  0  0  0  0  0  0  0  0  0
   -5.9852   -7.5660    7.6422 C   0  0  0  0  0  0  0  0  0  0  0  0
   -7.0494   -6.7439    7.6369 N   0  0  0  0  0  0  0  0  0  0  0  0
   -8.1532   -7.5104    7.5775 C   0  0  0  0  0  0  0  0  0  0  0  0
   -9.5328   -7.2383    7.5442 C   0  0  0  0  0  0  0  0  0  0  0  0
   -4.5822   -7.0867    7.7013 C   0  0  0  0  0  0  0  0  0  0  0  0
   -3.4534   -7.7786    7.3340 C   0  0  0  0  0  0  0  0  0  0  0  0
   -2.2819   -7.1476    7.4722 C   0  0  0  0  0  0  0  0  0  0  0  0
   -2.3028   -5.8726    7.9650 C   0  0  0  0  0  0  0  0  0  0  0  0
   -3.9645   -5.5896    8.2225 S   0  0  0  0  0  0  0  0  0  0  0  0
  -14.6445   -7.6992    9.2614 C   0  0  0  0  0  0  0  0  0  0  0  0
  -14.0812   -6.9560    8.0360 C   0  0  0  0  0  0  0  0  0  0  0  0
  -14.4992   -7.3335    6.8796 O   0  0  0  0  0  0  0  0  0  0  0  0
  -14.9201   -7.7137    5.7150 C   0  0  0  0  0  0  0  0  0  0  0  0
  -14.3665   -8.7525    4.9624 C   0  0  0  0  0  0  0  0  0  0  0  0
  -14.8412   -9.1194    3.7408 C   0  0  0  0  0  0  0  0  0  0  0  0
  -15.9141   -8.4353    3.2259 C   0  0  0  0  0  0  0  0  0  0  0  0
  -16.5227   -7.3966    3.8997 C   0  0  0  0  0  0  0  0  0  0  0  0
  -17.6141   -6.7434    3.3120 C   0  0  0  0  0  0  0  0  0  0  0  0
  -18.1897   -5.7143    4.0178 C   0  0  0  0  0  0  0  0  0  0  0  0
  -17.6986   -5.3543    5.2528 C   0  0  0  0  0  0  0  0  0  0  0  0
  -16.6270   -6.0123    5.8051 C   0  0  0  0  0  0  0  0  0  0  0  0
  -16.0172   -7.0615    5.1180 C   0  0  0  0  0  0  0  0  0  0  0  0
 19 20  1  0  0  0
 20 21  1  0  0  0
 21 22  1  0  0  0
 22 23  2  0  0  0
 23 24  1  0  0  0
 24 25  2  0  0  0
 25 26  1  0  0  0
 26 27  2  0  0  0
 27 28  1  0  0  0
 28 29  2  0  0  0
 29 30  1  0  0  0
 30 31  2  0  0  0
 20  1  1  0  0  0
  1  2  2  0  0  0
  1  3  1  0  0  0
  3  5  1  0  0  0
  5  6  2  0  0  0
  6  7  1  0  0  0
  7  8  2  0  0  0
  8  9  1  0  0  0
  9 10  1  0  0  0
 10 11  2  0  0  0
 11 12  1  0  0  0
 12 13  2  0  0  0
 10 14  1  0  0  0
 14 15  2  0  0  0
 15 16  1  0  0  0
 16 17  2  0  0  0
 17 18  1  0  0  0
 31 22  1  0  0  0
 13  5  1  0  0  0
 18 14  1  0  0  0
 31 26  1  0  0  0
 12  8  1  0  0  0
  3  4  1  0  0  0
M  END
> <minimizedAffinity>
-9.80125

> <CNNscore>
0.4456886649

> <CNNaffinity>
6.8875427246

> <CNN_VS>
3.0696997643

> <CNNaffinity_variance>
0.0866093934

$$$$
[H]c1sc(-c2nc3c([H])c(N([H])C(=O)[C@@]([H])(Oc4c([H])c([H])c([H])c5c([H])c([H])c([H])c([H])c45)C([H])([H])[H])c([H])c([H])c3o2)c([H])c1[H]


 31 35  0  0  0  0  0  0  0  0999 V2000
   -5.5557   -7.5834    6.0649 C   0  0  0  0  0  0  0  0  0  0  0  0
   -6.0688   -7.7037    4.9192 O   0  0  0  0  0  0  0  0  0  0  0  0
   -6.2404   -7.3083    7.2461 N   0  0  0  0  0  0  0  0  0  0  0  0
   -5.6274   -7.2350    8.1212 H   0  0  0  0  0  0  0  0  0  0  0  0
   -7.6014   -7.1125    7.4294 C   0  0  0  0  0  0  0  0  0  0  0  0
   -8.2293   -5.9997    6.8461 C   0  0  0  0  0  0  0  0  0  0  0  0
   -9.5736   -5.7720    7.0060 C   0  0  0  0  0  0  0  0  0  0  0  0
  -10.3790   -6.6119    7.7399 C   0  0  0  0  0  0  0  0  0  0  0  0
  -11.6633   -6.6021    8.0282 O   0  0  0  0  0  0  0  0  0  0  0  0
  -11.8961   -7.6557    8.7703 C   0  0  0  0  0  0  0  0  0  0  0  0
  -10.7609   -8.3503    8.9637 N   0  0  0  0  0  0  0  0  0  0  0  0
   -9.7752   -7.7043    8.3151 C   0  0  0  0  0  0  0  0  0  0  0  0
   -8.3976   -7.9349    8.1497 C   0  0  0  0  0  0  0  0  0  0  0  0
  -13.2075   -8.0592    9.3349 C   0  0  0  0  0  0  0  0  0  0  0  0
  -14.3875   -8.2292    8.6519 C   0  0  0  0  0  0  0  0  0  0  0  0
  -15.4559   -8.5992    9.3670 C   0  0  0  0  0  0  0  0  0  0  0  0
  -15.2878   -8.7771   10.7120 C   0  0  0  0  0  0  0  0  0  0  0  0
  -13.6360   -8.4213   10.9411 S   0  0  0  0  0  0  0  0  0  0  0  0
   -3.8088   -8.8725    7.0972 C   0  0  0  0  0  0  0  0  0  0  0  0
   -4.0520   -7.7729    6.0469 C   0  0  0  0  0  0  0  0  0  0  0  0
   -3.3979   -6.6743    6.1877 O   0  0  0  0  0  0  0  0  0  0  0  0
   -2.7392   -5.5681    6.3294 C   0  0  0  0  0  0  0  0  0  0  0  0
   -2.3774   -5.0019    7.5544 C   0  0  0  0  0  0  0  0  0  0  0  0
   -1.6838   -3.8354    7.6576 C   0  0  0  0  0  0  0  0  0  0  0  0
   -1.3240   -3.1865    6.5026 C   0  0  0  0  0  0  0  0  0  0  0  0
   -1.6393   -3.6731    5.2509 C   0  0  0  0  0  0  0  0  0  0  0  0
   -1.2391   -2.9564    4.1153 C   0  0  0  0  0  0  0  0  0  0  0  0
   -1.5744   -3.4771    2.8885 C   0  0  0  0  0  0  0  0  0  0  0  0
   -2.2764   -4.6584    2.7998 C   0  0  0  0  0  0  0  0  0  0  0  0
   -2.6560   -5.3402    3.9300 C   0  0  0  0  0  0  0  0  0  0  0  0
   -2.3334   -4.8421    5.1920 C   0  0  0  0  0  0  0  0  0  0  0  0
 19 20  1  0  0  0
 20 21  1  0  0  0
 21 22  1  0  0  0
 22 23  2  0  0  0
 23 24  1  0  0  0
 24 25  2  0  0  0
 25 26  1  0  0  0
 26 27  2  0  0  0
 27 28  1  0  0  0
 28 29  2  0  0  0
 29 30  1  0  0  0
 30 31  2  0  0  0
 20  1  1  0  0  0
  1  2  2  0  0  0
  1  3  1  0  0  0
  3  5  1  0  0  0
  5  6  2  0  0  0
  6  7  1  0  0  0
  7  8  2  0  0  0
  8  9  1  0  0  0
  9 10  1  0  0  0
 10 11  2  0  0  0
 11 12  1  0  0  0
 12 13  2  0  0  0
 10 14  1  0  0  0
 14 15  2  0  0  0
 15 16  1  0  0  0
 16 17  2  0  0  0
 17 18  1  0  0  0
 31 22  1  0  0  0
 13  5  1  0  0  0
 18 14  1  0  0  0
 31 26  1  0  0  0
 12  8  1  0  0  0
  3  4  1  0  0  0
M  END
> <minimizedAffinity>
0.31906

> <CNNscore>
0.3868431747

> <CNNaffinity>
5.9594678879

> <CNN_VS>
2.3053793907

> <CNNaffinity_variance>
1.0889503956

$$$$
[H]c1sc(-c2nc3c([H])c(N([H])C(=O)[C@@]([H])(Oc4c([H])c([H])c([H])c5c([H])c([H])c([H])c([H])c45)C([H])([H])[H])c([H])c([H])c3o2)c([H])c1[H]


 31 35  0  0  0  0  0  0  0  0999 V2000
   -9.0477   -7.3852    8.1438 C   0  0  0  0  0  0  0  0  0  0  0  0
   -8.6192   -7.1885    6.9742 O   0  0  0  0  0  0  0  0  0  0  0  0
  -10.3085   -7.8682    8.4856 N   0  0  0  0  0  0  0  0  0  0  0  0
  -10.4914   -7.9597    9.5369 H   0  0  0  0  0  0  0  0  0  0  0  0
  -11.3492   -8.2355    7.6452 C   0  0  0  0  0  0  0  0  0  0  0  0
  -11.3269   -9.4921    7.0179 C   0  0  0  0  0  0  0  0  0  0  0  0
  -12.3379   -9.8905    6.1791 C   0  0  0  0  0  0  0  0  0  0  0  0
  -13.4233   -9.0909    5.9049 C   0  0  0  0  0  0  0  0  0  0  0  0
  -14.4913   -9.2507    5.1522 O   0  0  0  0  0  0  0  0  0  0  0  0
  -15.2034   -8.1574    5.2628 C   0  0  0  0  0  0  0  0  0  0  0  0
  -14.5965   -7.2866    6.0886 N   0  0  0  0  0  0  0  0  0  0  0  0
  -13.4557   -7.8590    6.5134 C   0  0  0  0  0  0  0  0  0  0  0  0
  -12.4183   -7.4535    7.3723 C   0  0  0  0  0  0  0  0  0  0  0  0
  -16.4971   -7.8808    4.5909 C   0  0  0  0  0  0  0  0  0  0  0  0
  -16.7065   -7.0853    3.4903 C   0  0  0  0  0  0  0  0  0  0  0  0
  -17.9649   -6.9771    3.0492 C   0  0  0  0  0  0  0  0  0  0  0  0
  -18.9350   -7.6629    3.7256 C   0  0  0  0  0  0  0  0  0  0  0  0
  -18.0591   -8.4429    4.9635 S   0  0  0  0  0  0  0  0  0  0  0  0
   -7.1195   -8.2790    9.2672 C   0  0  0  0  0  0  0  0  0  0  0  0
   -8.0212   -7.0324    9.2018 C   0  0  0  0  0  0  0  0  0  0  0  0
   -8.5444   -6.6300   10.3058 O   0  0  0  0  0  0  0  0  0  0  0  0
   -9.0713   -6.2249   11.4176 C   0  0  0  0  0  0  0  0  0  0  0  0
   -8.3881   -6.0998   12.6298 C   0  0  0  0  0  0  0  0  0  0  0  0
   -8.9819   -5.6693   13.7762 C   0  0  0  0  0  0  0  0  0  0  0  0
  -10.3149   -5.3433   13.7373 C   0  0  0  0  0  0  0  0  0  0  0  0
  -11.0666   -5.4366   12.5844 C   0  0  0  0  0  0  0  0  0  0  0  0
  -12.4230   -5.0867   12.6195 C   0  0  0  0  0  0  0  0  0  0  0  0
  -13.1342   -5.1950   11.4486 C   0  0  0  0  0  0  0  0  0  0  0  0
  -12.5198   -5.6321   10.2964 C   0  0  0  0  0  0  0  0  0  0  0  0
  -11.1882   -5.9684   10.2909 C   0  0  0  0  0  0  0  0  0  0  0  0
  -10.4346   -5.8713   11.4603 C   0  0  0  0  0  0  0  0  0  0  0  0
 19 20  1  0  0  0
 20 21  1  0  0  0
 21 22  1  0  0  0
 22 23  2  0  0  0
 23 24  1  0  0  0
 24 25  2  0  0  0
 25 26  1  0  0  0
 26 27  2  0  0  0
 27 28  1  0  0  0
 28 29  2  0  0  0
 29 30  1  0  0  0
 30 31  2  0  0  0
 20  1  1  0  0  0
  1  2  2  0  0  0
  1  3  1  0  0  0
  3  5  1  0  0  0
  5  6  2  0  0  0
  6  7  1  0  0  0
  7  8  2  0  0  0
  8  9  1  0  0  0
  9 10  1  0  0  0
 10 11  2  0  0  0
 11 12  1  0  0  0
 12 13  2  0  0  0
 10 14  1  0  0  0
 14 15  2  0  0  0
 15 16  1  0  0  0
 16 17  2  0  0  0
 17 18  1  0  0  0
 31 22  1  0  0  0
 13  5  1  0  0  0
 18 14  1  0  0  0
 31 26  1  0  0  0
 12  8  1  0  0  0
  3  4  1  0  0  0
M  END
> <minimizedAffinity>
6.84961

> <CNNscore>
0.3733194172

> <CNNaffinity>
6.5216851234

> <CNN_VS>
2.4346716404

> <CNNaffinity_variance>
0.6536806822

$$$$
[H]c1sc(-c2nc3c([H])c(N([H])C(=O)[C@@]([H])(Oc4c([H])c([H])c([H])c5c([H])c([H])c([H])c([H])c45)C([H])([H])[H])c([H])c([H])c3o2)c([H])c1[H]


 31 35  0  0  0  0  0  0  0  0999 V2000
  -10.2249   -7.4244    8.5176 C   0  0  0  0  0  0  0  0  0  0  0  0
   -9.7996   -7.8527    7.4104 O   0  0  0  0  0  0  0  0  0  0  0  0
  -11.5534   -7.1556    8.8381 N   0  0  0  0  0  0  0  0  0  0  0  0
  -11.7168   -6.7884    9.8309 H   0  0  0  0  0  0  0  0  0  0  0  0
  -12.6792   -7.2956    8.0401 C   0  0  0  0  0  0  0  0  0  0  0  0
  -12.6551   -6.8313    6.7146 C   0  0  0  0  0  0  0  0  0  0  0  0
  -13.7497   -6.9513    5.8950 C   0  0  0  0  0  0  0  0  0  0  0  0
  -14.9250   -7.5280    6.3182 C   0  0  0  0  0  0  0  0  0  0  0  0
  -16.0812   -7.7501    5.7295 O   0  0  0  0  0  0  0  0  0  0  0  0
  -16.8521   -8.3360    6.6110 C   0  0  0  0  0  0  0  0  0  0  0  0
  -16.1951   -8.4943    7.7736 N   0  0  0  0  0  0  0  0  0  0  0  0
  -14.9599   -7.9860    7.6134 C   0  0  0  0  0  0  0  0  0  0  0  0
  -13.8369   -7.8616    8.4510 C   0  0  0  0  0  0  0  0  0  0  0  0
  -18.2527   -8.7765    6.3971 C   0  0  0  0  0  0  0  0  0  0  0  0
  -18.8128   -9.2186    5.2229 C   0  0  0  0  0  0  0  0  0  0  0  0
  -20.1037   -9.5677    5.2589 C   0  0  0  0  0  0  0  0  0  0  0  0
  -20.7574   -9.4568    6.4544 C   0  0  0  0  0  0  0  0  0  0  0  0
  -19.5460   -8.8659    7.4989 S   0  0  0  0  0  0  0  0  0  0  0  0
   -9.5966   -6.0229   10.3670 C   0  0  0  0  0  0  0  0  0  0  0  0
   -9.1098   -7.2151    9.5227 C   0  0  0  0  0  0  0  0  0  0  0  0
   -7.9476   -7.1127    8.9809 O   0  0  0  0  0  0  0  0  0  0  0  0
   -6.7773   -7.0096    8.4354 C   0  0  0  0  0  0  0  0  0  0  0  0
   -5.7138   -6.2666    8.9540 C   0  0  0  0  0  0  0  0  0  0  0  0
   -4.4985   -6.1856    8.3468 C   0  0  0  0  0  0  0  0  0  0  0  0
   -4.3111   -6.8666    7.1697 C   0  0  0  0  0  0  0  0  0  0  0  0
   -5.3054   -7.6244    6.5863 C   0  0  0  0  0  0  0  0  0  0  0  0
   -5.0421   -8.2926    5.3831 C   0  0  0  0  0  0  0  0  0  0  0  0
   -6.0609   -9.0357    4.8368 C   0  0  0  0  0  0  0  0  0  0  0  0
   -7.2853   -9.1083    5.4626 C   0  0  0  0  0  0  0  0  0  0  0  0
   -7.5155   -8.4427    6.6418 C   0  0  0  0  0  0  0  0  0  0  0  0
   -6.5054   -7.6789    7.2256 C   0  0  0  0  0  0  0  0  0  0  0  0
 19 20  1  0  0  0
 20 21  1  0  0  0
 21 22  1  0  0  0
 22 23  2  0  0  0
 23 24  1  0  0  0
 24 25  2  0  0  0
 25 26  1  0  0  0
 26 27  2  0  0  0
 27 28  1  0  0  0
 28 29  2  0  0  0
 29 30  1  0  0  0
 30 31  2  0  0  0
 20  1  1  0  0  0
  1  2  2  0  0  0
  1  3  1  0  0  0
  3  5  1  0  0  0
  5  6  2  0  0  0
  6  7  1  0  0  0
  7  8  2  0  0  0
  8  9  1  0  0  0
  9 10  1  0  0  0
 10 11  2  0  0  0
 11 12  1  0  0  0
 12 13  2  0  0  0
 10 14  1  0  0  0
 14 15  2  0  0  0
 15 16  1  0  0  0
 16 17  2  0  0  0
 17 18  1  0  0  0
 31 22  1  0  0  0
 13  5  1  0  0  0
 18 14  1  0  0  0
 31 26  1  0  0  0
 12  8  1  0  0  0
  3  4  1  0  0  0
M  END
> <minimizedAffinity>
4.41472

> <CNNscore>
0.3705516756

> <CNNaffinity>
6.4177536964

> <CNN_VS>
2.3781094551

> <CNNaffinity_variance>
1.8719755411

$$$$
[H]c1sc(-c2nc3c([H])c(N([H])C(=O)[C@@]([H])(Oc4c([H])c([H])c([H])c5c([H])c([H])c([H])c([H])c45)C([H])([H])[H])c([H])c([H])c3o2)c([H])c1[H]


 31 35  0  0  0  0  0  0  0  0999 V2000
  -10.0199   -7.7073    8.0581 C   0  0  0  0  0  0  0  0  0  0  0  0
   -9.7171   -8.1499    6.9168 O   0  0  0  0  0  0  0  0  0  0  0  0
  -11.2944   -7.3426    8.4853 N   0  0  0  0  0  0  0  0  0  0  0  0
  -11.3507   -6.9792    9.4912 H   0  0  0  0  0  0  0  0  0  0  0  0
  -12.4868   -7.3840    7.7778 C   0  0  0  0  0  0  0  0  0  0  0  0
  -12.5819   -6.7354    6.5355 C   0  0  0  0  0  0  0  0  0  0  0  0
  -13.7451   -6.7534    5.8068 C   0  0  0  0  0  0  0  0  0  0  0  0
  -14.8769   -7.4015    6.2449 C   0  0  0  0  0  0  0  0  0  0  0  0
  -16.0806   -7.5542    5.7347 O   0  0  0  0  0  0  0  0  0  0  0  0
  -16.7688   -8.2708    6.5878 C   0  0  0  0  0  0  0  0  0  0  0  0
  -16.0102   -8.5835    7.6534 N   0  0  0  0  0  0  0  0  0  0  0  0
  -14.7952   -8.0396    7.4594 C   0  0  0  0  0  0  0  0  0  0  0  0
  -13.6021   -8.0194    8.2039 C   0  0  0  0  0  0  0  0  0  0  0  0
  -18.1820   -8.6967    6.4373 C   0  0  0  0  0  0  0  0  0  0  0  0
  -18.8122   -9.0855    5.2799 C   0  0  0  0  0  0  0  0  0  0  0  0
  -20.1009   -9.4313    5.3761 C   0  0  0  0  0  0  0  0  0  0  0  0
  -20.6832   -9.3699    6.6115 C   0  0  0  0  0  0  0  0  0  0  0  0
  -19.4095   -8.8291    7.6079 S   0  0  0  0  0  0  0  0  0  0  0  0
   -9.0964   -6.3289    9.7978 C   0  0  0  0  0  0  0  0  0  0  0  0
   -8.8167   -7.5993    8.9735 C   0  0  0  0  0  0  0  0  0  0  0  0
   -7.6939   -7.6559    8.3485 O   0  0  0  0  0  0  0  0  0  0  0  0
   -6.5632   -7.7128    7.7192 C   0  0  0  0  0  0  0  0  0  0  0  0
   -6.3361   -8.4307    6.5423 C   0  0  0  0  0  0  0  0  0  0  0  0
   -5.1298   -8.4631    5.9130 C   0  0  0  0  0  0  0  0  0  0  0  0
   -4.0887   -7.7567    6.4622 C   0  0  0  0  0  0  0  0  0  0  0  0
   -4.2232   -7.0208    7.6214 C   0  0  0  0  0  0  0  0  0  0  0  0
   -3.1162   -6.3244    8.1243 C   0  0  0  0  0  0  0  0  0  0  0  0
   -3.2945   -5.6046    9.2813 C   0  0  0  0  0  0  0  0  0  0  0  0
   -4.5210   -5.5812    9.9068 C   0  0  0  0  0  0  0  0  0  0  0  0
   -5.5893   -6.2735    9.3913 C   0  0  0  0  0  0  0  0  0  0  0  0
   -5.4457   -7.0150    8.2190 C   0  0  0  0  0  0  0  0  0  0  0  0
 19 20  1  0  0  0
 20 21  1  0  0  0
 21 22  1  0  0  0
 22 23  2  0  0  0
 23 24  1  0  0  0
 24 25  2  0  0  0
 25 26  1  0  0  0
 26 27  2  0  0  0
 27 28  1  0  0  0
 28 29  2  0  0  0
 29 30  1  0  0  0
 30 31  2  0  0  0
 20  1  1  0  0  0
  1  2  2  0  0  0
  1  3  1  0  0  0
  3  5  1  0  0  0
  5  6  2  0  0  0
  6  7  1  0  0  0
  7  8  2  0  0  0
  8  9  1  0  0  0
  9 10  1  0  0  0
 10 11  2  0  0  0
 11 12  1  0  0  0
 12 13  2  0  0  0
 10 14  1  0  0  0
 14 15  2  0  0  0
 15 16  1  0  0  0
 16 17  2  0  0  0
 17 18  1  0  0  0
 31 22  1  0  0  0
 13  5  1  0  0  0
 18 14  1  0  0  0
 31 26  1  0  0  0
 12  8  1  0  0  0
  3  4  1  0  0  0
M  END
> <minimizedAffinity>
2.18693

> <CNNscore>
0.3202629983

> <CNNaffinity>
6.1081285477

> <CNN_VS>
1.9562075138

> <CNNaffinity_variance>
1.0053105354

$$$$
[H]c1sc(-c2nc3c([H])c(N([H])C(=O)[C@@]([H])(Oc4c([H])c([H])c([H])c5c([H])c([H])c([H])c([H])c45)C([H])([H])[H])c([H])c([H])c3o2)c([H])c1[H]


 31 35  0  0  0  0  0  0  0  0999 V2000
  -12.7303   -7.7815    7.3641 C   0  0  0  0  0  0  0  0  0  0  0  0
  -12.8308   -8.6958    6.5014 O   0  0  0  0  0  0  0  0  0  0  0  0
  -11.5479   -7.3225    7.9394 N   0  0  0  0  0  0  0  0  0  0  0  0
  -11.6668   -6.5415    8.6627 H   0  0  0  0  0  0  0  0  0  0  0  0
  -10.2496   -7.7491    7.7016 C   0  0  0  0  0  0  0  0  0  0  0  0
   -9.9671   -9.1241    7.6504 C   0  0  0  0  0  0  0  0  0  0  0  0
   -8.6948   -9.5844    7.4183 C   0  0  0  0  0  0  0  0  0  0  0  0
   -7.6301   -8.7351    7.2238 C   0  0  0  0  0  0  0  0  0  0  0  0
   -6.3503   -8.9356    6.9901 O   0  0  0  0  0  0  0  0  0  0  0  0
   -5.7915   -7.7558    6.8877 C   0  0  0  0  0  0  0  0  0  0  0  0
   -6.7102   -6.7881    7.0552 N   0  0  0  0  0  0  0  0  0  0  0  0
   -7.8950   -7.3874    7.2716 C   0  0  0  0  0  0  0  0  0  0  0  0
   -9.1995   -6.9186    7.5097 C   0  0  0  0  0  0  0  0  0  0  0  0
   -4.3566   -7.4840    6.6256 C   0  0  0  0  0  0  0  0  0  0  0  0
   -3.3070   -8.3589    6.7704 C   0  0  0  0  0  0  0  0  0  0  0  0
   -2.0863   -7.8978    6.4754 C   0  0  0  0  0  0  0  0  0  0  0  0
   -1.9828   -6.6006    6.0562 C   0  0  0  0  0  0  0  0  0  0  0  0
   -3.5995   -6.0592    6.0859 S   0  0  0  0  0  0  0  0  0  0  0  0
  -14.7980   -8.3572    8.4467 C   0  0  0  0  0  0  0  0  0  0  0  0
  -14.0753   -7.1940    7.7422 C   0  0  0  0  0  0  0  0  0  0  0  0
  -14.6848   -6.6385    6.7551 O   0  0  0  0  0  0  0  0  0  0  0  0
  -15.2986   -6.0791    5.7610 C   0  0  0  0  0  0  0  0  0  0  0  0
  -14.9452   -4.8553    5.1869 C   0  0  0  0  0  0  0  0  0  0  0  0
  -15.6192   -4.3031    4.1414 C   0  0  0  0  0  0  0  0  0  0  0  0
  -16.6964   -4.9821    3.6285 C   0  0  0  0  0  0  0  0  0  0  0  0
  -17.1154   -6.1958    4.1333 C   0  0  0  0  0  0  0  0  0  0  0  0
  -18.2241   -6.8318    3.5591 C   0  0  0  0  0  0  0  0  0  0  0  0
  -18.6072   -8.0386    4.0931 C   0  0  0  0  0  0  0  0  0  0  0  0
  -17.9155   -8.5850    5.1510 C   0  0  0  0  0  0  0  0  0  0  0  0
  -16.8319   -7.9393    5.6943 C   0  0  0  0  0  0  0  0  0  0  0  0
  -16.4141   -6.7129    5.1786 C   0  0  0  0  0  0  0  0  0  0  0  0
 19 20  1  0  0  0
 20 21  1  0  0  0
 21 22  1  0  0  0
 22 23  2  0  0  0
 23 24  1  0  0  0
 24 25  2  0  0  0
 25 26  1  0  0  0
 26 27  2  0  0  0
 27 28  1  0  0  0
 28 29  2  0  0  0
 29 30  1  0  0  0
 30 31  2  0  0  0
 20  1  1  0  0  0
  1  2  2  0  0  0
  1  3  1  0  0  0
  3  5  1  0  0  0
  5  6  2  0  0  0
  6  7  1  0  0  0
  7  8  2  0  0  0
  8  9  1  0  0  0
  9 10  1  0  0  0
 10 11  2  0  0  0
 11 12  1  0  0  0
 12 13  2  0  0  0
 10 14  1  0  0  0
 14 15  2  0  0  0
 15 16  1  0  0  0
 16 17  2  0  0  0
 17 18  1  0  0  0
 31 22  1  0  0  0
 13  5  1  0  0  0
 18 14  1  0  0  0
 31 26  1  0  0  0
 12  8  1  0  0  0
  3  4  1  0  0  0
M  END
> <minimizedAffinity>
-10.42139

> <CNNscore>
0.3175584674

> <CNNaffinity>
6.7198510170

> <CNN_VS>
2.1339457035

> <CNNaffinity_variance>
0.1438285708

$$$$
[H]c1sc(-c2nc3c([H])c(N([H])C(=O)[C@@]([H])(Oc4c([H])c([H])c([H])c5c([H])c([H])c([H])c([H])c45)C([H])([H])[H])c([H])c([H])c3o2)c([H])c1[H]


 31 35  0  0  0  0  0  0  0  0999 V2000
   -6.0648   -7.4691    7.3682 C   0  0  0  0  0  0  0  0  0  0  0  0
   -6.2261   -7.1932    6.1483 O   0  0  0  0  0  0  0  0  0  0  0  0
   -7.0107   -8.0481    8.2107 N   0  0  0  0  0  0  0  0  0  0  0  0
   -6.6892   -8.1978    9.2213 H   0  0  0  0  0  0  0  0  0  0  0  0
   -8.3056   -8.4451    7.9111 C   0  0  0  0  0  0  0  0  0  0  0  0
   -8.5444   -9.7499    7.4491 C   0  0  0  0  0  0  0  0  0  0  0  0
   -9.8116  -10.1788    7.1416 C   0  0  0  0  0  0  0  0  0  0  0  0
  -10.9135   -9.3644    7.2661 C   0  0  0  0  0  0  0  0  0  0  0  0
  -12.1971   -9.5464    7.0381 O   0  0  0  0  0  0  0  0  0  0  0  0
  -12.8001   -8.4214    7.3307 C   0  0  0  0  0  0  0  0  0  0  0  0
  -11.9063   -7.5080    7.7492 N   0  0  0  0  0  0  0  0  0  0  0  0
  -10.6917   -8.0855    7.7175 C   0  0  0  0  0  0  0  0  0  0  0  0
   -9.3922   -7.6488    8.0317 C   0  0  0  0  0  0  0  0  0  0  0  0
  -14.2558   -8.1535    7.2286 C   0  0  0  0  0  0  0  0  0  0  0  0
  -15.2051   -8.3480    8.2028 C   0  0  0  0  0  0  0  0  0  0  0  0
  -16.4683   -8.0365    7.8914 C   0  0  0  0  0  0  0  0  0  0  0  0
  -16.7109   -7.5528    6.6360 C   0  0  0  0  0  0  0  0  0  0  0  0
  -15.1619   -7.5463    5.9230 S   0  0  0  0  0  0  0  0  0  0  0  0
   -4.9361   -5.8805    8.7758 C   0  0  0  0  0  0  0  0  0  0  0  0
   -4.6825   -7.0972    7.8665 C   0  0  0  0  0  0  0  0  0  0  0  0
   -3.8218   -6.9523    6.9217 O   0  0  0  0  0  0  0  0  0  0  0  0
   -2.9551   -6.8064    5.9702 C   0  0  0  0  0  0  0  0  0  0  0  0
   -1.9515   -7.7250    5.6522 C   0  0  0  0  0  0  0  0  0  0  0  0
   -1.0601   -7.5313    4.6422 C   0  0  0  0  0  0  0  0  0  0  0  0
   -1.1532   -6.3786    3.9026 C   0  0  0  0  0  0  0  0  0  0  0  0
   -2.1125   -5.4176    4.1467 C   0  0  0  0  0  0  0  0  0  0  0  0
   -2.1473   -4.2651    3.3505 C   0  0  0  0  0  0  0  0  0  0  0  0
   -3.1188   -3.3338    3.6287 C   0  0  0  0  0  0  0  0  0  0  0  0
   -4.0139   -3.5436    4.6538 C   0  0  0  0  0  0  0  0  0  0  0  0
   -3.9565   -4.6830    5.4185 C   0  0  0  0  0  0  0  0  0  0  0  0
   -2.9841   -5.6501    5.1655 C   0  0  0  0  0  0  0  0  0  0  0  0
 19 20  1  0  0  0
 20 21  1  0  0  0
 21 22  1  0  0  0
 22 23  2  0  0  0
 23 24  1  0  0  0
 24 25  2  0  0  0
 25 26  1  0  0  0
 26 27  2  0  0  0
 27 28  1  0  0  0
 28 29  2  0  0  0
 29 30  1  0  0  0
 30 31  2  0  0  0
 20  1  1  0  0  0
  1  2  2  0  0  0
  1  3  1  0  0  0
  3  5  1  0  0  0
  5  6  2  0  0  0
  6  7  1  0  0  0
  7  8  2  0  0  0
  8  9  1  0  0  0
  9 10  1  0  0  0
 10 11  2  0  0  0
 11 12  1  0  0  0
 12 13  2  0  0  0
 10 14  1  0  0  0
 14 15  2  0  0  0
 15 16  1  0  0  0
 16 17  2  0  0  0
 17 18  1  0  0  0
 31 22  1  0  0  0
 13  5  1  0  0  0
 18 14  1  0  0  0
 31 26  1  0  0  0
 12  8  1  0  0  0
  3  4  1  0  0  0
M  END
> <minimizedAffinity>
-8.31445

> <CNNscore>
0.2794283330

> <CNNaffinity>
6.2012672424

> <CNN_VS>
1.7328097820

> <CNNaffinity_variance>
0.1013611332

$$$$
[H]c1sc(-c2nc3c([H])c(N([H])C(=O)[C@@]([H])(Oc4c([H])c([H])c([H])c5c([H])c([H])c([H])c([H])c45)C([H])([H])[H])c([H])c([H])c3o2)c([H])c1[H]


 31 35  0  0  0  0  0  0  0  0999 V2000
   -4.7488   -6.1048    6.3081 C   0  0  0  0  0  0  0  0  0  0  0  0
   -5.3505   -5.7678    5.2523 O   0  0  0  0  0  0  0  0  0  0  0  0
   -5.2573   -6.9171    7.3187 N   0  0  0  0  0  0  0  0  0  0  0  0
   -4.5962   -7.0838    8.1447 H   0  0  0  0  0  0  0  0  0  0  0  0
   -6.5015   -7.5259    7.3932 C   0  0  0  0  0  0  0  0  0  0  0  0
   -6.5985   -8.9244    7.3058 C   0  0  0  0  0  0  0  0  0  0  0  0
   -7.8120   -9.5626    7.3744 C   0  0  0  0  0  0  0  0  0  0  0  0
   -8.9947   -8.8775    7.5313 C   0  0  0  0  0  0  0  0  0  0  0  0
  -10.2509   -9.2603    7.6215 O   0  0  0  0  0  0  0  0  0  0  0  0
  -10.9712   -8.1758    7.7631 C   0  0  0  0  0  0  0  0  0  0  0  0
  -10.1810   -7.0877    7.7647 N   0  0  0  0  0  0  0  0  0  0  0  0
   -8.9117   -7.5085    7.6180 C   0  0  0  0  0  0  0  0  0  0  0  0
   -7.6670   -6.8573    7.5473 C   0  0  0  0  0  0  0  0  0  0  0  0
  -12.4469   -8.1146    7.9043 C   0  0  0  0  0  0  0  0  0  0  0  0
  -13.1991   -7.0297    8.2854 C   0  0  0  0  0  0  0  0  0  0  0  0
  -14.5246   -7.2004    8.3461 C   0  0  0  0  0  0  0  0  0  0  0  0
  -15.0204   -8.4335    8.0258 C   0  0  0  0  0  0  0  0  0  0  0  0
  -13.6161   -9.3235    7.6473 S   0  0  0  0  0  0  0  0  0  0  0  0
   -2.5489   -6.5946    7.1442 C   0  0  0  0  0  0  0  0  0  0  0  0
   -3.3529   -5.5200    6.3890 C   0  0  0  0  0  0  0  0  0  0  0  0
   -3.3270   -4.3262    6.8671 O   0  0  0  0  0  0  0  0  0  0  0  0
   -3.3011   -3.1239    7.3485 C   0  0  0  0  0  0  0  0  0  0  0  0
   -2.9570   -2.7935    8.6617 C   0  0  0  0  0  0  0  0  0  0  0  0
   -2.9429   -1.5144    9.1265 C   0  0  0  0  0  0  0  0  0  0  0  0
   -3.2832   -0.5031    8.2628 C   0  0  0  0  0  0  0  0  0  0  0  0
   -3.6361   -0.7379    6.9500 C   0  0  0  0  0  0  0  0  0  0  0  0
   -3.9719    0.3442    6.1256 C   0  0  0  0  0  0  0  0  0  0  0  0
   -4.3175    0.0649    4.8252 C   0  0  0  0  0  0  0  0  0  0  0  0
   -4.3272   -1.2343    4.3692 C   0  0  0  0  0  0  0  0  0  0  0  0
   -3.9933   -2.2761    5.1996 C   0  0  0  0  0  0  0  0  0  0  0  0
   -3.6374   -2.0308    6.5254 C   0  0  0  0  0  0  0  0  0  0  0  0
 19 20  1  0  0  0
 20 21  1  0  0  0
 21 22  1  0  0  0
 22 23  2  0  0  0
 23 24  1  0  0  0
 24 25  2  0  0  0
 25 26  1  0  0  0
 26 27  2  0  0  0
 27 28  1  0  0  0
 28 29  2  0  0  0
 29 30  1  0  0  0
 30 31  2  0  0  0
 20  1  1  0  0  0
  1  2  2  0  0  0
  1  3  1  0  0  0
  3  5  1  0  0  0
  5  6  2  0  0  0
  6  7  1  0  0  0
  7  8  2  0  0  0
  8  9  1  0  0  0
  9 10  1  0  0  0
 10 11  2  0  0  0
 11 12  1  0  0  0
 12 13  2  0  0  0
 10 14  1  0  0  0
 14 15  2  0  0  0
 15 16  1  0  0  0
 16 17  2  0  0  0
 17 18  1  0  0  0
 31 22  1  0  0  0
 13  5  1  0  0  0
 18 14  1  0  0  0
 31 26  1  0  0  0
 12  8  1  0  0  0
  3  4  1  0  0  0
M  END
> <minimizedAffinity>
-7.08177

> <CNNscore>
0.2714433670

> <CNNaffinity>
5.9724020958

> <CNN_VS>
1.6211689711

> <CNNaffinity_variance>
0.0931858569

$$$$
[H]OC(=O)c1[se]c(-c2c([H])c([H])c(C([H])([H])[H])c(C#N)c2[H])nc1C([H])([H])[H]


 19 20  0  0  0  0  0  0  0  0999 V2000
   -6.0544   -6.0334    5.3812 C   0  0  0  0  0  0  0  0  0  0  0  0
   -6.7232   -6.7384    6.5983 C   0  0  0  0  0  0  0  0  0  0  0  0
   -7.9690   -6.7333    6.8143 N   0  0  0  0  0  0  0  0  0  0  0  0
   -8.7635   -7.1698    7.6364 C   0  0  0  0  0  0  0  0  0  0  0  0
   -7.1153   -8.1100    8.8035 Se  0  0  0  0  0  0  0  0  0  0  0  0
   -5.8337   -7.3759    7.4305 C   0  0  0  0  0  0  0  0  0  0  0  0
  -10.0728   -7.3586    8.1657 C   0  0  0  0  0  0  0  0  0  0  0  0
  -10.5524   -6.3770    9.0256 C   0  0  0  0  0  0  0  0  0  0  0  0
  -11.7983   -6.4587    9.5913 C   0  0  0  0  0  0  0  0  0  0  0  0
  -12.5943   -7.5460    9.2967 C   0  0  0  0  0  0  0  0  0  0  0  0
  -13.9585   -7.6826    9.8864 C   0  0  0  0  0  0  0  0  0  0  0  0
  -12.1468   -8.5319    8.4500 C   0  0  0  0  0  0  0  0  0  0  0  0
  -10.8990   -8.4186    7.9032 C   0  0  0  0  0  0  0  0  0  0  0  0
  -12.9988   -9.6841    8.1419 C   0  0  0  0  0  0  0  0  0  0  0  0
  -13.6563  -10.5888    7.8915 N   0  0  0  0  0  0  0  0  0  0  0  0
   -4.3964   -7.5292    7.4112 C   0  0  0  0  0  0  0  0  0  0  0  0
   -3.5849   -6.6790    8.1240 O   0  0  0  0  0  0  0  0  0  0  0  0
   -3.8896   -8.4426    6.7405 O   0  0  0  0  0  0  0  0  0  0  0  0
   -3.8063   -5.6953    8.2344 H   0  0  0  0  0  0  0  0  0  0  0  0
  1  2  1  0  0  0
  2  3  1  0  0  0
  3  4  2  0  0  0
  4  5  1  0  0  0
  5  6  1  0  0  0
  6 16  1  0  0  0
 16 17  1  0  0  0
 16 18  2  0  0  0
  4  7  1  0  0  0
  7  8  2  0  0  0
  8  9  1  0  0  0
  9 10  2  0  0  0
 10 11  1  0  0  0
 10 12  1  0  0  0
 12 13  2  0  0  0
 12 14  1  0  0  0
 14 15  3  0  0  0
  6  2  2  0  0  0
 13  7  1  0  0  0
 17 19  1  0  0  0
M  END
> <minimizedAffinity>
-7.18161

> <CNNscore>
0.6265243292

> <CNNaffinity>
5.2985873222

> <CNN_VS>
3.3196938038

> <CNNaffinity_variance>
0.1542476565

$$$$
[H]OC(=O)c1[se]c(-c2c([H])c([H])c(C([H])([H])[H])c(C#N)c2[H])nc1C([H])([H])[H]


 19 20  0  0  0  0  0  0  0  0999 V2000
   -8.8519  -13.6433    3.2678 C   0  0  0  0  0  0  0  0  0  0  0  0
   -8.2945  -12.1900    3.3228 C   0  0  0  0  0  0  0  0  0  0  0  0
   -8.2159  -11.5085    4.3849 N   0  0  0  0  0  0  0  0  0  0  0  0
   -7.8458  -10.3981    4.7419 C   0  0  0  0  0  0  0  0  0  0  0  0
   -7.2704   -9.8650    2.6569 Se  0  0  0  0  0  0  0  0  0  0  0  0
   -7.8893  -11.7024    2.1028 C   0  0  0  0  0  0  0  0  0  0  0  0
   -7.6219   -9.3833    5.7167 C   0  0  0  0  0  0  0  0  0  0  0  0
   -6.3119   -8.9488    5.8844 C   0  0  0  0  0  0  0  0  0  0  0  0
   -5.9844   -7.9773    6.7943 C   0  0  0  0  0  0  0  0  0  0  0  0
   -6.9847   -7.4185    7.5622 C   0  0  0  0  0  0  0  0  0  0  0  0
   -6.6811   -6.3576    8.5671 C   0  0  0  0  0  0  0  0  0  0  0  0
   -8.2888   -7.8281    7.4184 C   0  0  0  0  0  0  0  0  0  0  0  0
   -8.5802   -8.7992    6.5013 C   0  0  0  0  0  0  0  0  0  0  0  0
   -9.3460   -7.2293    8.2381 C   0  0  0  0  0  0  0  0  0  0  0  0
  -10.1706   -6.7703    8.8885 N   0  0  0  0  0  0  0  0  0  0  0  0
   -7.8728  -12.2617    0.7698 C   0  0  0  0  0  0  0  0  0  0  0  0
   -8.2671  -11.5155   -0.3151 O   0  0  0  0  0  0  0  0  0  0  0  0
   -7.4967  -13.4331    0.6047 O   0  0  0  0  0  0  0  0  0  0  0  0
   -9.0217  -10.8403   -0.2543 H   0  0  0  0  0  0  0  0  0  0  0  0
  1  2  1  0  0  0
  2  3  1  0  0  0
  3  4  2  0  0  0
  4  5  1  0  0  0
  5  6  1  0  0  0
  6 16  1  0  0  0
 16 17  1  0  0  0
 16 18  2  0  0  0
  4  7  1  0  0  0
  7  8  2  0  0  0
  8  9  1  0  0  0
  9 10  2  0  0  0
 10 11  1  0  0  0
 10 12  1  0  0  0
 12 13  2  0  0  0
 12 14  1  0  0  0
 14 15  3  0  0  0
  6  2  2  0  0  0
 13  7  1  0  0  0
 17 19  1  0  0  0
M  END
> <minimizedAffinity>
11.83789

> <CNNscore>
0.5124794245

> <CNNaffinity>
4.5628571510

> <CNN_VS>
2.3383703232

> <CNNaffinity_variance>
0.9237726331

$$$$
[H]OC(=O)c1[se]c(-c2c([H])c([H])c(C([H])([H])[H])c(C#N)c2[H])nc1C([H])([H])[H]


 19 20  0  0  0  0  0  0  0  0999 V2000
   -4.9967   -7.0389    8.7490 C   0  0  0  0  0  0  0  0  0  0  0  0
   -6.3521   -6.8855    7.9976 C   0  0  0  0  0  0  0  0  0  0  0  0
   -7.4765   -7.1301    8.5217 N   0  0  0  0  0  0  0  0  0  0  0  0
   -8.6607   -7.1093    8.2140 C   0  0  0  0  0  0  0  0  0  0  0  0
   -8.1651   -6.4100    6.1577 Se  0  0  0  0  0  0  0  0  0  0  0  0
   -6.2229   -6.4557    6.6980 C   0  0  0  0  0  0  0  0  0  0  0  0
  -10.0487   -7.2884    8.4812 C   0  0  0  0  0  0  0  0  0  0  0  0
  -10.6964   -6.2641    9.1626 C   0  0  0  0  0  0  0  0  0  0  0  0
  -12.0302   -6.3329    9.4712 C   0  0  0  0  0  0  0  0  0  0  0  0
  -12.7452   -7.4505    9.0938 C   0  0  0  0  0  0  0  0  0  0  0  0
  -14.1993   -7.5747    9.4057 C   0  0  0  0  0  0  0  0  0  0  0  0
  -12.1315   -8.4789    8.4192 C   0  0  0  0  0  0  0  0  0  0  0  0
  -10.7998   -8.3774    8.1274 C   0  0  0  0  0  0  0  0  0  0  0  0
  -12.8982   -9.6631    8.0215 C   0  0  0  0  0  0  0  0  0  0  0  0
  -13.4884  -10.5969    7.7160 N   0  0  0  0  0  0  0  0  0  0  0  0
   -5.0826   -6.1141    5.8777 C   0  0  0  0  0  0  0  0  0  0  0  0
   -4.9405   -4.8508    5.3551 O   0  0  0  0  0  0  0  0  0  0  0  0
   -4.2204   -6.9757    5.6429 O   0  0  0  0  0  0  0  0  0  0  0  0
   -5.7388   -4.3066    5.0463 H   0  0  0  0  0  0  0  0  0  0  0  0
  1  2  1  0  0  0
  2  3  1  0  0  0
  3  4  2  0  0  0
  4  5  1  0  0  0
  5  6  1  0  0  0
  6 16  1  0  0  0
 16 17  1  0  0  0
 16 18  2  0  0  0
  4  7  1  0  0  0
  7  8  2  0  0  0
  8  9  1  0  0  0
  9 10  2  0  0  0
 10 11  1  0  0  0
 10 12  1  0  0  0
 12 13  2  0  0  0
 12 14  1  0  0  0
 14 15  3  0  0  0
  6  2  2  0  0  0
 13  7  1  0  0  0
 17 19  1  0  0  0
M  END
> <minimizedAffinity>
-6.06083

> <CNNscore>
0.5067766905

> <CNNaffinity>
5.2494449615

> <CNN_VS>
2.6602964401

> <CNNaffinity_variance>
0.1962852627

$$$$
[H]OC(=O)c1[se]c(-c2c([H])c([H])c(C([H])([H])[H])c(C#N)c2[H])nc1C([H])([H])[H]


 19 20  0  0  0  0  0  0  0  0999 V2000
  -21.2198  -10.9114    5.8196 C   0  0  0  0  0  0  0  0  0  0  0  0
  -20.0854  -10.0454    6.4431 C   0  0  0  0  0  0  0  0  0  0  0  0
  -19.3602   -9.2533    5.7759 N   0  0  0  0  0  0  0  0  0  0  0  0
  -18.4345   -8.4744    5.9605 C   0  0  0  0  0  0  0  0  0  0  0  0
  -18.4109   -8.9412    8.1387 Se  0  0  0  0  0  0  0  0  0  0  0  0
  -19.9357  -10.2164    7.7991 C   0  0  0  0  0  0  0  0  0  0  0  0
  -17.4677   -7.5210    5.5287 C   0  0  0  0  0  0  0  0  0  0  0  0
  -16.1898   -7.6325    6.0649 C   0  0  0  0  0  0  0  0  0  0  0  0
  -15.1838   -6.7682    5.7186 C   0  0  0  0  0  0  0  0  0  0  0  0
  -15.4510   -5.7622    4.8136 C   0  0  0  0  0  0  0  0  0  0  0  0
  -14.3907   -4.7951    4.4035 C   0  0  0  0  0  0  0  0  0  0  0  0
  -16.7049   -5.6275    4.2671 C   0  0  0  0  0  0  0  0  0  0  0  0
  -17.6849   -6.5069    4.6345 C   0  0  0  0  0  0  0  0  0  0  0  0
  -16.9808   -4.5558    3.3059 C   0  0  0  0  0  0  0  0  0  0  0  0
  -17.1833   -3.7160    2.5528 N   0  0  0  0  0  0  0  0  0  0  0  0
  -20.6168  -11.0385    8.7738 C   0  0  0  0  0  0  0  0  0  0  0  0
  -20.1126  -11.1950   10.0429 O   0  0  0  0  0  0  0  0  0  0  0  0
  -21.6722  -11.6107    8.4580 O   0  0  0  0  0  0  0  0  0  0  0  0
  -19.1149  -11.2376   10.2208 H   0  0  0  0  0  0  0  0  0  0  0  0
  1  2  1  0  0  0
  2  3  1  0  0  0
  3  4  2  0  0  0
  4  5  1  0  0  0
  5  6  1  0  0  0
  6 16  1  0  0  0
 16 17  1  0  0  0
 16 18  2  0  0  0
  4  7  1  0  0  0
  7  8  2  0  0  0
  8  9  1  0  0  0
  9 10  2  0  0  0
 10 11  1  0  0  0
 10 12  1  0  0  0
 12 13  2  0  0  0
 12 14  1  0  0  0
 14 15  3  0  0  0
  6  2  2  0  0  0
 13  7  1  0  0  0
 17 19  1  0  0  0
M  END
> <minimizedAffinity>
2.26835

> <CNNscore>
0.4653585553

> <CNNaffinity>
5.1857013702

> <CNN_VS>
2.4132103920

> <CNNaffinity_variance>
0.6902111173

$$$$
[H]OC(=O)c1[se]c(-c2c([H])c([H])c(C([H])([H])[H])c(C#N)c2[H])nc1C([H])([H])[H]


 19 20  0  0  0  0  0  0  0  0999 V2000
  -13.6096   -6.5385    2.2045 C   0  0  0  0  0  0  0  0  0  0  0  0
  -14.5242   -7.6854    2.7278 C   0  0  0  0  0  0  0  0  0  0  0  0
  -15.3561   -7.5450    3.6696 N   0  0  0  0  0  0  0  0  0  0  0  0
  -16.1772   -8.2151    4.2813 C   0  0  0  0  0  0  0  0  0  0  0  0
  -15.6938  -10.0136    3.0588 Se  0  0  0  0  0  0  0  0  0  0  0  0
  -14.3492   -8.8807    2.0714 C   0  0  0  0  0  0  0  0  0  0  0  0
  -17.1799   -8.4030    5.2760 C   0  0  0  0  0  0  0  0  0  0  0  0
  -16.9024   -7.9193    6.5496 C   0  0  0  0  0  0  0  0  0  0  0  0
  -17.7964   -8.0467    7.5809 C   0  0  0  0  0  0  0  0  0  0  0  0
  -19.0027   -8.6722    7.3441 C   0  0  0  0  0  0  0  0  0  0  0  0
  -20.0105   -8.8365    8.4326 C   0  0  0  0  0  0  0  0  0  0  0  0
  -19.3046   -9.1603    6.0952 C   0  0  0  0  0  0  0  0  0  0  0  0
  -18.3900   -9.0162    5.0894 C   0  0  0  0  0  0  0  0  0  0  0  0
  -20.5887   -9.8238    5.8517 C   0  0  0  0  0  0  0  0  0  0  0  0
  -21.5937  -10.3453    5.6744 N   0  0  0  0  0  0  0  0  0  0  0  0
  -13.4869   -9.2978    0.9887 C   0  0  0  0  0  0  0  0  0  0  0  0
  -13.9791   -9.4619   -0.2842 O   0  0  0  0  0  0  0  0  0  0  0  0
  -12.2849   -9.5105    1.2138 O   0  0  0  0  0  0  0  0  0  0  0  0
  -14.9128   -9.8196   -0.4548 H   0  0  0  0  0  0  0  0  0  0  0  0
  1  2  1  0  0  0
  2  3  1  0  0  0
  3  4  2  0  0  0
  4  5  1  0  0  0
  5  6  1  0  0  0
  6 16  1  0  0  0
 16 17  1  0  0  0
 16 18  2  0  0  0
  4  7  1  0  0  0
  7  8  2  0  0  0
  8  9  1  0  0  0
  9 10  2  0  0  0
 10 11  1  0  0  0
 10 12  1  0  0  0
 12 13  2  0  0  0
 12 14  1  0  0  0
 14 15  3  0  0  0
  6  2  2  0  0  0
 13  7  1  0  0  0
 17 19  1  0  0  0
M  END
> <minimizedAffinity>
22.68352

> <CNNscore>
0.4629626870

> <CNNaffinity>
5.1357159615

> <CNN_VS>
2.3776447773

> <CNNaffinity_variance>
1.9329659939

$$$$
[H]OC(=O)c1[se]c(-c2c([H])c([H])c(C([H])([H])[H])c(C#N)c2[H])nc1C([H])([H])[H]


 19 20  0  0  0  0  0  0  0  0999 V2000
  -19.6984  -10.4068    4.5037 C   0  0  0  0  0  0  0  0  0  0  0  0
  -18.9287   -9.4744    5.4855 C   0  0  0  0  0  0  0  0  0  0  0  0
  -17.7297   -9.1117    5.3140 N   0  0  0  0  0  0  0  0  0  0  0  0
  -16.8867   -8.4222    5.8721 C   0  0  0  0  0  0  0  0  0  0  0  0
  -18.3070   -7.9290    7.5160 Se  0  0  0  0  0  0  0  0  0  0  0  0
  -19.6721   -9.0727    6.5701 C   0  0  0  0  0  0  0  0  0  0  0  0
  -15.5920   -7.8386    5.9867 C   0  0  0  0  0  0  0  0  0  0  0  0
  -14.7296   -8.3976    6.9231 C   0  0  0  0  0  0  0  0  0  0  0  0
  -13.4614   -7.9143    7.1154 C   0  0  0  0  0  0  0  0  0  0  0  0
  -13.0333   -6.8445    6.3572 C   0  0  0  0  0  0  0  0  0  0  0  0
  -11.6621   -6.2807    6.5279 C   0  0  0  0  0  0  0  0  0  0  0  0
  -13.8639   -6.2715    5.4239 C   0  0  0  0  0  0  0  0  0  0  0  0
  -15.1225   -6.7786    5.2579 C   0  0  0  0  0  0  0  0  0  0  0  0
  -13.4015   -5.1349    4.6222 C   0  0  0  0  0  0  0  0  0  0  0  0
  -13.0274   -4.2488    3.9989 N   0  0  0  0  0  0  0  0  0  0  0  0
  -21.0291   -9.3373    6.9922 C   0  0  0  0  0  0  0  0  0  0  0  0
  -21.6546  -10.5165    6.6638 O   0  0  0  0  0  0  0  0  0  0  0  0
  -21.6367   -8.4861    7.6609 O   0  0  0  0  0  0  0  0  0  0  0  0
  -21.4939  -10.9778    5.7748 H   0  0  0  0  0  0  0  0  0  0  0  0
  1  2  1  0  0  0
  2  3  1  0  0  0
  3  4  2  0  0  0
  4  5  1  0  0  0
  5  6  1  0  0  0
  6 16  1  0  0  0
 16 17  1  0  0  0
 16 18  2  0  0  0
  4  7  1  0  0  0
  7  8  2  0  0  0
  8  9  1  0  0  0
  9 10  2  0  0  0
 10 11  1  0  0  0
 10 12  1  0  0  0
 12 13  2  0  0  0
 12 14  1  0  0  0
 14 15  3  0  0  0
  6  2  2  0  0  0
 13  7  1  0  0  0
 17 19  1  0  0  0
M  END
> <minimizedAffinity>
17.09759

> <CNNscore>
0.4232187271

> <CNNaffinity>
5.3536977768

> <CNN_VS>
2.2657852173

> <CNNaffinity_variance>
2.2440915108

$$$$
[H]OC(=O)c1[se]c(-c2c([H])c([H])c(C([H])([H])[H])c(C#N)c2[H])nc1C([H])([H])[H]


 19 20  0  0  0  0  0  0  0  0999 V2000
   -4.4742   -5.9295    8.6361 C   0  0  0  0  0  0  0  0  0  0  0  0
   -5.5947   -6.3384    7.6347 C   0  0  0  0  0  0  0  0  0  0  0  0
   -6.6797   -6.8870    7.9818 N   0  0  0  0  0  0  0  0  0  0  0  0
   -7.7059   -7.3081    7.4650 C   0  0  0  0  0  0  0  0  0  0  0  0
   -6.9803   -6.7331    5.4387 Se  0  0  0  0  0  0  0  0  0  0  0  0
   -5.3020   -6.0490    6.3229 C   0  0  0  0  0  0  0  0  0  0  0  0
   -8.9939   -7.9163    7.5037 C   0  0  0  0  0  0  0  0  0  0  0  0
   -9.0628   -9.2668    7.1809 C   0  0  0  0  0  0  0  0  0  0  0  0
  -10.2509   -9.9506    7.1864 C   0  0  0  0  0  0  0  0  0  0  0  0
  -11.4066   -9.2766    7.5218 C   0  0  0  0  0  0  0  0  0  0  0  0
  -12.7255   -9.9748    7.5428 C   0  0  0  0  0  0  0  0  0  0  0  0
  -11.3690   -7.9413    7.8454 C   0  0  0  0  0  0  0  0  0  0  0  0
  -10.1671   -7.2901    7.8300 C   0  0  0  0  0  0  0  0  0  0  0  0
  -12.6017   -7.2322    8.2008 C   0  0  0  0  0  0  0  0  0  0  0  0
  -13.5595   -6.6661    8.4757 N   0  0  0  0  0  0  0  0  0  0  0  0
   -4.1624   -5.4400    5.6746 C   0  0  0  0  0  0  0  0  0  0  0  0
   -4.2209   -4.1481    5.2087 O   0  0  0  0  0  0  0  0  0  0  0  0
   -3.1168   -6.0949    5.5376 O   0  0  0  0  0  0  0  0  0  0  0  0
   -5.0688   -3.7618    4.8080 H   0  0  0  0  0  0  0  0  0  0  0  0
  1  2  1  0  0  0
  2  3  1  0  0  0
  3  4  2  0  0  0
  4  5  1  0  0  0
  5  6  1  0  0  0
  6 16  1  0  0  0
 16 17  1  0  0  0
 16 18  2  0  0  0
  4  7  1  0  0  0
  7  8  2  0  0  0
  8  9  1  0  0  0
  9 10  2  0  0  0
 10 11  1  0  0  0
 10 12  1  0  0  0
 12 13  2  0  0  0
 12 14  1  0  0  0
 14 15  3  0  0  0
  6  2  2  0  0  0
 13  7  1  0  0  0
 17 19  1  0  0  0
M  END
> <minimizedAffinity>
-7.03612

> <CNNscore>
0.4221449494

> <CNNaffinity>
4.9011983871

> <CNN_VS>
2.0690162182

> <CNNaffinity_variance>
0.1637045443

$$$$
[H]OC(=O)c1[se]c(-c2c([H])c([H])c(C([H])([H])[H])c(C#N)c2[H])nc1C([H])([H])[H]


 19 20  0  0  0  0  0  0  0  0999 V2000
   -4.6229   -8.2422    5.7000 C   0  0  0  0  0  0  0  0  0  0  0  0
   -5.2780   -7.2784    6.7333 C   0  0  0  0  0  0  0  0  0  0  0  0
   -4.7391   -6.9546    7.8303 N   0  0  0  0  0  0  0  0  0  0  0  0
   -4.9825   -6.2574    8.8061 C   0  0  0  0  0  0  0  0  0  0  0  0
   -6.9414   -5.6435    7.9409 Se  0  0  0  0  0  0  0  0  0  0  0  0
   -6.5087   -6.8019    6.3480 C   0  0  0  0  0  0  0  0  0  0  0  0
   -4.6754   -5.7004   10.0811 C   0  0  0  0  0  0  0  0  0  0  0  0
   -5.5999   -5.9081   11.0986 C   0  0  0  0  0  0  0  0  0  0  0  0
   -5.4043   -5.4165   12.3631 C   0  0  0  0  0  0  0  0  0  0  0  0
   -4.2580   -4.6969   12.6288 C   0  0  0  0  0  0  0  0  0  0  0  0
   -3.9975   -4.1400   13.9888 C   0  0  0  0  0  0  0  0  0  0  0  0
   -3.3264   -4.4756   11.6428 C   0  0  0  0  0  0  0  0  0  0  0  0
   -3.5531   -4.9804   10.3927 C   0  0  0  0  0  0  0  0  0  0  0  0
   -2.1107   -3.7099   11.9333 C   0  0  0  0  0  0  0  0  0  0  0  0
   -1.1625   -3.1127   12.1735 N   0  0  0  0  0  0  0  0  0  0  0  0
   -7.3275   -7.0107    5.1751 C   0  0  0  0  0  0  0  0  0  0  0  0
   -8.4614   -6.2634    4.9621 O   0  0  0  0  0  0  0  0  0  0  0  0
   -7.0003   -7.8779    4.3494 O   0  0  0  0  0  0  0  0  0  0  0  0
   -9.0575   -5.9657    5.7269 H   0  0  0  0  0  0  0  0  0  0  0  0
  1  2  1  0  0  0
  2  3  1  0  0  0
  3  4  2  0  0  0
  4  5  1  0  0  0
  5  6  1  0  0  0
  6 16  1  0  0  0
 16 17  1  0  0  0
 16 18  2  0  0  0
  4  7  1  0  0  0
  7  8  2  0  0  0
  8  9  1  0  0  0
  9 10  2  0  0  0
 10 11  1  0  0  0
 10 12  1  0  0  0
 12 13  2  0  0  0
 12 14  1  0  0  0
 14 15  3  0  0  0
  6  2  2  0  0  0
 13  7  1  0  0  0
 17 19  1  0  0  0
M  END
> <minimizedAffinity>
2.06924

> <CNNscore>
0.4195448756

> <CNNaffinity>
4.1496806145

> <CNN_VS>
1.7409772873

> <CNNaffinity_variance>
1.1671774387

$$$$
[H]OC(=O)c1[se]c(-c2c([H])c([H])c(C([H])([H])[H])c(C#N)c2[H])nc1C([H])([H])[H]


 19 20  0  0  0  0  0  0  0  0999 V2000
   -3.6240   -8.0674    5.9936 C   0  0  0  0  0  0  0  0  0  0  0  0
   -4.0951   -7.1525    7.1626 C   0  0  0  0  0  0  0  0  0  0  0  0
   -3.3368   -6.3424    7.7687 N   0  0  0  0  0  0  0  0  0  0  0  0
   -3.3989   -5.5276    8.6796 C   0  0  0  0  0  0  0  0  0  0  0  0
   -5.5608   -5.9662    8.9908 Se  0  0  0  0  0  0  0  0  0  0  0  0
   -5.4232   -7.3010    7.4855 C   0  0  0  0  0  0  0  0  0  0  0  0
   -2.8430   -4.5445    9.5483 C   0  0  0  0  0  0  0  0  0  0  0  0
   -2.0537   -3.5607    8.9633 C   0  0  0  0  0  0  0  0  0  0  0  0
   -1.4702   -2.5671    9.7057 C   0  0  0  0  0  0  0  0  0  0  0  0
   -1.6742   -2.5466   11.0698 C   0  0  0  0  0  0  0  0  0  0  0  0
   -1.0614   -1.4867   11.9232 C   0  0  0  0  0  0  0  0  0  0  0  0
   -2.4496   -3.5061   11.6758 C   0  0  0  0  0  0  0  0  0  0  0  0
   -3.0167   -4.4826   10.9052 C   0  0  0  0  0  0  0  0  0  0  0  0
   -2.6616   -3.4774   13.1258 C   0  0  0  0  0  0  0  0  0  0  0  0
   -2.8308   -3.4420   14.2588 N   0  0  0  0  0  0  0  0  0  0  0  0
   -6.4813   -8.1356    6.9624 C   0  0  0  0  0  0  0  0  0  0  0  0
   -7.3733   -7.6492    6.0366 O   0  0  0  0  0  0  0  0  0  0  0  0
   -6.5841   -9.3083    7.3562 O   0  0  0  0  0  0  0  0  0  0  0  0
   -7.6972   -6.6882    6.0592 H   0  0  0  0  0  0  0  0  0  0  0  0
  1  2  1  0  0  0
  2  3  1  0  0  0
  3  4  2  0  0  0
  4  5  1  0  0  0
  5  6  1  0  0  0
  6 16  1  0  0  0
 16 17  1  0  0  0
 16 18  2  0  0  0
  4  7  1  0  0  0
  7  8  2  0  0  0
  8  9  1  0  0  0
  9 10  2  0  0  0
 10 11  1  0  0  0
 10 12  1  0  0  0
 12 13  2  0  0  0
 12 14  1  0  0  0
 14 15  3  0  0  0
  6  2  2  0  0  0
 13  7  1  0  0  0
 17 19  1  0  0  0
M  END
> <minimizedAffinity>
-1.91178

> <CNNscore>
0.4027521312

> <CNNaffinity>
3.8266265392

> <CNN_VS>
1.5411820412

> <CNNaffinity_variance>
0.3495451808

$$$$
[H]c1c(OC([H])([H])[H])c(OC([H])([H])[H])c(OC([H])([H])[H])c([H])c1C(=O)N1C([H])([H])C([H])([H])C([H])([H])[C@]([H])(C(=O)N([H])c2nc3c([H])c([H])c([H])c([H])c3s2)C1([H])[H]


 33 36  0  0  0  0  0  0  0  0999 V2000
   -5.8948   -6.1671    7.4637 C   0  0  0  0  0  0  0  0  0  0  0  0
   -5.6326   -5.9804    6.1916 O   0  0  0  0  0  0  0  0  0  0  0  0
   -7.0206   -6.9281    7.7419 N   0  0  0  0  0  0  0  0  0  0  0  0
   -7.6451   -7.2858    8.9634 C   0  0  0  0  0  0  0  0  0  0  0  0
   -7.4359   -8.7616    9.2845 C   0  0  0  0  0  0  0  0  0  0  0  0
   -7.3994   -9.5497    7.9764 C   0  0  0  0  0  0  0  0  0  0  0  0
   -8.2730   -8.8598    6.9608 C   0  0  0  0  0  0  0  0  0  0  0  0
   -7.7031   -7.5381    6.5425 C   0  0  0  0  0  0  0  0  0  0  0  0
   -4.0381   -5.0933   10.6228 C   0  0  0  0  0  0  0  0  0  0  0  0
   -4.9123   -5.7597    9.7537 C   0  0  0  0  0  0  0  0  0  0  0  0
   -4.9835   -5.5579    8.4069 C   0  0  0  0  0  0  0  0  0  0  0  0
   -4.0714   -4.5872    7.9200 C   0  0  0  0  0  0  0  0  0  0  0  0
   -3.1941   -3.9047    8.7162 C   0  0  0  0  0  0  0  0  0  0  0  0
   -3.1874   -4.1669   10.0694 C   0  0  0  0  0  0  0  0  0  0  0  0
   -3.7328   -4.3279   12.8818 C   0  0  0  0  0  0  0  0  0  0  0  0
   -4.0397   -5.3650   11.9834 O   0  0  0  0  0  0  0  0  0  0  0  0
   -2.3479   -2.9773    8.1299 O   0  0  0  0  0  0  0  0  0  0  0  0
   -2.6140   -2.3520    6.9052 C   0  0  0  0  0  0  0  0  0  0  0  0
   -2.3064   -3.4827   10.8812 O   0  0  0  0  0  0  0  0  0  0  0  0
   -1.0652   -2.9735   10.4580 C   0  0  0  0  0  0  0  0  0  0  0  0
   -8.3788   -9.7203    5.7581 C   0  0  0  0  0  0  0  0  0  0  0  0
   -9.3434  -10.5120    5.6701 O   0  0  0  0  0  0  0  0  0  0  0  0
   -7.3897   -9.6179    4.7542 N   0  0  0  0  0  0  0  0  0  0  0  0
   -6.6023   -8.9682    4.8313 H   0  0  0  0  0  0  0  0  0  0  0  0
   -7.4861  -10.4477    3.5878 C   0  0  0  0  0  0  0  0  0  0  0  0
   -7.9599  -11.6732    3.4738 N   0  0  0  0  0  0  0  0  0  0  0  0
   -7.9647  -12.2707    2.3208 C   0  0  0  0  0  0  0  0  0  0  0  0
   -8.4409  -13.5756    2.0622 C   0  0  0  0  0  0  0  0  0  0  0  0
   -8.3834  -14.0745    0.8008 C   0  0  0  0  0  0  0  0  0  0  0  0
   -7.8851  -13.3961   -0.2813 C   0  0  0  0  0  0  0  0  0  0  0  0
   -7.4171  -12.1264   -0.0519 C   0  0  0  0  0  0  0  0  0  0  0  0
   -7.4651  -11.5855    1.2456 C   0  0  0  0  0  0  0  0  0  0  0  0
   -7.0122  -10.1014    1.9702 S   0  0  0  0  0  0  0  0  0  0  0  0
 15 16  1  0  0  0
 16  9  1  0  0  0
  9 10  2  0  0  0
 10 11  1  0  0  0
 11 12  2  0  0  0
 12 13  1  0  0  0
 13 17  1  0  0  0
 17 18  1  0  0  0
 13 14  2  0  0  0
 14 19  1  0  0  0
 19 20  1  0  0  0
 11  1  1  0  0  0
  1  2  2  0  0  0
  1  3  1  0  0  0
  3  4  1  0  0  0
  4  5  1  0  0  0
  5  6  1  0  0  0
  6  7  1  0  0  0
  7  8  1  0  0  0
  7 21  1  0  0  0
 21 22  2  0  0  0
 21 23  1  0  0  0
 23 25  1  0  0  0
 25 26  2  0  0  0
 26 27  1  0  0  0
 27 28  2  0  0  0
 28 29  1  0  0  0
 29 30  2  0  0  0
 30 31  1  0  0  0
 31 32  2  0  0  0
 32 33  1  0  0  0
 14  9  1  0  0  0
  8  3  1  0  0  0
 33 25  1  0  0  0
 32 27  1  0  0  0
 23 24  1  0  0  0
M  END
> <minimizedAffinity>
8.33374

> <CNNscore>
0.4957534373

> <CNNaffinity>
5.9120397568

> <CNN_VS>
2.9309139252

> <CNNaffinity_variance>
1.3289809227

$$$$
[H]c1c(OC([H])([H])[H])c(OC([H])([H])[H])c(OC([H])([H])[H])c([H])c1C(=O)N1C([H])([H])C([H])([H])C([H])([H])[C@]([H])(C(=O)N([H])c2nc3c([H])c([H])c([H])c([H])c3s2)C1([H])[H]


 33 36  0  0  0  0  0  0  0  0999 V2000
  -13.9320   -6.6985    6.0012 C   0  0  0  0  0  0  0  0  0  0  0  0
  -13.6121   -5.4344    6.1484 O   0  0  0  0  0  0  0  0  0  0  0  0
  -13.0913   -7.6095    6.6233 N   0  0  0  0  0  0  0  0  0  0  0  0
  -13.0754   -9.0272    6.6398 C   0  0  0  0  0  0  0  0  0  0  0  0
  -13.5087   -9.5731    7.9960 C   0  0  0  0  0  0  0  0  0  0  0  0
  -13.0411   -8.6108    9.0863 C   0  0  0  0  0  0  0  0  0  0  0  0
  -11.7700   -7.9374    8.6375 C   0  0  0  0  0  0  0  0  0  0  0  0
  -12.0089   -7.0085    7.4857 C   0  0  0  0  0  0  0  0  0  0  0  0
  -16.5852   -8.3363    3.7970 C   0  0  0  0  0  0  0  0  0  0  0  0
  -15.4494   -8.1465    4.5955 C   0  0  0  0  0  0  0  0  0  0  0  0
  -15.1115   -6.9784    5.2126 C   0  0  0  0  0  0  0  0  0  0  0  0
  -16.0277   -5.9200    4.9858 C   0  0  0  0  0  0  0  0  0  0  0  0
  -17.1527   -6.0427    4.2184 C   0  0  0  0  0  0  0  0  0  0  0  0
  -17.4209   -7.2588    3.6276 C   0  0  0  0  0  0  0  0  0  0  0  0
  -15.9363  -10.6185    3.4066 C   0  0  0  0  0  0  0  0  0  0  0  0
  -16.8456   -9.5647    3.2070 O   0  0  0  0  0  0  0  0  0  0  0  0
  -17.9769   -4.9393    4.0664 O   0  0  0  0  0  0  0  0  0  0  0  0
  -19.3644   -4.9777    4.2531 C   0  0  0  0  0  0  0  0  0  0  0  0
  -18.5531   -7.3922    2.8507 O   0  0  0  0  0  0  0  0  0  0  0  0
  -18.5592   -7.3827    1.4440 C   0  0  0  0  0  0  0  0  0  0  0  0
  -11.2243   -7.1457    9.7659 C   0  0  0  0  0  0  0  0  0  0  0  0
   -9.9985   -6.8970    9.7868 O   0  0  0  0  0  0  0  0  0  0  0  0
  -12.1044   -6.6994   10.7775 N   0  0  0  0  0  0  0  0  0  0  0  0
  -13.1068   -6.9057   10.7555 H   0  0  0  0  0  0  0  0  0  0  0  0
  -11.5830   -5.9327   11.8722 C   0  0  0  0  0  0  0  0  0  0  0  0
  -10.3521   -5.8830   12.3433 N   0  0  0  0  0  0  0  0  0  0  0  0
  -10.0664   -5.1203   13.3547 C   0  0  0  0  0  0  0  0  0  0  0  0
   -8.7951   -4.9750   13.9539 C   0  0  0  0  0  0  0  0  0  0  0  0
   -8.6420   -4.1371   15.0112 C   0  0  0  0  0  0  0  0  0  0  0  0
   -9.6515   -3.3939   15.5663 C   0  0  0  0  0  0  0  0  0  0  0  0
  -10.8949   -3.5204   14.9991 C   0  0  0  0  0  0  0  0  0  0  0  0
  -11.0808   -4.3816   13.9027 C   0  0  0  0  0  0  0  0  0  0  0  0
  -12.4035   -4.8365   12.9145 S   0  0  0  0  0  0  0  0  0  0  0  0
 15 16  1  0  0  0
 16  9  1  0  0  0
  9 10  2  0  0  0
 10 11  1  0  0  0
 11 12  2  0  0  0
 12 13  1  0  0  0
 13 17  1  0  0  0
 17 18  1  0  0  0
 13 14  2  0  0  0
 14 19  1  0  0  0
 19 20  1  0  0  0
 11  1  1  0  0  0
  1  2  2  0  0  0
  1  3  1  0  0  0
  3  4  1  0  0  0
  4  5  1  0  0  0
  5  6  1  0  0  0
  6  7  1  0  0  0
  7  8  1  0  0  0
  7 21  1  0  0  0
 21 22  2  0  0  0
 21 23  1  0  0  0
 23 25  1  0  0  0
 25 26  2  0  0  0
 26 27  1  0  0  0
 27 28  2  0  0  0
 28 29  1  0  0  0
 29 30  2  0  0  0
 30 31  1  0  0  0
 31 32  2  0  0  0
 32 33  1  0  0  0
 14  9  1  0  0  0
  8  3  1  0  0  0
 33 25  1  0  0  0
 32 27  1  0  0  0
 23 24  1  0  0  0
M  END
> <minimizedAffinity>
14.49969

> <CNNscore>
0.4595603347

> <CNNaffinity>
6.6136703491

> <CNN_VS>
3.0393805504

> <CNNaffinity_variance>
0.7236124277

$$$$
[H]c1c(OC([H])([H])[H])c(OC([H])([H])[H])c(OC([H])([H])[H])c([H])c1C(=O)N1C([H])([H])C([H])([H])C([H])([H])[C@]([H])(C(=O)N([H])c2nc3c([H])c([H])c([H])c([H])c3s2)C1([H])[H]


 33 36  0  0  0  0  0  0  0  0999 V2000
   -4.2687   -4.5011    6.5006 C   0  0  0  0  0  0  0  0  0  0  0  0
   -5.2716   -3.7489    6.8881 O   0  0  0  0  0  0  0  0  0  0  0  0
   -4.1650   -5.7358    7.1240 N   0  0  0  0  0  0  0  0  0  0  0  0
   -3.2040   -6.7730    7.0195 C   0  0  0  0  0  0  0  0  0  0  0  0
   -3.7686   -7.9831    6.2834 C   0  0  0  0  0  0  0  0  0  0  0  0
   -5.2573   -8.1039    6.6040 C   0  0  0  0  0  0  0  0  0  0  0  0
   -5.5081   -7.5679    7.9898 C   0  0  0  0  0  0  0  0  0  0  0  0
   -5.2950   -6.0859    8.0604 C   0  0  0  0  0  0  0  0  0  0  0  0
   -2.0628   -2.2103    4.3871 C   0  0  0  0  0  0  0  0  0  0  0  0
   -2.8509   -2.7036    5.4355 C   0  0  0  0  0  0  0  0  0  0  0  0
   -3.4040   -3.9492    5.4812 C   0  0  0  0  0  0  0  0  0  0  0  0
   -3.1142   -4.7511    4.3480 C   0  0  0  0  0  0  0  0  0  0  0  0
   -2.3518   -4.3278    3.2949 C   0  0  0  0  0  0  0  0  0  0  0  0
   -1.8308   -3.0521    3.3261 C   0  0  0  0  0  0  0  0  0  0  0  0
   -1.0650   -0.4264    5.6535 C   0  0  0  0  0  0  0  0  0  0  0  0
   -1.5433   -0.9245    4.4287 O   0  0  0  0  0  0  0  0  0  0  0  0
   -2.1344   -5.1990    2.2395 O   0  0  0  0  0  0  0  0  0  0  0  0
   -1.0975   -6.1402    2.2136 C   0  0  0  0  0  0  0  0  0  0  0  0
   -1.0611   -2.6155    2.2677 O   0  0  0  0  0  0  0  0  0  0  0  0
   -1.5729   -1.9948    1.1137 C   0  0  0  0  0  0  0  0  0  0  0  0
   -6.9139   -7.8523    8.3651 C   0  0  0  0  0  0  0  0  0  0  0  0
   -7.1557   -8.8610    9.0643 O   0  0  0  0  0  0  0  0  0  0  0  0
   -7.9310   -6.9772    7.9218 N   0  0  0  0  0  0  0  0  0  0  0  0
   -7.7276   -6.1531    7.3497 H   0  0  0  0  0  0  0  0  0  0  0  0
   -9.2935   -7.2466    8.2814 C   0  0  0  0  0  0  0  0  0  0  0  0
  -10.0977   -6.5626    9.0718 N   0  0  0  0  0  0  0  0  0  0  0  0
  -11.3139   -6.9674    9.2802 C   0  0  0  0  0  0  0  0  0  0  0  0
  -12.2732   -6.3313   10.0997 C   0  0  0  0  0  0  0  0  0  0  0  0
  -13.5131   -6.8701   10.2257 C   0  0  0  0  0  0  0  0  0  0  0  0
  -13.9279   -8.0192    9.6034 C   0  0  0  0  0  0  0  0  0  0  0  0
  -13.0111   -8.6530    8.8025 C   0  0  0  0  0  0  0  0  0  0  0  0
  -11.7196   -8.1159    8.6547 C   0  0  0  0  0  0  0  0  0  0  0  0
  -10.3052   -8.5498    7.7921 S   0  0  0  0  0  0  0  0  0  0  0  0
 15 16  1  0  0  0
 16  9  1  0  0  0
  9 10  2  0  0  0
 10 11  1  0  0  0
 11 12  2  0  0  0
 12 13  1  0  0  0
 13 17  1  0  0  0
 17 18  1  0  0  0
 13 14  2  0  0  0
 14 19  1  0  0  0
 19 20  1  0  0  0
 11  1  1  0  0  0
  1  2  2  0  0  0
  1  3  1  0  0  0
  3  4  1  0  0  0
  4  5  1  0  0  0
  5  6  1  0  0  0
  6  7  1  0  0  0
  7  8  1  0  0  0
  7 21  1  0  0  0
 21 22  2  0  0  0
 21 23  1  0  0  0
 23 25  1  0  0  0
 25 26  2  0  0  0
 26 27  1  0  0  0
 27 28  2  0  0  0
 28 29  1  0  0  0
 29 30  2  0  0  0
 30 31  1  0  0  0
 31 32  2  0  0  0
 32 33  1  0  0  0
 14  9  1  0  0  0
  8  3  1  0  0  0
 33 25  1  0  0  0
 32 27  1  0  0  0
 23 24  1  0  0  0
M  END
> <minimizedAffinity>
-3.86275

> <CNNscore>
0.3585341573

> <CNNaffinity>
6.0614614487

> <CNN_VS>
2.1732409000

> <CNNaffinity_variance>
0.7795776129

$$$$
[H]c1c(OC([H])([H])[H])c(OC([H])([H])[H])c(OC([H])([H])[H])c([H])c1C(=O)N1C([H])([H])C([H])([H])C([H])([H])[C@]([H])(C(=O)N([H])c2nc3c([H])c([H])c([H])c([H])c3s2)C1([H])[H]


 33 36  0  0  0  0  0  0  0  0999 V2000
  -13.7269   -7.2210    5.5063 C   0  0  0  0  0  0  0  0  0  0  0  0
  -13.9775   -5.9622    5.7789 O   0  0  0  0  0  0  0  0  0  0  0  0
  -12.5458   -7.7274    6.0282 N   0  0  0  0  0  0  0  0  0  0  0  0
  -11.9184   -8.9925    5.9010 C   0  0  0  0  0  0  0  0  0  0  0  0
  -12.0063   -9.7905    7.1973 C   0  0  0  0  0  0  0  0  0  0  0  0
  -11.9474   -8.8216    8.3768 C   0  0  0  0  0  0  0  0  0  0  0  0
  -11.1154   -7.6258    7.9913 C   0  0  0  0  0  0  0  0  0  0  0  0
  -11.7883   -6.7949    6.9409 C   0  0  0  0  0  0  0  0  0  0  0  0
  -15.9049   -9.8688    3.8251 C   0  0  0  0  0  0  0  0  0  0  0  0
  -14.9762   -9.2511    4.6734 C   0  0  0  0  0  0  0  0  0  0  0  0
  -14.7069   -7.9145    4.7000 C   0  0  0  0  0  0  0  0  0  0  0  0
  -15.4647   -7.1548    3.7728 C   0  0  0  0  0  0  0  0  0  0  0  0
  -16.3853   -7.6983    2.9205 C   0  0  0  0  0  0  0  0  0  0  0  0
  -16.5966   -9.0599    2.9560 C   0  0  0  0  0  0  0  0  0  0  0  0
  -16.9602  -11.8293    2.9169 C   0  0  0  0  0  0  0  0  0  0  0  0
  -16.1097  -11.2403    3.8692 O   0  0  0  0  0  0  0  0  0  0  0  0
  -17.0680   -6.8577    2.0560 O   0  0  0  0  0  0  0  0  0  0  0  0
  -18.2969   -7.1837    1.4685 C   0  0  0  0  0  0  0  0  0  0  0  0
  -17.5228   -9.6178    2.0992 O   0  0  0  0  0  0  0  0  0  0  0  0
  -17.2640   -9.9577    0.7588 C   0  0  0  0  0  0  0  0  0  0  0  0
  -10.9106   -6.7792    9.1911 C   0  0  0  0  0  0  0  0  0  0  0  0
  -10.0736   -5.8512    9.1346 O   0  0  0  0  0  0  0  0  0  0  0  0
  -11.6655   -7.0477   10.3551 N   0  0  0  0  0  0  0  0  0  0  0  0
  -12.3492   -7.8085   10.3959 H   0  0  0  0  0  0  0  0  0  0  0  0
  -11.4723   -6.2323   11.5196 C   0  0  0  0  0  0  0  0  0  0  0  0
  -10.4170   -6.1376   12.3049 N   0  0  0  0  0  0  0  0  0  0  0  0
  -10.4278   -5.3345   13.3253 C   0  0  0  0  0  0  0  0  0  0  0  0
   -9.3698   -5.1390   14.2412 C   0  0  0  0  0  0  0  0  0  0  0  0
   -9.5217   -4.2625   15.2668 C   0  0  0  0  0  0  0  0  0  0  0  0
  -10.6542   -3.5249   15.4973 C   0  0  0  0  0  0  0  0  0  0  0  0
  -11.6943   -3.6998   14.6191 C   0  0  0  0  0  0  0  0  0  0  0  0
  -11.5630   -4.6018   13.5479 C   0  0  0  0  0  0  0  0  0  0  0  0
  -12.5603   -5.1211   12.2561 S   0  0  0  0  0  0  0  0  0  0  0  0
 15 16  1  0  0  0
 16  9  1  0  0  0
  9 10  2  0  0  0
 10 11  1  0  0  0
 11 12  2  0  0  0
 12 13  1  0  0  0
 13 17  1  0  0  0
 17 18  1  0  0  0
 13 14  2  0  0  0
 14 19  1  0  0  0
 19 20  1  0  0  0
 11  1  1  0  0  0
  1  2  2  0  0  0
  1  3  1  0  0  0
  3  4  1  0  0  0
  4  5  1  0  0  0
  5  6  1  0  0  0
  6  7  1  0  0  0
  7  8  1  0  0  0
  7 21  1  0  0  0
 21 22  2  0  0  0
 21 23  1  0  0  0
 23 25  1  0  0  0
 25 26  2  0  0  0
 26 27  1  0  0  0
 27 28  2  0  0  0
 28 29  1  0  0  0
 29 30  2  0  0  0
 30 31  1  0  0  0
 31 32  2  0  0  0
 32 33  1  0  0  0
 14  9  1  0  0  0
  8  3  1  0  0  0
 33 25  1  0  0  0
 32 27  1  0  0  0
 23 24  1  0  0  0
M  END
> <minimizedAffinity>
32.80417

> <CNNscore>
0.3403683305

> <CNNaffinity>
6.1899976730

> <CNN_VS>
2.1068792343

> <CNNaffinity_variance>
0.7518719435

$$$$
[H]c1c(OC([H])([H])[H])c(OC([H])([H])[H])c(OC([H])([H])[H])c([H])c1C(=O)N1C([H])([H])C([H])([H])C([H])([H])[C@]([H])(C(=O)N([H])c2nc3c([H])c([H])c([H])c([H])c3s2)C1([H])[H]


 33 36  0  0  0  0  0  0  0  0999 V2000
  -11.5988   -8.2154    7.7934 C   0  0  0  0  0  0  0  0  0  0  0  0
  -11.3366   -9.5004    7.8358 O   0  0  0  0  0  0  0  0  0  0  0  0
  -10.5346   -7.3732    8.0798 N   0  0  0  0  0  0  0  0  0  0  0  0
  -10.4452   -5.9626    8.1915 C   0  0  0  0  0  0  0  0  0  0  0  0
   -9.6892   -5.3576    7.0136 C   0  0  0  0  0  0  0  0  0  0  0  0
   -8.6085   -6.3397    6.5654 C   0  0  0  0  0  0  0  0  0  0  0  0
   -8.1371   -7.1316    7.7576 C   0  0  0  0  0  0  0  0  0  0  0  0
   -9.2017   -8.0544    8.2691 C   0  0  0  0  0  0  0  0  0  0  0  0
  -14.7104   -6.6968    6.1834 C   0  0  0  0  0  0  0  0  0  0  0  0
  -13.3796   -7.0653    6.4218 C   0  0  0  0  0  0  0  0  0  0  0  0
  -12.9556   -7.8441    7.4578 C   0  0  0  0  0  0  0  0  0  0  0  0
  -13.9970   -8.2793    8.3163 C   0  0  0  0  0  0  0  0  0  0  0  0
  -15.3130   -7.9547    8.1366 C   0  0  0  0  0  0  0  0  0  0  0  0
  -15.6578   -7.1605    7.0640 C   0  0  0  0  0  0  0  0  0  0  0  0
  -15.5115   -4.5920    5.3409 C   0  0  0  0  0  0  0  0  0  0  0  0
  -15.0464   -5.8969    5.1007 O   0  0  0  0  0  0  0  0  0  0  0  0
  -16.2459   -8.4377    9.0402 O   0  0  0  0  0  0  0  0  0  0  0  0
  -15.9240   -9.2889   10.1048 C   0  0  0  0  0  0  0  0  0  0  0  0
  -16.9830   -6.8269    6.8748 O   0  0  0  0  0  0  0  0  0  0  0  0
  -17.9554   -6.8203    7.8913 C   0  0  0  0  0  0  0  0  0  0  0  0
   -6.9682   -7.9502    7.3557 C   0  0  0  0  0  0  0  0  0  0  0  0
   -6.8968   -9.1324    7.7587 O   0  0  0  0  0  0  0  0  0  0  0  0
   -5.9765   -7.3699    6.5332 N   0  0  0  0  0  0  0  0  0  0  0  0
   -6.0399   -6.4019    6.2062 H   0  0  0  0  0  0  0  0  0  0  0  0
   -4.8428   -8.1565    6.1406 C   0  0  0  0  0  0  0  0  0  0  0  0
   -4.6029   -8.7572    4.9913 N   0  0  0  0  0  0  0  0  0  0  0  0
   -3.5074   -9.4329    4.8196 C   0  0  0  0  0  0  0  0  0  0  0  0
   -3.1297  -10.1203    3.6443 C   0  0  0  0  0  0  0  0  0  0  0  0
   -1.9485  -10.7888    3.6066 C   0  0  0  0  0  0  0  0  0  0  0  0
   -1.0600  -10.8558    4.6486 C   0  0  0  0  0  0  0  0  0  0  0  0
   -1.4077  -10.1947    5.8000 C   0  0  0  0  0  0  0  0  0  0  0  0
   -2.6258   -9.4945    5.8655 C   0  0  0  0  0  0  0  0  0  0  0  0
   -3.4392   -8.5624    7.0497 S   0  0  0  0  0  0  0  0  0  0  0  0
 15 16  1  0  0  0
 16  9  1  0  0  0
  9 10  2  0  0  0
 10 11  1  0  0  0
 11 12  2  0  0  0
 12 13  1  0  0  0
 13 17  1  0  0  0
 17 18  1  0  0  0
 13 14  2  0  0  0
 14 19  1  0  0  0
 19 20  1  0  0  0
 11  1  1  0  0  0
  1  2  2  0  0  0
  1  3  1  0  0  0
  3  4  1  0  0  0
  4  5  1  0  0  0
  5  6  1  0  0  0
  6  7  1  0  0  0
  7  8  1  0  0  0
  7 21  1  0  0  0
 21 22  2  0  0  0
 21 23  1  0  0  0
 23 25  1  0  0  0
 25 26  2  0  0  0
 26 27  1  0  0  0
 27 28  2  0  0  0
 28 29  1  0  0  0
 29 30  2  0  0  0
 30 31  1  0  0  0
 31 32  2  0  0  0
 32 33  1  0  0  0
 14  9  1  0  0  0
  8  3  1  0  0  0
 33 25  1  0  0  0
 32 27  1  0  0  0
 23 24  1  0  0  0
M  END
> <minimizedAffinity>
7.58119

> <CNNscore>
0.3335981965

> <CNNaffinity>
6.4466314316

> <CNN_VS>
2.1505846977

> <CNNaffinity_variance>
1.7134174109

$$$$
[H]c1c(OC([H])([H])[H])c(OC([H])([H])[H])c(OC([H])([H])[H])c([H])c1C(=O)N1C([H])([H])C([H])([H])C([H])([H])[C@]([H])(C(=O)N([H])c2nc3c([H])c([H])c([H])c([H])c3s2)C1([H])[H]


 33 36  0  0  0  0  0  0  0  0999 V2000
  -10.2264   -6.9892    7.3257 C   0  0  0  0  0  0  0  0  0  0  0  0
  -10.6960   -7.4267    6.1812 O   0  0  0  0  0  0  0  0  0  0  0  0
  -11.1600   -6.4327    8.1873 N   0  0  0  0  0  0  0  0  0  0  0  0
  -11.0286   -5.8122    9.4553 C   0  0  0  0  0  0  0  0  0  0  0  0
  -11.5759   -6.6988   10.5686 C   0  0  0  0  0  0  0  0  0  0  0  0
  -12.7604   -7.4960   10.0257 C   0  0  0  0  0  0  0  0  0  0  0  0
  -13.4515   -6.6869    8.9587 C   0  0  0  0  0  0  0  0  0  0  0  0
  -12.5968   -6.5311    7.7373 C   0  0  0  0  0  0  0  0  0  0  0  0
   -6.4584   -6.4220    7.5728 C   0  0  0  0  0  0  0  0  0  0  0  0
   -7.8307   -6.1954    7.4023 C   0  0  0  0  0  0  0  0  0  0  0  0
   -8.8042   -7.1403    7.5401 C   0  0  0  0  0  0  0  0  0  0  0  0
   -8.3155   -8.4258    7.8860 C   0  0  0  0  0  0  0  0  0  0  0  0
   -6.9903   -8.7096    8.0669 C   0  0  0  0  0  0  0  0  0  0  0  0
   -6.0692   -7.6968    7.9066 C   0  0  0  0  0  0  0  0  0  0  0  0
   -4.8636   -5.2804    6.1816 C   0  0  0  0  0  0  0  0  0  0  0  0
   -5.5397   -5.3952    7.4090 O   0  0  0  0  0  0  0  0  0  0  0  0
   -6.6279  -10.0038    8.4039 O   0  0  0  0  0  0  0  0  0  0  0  0
   -7.3452  -11.1380    8.0030 C   0  0  0  0  0  0  0  0  0  0  0  0
   -4.7296   -7.9735    8.0862 O   0  0  0  0  0  0  0  0  0  0  0  0
   -3.8453   -8.3325    7.0527 C   0  0  0  0  0  0  0  0  0  0  0  0
  -14.7001   -7.3826    8.5649 C   0  0  0  0  0  0  0  0  0  0  0  0
  -15.1592   -8.2658    9.3226 O   0  0  0  0  0  0  0  0  0  0  0  0
  -15.3283   -7.0261    7.3504 N   0  0  0  0  0  0  0  0  0  0  0  0
  -14.9483   -6.3025    6.7339 H   0  0  0  0  0  0  0  0  0  0  0  0
  -16.5368   -7.6953    6.9634 C   0  0  0  0  0  0  0  0  0  0  0  0
  -17.4954   -8.1898    7.7223 N   0  0  0  0  0  0  0  0  0  0  0  0
  -18.5264   -8.7680    7.1846 C   0  0  0  0  0  0  0  0  0  0  0  0
  -19.6175   -9.3365    7.8793 C   0  0  0  0  0  0  0  0  0  0  0  0
  -20.6318   -9.9111    7.1833 C   0  0  0  0  0  0  0  0  0  0  0  0
  -20.6894   -9.9891    5.8158 C   0  0  0  0  0  0  0  0  0  0  0  0
  -19.6391   -9.4428    5.1214 C   0  0  0  0  0  0  0  0  0  0  0  0
  -18.5755   -8.8414    5.8181 C   0  0  0  0  0  0  0  0  0  0  0  0
  -17.1133   -8.0625    5.3841 S   0  0  0  0  0  0  0  0  0  0  0  0
 15 16  1  0  0  0
 16  9  1  0  0  0
  9 10  2  0  0  0
 10 11  1  0  0  0
 11 12  2  0  0  0
 12 13  1  0  0  0
 13 17  1  0  0  0
 17 18  1  0  0  0
 13 14  2  0  0  0
 14 19  1  0  0  0
 19 20  1  0  0  0
 11  1  1  0  0  0
  1  2  2  0  0  0
  1  3  1  0  0  0
  3  4  1  0  0  0
  4  5  1  0  0  0
  5  6  1  0  0  0
  6  7  1  0  0  0
  7  8  1  0  0  0
  7 21  1  0  0  0
 21 22  2  0  0  0
 21 23  1  0  0  0
 23 25  1  0  0  0
 25 26  2  0  0  0
 26 27  1  0  0  0
 27 28  2  0  0  0
 28 29  1  0  0  0
 29 30  2  0  0  0
 30 31  1  0  0  0
 31 32  2  0  0  0
 32 33  1  0  0  0
 14  9  1  0  0  0
  8  3  1  0  0  0
 33 25  1  0  0  0
 32 27  1  0  0  0
 23 24  1  0  0  0
M  END
> <minimizedAffinity>
3.74405

> <CNNscore>
0.3271006048

> <CNNaffinity>
6.4626359940

> <CNN_VS>
2.1139321327

> <CNNaffinity_variance>
0.9307373762

$$$$
[H]c1c(OC([H])([H])[H])c(OC([H])([H])[H])c(OC([H])([H])[H])c([H])c1C(=O)N1C([H])([H])C([H])([H])C([H])([H])[C@]([H])(C(=O)N([H])c2nc3c([H])c([H])c([H])c([H])c3s2)C1([H])[H]


 33 36  0  0  0  0  0  0  0  0999 V2000
   -9.5885   -6.8487    7.6849 C   0  0  0  0  0  0  0  0  0  0  0  0
   -9.9308   -7.3884    6.5390 O   0  0  0  0  0  0  0  0  0  0  0  0
  -10.6113   -6.2326    8.3907 N   0  0  0  0  0  0  0  0  0  0  0  0
  -10.6190   -5.5042    9.6071 C   0  0  0  0  0  0  0  0  0  0  0  0
  -11.2796   -6.2994   10.7280 C   0  0  0  0  0  0  0  0  0  0  0  0
  -12.3961   -7.1552   10.1327 C   0  0  0  0  0  0  0  0  0  0  0  0
  -12.9714   -6.4492    8.9321 C   0  0  0  0  0  0  0  0  0  0  0  0
  -11.9909   -6.3875    7.8000 C   0  0  0  0  0  0  0  0  0  0  0  0
   -6.3082   -7.1318    9.6190 C   0  0  0  0  0  0  0  0  0  0  0  0
   -7.6756   -7.0806    9.3166 C   0  0  0  0  0  0  0  0  0  0  0  0
   -8.1970   -6.9626    8.0622 C   0  0  0  0  0  0  0  0  0  0  0  0
   -7.2209   -6.8949    7.0357 C   0  0  0  0  0  0  0  0  0  0  0  0
   -5.8740   -6.9405    7.2663 C   0  0  0  0  0  0  0  0  0  0  0  0
   -5.4290   -7.0590    8.5655 C   0  0  0  0  0  0  0  0  0  0  0  0
   -5.7990   -6.0955   11.7282 C   0  0  0  0  0  0  0  0  0  0  0  0
   -5.8713   -7.2511   10.9304 O   0  0  0  0  0  0  0  0  0  0  0  0
   -5.0117   -6.8659    6.1842 O   0  0  0  0  0  0  0  0  0  0  0  0
   -4.8625   -5.7215    5.3907 C   0  0  0  0  0  0  0  0  0  0  0  0
   -4.0718   -7.1049    8.8084 O   0  0  0  0  0  0  0  0  0  0  0  0
   -3.2031   -6.0054    8.6844 C   0  0  0  0  0  0  0  0  0  0  0  0
  -14.1680   -7.1919    8.4688 C   0  0  0  0  0  0  0  0  0  0  0  0
  -14.4567   -8.2730    9.0283 O   0  0  0  0  0  0  0  0  0  0  0  0
  -14.9404   -6.6557    7.4140 N   0  0  0  0  0  0  0  0  0  0  0  0
  -14.6996   -5.7706    6.9597 H   0  0  0  0  0  0  0  0  0  0  0  0
  -16.0995   -7.3694    6.9609 C   0  0  0  0  0  0  0  0  0  0  0  0
  -17.1454   -7.7833    7.6495 N   0  0  0  0  0  0  0  0  0  0  0  0
  -18.1096   -8.4218    7.0589 C   0  0  0  0  0  0  0  0  0  0  0  0
  -19.2800   -8.9171    7.6764 C   0  0  0  0  0  0  0  0  0  0  0  0
  -20.2089   -9.5692    6.9312 C   0  0  0  0  0  0  0  0  0  0  0  0
  -20.1040   -9.7958    5.5831 C   0  0  0  0  0  0  0  0  0  0  0  0
  -18.9744   -9.3228    4.9635 C   0  0  0  0  0  0  0  0  0  0  0  0
  -17.9965   -8.6437    5.7124 C   0  0  0  0  0  0  0  0  0  0  0  0
  -16.4871   -7.9091    5.3735 S   0  0  0  0  0  0  0  0  0  0  0  0
 15 16  1  0  0  0
 16  9  1  0  0  0
  9 10  2  0  0  0
 10 11  1  0  0  0
 11 12  2  0  0  0
 12 13  1  0  0  0
 13 17  1  0  0  0
 17 18  1  0  0  0
 13 14  2  0  0  0
 14 19  1  0  0  0
 19 20  1  0  0  0
 11  1  1  0  0  0
  1  2  2  0  0  0
  1  3  1  0  0  0
  3  4  1  0  0  0
  4  5  1  0  0  0
  5  6  1  0  0  0
  6  7  1  0  0  0
  7  8  1  0  0  0
  7 21  1  0  0  0
 21 22  2  0  0  0
 21 23  1  0  0  0
 23 25  1  0  0  0
 25 26  2  0  0  0
 26 27  1  0  0  0
 27 28  2  0  0  0
 28 29  1  0  0  0
 29 30  2  0  0  0
 30 31  1  0  0  0
 31 32  2  0  0  0
 32 33  1  0  0  0
 14  9  1  0  0  0
  8  3  1  0  0  0
 33 25  1  0  0  0
 32 27  1  0  0  0
 23 24  1  0  0  0
M  END
> <minimizedAffinity>
2.98219

> <CNNscore>
0.3222653866

> <CNNaffinity>
6.3462181091

> <CNN_VS>
2.0451664925

> <CNNaffinity_variance>
0.6087036729

$$$$
[H]c1c(OC([H])([H])[H])c(OC([H])([H])[H])c(OC([H])([H])[H])c([H])c1C(=O)N1C([H])([H])C([H])([H])C([H])([H])[C@]([H])(C(=O)N([H])c2nc3c([H])c([H])c([H])c([H])c3s2)C1([H])[H]


 33 36  0  0  0  0  0  0  0  0999 V2000
  -12.1150   -8.4468    7.6335 C   0  0  0  0  0  0  0  0  0  0  0  0
  -11.4179   -9.2830    6.9009 O   0  0  0  0  0  0  0  0  0  0  0  0
  -11.4482   -7.8938    8.7167 N   0  0  0  0  0  0  0  0  0  0  0  0
  -11.8758   -7.0195    9.7477 C   0  0  0  0  0  0  0  0  0  0  0  0
  -11.2866   -5.6239    9.5742 C   0  0  0  0  0  0  0  0  0  0  0  0
   -9.8934   -5.7503    8.9607 C   0  0  0  0  0  0  0  0  0  0  0  0
   -9.2748   -7.0503    9.4062 C   0  0  0  0  0  0  0  0  0  0  0  0
   -9.9816   -8.2336    8.8171 C   0  0  0  0  0  0  0  0  0  0  0  0
  -15.9187   -8.4817    7.2996 C   0  0  0  0  0  0  0  0  0  0  0  0
  -14.6223   -8.7047    7.7827 C   0  0  0  0  0  0  0  0  0  0  0  0
  -13.4813   -8.2119    7.2217 C   0  0  0  0  0  0  0  0  0  0  0  0
  -13.7019   -7.4202    6.0660 C   0  0  0  0  0  0  0  0  0  0  0  0
  -14.9409   -7.1658    5.5468 C   0  0  0  0  0  0  0  0  0  0  0  0
  -16.0441   -7.7038    6.1739 C   0  0  0  0  0  0  0  0  0  0  0  0
  -18.0900   -8.1829    8.2886 C   0  0  0  0  0  0  0  0  0  0  0  0
  -17.0222   -9.0282    7.9387 O   0  0  0  0  0  0  0  0  0  0  0  0
  -15.0363   -6.3772    4.4114 O   0  0  0  0  0  0  0  0  0  0  0  0
  -13.9363   -6.0226    3.6203 C   0  0  0  0  0  0  0  0  0  0  0  0
  -17.2985   -7.4534    5.6570 O   0  0  0  0  0  0  0  0  0  0  0  0
  -18.2771   -8.4381    5.4297 C   0  0  0  0  0  0  0  0  0  0  0  0
   -7.8616   -7.0849    8.9595 C   0  0  0  0  0  0  0  0  0  0  0  0
   -7.0094   -7.6152    9.7061 O   0  0  0  0  0  0  0  0  0  0  0  0
   -7.5251   -6.5197    7.7088 N   0  0  0  0  0  0  0  0  0  0  0  0
   -8.2266   -6.0869    7.1017 H   0  0  0  0  0  0  0  0  0  0  0  0
   -6.1594   -6.5499    7.2705 C   0  0  0  0  0  0  0  0  0  0  0  0
   -5.1691   -5.7327    7.5719 N   0  0  0  0  0  0  0  0  0  0  0  0
   -3.9859   -5.9222    7.0715 C   0  0  0  0  0  0  0  0  0  0  0  0
   -2.8439   -5.1255    7.3116 C   0  0  0  0  0  0  0  0  0  0  0  0
   -1.6652   -5.4437    6.7176 C   0  0  0  0  0  0  0  0  0  0  0  0
   -1.4825   -6.5099    5.8753 C   0  0  0  0  0  0  0  0  0  0  0  0
   -2.5794   -7.2969    5.6286 C   0  0  0  0  0  0  0  0  0  0  0  0
   -3.8125   -6.9894    6.2312 C   0  0  0  0  0  0  0  0  0  0  0  0
   -5.3861   -7.6649    6.2122 S   0  0  0  0  0  0  0  0  0  0  0  0
 15 16  1  0  0  0
 16  9  1  0  0  0
  9 10  2  0  0  0
 10 11  1  0  0  0
 11 12  2  0  0  0
 12 13  1  0  0  0
 13 17  1  0  0  0
 17 18  1  0  0  0
 13 14  2  0  0  0
 14 19  1  0  0  0
 19 20  1  0  0  0
 11  1  1  0  0  0
  1  2  2  0  0  0
  1  3  1  0  0  0
  3  4  1  0  0  0
  4  5  1  0  0  0
  5  6  1  0  0  0
  6  7  1  0  0  0
  7  8  1  0  0  0
  7 21  1  0  0  0
 21 22  2  0  0  0
 21 23  1  0  0  0
 23 25  1  0  0  0
 25 26  2  0  0  0
 26 27  1  0  0  0
 27 28  2  0  0  0
 28 29  1  0  0  0
 29 30  2  0  0  0
 30 31  1  0  0  0
 31 32  2  0  0  0
 32 33  1  0  0  0
 14  9  1  0  0  0
  8  3  1  0  0  0
 33 25  1  0  0  0
 32 27  1  0  0  0
 23 24  1  0  0  0
M  END
> <minimizedAffinity>
0.06941

> <CNNscore>
0.3066740036

> <CNNaffinity>
6.5186281204

> <CNN_VS>
1.9990937710

> <CNNaffinity_variance>
0.9592213631

$$$$
[H]c1c(OC([H])([H])[H])c(OC([H])([H])[H])c(OC([H])([H])[H])c([H])c1C(=O)N1C([H])([H])C([H])([H])C([H])([H])[C@]([H])(C(=O)N([H])c2nc3c([H])c([H])c([H])c([H])c3s2)C1([H])[H]


 33 36  0  0  0  0  0  0  0  0999 V2000
   -7.4150   -6.9071    9.2538 C   0  0  0  0  0  0  0  0  0  0  0  0
   -8.2836   -6.1156    9.8378 O   0  0  0  0  0  0  0  0  0  0  0  0
   -7.9297   -8.0818    8.7255 N   0  0  0  0  0  0  0  0  0  0  0  0
   -7.3097   -9.1874    8.0905 C   0  0  0  0  0  0  0  0  0  0  0  0
   -7.6138   -9.2139    6.5966 C   0  0  0  0  0  0  0  0  0  0  0  0
   -9.0200   -8.6617    6.3705 C   0  0  0  0  0  0  0  0  0  0  0  0
   -9.8728   -8.9781    7.5718 C   0  0  0  0  0  0  0  0  0  0  0  0
   -9.4314   -8.2153    8.7843 C   0  0  0  0  0  0  0  0  0  0  0  0
   -3.7687   -6.2400    8.3372 C   0  0  0  0  0  0  0  0  0  0  0  0
   -5.1047   -6.6569    8.2662 C   0  0  0  0  0  0  0  0  0  0  0  0
   -6.0406   -6.4574    9.2377 C   0  0  0  0  0  0  0  0  0  0  0  0
   -5.5525   -5.7661   10.3758 C   0  0  0  0  0  0  0  0  0  0  0  0
   -4.2619   -5.3335   10.5040 C   0  0  0  0  0  0  0  0  0  0  0  0
   -3.3772   -5.5775    9.4755 C   0  0  0  0  0  0  0  0  0  0  0  0
   -2.9717   -5.7064    6.1322 C   0  0  0  0  0  0  0  0  0  0  0  0
   -2.8866   -6.4909    7.2960 O   0  0  0  0  0  0  0  0  0  0  0  0
   -3.8964   -4.6674   11.6628 O   0  0  0  0  0  0  0  0  0  0  0  0
   -4.7723   -4.4336   12.7304 C   0  0  0  0  0  0  0  0  0  0  0  0
   -2.0725   -5.1455    9.5960 O   0  0  0  0  0  0  0  0  0  0  0  0
   -1.1169   -5.7271   10.4489 C   0  0  0  0  0  0  0  0  0  0  0  0
  -11.2760   -8.6034    7.2740 C   0  0  0  0  0  0  0  0  0  0  0  0
  -11.7874   -7.6483    7.8995 O   0  0  0  0  0  0  0  0  0  0  0  0
  -11.9870   -9.3351    6.2962 N   0  0  0  0  0  0  0  0  0  0  0  0
  -11.5636  -10.1158    5.7873 H   0  0  0  0  0  0  0  0  0  0  0  0
  -13.3451   -8.9776    6.0032 C   0  0  0  0  0  0  0  0  0  0  0  0
  -14.2174   -8.3323    6.7529 N   0  0  0  0  0  0  0  0  0  0  0  0
  -15.4160   -8.0979    6.3117 C   0  0  0  0  0  0  0  0  0  0  0  0
  -16.4414   -7.4207    7.0091 C   0  0  0  0  0  0  0  0  0  0  0  0
  -17.6528   -7.2468    6.4212 C   0  0  0  0  0  0  0  0  0  0  0  0
  -17.9770   -7.6876    5.1641 C   0  0  0  0  0  0  0  0  0  0  0  0
  -16.9949   -8.3481    4.4691 C   0  0  0  0  0  0  0  0  0  0  0  0
  -15.7310   -8.5418    5.0552 C   0  0  0  0  0  0  0  0  0  0  0  0
  -14.2613   -9.2805    4.5784 S   0  0  0  0  0  0  0  0  0  0  0  0
 15 16  1  0  0  0
 16  9  1  0  0  0
  9 10  2  0  0  0
 10 11  1  0  0  0
 11 12  2  0  0  0
 12 13  1  0  0  0
 13 17  1  0  0  0
 17 18  1  0  0  0
 13 14  2  0  0  0
 14 19  1  0  0  0
 19 20  1  0  0  0
 11  1  1  0  0  0
  1  2  2  0  0  0
  1  3  1  0  0  0
  3  4  1  0  0  0
  4  5  1  0  0  0
  5  6  1  0  0  0
  6  7  1  0  0  0
  7  8  1  0  0  0
  7 21  1  0  0  0
 21 22  2  0  0  0
 21 23  1  0  0  0
 23 25  1  0  0  0
 25 26  2  0  0  0
 26 27  1  0  0  0
 27 28  2  0  0  0
 28 29  1  0  0  0
 29 30  2  0  0  0
 30 31  1  0  0  0
 31 32  2  0  0  0
 32 33  1  0  0  0
 14  9  1  0  0  0
  8  3  1  0  0  0
 33 25  1  0  0  0
 32 27  1  0  0  0
 23 24  1  0  0  0
M  END
> <minimizedAffinity>
0.67000

> <CNNscore>
0.2612078190

> <CNNaffinity>
6.0804610252

> <CNN_VS>
1.5882639885

> <CNNaffinity_variance>
0.8020269275

$$$$
[H]OC(=O)C([H])([H])[C@@]([H])(C(=O)N([H])[H])N([H])C(=O)[C@@]([H])(N([H])C(=O)[C@@]([H])(N([H])C(=O)[C@@]([H])(N([H])C(=O)[C@@]([H])(N([H])C(=O)[C@@]([H])(N([H])C(=O)C([H])([H])[H])C([H])([H])c1c([H])c([H])c(O[H])c([H])c1[H])C([H])([H])c1c([H])c([H])c(O[H])c([H])c1[H])C([H])([H])c1c([H])c([H])c([H])c([H])c1[H])C([H])([H])C([H])(C([H])([H])[H])C([H])([H])[H])C([H])([H])C([H])(C([H])([H])[H])C([H])([H])[H]


 74 76  0  0  0  0  0  0  0  0999 V2000
   -3.3451    0.6978    4.0653 C   0  0  0  0  0  0  0  0  0  0  0  0
   -2.9047   -0.2366    5.1085 N   0  0  0  0  0  0  0  0  0  0  0  0
   -3.8231   -1.0635    5.7727 C   0  0  0  0  0  0  0  0  0  0  0  0
   -5.0444   -0.9704    5.4248 O   0  0  0  0  0  0  0  0  0  0  0  0
   -1.9044   -0.2907    5.3621 H   0  0  0  0  0  0  0  0  0  0  0  0
   -3.4914   -2.0158    6.8286 C   0  0  0  0  0  0  0  0  0  0  0  0
   -3.5210   -3.3985    6.3084 N   0  0  0  0  0  0  0  0  0  0  0  0
   -3.5686   -4.5383    7.1442 C   0  0  0  0  0  0  0  0  0  0  0  0
   -3.5875   -4.4417    8.4165 O   0  0  0  0  0  0  0  0  0  0  0  0
   -3.5039   -3.5456    5.2777 H   0  0  0  0  0  0  0  0  0  0  0  0
   -3.5941   -5.9040    6.5860 C   0  0  0  0  0  0  0  0  0  0  0  0
   -2.2182   -6.2394    6.1568 N   0  0  0  0  0  0  0  0  0  0  0  0
   -1.7682   -5.9379    4.8652 C   0  0  0  0  0  0  0  0  0  0  0  0
   -0.3881   -6.2751    4.4454 C   0  0  0  0  0  0  0  0  0  0  0  0
   -2.5542   -5.3677    4.0440 O   0  0  0  0  0  0  0  0  0  0  0  0
   -1.5837   -6.7065    6.8361 H   0  0  0  0  0  0  0  0  0  0  0  0
   -3.9550   -6.9783    7.5630 C   0  0  0  0  0  0  0  0  0  0  0  0
   -5.3138   -7.5126    7.4688 C   0  0  0  0  0  0  0  0  0  0  0  0
   -5.6987   -8.2395    6.3702 C   0  0  0  0  0  0  0  0  0  0  0  0
   -6.9899   -8.7858    6.2826 C   0  0  0  0  0  0  0  0  0  0  0  0
   -7.8817   -8.5877    7.3177 C   0  0  0  0  0  0  0  0  0  0  0  0
   -9.1468   -9.1419    7.1942 O   0  0  0  0  0  0  0  0  0  0  0  0
   -7.5044   -7.8590    8.4266 C   0  0  0  0  0  0  0  0  0  0  0  0
   -6.2315   -7.3296    8.4935 C   0  0  0  0  0  0  0  0  0  0  0  0
   -9.9242   -8.6355    6.7652 H   0  0  0  0  0  0  0  0  0  0  0  0
   -2.1481   -1.7861    7.5019 C   0  0  0  0  0  0  0  0  0  0  0  0
   -2.2056   -0.9668    8.7061 C   0  0  0  0  0  0  0  0  0  0  0  0
   -3.3877   -0.6628    9.3349 C   0  0  0  0  0  0  0  0  0  0  0  0
   -3.4288    0.1349   10.4789 C   0  0  0  0  0  0  0  0  0  0  0  0
   -2.2653    0.6462   11.0149 C   0  0  0  0  0  0  0  0  0  0  0  0
   -2.2875    1.4529   12.1687 O   0  0  0  0  0  0  0  0  0  0  0  0
   -1.0794    0.3419   10.3829 C   0  0  0  0  0  0  0  0  0  0  0  0
   -1.0588   -0.4462    9.2562 C   0  0  0  0  0  0  0  0  0  0  0  0
   -2.3787    2.4707   12.1192 H   0  0  0  0  0  0  0  0  0  0  0  0
   -4.2084   -0.5580    2.0919 N   0  0  0  0  0  0  0  0  0  0  0  0
   -3.1795    0.1749    2.7129 C   0  0  0  0  0  0  0  0  0  0  0  0
   -2.1210    0.3577    2.0842 O   0  0  0  0  0  0  0  0  0  0  0  0
   -5.1075   -0.7197    2.5799 H   0  0  0  0  0  0  0  0  0  0  0  0
   -4.0189   -1.1207    0.7014 C   0  0  0  0  0  0  0  0  0  0  0  0
   -5.0017   -0.4678   -1.5679 N   0  0  0  0  0  0  0  0  0  0  0  0
   -4.9340   -0.4248   -0.1556 C   0  0  0  0  0  0  0  0  0  0  0  0
   -5.8317    0.3671    0.3606 O   0  0  0  0  0  0  0  0  0  0  0  0
   -4.3407   -1.0653   -2.0885 H   0  0  0  0  0  0  0  0  0  0  0  0
   -5.9538    0.3001   -2.3420 C   0  0  0  0  0  0  0  0  0  0  0  0
   -7.3137   -0.2111   -2.3879 C   0  0  0  0  0  0  0  0  0  0  0  0
   -7.7069   -1.3060   -2.8576 O   0  0  0  0  0  0  0  0  0  0  0  0
   -8.3494    0.6142   -1.8359 N   0  0  0  0  0  0  0  0  0  0  0  0
   -8.1535    1.5420   -1.4178 H   0  0  0  0  0  0  0  0  0  0  0  0
   -9.7558    0.1885   -1.8266 C   0  0  0  0  0  0  0  0  0  0  0  0
  -10.3962    0.7145   -3.0431 C   0  0  0  0  0  0  0  0  0  0  0  0
  -10.6877   -0.0519   -4.1966 N   0  0  0  0  0  0  0  0  0  0  0  0
  -10.7168    1.9297   -3.0931 O   0  0  0  0  0  0  0  0  0  0  0  0
  -10.0113   -0.7895   -4.4788 H   0  0  0  0  0  0  0  0  0  0  0  0
  -11.5411    0.0924   -4.7661 H   0  0  0  0  0  0  0  0  0  0  0  0
  -10.4135    0.7503   -0.6052 C   0  0  0  0  0  0  0  0  0  0  0  0
   -9.4520    1.4890    0.2244 C   0  0  0  0  0  0  0  0  0  0  0  0
   -8.7219    0.7341    1.1511 O   0  0  0  0  0  0  0  0  0  0  0  0
   -9.2655    2.7355    0.1351 O   0  0  0  0  0  0  0  0  0  0  0  0
   -8.9983   -0.1792    1.4678 H   0  0  0  0  0  0  0  0  0  0  0  0
   -5.3465    0.7425   -3.6165 C   0  0  0  0  0  0  0  0  0  0  0  0
   -5.2161    3.0514   -2.5953 C   0  0  0  0  0  0  0  0  0  0  0  0
   -4.9364    2.1562   -3.7694 C   0  0  0  0  0  0  0  0  0  0  0  0
   -5.3059    2.8300   -5.0484 C   0  0  0  0  0  0  0  0  0  0  0  0
   -4.0482   -2.5937    0.8472 C   0  0  0  0  0  0  0  0  0  0  0  0
   -3.0528   -3.4558    0.1950 C   0  0  0  0  0  0  0  0  0  0  0  0
   -1.9285   -3.9123    1.1127 C   0  0  0  0  0  0  0  0  0  0  0  0
   -2.6469   -3.1410   -1.1984 C   0  0  0  0  0  0  0  0  0  0  0  0
   -2.7087    2.0548    4.3041 C   0  0  0  0  0  0  0  0  0  0  0  0
   -2.5811    2.4457    5.7002 C   0  0  0  0  0  0  0  0  0  0  0  0
   -3.6944    2.6788    6.4664 C   0  0  0  0  0  0  0  0  0  0  0  0
   -3.5701    3.0492    7.7994 C   0  0  0  0  0  0  0  0  0  0  0  0
   -2.3423    3.1988    8.4068 C   0  0  0  0  0  0  0  0  0  0  0  0
   -1.2216    2.9614    7.6247 C   0  0  0  0  0  0  0  0  0  0  0  0
   -1.3539    2.5953    6.3077 C   0  0  0  0  0  0  0  0  0  0  0  0
 61 62  1  0  0  0
 62 63  1  0  0  0
 62 60  1  0  0  0
 60 44  1  0  0  0
 44 40  1  0  0  0
 40 41  1  0  0  0
 41 42  2  0  0  0
 41 39  1  0  0  0
 39 64  1  0  0  0
 64 65  1  0  0  0
 65 66  1  0  0  0
 65 67  1  0  0  0
 39 35  1  0  0  0
 35 36  1  0  0  0
 36 37  2  0  0  0
 36  1  1  0  0  0
  1 68  1  0  0  0
 68 69  1  0  0  0
 69 70  2  0  0  0
 70 71  1  0  0  0
 71 72  2  0  0  0
 72 73  1  0  0  0
 73 74  2  0  0  0
  1  2  1  0  0  0
  2  3  1  0  0  0
  3  4  2  0  0  0
  3  6  1  0  0  0
  6 26  1  0  0  0
 26 27  1  0  0  0
 27 28  2  0  0  0
 28 29  1  0  0  0
 29 30  2  0  0  0
 30 31  1  0  0  0
 30 32  1  0  0  0
 32 33  2  0  0  0
  6  7  1  0  0  0
  7  8  1  0  0  0
  8  9  2  0  0  0
  8 11  1  0  0  0
 11 17  1  0  0  0
 17 18  1  0  0  0
 18 19  2  0  0  0
 19 20  1  0  0  0
 20 21  2  0  0  0
 21 22  1  0  0  0
 21 23  1  0  0  0
 23 24  2  0  0  0
 11 12  1  0  0  0
 12 13  1  0  0  0
 13 14  1  0  0  0
 13 15  2  0  0  0
 44 45  1  0  0  0
 45 46  2  0  0  0
 45 47  1  0  0  0
 47 49  1  0  0  0
 49 55  1  0  0  0
 55 56  1  0  0  0
 56 57  1  0  0  0
 56 58  2  0  0  0
 49 50  1  0  0  0
 50 51  1  0  0  0
 50 52  2  0  0  0
 74 69  1  0  0  0
 33 27  1  0  0  0
 24 18  1  0  0  0
 40 43  1  0  0  0
 35 38  1  0  0  0
  2  5  1  0  0  0
 31 34  1  0  0  0
  7 10  1  0  0  0
 22 25  1  0  0  0
 12 16  1  0  0  0
 47 48  1  0  0  0
 57 59  1  0  0  0
 51 53  1  0  0  0
 51 54  1  0  0  0
M  END
> <minimizedAffinity>
-5.96297

> <CNNscore>
0.2158983797

> <CNNaffinity>
6.7864036560

> <CNN_VS>
1.4651736021

> <CNNaffinity_variance>
0.2491755486

$$$$
[H]OC(=O)C([H])([H])[C@@]([H])(C(=O)N([H])[H])N([H])C(=O)[C@@]([H])(N([H])C(=O)[C@@]([H])(N([H])C(=O)[C@@]([H])(N([H])C(=O)[C@@]([H])(N([H])C(=O)[C@@]([H])(N([H])C(=O)C([H])([H])[H])C([H])([H])c1c([H])c([H])c(O[H])c([H])c1[H])C([H])([H])c1c([H])c([H])c(O[H])c([H])c1[H])C([H])([H])c1c([H])c([H])c([H])c([H])c1[H])C([H])([H])C([H])(C([H])([H])[H])C([H])([H])[H])C([H])([H])C([H])(C([H])([H])[H])C([H])([H])[H]


 74 76  0  0  0  0  0  0  0  0999 V2000
   -3.1498   -1.4966    2.6828 C   0  0  0  0  0  0  0  0  0  0  0  0
   -3.0120   -1.6616    4.1351 N   0  0  0  0  0  0  0  0  0  0  0  0
   -3.8336   -2.5521    4.8425 C   0  0  0  0  0  0  0  0  0  0  0  0
   -4.6912   -3.2095    4.1690 O   0  0  0  0  0  0  0  0  0  0  0  0
   -2.3011   -1.1162    4.6499 H   0  0  0  0  0  0  0  0  0  0  0  0
   -3.7854   -2.7814    6.2837 C   0  0  0  0  0  0  0  0  0  0  0  0
   -3.9999   -4.2112    6.5890 N   0  0  0  0  0  0  0  0  0  0  0  0
   -3.0292   -5.2091    6.3405 C   0  0  0  0  0  0  0  0  0  0  0  0
   -1.8932   -4.9328    5.8289 O   0  0  0  0  0  0  0  0  0  0  0  0
   -4.9088   -4.5030    7.0051 H   0  0  0  0  0  0  0  0  0  0  0  0
   -3.2824   -6.6279    6.6570 C   0  0  0  0  0  0  0  0  0  0  0  0
   -1.9835   -7.2516    6.9939 N   0  0  0  0  0  0  0  0  0  0  0  0
   -1.6122   -8.4895    6.4539 C   0  0  0  0  0  0  0  0  0  0  0  0
   -0.3085   -9.1048    6.7948 C   0  0  0  0  0  0  0  0  0  0  0  0
   -2.4042   -9.0913    5.6614 O   0  0  0  0  0  0  0  0  0  0  0  0
   -1.3435   -6.7513    7.6438 H   0  0  0  0  0  0  0  0  0  0  0  0
   -4.1357   -6.8627    7.8636 C   0  0  0  0  0  0  0  0  0  0  0  0
   -5.4271   -7.5096    7.6303 C   0  0  0  0  0  0  0  0  0  0  0  0
   -5.6954   -8.1083    6.4248 C   0  0  0  0  0  0  0  0  0  0  0  0
   -6.9186   -8.7612    6.1998 C   0  0  0  0  0  0  0  0  0  0  0  0
   -7.8619   -8.8003    7.2070 C   0  0  0  0  0  0  0  0  0  0  0  0
   -9.0571   -9.4534    6.9467 O   0  0  0  0  0  0  0  0  0  0  0  0
   -7.6018   -8.2021    8.4226 C   0  0  0  0  0  0  0  0  0  0  0  0
   -6.3942   -7.5646    8.6240 C   0  0  0  0  0  0  0  0  0  0  0  0
   -9.8677   -8.9706    6.5534 H   0  0  0  0  0  0  0  0  0  0  0  0
   -2.5010   -2.3343    6.9627 C   0  0  0  0  0  0  0  0  0  0  0  0
   -2.6790   -1.8089    8.3106 C   0  0  0  0  0  0  0  0  0  0  0  0
   -3.1097   -0.5275    8.5513 C   0  0  0  0  0  0  0  0  0  0  0  0
   -3.2617   -0.0334    9.8472 C   0  0  0  0  0  0  0  0  0  0  0  0
   -2.9784   -0.8317   10.9358 C   0  0  0  0  0  0  0  0  0  0  0  0
   -3.1260   -0.3501   12.2506 O   0  0  0  0  0  0  0  0  0  0  0  0
   -2.5450   -2.1171   10.6938 C   0  0  0  0  0  0  0  0  0  0  0  0
   -2.4014   -2.5864    9.4093 C   0  0  0  0  0  0  0  0  0  0  0  0
   -2.3625    0.1143   12.7487 H   0  0  0  0  0  0  0  0  0  0  0  0
   -4.0573    0.0964    0.9931 N   0  0  0  0  0  0  0  0  0  0  0  0
   -4.0476   -0.4092    2.3068 C   0  0  0  0  0  0  0  0  0  0  0  0
   -4.8165    0.1003    3.1425 O   0  0  0  0  0  0  0  0  0  0  0  0
   -3.4399   -0.3107    0.2681 H   0  0  0  0  0  0  0  0  0  0  0  0
   -4.9701    1.2420    0.6181 C   0  0  0  0  0  0  0  0  0  0  0  0
   -6.2133   -0.3546   -0.9462 N   0  0  0  0  0  0  0  0  0  0  0  0
   -5.6055    0.8790   -0.6151 C   0  0  0  0  0  0  0  0  0  0  0  0
   -5.6567    1.7368   -1.5954 O   0  0  0  0  0  0  0  0  0  0  0  0
   -6.2365   -1.1119   -0.2456 H   0  0  0  0  0  0  0  0  0  0  0  0
   -6.8062   -0.6272   -2.2384 C   0  0  0  0  0  0  0  0  0  0  0  0
   -8.2393   -0.4128   -2.3519 C   0  0  0  0  0  0  0  0  0  0  0  0
   -9.0772   -1.1264   -2.9541 O   0  0  0  0  0  0  0  0  0  0  0  0
   -8.7878    0.7453   -1.7063 N   0  0  0  0  0  0  0  0  0  0  0  0
   -8.1994    1.4139   -1.1766 H   0  0  0  0  0  0  0  0  0  0  0  0
  -10.2244    1.0507   -1.7546 C   0  0  0  0  0  0  0  0  0  0  0  0
  -10.4443    2.0235   -2.8371 C   0  0  0  0  0  0  0  0  0  0  0  0
  -10.8101    1.6865   -4.1621 N   0  0  0  0  0  0  0  0  0  0  0  0
  -10.3017    3.2505   -2.5997 O   0  0  0  0  0  0  0  0  0  0  0  0
  -10.4046    0.8242   -4.5781 H   0  0  0  0  0  0  0  0  0  0  0  0
  -11.4600    2.2608   -4.7288 H   0  0  0  0  0  0  0  0  0  0  0  0
  -10.6299    1.6340   -0.4374 C   0  0  0  0  0  0  0  0  0  0  0  0
   -9.5075    1.6383    0.5105 C   0  0  0  0  0  0  0  0  0  0  0  0
   -9.3932    0.5182    1.3436 O   0  0  0  0  0  0  0  0  0  0  0  0
   -8.6709    2.5812    0.5981 O   0  0  0  0  0  0  0  0  0  0  0  0
  -10.1474   -0.1215    1.5246 H   0  0  0  0  0  0  0  0  0  0  0  0
   -6.2551   -1.8773   -2.8064 C   0  0  0  0  0  0  0  0  0  0  0  0
   -5.1439   -2.7621   -4.8977 C   0  0  0  0  0  0  0  0  0  0  0  0
   -5.1100   -1.8032   -3.7411 C   0  0  0  0  0  0  0  0  0  0  0  0
   -3.7478   -1.7538   -3.1345 C   0  0  0  0  0  0  0  0  0  0  0  0
   -4.1582    2.4732    0.7482 C   0  0  0  0  0  0  0  0  0  0  0  0
   -4.5895    3.5993    1.5880 C   0  0  0  0  0  0  0  0  0  0  0  0
   -3.4492    4.3348    2.2759 C   0  0  0  0  0  0  0  0  0  0  0  0
   -5.8265    3.4479    2.3957 C   0  0  0  0  0  0  0  0  0  0  0  0
   -3.4779   -2.8380    2.0530 C   0  0  0  0  0  0  0  0  0  0  0  0
   -2.3356   -3.5843    1.5470 C   0  0  0  0  0  0  0  0  0  0  0  0
   -1.8883   -4.7057    2.1977 C   0  0  0  0  0  0  0  0  0  0  0  0
   -0.7994   -5.4180    1.7113 C   0  0  0  0  0  0  0  0  0  0  0  0
   -0.1261   -5.0385    0.5705 C   0  0  0  0  0  0  0  0  0  0  0  0
   -0.5848   -3.9032   -0.0812 C   0  0  0  0  0  0  0  0  0  0  0  0
   -1.6623   -3.2053    0.4066 C   0  0  0  0  0  0  0  0  0  0  0  0
 61 62  1  0  0  0
 62 63  1  0  0  0
 62 60  1  0  0  0
 60 44  1  0  0  0
 44 40  1  0  0  0
 40 41  1  0  0  0
 41 42  2  0  0  0
 41 39  1  0  0  0
 39 64  1  0  0  0
 64 65  1  0  0  0
 65 66  1  0  0  0
 65 67  1  0  0  0
 39 35  1  0  0  0
 35 36  1  0  0  0
 36 37  2  0  0  0
 36  1  1  0  0  0
  1 68  1  0  0  0
 68 69  1  0  0  0
 69 70  2  0  0  0
 70 71  1  0  0  0
 71 72  2  0  0  0
 72 73  1  0  0  0
 73 74  2  0  0  0
  1  2  1  0  0  0
  2  3  1  0  0  0
  3  4  2  0  0  0
  3  6  1  0  0  0
  6 26  1  0  0  0
 26 27  1  0  0  0
 27 28  2  0  0  0
 28 29  1  0  0  0
 29 30  2  0  0  0
 30 31  1  0  0  0
 30 32  1  0  0  0
 32 33  2  0  0  0
  6  7  1  0  0  0
  7  8  1  0  0  0
  8  9  2  0  0  0
  8 11  1  0  0  0
 11 17  1  0  0  0
 17 18  1  0  0  0
 18 19  2  0  0  0
 19 20  1  0  0  0
 20 21  2  0  0  0
 21 22  1  0  0  0
 21 23  1  0  0  0
 23 24  2  0  0  0
 11 12  1  0  0  0
 12 13  1  0  0  0
 13 14  1  0  0  0
 13 15  2  0  0  0
 44 45  1  0  0  0
 45 46  2  0  0  0
 45 47  1  0  0  0
 47 49  1  0  0  0
 49 55  1  0  0  0
 55 56  1  0  0  0
 56 57  1  0  0  0
 56 58  2  0  0  0
 49 50  1  0  0  0
 50 51  1  0  0  0
 50 52  2  0  0  0
 74 69  1  0  0  0
 33 27  1  0  0  0
 24 18  1  0  0  0
 40 43  1  0  0  0
 35 38  1  0  0  0
  2  5  1  0  0  0
 31 34  1  0  0  0
  7 10  1  0  0  0
 22 25  1  0  0  0
 12 16  1  0  0  0
 47 48  1  0  0  0
 57 59  1  0  0  0
 51 53  1  0  0  0
 51 54  1  0  0  0
M  END
> <minimizedAffinity>
-6.57877

> <CNNscore>
0.2120800018

> <CNNaffinity>
6.8760175705

> <CNN_VS>
1.4582657814

> <CNNaffinity_variance>
0.3002789021

$$$$
[H]OC(=O)C([H])([H])[C@@]([H])(C(=O)N([H])[H])N([H])C(=O)[C@@]([H])(N([H])C(=O)[C@@]([H])(N([H])C(=O)[C@@]([H])(N([H])C(=O)[C@@]([H])(N([H])C(=O)[C@@]([H])(N([H])C(=O)C([H])([H])[H])C([H])([H])c1c([H])c([H])c(O[H])c([H])c1[H])C([H])([H])c1c([H])c([H])c(O[H])c([H])c1[H])C([H])([H])c1c([H])c([H])c([H])c([H])c1[H])C([H])([H])C([H])(C([H])([H])[H])C([H])([H])[H])C([H])([H])C([H])(C([H])([H])[H])C([H])([H])[H]


 74 76  0  0  0  0  0  0  0  0999 V2000
   -4.9399   -5.7269    7.5847 C   0  0  0  0  0  0  0  0  0  0  0  0
   -4.9155   -5.8484    9.0476 N   0  0  0  0  0  0  0  0  0  0  0  0
   -4.2280   -4.9160    9.8390 C   0  0  0  0  0  0  0  0  0  0  0  0
   -3.6382   -3.9641    9.2330 O   0  0  0  0  0  0  0  0  0  0  0  0
   -5.4101   -6.6306    9.5074 H   0  0  0  0  0  0  0  0  0  0  0  0
   -4.1331   -4.9522   11.2955 C   0  0  0  0  0  0  0  0  0  0  0  0
   -3.8194   -3.6102   11.8286 N   0  0  0  0  0  0  0  0  0  0  0  0
   -2.5942   -3.2965   12.4612 C   0  0  0  0  0  0  0  0  0  0  0  0
   -1.6719   -4.1651   12.6141 O   0  0  0  0  0  0  0  0  0  0  0  0
   -4.5327   -2.8569   11.7384 H   0  0  0  0  0  0  0  0  0  0  0  0
   -2.3195   -1.9440   12.9835 C   0  0  0  0  0  0  0  0  0  0  0  0
   -3.0778   -0.9803   12.1553 N   0  0  0  0  0  0  0  0  0  0  0  0
   -2.4562   -0.2645   11.1243 C   0  0  0  0  0  0  0  0  0  0  0  0
   -3.2242    0.6963   10.2986 C   0  0  0  0  0  0  0  0  0  0  0  0
   -1.2180   -0.4423   10.8949 O   0  0  0  0  0  0  0  0  0  0  0  0
   -4.0899   -0.8418   12.3519 H   0  0  0  0  0  0  0  0  0  0  0  0
   -2.7983   -1.6974   14.3795 C   0  0  0  0  0  0  0  0  0  0  0  0
   -2.0088   -2.3009   15.4534 C   0  0  0  0  0  0  0  0  0  0  0  0
   -2.6094   -3.1098   16.3854 C   0  0  0  0  0  0  0  0  0  0  0  0
   -1.8571   -3.7215   17.4018 C   0  0  0  0  0  0  0  0  0  0  0  0
   -0.4949   -3.5050   17.4612 C   0  0  0  0  0  0  0  0  0  0  0  0
    0.2132   -4.1256   18.4792 O   0  0  0  0  0  0  0  0  0  0  0  0
    0.1185   -2.6941   16.5288 C   0  0  0  0  0  0  0  0  0  0  0  0
   -0.6382   -2.1013   15.5383 C   0  0  0  0  0  0  0  0  0  0  0  0
    0.3598   -3.6835   19.3891 H   0  0  0  0  0  0  0  0  0  0  0  0
   -5.3713   -5.4728   12.0072 C   0  0  0  0  0  0  0  0  0  0  0  0
   -5.2298   -5.6048   13.4519 C   0  0  0  0  0  0  0  0  0  0  0  0
   -5.8819   -4.7799   14.3348 C   0  0  0  0  0  0  0  0  0  0  0  0
   -5.7256   -4.9089   15.7152 C   0  0  0  0  0  0  0  0  0  0  0  0
   -4.8992   -5.8829   16.2356 C   0  0  0  0  0  0  0  0  0  0  0  0
   -4.7294   -6.0278   17.6258 O   0  0  0  0  0  0  0  0  0  0  0  0
   -4.2441   -6.7098   15.3493 C   0  0  0  0  0  0  0  0  0  0  0  0
   -4.4108   -6.5674   13.9917 C   0  0  0  0  0  0  0  0  0  0  0  0
   -3.9973   -5.5306   18.1392 H   0  0  0  0  0  0  0  0  0  0  0  0
   -7.2939   -6.5428    7.6808 N   0  0  0  0  0  0  0  0  0  0  0  0
   -6.0903   -6.3806    6.9691 C   0  0  0  0  0  0  0  0  0  0  0  0
   -6.0279   -6.8170    5.8051 O   0  0  0  0  0  0  0  0  0  0  0  0
   -7.3865   -6.1818    8.6471 H   0  0  0  0  0  0  0  0  0  0  0  0
   -8.4723   -7.2461    7.0462 C   0  0  0  0  0  0  0  0  0  0  0  0
  -10.9447   -7.4013    7.6826 N   0  0  0  0  0  0  0  0  0  0  0  0
   -9.6009   -7.0172    7.9007 C   0  0  0  0  0  0  0  0  0  0  0  0
   -9.4440   -6.3756    9.0246 O   0  0  0  0  0  0  0  0  0  0  0  0
  -11.1904   -7.9197    6.8248 H   0  0  0  0  0  0  0  0  0  0  0  0
  -12.0187   -7.0945    8.6035 C   0  0  0  0  0  0  0  0  0  0  0  0
  -13.3659   -7.1185    8.0587 C   0  0  0  0  0  0  0  0  0  0  0  0
  -14.4464   -7.2285    8.6869 O   0  0  0  0  0  0  0  0  0  0  0  0
  -13.5058   -7.0029    6.6354 N   0  0  0  0  0  0  0  0  0  0  0  0
  -12.6888   -6.9067    6.0054 H   0  0  0  0  0  0  0  0  0  0  0  0
  -14.8231   -7.0098    5.9841 C   0  0  0  0  0  0  0  0  0  0  0  0
  -15.0686   -8.3682    5.4732 C   0  0  0  0  0  0  0  0  0  0  0  0
  -14.1194   -9.4179    5.4851 N   0  0  0  0  0  0  0  0  0  0  0  0
  -16.1924   -8.6467    4.9816 O   0  0  0  0  0  0  0  0  0  0  0  0
  -13.1230   -9.1796    5.3079 H   0  0  0  0  0  0  0  0  0  0  0  0
  -14.3767  -10.4059    5.6616 H   0  0  0  0  0  0  0  0  0  0  0  0
  -14.8008   -6.0241    4.8582 C   0  0  0  0  0  0  0  0  0  0  0  0
  -16.0896   -5.3301    4.7332 C   0  0  0  0  0  0  0  0  0  0  0  0
  -16.1382   -4.2691    3.8203 O   0  0  0  0  0  0  0  0  0  0  0  0
  -17.1192   -5.6447    5.3947 O   0  0  0  0  0  0  0  0  0  0  0  0
  -15.3230   -3.7938    3.4736 H   0  0  0  0  0  0  0  0  0  0  0  0
  -11.6498   -5.9492    9.4645 C   0  0  0  0  0  0  0  0  0  0  0  0
  -13.2726   -4.4351   10.6750 C   0  0  0  0  0  0  0  0  0  0  0  0
  -12.4360   -5.6834   10.6898 C   0  0  0  0  0  0  0  0  0  0  0  0
  -11.7221   -5.8264   11.9922 C   0  0  0  0  0  0  0  0  0  0  0  0
   -8.0054   -8.6113    6.7142 C   0  0  0  0  0  0  0  0  0  0  0  0
   -8.5216   -9.7968    7.4125 C   0  0  0  0  0  0  0  0  0  0  0  0
   -7.4630  -10.5802    8.1742 C   0  0  0  0  0  0  0  0  0  0  0  0
   -9.5593  -10.6194    6.7402 C   0  0  0  0  0  0  0  0  0  0  0  0
   -3.5942   -6.1473    7.0225 C   0  0  0  0  0  0  0  0  0  0  0  0
   -3.1604   -5.4220    5.8376 C   0  0  0  0  0  0  0  0  0  0  0  0
   -2.2480   -5.9730    4.9746 C   0  0  0  0  0  0  0  0  0  0  0  0
   -1.8374   -5.2799    3.8430 C   0  0  0  0  0  0  0  0  0  0  0  0
   -2.3184   -4.0252    3.5376 C   0  0  0  0  0  0  0  0  0  0  0  0
   -3.2405   -3.4752    4.4158 C   0  0  0  0  0  0  0  0  0  0  0  0
   -3.6410   -4.1677    5.5321 C   0  0  0  0  0  0  0  0  0  0  0  0
 61 62  1  0  0  0
 62 63  1  0  0  0
 62 60  1  0  0  0
 60 44  1  0  0  0
 44 40  1  0  0  0
 40 41  1  0  0  0
 41 42  2  0  0  0
 41 39  1  0  0  0
 39 64  1  0  0  0
 64 65  1  0  0  0
 65 66  1  0  0  0
 65 67  1  0  0  0
 39 35  1  0  0  0
 35 36  1  0  0  0
 36 37  2  0  0  0
 36  1  1  0  0  0
  1 68  1  0  0  0
 68 69  1  0  0  0
 69 70  2  0  0  0
 70 71  1  0  0  0
 71 72  2  0  0  0
 72 73  1  0  0  0
 73 74  2  0  0  0
  1  2  1  0  0  0
  2  3  1  0  0  0
  3  4  2  0  0  0
  3  6  1  0  0  0
  6 26  1  0  0  0
 26 27  1  0  0  0
 27 28  2  0  0  0
 28 29  1  0  0  0
 29 30  2  0  0  0
 30 31  1  0  0  0
 30 32  1  0  0  0
 32 33  2  0  0  0
  6  7  1  0  0  0
  7  8  1  0  0  0
  8  9  2  0  0  0
  8 11  1  0  0  0
 11 17  1  0  0  0
 17 18  1  0  0  0
 18 19  2  0  0  0
 19 20  1  0  0  0
 20 21  2  0  0  0
 21 22  1  0  0  0
 21 23  1  0  0  0
 23 24  2  0  0  0
 11 12  1  0  0  0
 12 13  1  0  0  0
 13 14  1  0  0  0
 13 15  2  0  0  0
 44 45  1  0  0  0
 45 46  2  0  0  0
 45 47  1  0  0  0
 47 49  1  0  0  0
 49 55  1  0  0  0
 55 56  1  0  0  0
 56 57  1  0  0  0
 56 58  2  0  0  0
 49 50  1  0  0  0
 50 51  1  0  0  0
 50 52  2  0  0  0
 74 69  1  0  0  0
 33 27  1  0  0  0
 24 18  1  0  0  0
 40 43  1  0  0  0
 35 38  1  0  0  0
  2  5  1  0  0  0
 31 34  1  0  0  0
  7 10  1  0  0  0
 22 25  1  0  0  0
 12 16  1  0  0  0
 47 48  1  0  0  0
 57 59  1  0  0  0
 51 53  1  0  0  0
 51 54  1  0  0  0
M  END
> <minimizedAffinity>
-7.19709

> <CNNscore>
0.2071331888

> <CNNaffinity>
7.4543123245

> <CNN_VS>
1.5440354347

> <CNNaffinity_variance>
0.2412439585

$$$$
[H]OC(=O)C([H])([H])[C@@]([H])(C(=O)N([H])[H])N([H])C(=O)[C@@]([H])(N([H])C(=O)[C@@]([H])(N([H])C(=O)[C@@]([H])(N([H])C(=O)[C@@]([H])(N([H])C(=O)[C@@]([H])(N([H])C(=O)C([H])([H])[H])C([H])([H])c1c([H])c([H])c(O[H])c([H])c1[H])C([H])([H])c1c([H])c([H])c(O[H])c([H])c1[H])C([H])([H])c1c([H])c([H])c([H])c([H])c1[H])C([H])([H])C([H])(C([H])([H])[H])C([H])([H])[H])C([H])([H])C([H])(C([H])([H])[H])C([H])([H])[H]


 74 76  0  0  0  0  0  0  0  0999 V2000
   -4.0024    1.2060    5.0617 C   0  0  0  0  0  0  0  0  0  0  0  0
   -3.4399    0.0433    4.3639 N   0  0  0  0  0  0  0  0  0  0  0  0
   -4.1266   -1.1796    4.3272 C   0  0  0  0  0  0  0  0  0  0  0  0
   -5.2542   -1.2293    4.9166 O   0  0  0  0  0  0  0  0  0  0  0  0
   -2.5244    0.1203    3.8906 H   0  0  0  0  0  0  0  0  0  0  0  0
   -3.6516   -2.3950    3.6724 C   0  0  0  0  0  0  0  0  0  0  0  0
   -4.0690   -3.5912    4.4329 N   0  0  0  0  0  0  0  0  0  0  0  0
   -3.1516   -4.5024    5.0057 C   0  0  0  0  0  0  0  0  0  0  0  0
   -1.8895   -4.3464    4.8983 O   0  0  0  0  0  0  0  0  0  0  0  0
   -5.0864   -3.7775    4.5534 H   0  0  0  0  0  0  0  0  0  0  0  0
   -3.6082   -5.6880    5.7562 C   0  0  0  0  0  0  0  0  0  0  0  0
   -2.4959   -6.1216    6.6306 N   0  0  0  0  0  0  0  0  0  0  0  0
   -2.0996   -7.4638    6.6873 C   0  0  0  0  0  0  0  0  0  0  0  0
   -0.9832   -7.8881    7.5637 C   0  0  0  0  0  0  0  0  0  0  0  0
   -2.7057   -8.3275    5.9775 O   0  0  0  0  0  0  0  0  0  0  0  0
   -2.0075   -5.4070    7.2078 H   0  0  0  0  0  0  0  0  0  0  0  0
   -4.7482   -5.4410    6.6934 C   0  0  0  0  0  0  0  0  0  0  0  0
   -5.6171   -6.5839    6.9752 C   0  0  0  0  0  0  0  0  0  0  0  0
   -6.0534   -6.8250    8.2539 C   0  0  0  0  0  0  0  0  0  0  0  0
   -6.9144   -7.8994    8.5321 C   0  0  0  0  0  0  0  0  0  0  0  0
   -7.3265   -8.7222    7.5029 C   0  0  0  0  0  0  0  0  0  0  0  0
   -8.1758   -9.7724    7.8172 O   0  0  0  0  0  0  0  0  0  0  0  0
   -6.8943   -8.4880    6.2139 C   0  0  0  0  0  0  0  0  0  0  0  0
   -6.0476   -7.4277    5.9611 C   0  0  0  0  0  0  0  0  0  0  0  0
   -7.8261  -10.6972    8.0769 H   0  0  0  0  0  0  0  0  0  0  0  0
   -4.0995   -2.5645    2.2297 C   0  0  0  0  0  0  0  0  0  0  0  0
   -3.0217   -2.8440    1.2890 C   0  0  0  0  0  0  0  0  0  0  0  0
   -1.7115   -2.9612    1.6829 C   0  0  0  0  0  0  0  0  0  0  0  0
   -0.6882   -3.2147    0.7691 C   0  0  0  0  0  0  0  0  0  0  0  0
   -0.9711   -3.3558   -0.5735 C   0  0  0  0  0  0  0  0  0  0  0  0
    0.0487   -3.6119   -1.5100 O   0  0  0  0  0  0  0  0  0  0  0  0
   -2.2857   -3.2370   -0.9685 C   0  0  0  0  0  0  0  0  0  0  0  0
   -3.2808   -2.9870   -0.0530 C   0  0  0  0  0  0  0  0  0  0  0  0
    0.5533   -2.8589   -1.9843 H   0  0  0  0  0  0  0  0  0  0  0  0
   -4.3504    2.1082    2.7636 N   0  0  0  0  0  0  0  0  0  0  0  0
   -4.4861    2.2448    4.1580 C   0  0  0  0  0  0  0  0  0  0  0  0
   -5.0199    3.2779    4.6020 O   0  0  0  0  0  0  0  0  0  0  0  0
   -3.9222    1.2570    2.3576 H   0  0  0  0  0  0  0  0  0  0  0  0
   -4.8285    3.2013    1.8348 C   0  0  0  0  0  0  0  0  0  0  0  0
   -4.6491    1.3773    0.0508 N   0  0  0  0  0  0  0  0  0  0  0  0
   -5.1809    2.5688    0.5971 C   0  0  0  0  0  0  0  0  0  0  0  0
   -6.0856    3.1071   -0.1718 O   0  0  0  0  0  0  0  0  0  0  0  0
   -3.9255    0.8595    0.5734 H   0  0  0  0  0  0  0  0  0  0  0  0
   -5.0592    0.8367   -1.2279 C   0  0  0  0  0  0  0  0  0  0  0  0
   -6.2189   -0.0393   -1.2190 C   0  0  0  0  0  0  0  0  0  0  0  0
   -6.2541   -1.2639   -0.9490 O   0  0  0  0  0  0  0  0  0  0  0  0
   -7.4880    0.5403   -1.5541 N   0  0  0  0  0  0  0  0  0  0  0  0
   -7.5916    1.5424   -1.7967 H   0  0  0  0  0  0  0  0  0  0  0  0
   -8.7229   -0.2561   -1.5687 C   0  0  0  0  0  0  0  0  0  0  0  0
   -9.0152   -0.6126   -2.9665 C   0  0  0  0  0  0  0  0  0  0  0  0
  -10.1939   -0.2509   -3.6614 N   0  0  0  0  0  0  0  0  0  0  0  0
   -8.1780   -1.2898   -3.6166 O   0  0  0  0  0  0  0  0  0  0  0  0
  -11.0903   -0.2420   -3.1344 H   0  0  0  0  0  0  0  0  0  0  0  0
  -10.1985    0.0027   -4.6659 H   0  0  0  0  0  0  0  0  0  0  0  0
   -9.8298    0.5744   -0.9987 C   0  0  0  0  0  0  0  0  0  0  0  0
   -9.3520    1.4054    0.1146 C   0  0  0  0  0  0  0  0  0  0  0  0
   -9.1204    2.7565   -0.1730 O   0  0  0  0  0  0  0  0  0  0  0  0
   -9.1505    0.9621    1.2806 O   0  0  0  0  0  0  0  0  0  0  0  0
   -8.9928    3.1146   -1.1036 H   0  0  0  0  0  0  0  0  0  0  0  0
   -3.8793    0.4009   -2.0070 C   0  0  0  0  0  0  0  0  0  0  0  0
   -2.2371    2.0681   -2.9634 C   0  0  0  0  0  0  0  0  0  0  0  0
   -2.5999    1.1277   -1.8488 C   0  0  0  0  0  0  0  0  0  0  0  0
   -1.4157    0.3230   -1.4289 C   0  0  0  0  0  0  0  0  0  0  0  0
   -3.8100    4.2735    1.9043 C   0  0  0  0  0  0  0  0  0  0  0  0
   -2.6393    4.2874    1.0163 C   0  0  0  0  0  0  0  0  0  0  0  0
   -2.9381    4.7564   -0.3998 C   0  0  0  0  0  0  0  0  0  0  0  0
   -1.6547    3.1809    1.1244 C   0  0  0  0  0  0  0  0  0  0  0  0
   -3.0187    1.6862    6.1131 C   0  0  0  0  0  0  0  0  0  0  0  0
   -2.6293    0.6917    7.1018 C   0  0  0  0  0  0  0  0  0  0  0  0
   -1.3093    0.3703    7.2890 C   0  0  0  0  0  0  0  0  0  0  0  0
   -0.9399   -0.5773    8.2353 C   0  0  0  0  0  0  0  0  0  0  0  0
   -1.8666   -1.2303    9.0186 C   0  0  0  0  0  0  0  0  0  0  0  0
   -3.1993   -0.8994    8.8227 C   0  0  0  0  0  0  0  0  0  0  0  0
   -3.5554    0.0388    7.8851 C   0  0  0  0  0  0  0  0  0  0  0  0
 61 62  1  0  0  0
 62 63  1  0  0  0
 62 60  1  0  0  0
 60 44  1  0  0  0
 44 40  1  0  0  0
 40 41  1  0  0  0
 41 42  2  0  0  0
 41 39  1  0  0  0
 39 64  1  0  0  0
 64 65  1  0  0  0
 65 66  1  0  0  0
 65 67  1  0  0  0
 39 35  1  0  0  0
 35 36  1  0  0  0
 36 37  2  0  0  0
 36  1  1  0  0  0
  1 68  1  0  0  0
 68 69  1  0  0  0
 69 70  2  0  0  0
 70 71  1  0  0  0
 71 72  2  0  0  0
 72 73  1  0  0  0
 73 74  2  0  0  0
  1  2  1  0  0  0
  2  3  1  0  0  0
  3  4  2  0  0  0
  3  6  1  0  0  0
  6 26  1  0  0  0
 26 27  1  0  0  0
 27 28  2  0  0  0
 28 29  1  0  0  0
 29 30  2  0  0  0
 30 31  1  0  0  0
 30 32  1  0  0  0
 32 33  2  0  0  0
  6  7  1  0  0  0
  7  8  1  0  0  0
  8  9  2  0  0  0
  8 11  1  0  0  0
 11 17  1  0  0  0
 17 18  1  0  0  0
 18 19  2  0  0  0
 19 20  1  0  0  0
 20 21  2  0  0  0
 21 22  1  0  0  0
 21 23  1  0  0  0
 23 24  2  0  0  0
 11 12  1  0  0  0
 12 13  1  0  0  0
 13 14  1  0  0  0
 13 15  2  0  0  0
 44 45  1  0  0  0
 45 46  2  0  0  0
 45 47  1  0  0  0
 47 49  1  0  0  0
 49 55  1  0  0  0
 55 56  1  0  0  0
 56 57  1  0  0  0
 56 58  2  0  0  0
 49 50  1  0  0  0
 50 51  1  0  0  0
 50 52  2  0  0  0
 74 69  1  0  0  0
 33 27  1  0  0  0
 24 18  1  0  0  0
 40 43  1  0  0  0
 35 38  1  0  0  0
  2  5  1  0  0  0
 31 34  1  0  0  0
  7 10  1  0  0  0
 22 25  1  0  0  0
 12 16  1  0  0  0
 47 48  1  0  0  0
 57 59  1  0  0  0
 51 53  1  0  0  0
 51 54  1  0  0  0
M  END
> <minimizedAffinity>
-5.56622

> <CNNscore>
0.1934905350

> <CNNaffinity>
6.8424720764

> <CNN_VS>
1.3239536285

> <CNNaffinity_variance>
0.5656787157

$$$$
[H]OC(=O)C([H])([H])[C@@]([H])(C(=O)N([H])[H])N([H])C(=O)[C@@]([H])(N([H])C(=O)[C@@]([H])(N([H])C(=O)[C@@]([H])(N([H])C(=O)[C@@]([H])(N([H])C(=O)[C@@]([H])(N([H])C(=O)C([H])([H])[H])C([H])([H])c1c([H])c([H])c(O[H])c([H])c1[H])C([H])([H])c1c([H])c([H])c(O[H])c([H])c1[H])C([H])([H])c1c([H])c([H])c([H])c([H])c1[H])C([H])([H])C([H])(C([H])([H])[H])C([H])([H])[H])C([H])([H])C([H])(C([H])([H])[H])C([H])([H])[H]


 74 76  0  0  0  0  0  0  0  0999 V2000
   -5.0131   -5.7769    7.5058 C   0  0  0  0  0  0  0  0  0  0  0  0
   -4.9875   -5.8665    8.9709 N   0  0  0  0  0  0  0  0  0  0  0  0
   -4.2639   -4.9419    9.7391 C   0  0  0  0  0  0  0  0  0  0  0  0
   -3.6427   -4.0255    9.1101 O   0  0  0  0  0  0  0  0  0  0  0  0
   -5.5080   -6.6199    9.4497 H   0  0  0  0  0  0  0  0  0  0  0  0
   -4.1648   -4.9489   11.1957 C   0  0  0  0  0  0  0  0  0  0  0  0
   -3.8921   -3.5884   11.7039 N   0  0  0  0  0  0  0  0  0  0  0  0
   -2.6599   -3.2137   12.2879 C   0  0  0  0  0  0  0  0  0  0  0  0
   -1.6949   -4.0391   12.4153 O   0  0  0  0  0  0  0  0  0  0  0  0
   -4.6409   -2.8684   11.6326 H   0  0  0  0  0  0  0  0  0  0  0  0
   -2.4269   -1.8446   12.7866 C   0  0  0  0  0  0  0  0  0  0  0  0
   -1.6727   -1.9511   14.0553 N   0  0  0  0  0  0  0  0  0  0  0  0
   -2.3338   -2.0060   15.2889 C   0  0  0  0  0  0  0  0  0  0  0  0
   -1.5704   -2.1152   16.5537 C   0  0  0  0  0  0  0  0  0  0  0  0
   -3.6043   -1.9616   15.3224 O   0  0  0  0  0  0  0  0  0  0  0  0
   -0.6337   -1.9857   14.0165 H   0  0  0  0  0  0  0  0  0  0  0  0
   -1.5664   -0.9913   11.9089 C   0  0  0  0  0  0  0  0  0  0  0  0
   -1.9120   -0.9655   10.4874 C   0  0  0  0  0  0  0  0  0  0  0  0
   -3.0828   -0.3846   10.0685 C   0  0  0  0  0  0  0  0  0  0  0  0
   -3.4104   -0.3241    8.7040 C   0  0  0  0  0  0  0  0  0  0  0  0
   -2.5407   -0.8564    7.7733 C   0  0  0  0  0  0  0  0  0  0  0  0
   -2.8993   -0.7780    6.4362 O   0  0  0  0  0  0  0  0  0  0  0  0
   -1.3609   -1.4419    8.1839 C   0  0  0  0  0  0  0  0  0  0  0  0
   -1.0574   -1.4924    9.5294 C   0  0  0  0  0  0  0  0  0  0  0  0
   -3.4412   -1.5109    5.9733 H   0  0  0  0  0  0  0  0  0  0  0  0
   -5.3847   -5.4949   11.9200 C   0  0  0  0  0  0  0  0  0  0  0  0
   -5.2372   -5.5933   13.3668 C   0  0  0  0  0  0  0  0  0  0  0  0
   -4.4626   -6.5564   13.9648 C   0  0  0  0  0  0  0  0  0  0  0  0
   -4.3422   -6.6474   15.3519 C   0  0  0  0  0  0  0  0  0  0  0  0
   -5.0088   -5.7590   16.1697 C   0  0  0  0  0  0  0  0  0  0  0  0
   -4.8991   -5.8357   17.5713 O   0  0  0  0  0  0  0  0  0  0  0  0
   -5.7870   -4.7935   15.5692 C   0  0  0  0  0  0  0  0  0  0  0  0
   -5.8933   -4.7194   14.2002 C   0  0  0  0  0  0  0  0  0  0  0  0
   -5.5385   -6.3996   18.1369 H   0  0  0  0  0  0  0  0  0  0  0  0
   -7.3612   -6.5999    7.6645 N   0  0  0  0  0  0  0  0  0  0  0  0
   -6.1909   -6.3984    6.9088 C   0  0  0  0  0  0  0  0  0  0  0  0
   -6.1816   -6.7720    5.7216 O   0  0  0  0  0  0  0  0  0  0  0  0
   -7.4097   -6.2910    8.6518 H   0  0  0  0  0  0  0  0  0  0  0  0
   -8.5679   -7.2700    7.0472 C   0  0  0  0  0  0  0  0  0  0  0  0
  -11.0294   -7.3686    7.7352 N   0  0  0  0  0  0  0  0  0  0  0  0
   -9.6664   -7.0522    7.9428 C   0  0  0  0  0  0  0  0  0  0  0  0
   -9.4578   -6.4905    9.1005 O   0  0  0  0  0  0  0  0  0  0  0  0
  -11.3154   -7.8210    6.8530 H   0  0  0  0  0  0  0  0  0  0  0  0
  -12.0686   -7.0797    8.7006 C   0  0  0  0  0  0  0  0  0  0  0  0
  -13.4384   -7.1598    8.2214 C   0  0  0  0  0  0  0  0  0  0  0  0
  -14.4674   -7.4423    8.8813 O   0  0  0  0  0  0  0  0  0  0  0  0
  -13.6700   -6.8868    6.8320 N   0  0  0  0  0  0  0  0  0  0  0  0
  -12.9020   -6.6416    6.1810 H   0  0  0  0  0  0  0  0  0  0  0  0
  -15.0177   -6.9345    6.2481 C   0  0  0  0  0  0  0  0  0  0  0  0
  -15.1488   -8.2041    5.5149 C   0  0  0  0  0  0  0  0  0  0  0  0
  -16.3780   -8.8343    5.2070 N   0  0  0  0  0  0  0  0  0  0  0  0
  -14.1115   -8.7979    5.1228 O   0  0  0  0  0  0  0  0  0  0  0  0
  -17.1437   -8.7842    5.9088 H   0  0  0  0  0  0  0  0  0  0  0  0
  -16.5431   -9.3395    4.3177 H   0  0  0  0  0  0  0  0  0  0  0  0
  -15.1720   -5.7742    5.3156 C   0  0  0  0  0  0  0  0  0  0  0  0
  -16.5335   -5.7098    4.7675 C   0  0  0  0  0  0  0  0  0  0  0  0
  -16.6829   -6.0898    3.4277 O   0  0  0  0  0  0  0  0  0  0  0  0
  -17.5390   -5.3383    5.4367 O   0  0  0  0  0  0  0  0  0  0  0  0
  -15.9226   -6.1287    2.7710 H   0  0  0  0  0  0  0  0  0  0  0  0
  -11.6992   -5.9055    9.5215 C   0  0  0  0  0  0  0  0  0  0  0  0
  -13.3411   -4.5135   10.8475 C   0  0  0  0  0  0  0  0  0  0  0  0
  -12.3913   -5.6776   10.8096 C   0  0  0  0  0  0  0  0  0  0  0  0
  -11.5506   -5.7147   12.0417 C   0  0  0  0  0  0  0  0  0  0  0  0
   -8.1295   -8.6306    6.6617 C   0  0  0  0  0  0  0  0  0  0  0  0
   -8.5987   -9.8260    7.3758 C   0  0  0  0  0  0  0  0  0  0  0  0
   -7.5075  -10.5651    8.1358 C   0  0  0  0  0  0  0  0  0  0  0  0
   -9.6131  -10.6904    6.7205 C   0  0  0  0  0  0  0  0  0  0  0  0
   -3.6874   -6.2624    6.9488 C   0  0  0  0  0  0  0  0  0  0  0  0
   -2.9644   -5.2985    6.1326 C   0  0  0  0  0  0  0  0  0  0  0  0
   -3.5868   -4.6544    5.0939 C   0  0  0  0  0  0  0  0  0  0  0  0
   -2.8954   -3.7328    4.3179 C   0  0  0  0  0  0  0  0  0  0  0  0
   -1.5721   -3.4263    4.5495 C   0  0  0  0  0  0  0  0  0  0  0  0
   -0.9502   -4.0823    5.6015 C   0  0  0  0  0  0  0  0  0  0  0  0
   -1.6415   -4.9918    6.3637 C   0  0  0  0  0  0  0  0  0  0  0  0
 61 62  1  0  0  0
 62 63  1  0  0  0
 62 60  1  0  0  0
 60 44  1  0  0  0
 44 40  1  0  0  0
 40 41  1  0  0  0
 41 42  2  0  0  0
 41 39  1  0  0  0
 39 64  1  0  0  0
 64 65  1  0  0  0
 65 66  1  0  0  0
 65 67  1  0  0  0
 39 35  1  0  0  0
 35 36  1  0  0  0
 36 37  2  0  0  0
 36  1  1  0  0  0
  1 68  1  0  0  0
 68 69  1  0  0  0
 69 70  2  0  0  0
 70 71  1  0  0  0
 71 72  2  0  0  0
 72 73  1  0  0  0
 73 74  2  0  0  0
  1  2  1  0  0  0
  2  3  1  0  0  0
  3  4  2  0  0  0
  3  6  1  0  0  0
  6 26  1  0  0  0
 26 27  1  0  0  0
 27 28  2  0  0  0
 28 29  1  0  0  0
 29 30  2  0  0  0
 30 31  1  0  0  0
 30 32  1  0  0  0
 32 33  2  0  0  0
  6  7  1  0  0  0
  7  8  1  0  0  0
  8  9  2  0  0  0
  8 11  1  0  0  0
 11 17  1  0  0  0
 17 18  1  0  0  0
 18 19  2  0  0  0
 19 20  1  0  0  0
 20 21  2  0  0  0
 21 22  1  0  0  0
 21 23  1  0  0  0
 23 24  2  0  0  0
 11 12  1  0  0  0
 12 13  1  0  0  0
 13 14  1  0  0  0
 13 15  2  0  0  0
 44 45  1  0  0  0
 45 46  2  0  0  0
 45 47  1  0  0  0
 47 49  1  0  0  0
 49 55  1  0  0  0
 55 56  1  0  0  0
 56 57  1  0  0  0
 56 58  2  0  0  0
 49 50  1  0  0  0
 50 51  1  0  0  0
 50 52  2  0  0  0
 74 69  1  0  0  0
 33 27  1  0  0  0
 24 18  1  0  0  0
 40 43  1  0  0  0
 35 38  1  0  0  0
  2  5  1  0  0  0
 31 34  1  0  0  0
  7 10  1  0  0  0
 22 25  1  0  0  0
 12 16  1  0  0  0
 47 48  1  0  0  0
 57 59  1  0  0  0
 51 53  1  0  0  0
 51 54  1  0  0  0
M  END
> <minimizedAffinity>
-7.00875

> <CNNscore>
0.1664911360

> <CNNaffinity>
7.2901792526

> <CNN_VS>
1.2137502432

> <CNNaffinity_variance>
0.5058946609

$$$$
[H]OC(=O)C([H])([H])[C@@]([H])(C(=O)N([H])[H])N([H])C(=O)[C@@]([H])(N([H])C(=O)[C@@]([H])(N([H])C(=O)[C@@]([H])(N([H])C(=O)[C@@]([H])(N([H])C(=O)[C@@]([H])(N([H])C(=O)C([H])([H])[H])C([H])([H])c1c([H])c([H])c(O[H])c([H])c1[H])C([H])([H])c1c([H])c([H])c(O[H])c([H])c1[H])C([H])([H])c1c([H])c([H])c([H])c([H])c1[H])C([H])([H])C([H])(C([H])([H])[H])C([H])([H])[H])C([H])([H])C([H])(C([H])([H])[H])C([H])([H])[H]


 74 76  0  0  0  0  0  0  0  0999 V2000
   -4.7722   -6.6583    6.4934 C   0  0  0  0  0  0  0  0  0  0  0  0
   -4.3884   -5.6544    5.4933 N   0  0  0  0  0  0  0  0  0  0  0  0
   -3.9563   -4.3770    5.8803 C   0  0  0  0  0  0  0  0  0  0  0  0
   -3.9065   -4.1354    7.1295 O   0  0  0  0  0  0  0  0  0  0  0  0
   -4.4352   -5.8861    4.4872 H   0  0  0  0  0  0  0  0  0  0  0  0
   -3.5639   -3.3064    4.9683 C   0  0  0  0  0  0  0  0  0  0  0  0
   -3.2672   -2.0684    5.7184 N   0  0  0  0  0  0  0  0  0  0  0  0
   -4.0674   -0.9051    5.6383 C   0  0  0  0  0  0  0  0  0  0  0  0
   -5.1084   -0.8516    4.9021 O   0  0  0  0  0  0  0  0  0  0  0  0
   -2.4284   -2.0460    6.3351 H   0  0  0  0  0  0  0  0  0  0  0  0
   -3.7360    0.3135    6.4015 C   0  0  0  0  0  0  0  0  0  0  0  0
   -4.7201    1.3554    6.0332 N   0  0  0  0  0  0  0  0  0  0  0  0
   -4.3113    2.5745    5.4779 C   0  0  0  0  0  0  0  0  0  0  0  0
   -5.3041    3.6106    5.1098 C   0  0  0  0  0  0  0  0  0  0  0  0
   -3.0731    2.7935    5.2876 O   0  0  0  0  0  0  0  0  0  0  0  0
   -5.7304    1.1664    6.1939 H   0  0  0  0  0  0  0  0  0  0  0  0
   -3.8656    0.1828    7.8864 C   0  0  0  0  0  0  0  0  0  0  0  0
   -2.9149    0.9498    8.6918 C   0  0  0  0  0  0  0  0  0  0  0  0
   -3.2756    1.4207    9.9294 C   0  0  0  0  0  0  0  0  0  0  0  0
   -2.3617    2.1299   10.7262 C   0  0  0  0  0  0  0  0  0  0  0  0
   -1.0834    2.3544   10.2556 C   0  0  0  0  0  0  0  0  0  0  0  0
   -0.2102    3.0588   11.0707 O   0  0  0  0  0  0  0  0  0  0  0  0
   -0.7106    1.8848    9.0132 C   0  0  0  0  0  0  0  0  0  0  0  0
   -1.6235    1.1909    8.2449 C   0  0  0  0  0  0  0  0  0  0  0  0
   -0.1299    4.0771   11.0319 H   0  0  0  0  0  0  0  0  0  0  0  0
   -2.3729   -3.6245    4.0789 C   0  0  0  0  0  0  0  0  0  0  0  0
   -2.6310   -3.4944    2.6503 C   0  0  0  0  0  0  0  0  0  0  0  0
   -1.8362   -4.0875    1.7007 C   0  0  0  0  0  0  0  0  0  0  0  0
   -2.0872   -3.9424    0.3359 C   0  0  0  0  0  0  0  0  0  0  0  0
   -3.1560   -3.1876   -0.1004 C   0  0  0  0  0  0  0  0  0  0  0  0
   -3.4246   -3.0301   -1.4736 O   0  0  0  0  0  0  0  0  0  0  0  0
   -3.9527   -2.5917    0.8528 C   0  0  0  0  0  0  0  0  0  0  0  0
   -3.6895   -2.7463    2.1936 C   0  0  0  0  0  0  0  0  0  0  0  0
   -3.0235   -2.2653   -2.0221 H   0  0  0  0  0  0  0  0  0  0  0  0
   -2.6851   -6.5852    7.8554 N   0  0  0  0  0  0  0  0  0  0  0  0
   -3.6304   -7.3206    7.1159 C   0  0  0  0  0  0  0  0  0  0  0  0
   -3.4634   -8.5483    6.9975 O   0  0  0  0  0  0  0  0  0  0  0  0
   -2.7978   -5.5638    7.9852 H   0  0  0  0  0  0  0  0  0  0  0  0
   -1.4896   -7.2740    8.4737 C   0  0  0  0  0  0  0  0  0  0  0  0
   -2.1008   -5.7301   10.4192 N   0  0  0  0  0  0  0  0  0  0  0  0
   -1.2657   -6.6527    9.7466 C   0  0  0  0  0  0  0  0  0  0  0  0
   -0.1779   -6.9166   10.4148 O   0  0  0  0  0  0  0  0  0  0  0  0
   -2.9941   -5.4472    9.9869 H   0  0  0  0  0  0  0  0  0  0  0  0
   -1.7652   -5.1391   11.6973 C   0  0  0  0  0  0  0  0  0  0  0  0
   -2.6183   -5.4941   12.8192 C   0  0  0  0  0  0  0  0  0  0  0  0
   -2.5801   -6.5391   13.5123 O   0  0  0  0  0  0  0  0  0  0  0  0
   -3.6328   -4.5543   13.2018 N   0  0  0  0  0  0  0  0  0  0  0  0
   -3.7668   -3.6534   12.7076 H   0  0  0  0  0  0  0  0  0  0  0  0
   -4.5434   -4.8133   14.3257 C   0  0  0  0  0  0  0  0  0  0  0  0
   -5.8926   -5.0238   13.7760 C   0  0  0  0  0  0  0  0  0  0  0  0
   -6.1735   -5.7020   12.5660 N   0  0  0  0  0  0  0  0  0  0  0  0
   -6.8883   -4.5780   14.4021 O   0  0  0  0  0  0  0  0  0  0  0  0
   -5.5147   -5.5792   11.7710 H   0  0  0  0  0  0  0  0  0  0  0  0
   -7.0031   -6.3103   12.4425 H   0  0  0  0  0  0  0  0  0  0  0  0
   -4.5284   -3.6228   15.2324 C   0  0  0  0  0  0  0  0  0  0  0  0
   -3.4019   -2.7322   14.9223 C   0  0  0  0  0  0  0  0  0  0  0  0
   -3.6742   -1.6628   14.0598 O   0  0  0  0  0  0  0  0  0  0  0  0
   -2.2382   -2.8895   15.3890 O   0  0  0  0  0  0  0  0  0  0  0  0
   -4.4710   -1.6289   13.4477 H   0  0  0  0  0  0  0  0  0  0  0  0
   -1.4143   -3.7115   11.5302 C   0  0  0  0  0  0  0  0  0  0  0  0
   -0.8520   -2.1649    9.6111 C   0  0  0  0  0  0  0  0  0  0  0  0
   -1.8851   -2.9873   10.3285 C   0  0  0  0  0  0  0  0  0  0  0  0
   -3.1665   -2.2337   10.4555 C   0  0  0  0  0  0  0  0  0  0  0  0
   -0.4462   -7.3066    7.4238 C   0  0  0  0  0  0  0  0  0  0  0  0
   -0.3444   -6.2562    6.4013 C   0  0  0  0  0  0  0  0  0  0  0  0
   -0.4639   -6.7650    4.9725 C   0  0  0  0  0  0  0  0  0  0  0  0
    0.6381   -5.1614    6.6054 C   0  0  0  0  0  0  0  0  0  0  0  0
   -5.8022   -7.5978    5.8936 C   0  0  0  0  0  0  0  0  0  0  0  0
   -7.0626   -7.6833    6.6163 C   0  0  0  0  0  0  0  0  0  0  0  0
   -7.5288   -8.8906    7.0701 C   0  0  0  0  0  0  0  0  0  0  0  0
   -8.7308   -8.9693    7.7619 C   0  0  0  0  0  0  0  0  0  0  0  0
   -9.5011   -7.8565    8.0212 C   0  0  0  0  0  0  0  0  0  0  0  0
   -9.0224   -6.6397    7.5585 C   0  0  0  0  0  0  0  0  0  0  0  0
   -7.8329   -6.5711    6.8756 C   0  0  0  0  0  0  0  0  0  0  0  0
 61 62  1  0  0  0
 62 63  1  0  0  0
 62 60  1  0  0  0
 60 44  1  0  0  0
 44 40  1  0  0  0
 40 41  1  0  0  0
 41 42  2  0  0  0
 41 39  1  0  0  0
 39 64  1  0  0  0
 64 65  1  0  0  0
 65 66  1  0  0  0
 65 67  1  0  0  0
 39 35  1  0  0  0
 35 36  1  0  0  0
 36 37  2  0  0  0
 36  1  1  0  0  0
  1 68  1  0  0  0
 68 69  1  0  0  0
 69 70  2  0  0  0
 70 71  1  0  0  0
 71 72  2  0  0  0
 72 73  1  0  0  0
 73 74  2  0  0  0
  1  2  1  0  0  0
  2  3  1  0  0  0
  3  4  2  0  0  0
  3  6  1  0  0  0
  6 26  1  0  0  0
 26 27  1  0  0  0
 27 28  2  0  0  0
 28 29  1  0  0  0
 29 30  2  0  0  0
 30 31  1  0  0  0
 30 32  1  0  0  0
 32 33  2  0  0  0
  6  7  1  0  0  0
  7  8  1  0  0  0
  8  9  2  0  0  0
  8 11  1  0  0  0
 11 17  1  0  0  0
 17 18  1  0  0  0
 18 19  2  0  0  0
 19 20  1  0  0  0
 20 21  2  0  0  0
 21 22  1  0  0  0
 21 23  1  0  0  0
 23 24  2  0  0  0
 11 12  1  0  0  0
 12 13  1  0  0  0
 13 14  1  0  0  0
 13 15  2  0  0  0
 44 45  1  0  0  0
 45 46  2  0  0  0
 45 47  1  0  0  0
 47 49  1  0  0  0
 49 55  1  0  0  0
 55 56  1  0  0  0
 56 57  1  0  0  0
 56 58  2  0  0  0
 49 50  1  0  0  0
 50 51  1  0  0  0
 50 52  2  0  0  0
 74 69  1  0  0  0
 33 27  1  0  0  0
 24 18  1  0  0  0
 40 43  1  0  0  0
 35 38  1  0  0  0
  2  5  1  0  0  0
 31 34  1  0  0  0
  7 10  1  0  0  0
 22 25  1  0  0  0
 12 16  1  0  0  0
 47 48  1  0  0  0
 57 59  1  0  0  0
 51 53  1  0  0  0
 51 54  1  0  0  0
M  END
> <minimizedAffinity>
-5.91415

> <CNNscore>
0.1461916864

> <CNNaffinity>
6.7788209915

> <CNN_VS>
0.9910072684

> <CNNaffinity_variance>
0.6832134724

$$$$
[H]OC(=O)C([H])([H])[C@@]([H])(C(=O)N([H])[H])N([H])C(=O)[C@@]([H])(N([H])C(=O)[C@@]([H])(N([H])C(=O)[C@@]([H])(N([H])C(=O)[C@@]([H])(N([H])C(=O)[C@@]([H])(N([H])C(=O)C([H])([H])[H])C([H])([H])c1c([H])c([H])c(O[H])c([H])c1[H])C([H])([H])c1c([H])c([H])c(O[H])c([H])c1[H])C([H])([H])c1c([H])c([H])c([H])c([H])c1[H])C([H])([H])C([H])(C([H])([H])[H])C([H])([H])[H])C([H])([H])C([H])(C([H])([H])[H])C([H])([H])[H]


 74 76  0  0  0  0  0  0  0  0999 V2000
   -5.2160   -6.3694    6.4060 C   0  0  0  0  0  0  0  0  0  0  0  0
   -4.6336   -5.3522    5.5221 N   0  0  0  0  0  0  0  0  0  0  0  0
   -4.0050   -4.2129    6.0468 C   0  0  0  0  0  0  0  0  0  0  0  0
   -3.9580   -4.1089    7.3150 O   0  0  0  0  0  0  0  0  0  0  0  0
   -4.6843   -5.4712    4.4968 H   0  0  0  0  0  0  0  0  0  0  0  0
   -3.4058   -3.1406    5.2576 C   0  0  0  0  0  0  0  0  0  0  0  0
   -2.8985   -2.0687    6.1392 N   0  0  0  0  0  0  0  0  0  0  0  0
   -3.5446   -0.8196    6.2885 C   0  0  0  0  0  0  0  0  0  0  0  0
   -4.6194   -0.5367    5.6613 O   0  0  0  0  0  0  0  0  0  0  0  0
   -2.0223   -2.2358    6.6765 H   0  0  0  0  0  0  0  0  0  0  0  0
   -3.0045    0.2272    7.1772 C   0  0  0  0  0  0  0  0  0  0  0  0
   -1.7846    0.7714    6.5405 N   0  0  0  0  0  0  0  0  0  0  0  0
   -0.5134    0.2945    6.8843 C   0  0  0  0  0  0  0  0  0  0  0  0
    0.7021    0.8435    6.2395 C   0  0  0  0  0  0  0  0  0  0  0  0
   -0.4023   -0.6208    7.7603 O   0  0  0  0  0  0  0  0  0  0  0  0
   -1.8867    1.5205    5.8258 H   0  0  0  0  0  0  0  0  0  0  0  0
   -3.8931    1.4166    7.3638 C   0  0  0  0  0  0  0  0  0  0  0  0
   -3.6031    2.2700    8.5163 C   0  0  0  0  0  0  0  0  0  0  0  0
   -3.3215    1.7129    9.7386 C   0  0  0  0  0  0  0  0  0  0  0  0
   -3.0091    2.5202   10.8448 C   0  0  0  0  0  0  0  0  0  0  0  0
   -2.9851    3.8927   10.6976 C   0  0  0  0  0  0  0  0  0  0  0  0
   -2.6732    4.6558   11.8126 O   0  0  0  0  0  0  0  0  0  0  0  0
   -3.2661    4.4626    9.4731 C   0  0  0  0  0  0  0  0  0  0  0  0
   -3.5717    3.6523    8.3983 C   0  0  0  0  0  0  0  0  0  0  0  0
   -3.3889    4.9924   12.4603 H   0  0  0  0  0  0  0  0  0  0  0  0
   -2.2789   -3.5749    4.3346 C   0  0  0  0  0  0  0  0  0  0  0  0
   -2.5899   -3.4839    2.9135 C   0  0  0  0  0  0  0  0  0  0  0  0
   -1.8884   -4.1788    1.9595 C   0  0  0  0  0  0  0  0  0  0  0  0
   -2.1882   -4.0708    0.6011 C   0  0  0  0  0  0  0  0  0  0  0  0
   -3.2121   -3.2503    0.1759 C   0  0  0  0  0  0  0  0  0  0  0  0
   -3.5288   -3.1288   -1.1906 O   0  0  0  0  0  0  0  0  0  0  0  0
   -3.9151   -2.5521    1.1334 C   0  0  0  0  0  0  0  0  0  0  0  0
   -3.6050   -2.6717    2.4678 C   0  0  0  0  0  0  0  0  0  0  0  0
   -3.0932   -2.4227   -1.7893 H   0  0  0  0  0  0  0  0  0  0  0  0
   -3.0219   -6.7487    7.5279 N   0  0  0  0  0  0  0  0  0  0  0  0
   -4.2220   -7.2591    6.9979 C   0  0  0  0  0  0  0  0  0  0  0  0
   -4.4104   -8.4887    7.0375 O   0  0  0  0  0  0  0  0  0  0  0  0
   -2.8360   -5.7299    7.5232 H   0  0  0  0  0  0  0  0  0  0  0  0
   -1.9844   -7.6793    8.1141 C   0  0  0  0  0  0  0  0  0  0  0  0
   -1.9327   -5.8555    9.9065 N   0  0  0  0  0  0  0  0  0  0  0  0
   -1.4578   -7.0314    9.2798 C   0  0  0  0  0  0  0  0  0  0  0  0
   -0.4109   -7.5254    9.8793 O   0  0  0  0  0  0  0  0  0  0  0  0
   -2.7613   -5.3759    9.5215 H   0  0  0  0  0  0  0  0  0  0  0  0
   -1.3066   -5.2672   11.0715 C   0  0  0  0  0  0  0  0  0  0  0  0
   -2.0080   -5.4276   12.3344 C   0  0  0  0  0  0  0  0  0  0  0  0
   -1.5996   -6.0029   13.3718 O   0  0  0  0  0  0  0  0  0  0  0  0
   -3.3261   -4.8697   12.4343 N   0  0  0  0  0  0  0  0  0  0  0  0
   -3.7763   -4.3698   11.6462 H   0  0  0  0  0  0  0  0  0  0  0  0
   -4.1179   -4.9710   13.6681 C   0  0  0  0  0  0  0  0  0  0  0  0
   -5.5284   -5.1508   13.2875 C   0  0  0  0  0  0  0  0  0  0  0  0
   -5.9695   -5.8069   12.1137 N   0  0  0  0  0  0  0  0  0  0  0  0
   -6.4305   -4.6971   14.0376 O   0  0  0  0  0  0  0  0  0  0  0  0
   -5.4119   -5.6840   11.2447 H   0  0  0  0  0  0  0  0  0  0  0  0
   -6.8191   -6.3992   12.0867 H   0  0  0  0  0  0  0  0  0  0  0  0
   -3.9443   -3.7058   14.4484 C   0  0  0  0  0  0  0  0  0  0  0  0
   -3.4031   -3.9765   15.7871 C   0  0  0  0  0  0  0  0  0  0  0  0
   -2.6721   -5.1622   15.9338 O   0  0  0  0  0  0  0  0  0  0  0  0
   -3.5662   -3.2062   16.7753 O   0  0  0  0  0  0  0  0  0  0  0  0
   -2.7304   -5.9361   15.2947 H   0  0  0  0  0  0  0  0  0  0  0  0
   -0.7762   -3.9239   10.7501 C   0  0  0  0  0  0  0  0  0  0  0  0
   -2.0940   -1.7672   10.6911 C   0  0  0  0  0  0  0  0  0  0  0  0
   -1.2857   -2.7490   11.4919 C   0  0  0  0  0  0  0  0  0  0  0  0
   -0.3167   -2.0392   12.3769 C   0  0  0  0  0  0  0  0  0  0  0  0
   -1.1168   -8.0891    6.9865 C   0  0  0  0  0  0  0  0  0  0  0  0
   -1.0875   -9.4742    6.4964 C   0  0  0  0  0  0  0  0  0  0  0  0
   -1.6572   -9.6510    5.0968 C   0  0  0  0  0  0  0  0  0  0  0  0
   -1.3949  -10.5701    7.4503 C   0  0  0  0  0  0  0  0  0  0  0  0
   -6.3494   -7.0743    5.6836 C   0  0  0  0  0  0  0  0  0  0  0  0
   -7.5050   -7.3999    6.5062 C   0  0  0  0  0  0  0  0  0  0  0  0
   -8.3225   -6.4096    6.9881 C   0  0  0  0  0  0  0  0  0  0  0  0
   -9.4264   -6.7230    7.7709 C   0  0  0  0  0  0  0  0  0  0  0  0
   -9.7484   -8.0227    8.0966 C   0  0  0  0  0  0  0  0  0  0  0  0
   -8.9164   -9.0178    7.6054 C   0  0  0  0  0  0  0  0  0  0  0  0
   -7.8272   -8.6989    6.8321 C   0  0  0  0  0  0  0  0  0  0  0  0
 61 62  1  0  0  0
 62 63  1  0  0  0
 62 60  1  0  0  0
 60 44  1  0  0  0
 44 40  1  0  0  0
 40 41  1  0  0  0
 41 42  2  0  0  0
 41 39  1  0  0  0
 39 64  1  0  0  0
 64 65  1  0  0  0
 65 66  1  0  0  0
 65 67  1  0  0  0
 39 35  1  0  0  0
 35 36  1  0  0  0
 36 37  2  0  0  0
 36  1  1  0  0  0
  1 68  1  0  0  0
 68 69  1  0  0  0
 69 70  2  0  0  0
 70 71  1  0  0  0
 71 72  2  0  0  0
 72 73  1  0  0  0
 73 74  2  0  0  0
  1  2  1  0  0  0
  2  3  1  0  0  0
  3  4  2  0  0  0
  3  6  1  0  0  0
  6 26  1  0  0  0
 26 27  1  0  0  0
 27 28  2  0  0  0
 28 29  1  0  0  0
 29 30  2  0  0  0
 30 31  1  0  0  0
 30 32  1  0  0  0
 32 33  2  0  0  0
  6  7  1  0  0  0
  7  8  1  0  0  0
  8  9  2  0  0  0
  8 11  1  0  0  0
 11 17  1  0  0  0
 17 18  1  0  0  0
 18 19  2  0  0  0
 19 20  1  0  0  0
 20 21  2  0  0  0
 21 22  1  0  0  0
 21 23  1  0  0  0
 23 24  2  0  0  0
 11 12  1  0  0  0
 12 13  1  0  0  0
 13 14  1  0  0  0
 13 15  2  0  0  0
 44 45  1  0  0  0
 45 46  2  0  0  0
 45 47  1  0  0  0
 47 49  1  0  0  0
 49 55  1  0  0  0
 55 56  1  0  0  0
 56 57  1  0  0  0
 56 58  2  0  0  0
 49 50  1  0  0  0
 50 51  1  0  0  0
 50 52  2  0  0  0
 74 69  1  0  0  0
 33 27  1  0  0  0
 24 18  1  0  0  0
 40 43  1  0  0  0
 35 38  1  0  0  0
  2  5  1  0  0  0
 31 34  1  0  0  0
  7 10  1  0  0  0
 22 25  1  0  0  0
 12 16  1  0  0  0
 47 48  1  0  0  0
 57 59  1  0  0  0
 51 53  1  0  0  0
 51 54  1  0  0  0
M  END
> <minimizedAffinity>
-5.89944

> <CNNscore>
0.1276443005

> <CNNaffinity>
6.7827444077

> <CNN_VS>
0.8657786846

> <CNNaffinity_variance>
0.5528243780

$$$$
[H]OC(=O)C([H])([H])[C@@]([H])(C(=O)N([H])[H])N([H])C(=O)[C@@]([H])(N([H])C(=O)[C@@]([H])(N([H])C(=O)[C@@]([H])(N([H])C(=O)[C@@]([H])(N([H])C(=O)[C@@]([H])(N([H])C(=O)C([H])([H])[H])C([H])([H])c1c([H])c([H])c(O[H])c([H])c1[H])C([H])([H])c1c([H])c([H])c(O[H])c([H])c1[H])C([H])([H])c1c([H])c([H])c([H])c([H])c1[H])C([H])([H])C([H])(C([H])([H])[H])C([H])([H])[H])C([H])([H])C([H])(C([H])([H])[H])C([H])([H])[H]


 74 76  0  0  0  0  0  0  0  0999 V2000
   -3.5521   -2.4258    5.1102 C   0  0  0  0  0  0  0  0  0  0  0  0
   -3.5848   -2.2700    6.5696 N   0  0  0  0  0  0  0  0  0  0  0  0
   -2.5043   -1.7007    7.2601 C   0  0  0  0  0  0  0  0  0  0  0  0
   -1.5066   -1.3224    6.5652 O   0  0  0  0  0  0  0  0  0  0  0  0
   -4.4133   -2.5826    7.1022 H   0  0  0  0  0  0  0  0  0  0  0  0
   -2.4322   -1.5113    8.7060 C   0  0  0  0  0  0  0  0  0  0  0  0
   -1.8302   -2.6945    9.3550 N   0  0  0  0  0  0  0  0  0  0  0  0
   -2.5647   -3.8613    9.6697 C   0  0  0  0  0  0  0  0  0  0  0  0
   -3.8099   -3.9651    9.4105 O   0  0  0  0  0  0  0  0  0  0  0  0
   -0.8174   -2.6717    9.5960 H   0  0  0  0  0  0  0  0  0  0  0  0
   -1.9275   -5.0220   10.3210 C   0  0  0  0  0  0  0  0  0  0  0  0
   -0.6690   -5.3081    9.5971 N   0  0  0  0  0  0  0  0  0  0  0  0
   -0.4922   -6.5085    8.8975 C   0  0  0  0  0  0  0  0  0  0  0  0
    0.7702   -6.7850    8.1735 C   0  0  0  0  0  0  0  0  0  0  0  0
   -1.4273   -7.3704    8.8840 O   0  0  0  0  0  0  0  0  0  0  0  0
    0.0898   -4.5966    9.6154 H   0  0  0  0  0  0  0  0  0  0  0  0
   -1.5026   -4.7959   11.7378 C   0  0  0  0  0  0  0  0  0  0  0  0
   -2.3652   -5.3649   12.7736 C   0  0  0  0  0  0  0  0  0  0  0  0
   -1.9116   -6.3865   13.5700 C   0  0  0  0  0  0  0  0  0  0  0  0
   -2.7178   -6.9191   14.5895 C   0  0  0  0  0  0  0  0  0  0  0  0
   -3.9833   -6.4056   14.7915 C   0  0  0  0  0  0  0  0  0  0  0  0
   -4.7492   -6.9578   15.8070 O   0  0  0  0  0  0  0  0  0  0  0  0
   -4.4485   -5.3783   13.9968 C   0  0  0  0  0  0  0  0  0  0  0  0
   -3.6414   -4.8691   12.9996 C   0  0  0  0  0  0  0  0  0  0  0  0
   -5.3730   -7.7521   15.6489 H   0  0  0  0  0  0  0  0  0  0  0  0
   -1.6662   -0.2774    9.1548 C   0  0  0  0  0  0  0  0  0  0  0  0
   -2.5041    0.8191    9.6239 C   0  0  0  0  0  0  0  0  0  0  0  0
   -2.9242    0.9203   10.9272 C   0  0  0  0  0  0  0  0  0  0  0  0
   -3.7382    1.9680   11.3589 C   0  0  0  0  0  0  0  0  0  0  0  0
   -4.1479    2.9432   10.4737 C   0  0  0  0  0  0  0  0  0  0  0  0
   -4.9693    4.0078   10.8914 O   0  0  0  0  0  0  0  0  0  0  0  0
   -3.7272    2.8408    9.1657 C   0  0  0  0  0  0  0  0  0  0  0  0
   -2.9249    1.8006    8.7589 C   0  0  0  0  0  0  0  0  0  0  0  0
   -5.9904    3.9506   10.8630 H   0  0  0  0  0  0  0  0  0  0  0  0
   -3.6701   -0.8311    3.1972 N   0  0  0  0  0  0  0  0  0  0  0  0
   -4.2075   -1.3340    4.3971 C   0  0  0  0  0  0  0  0  0  0  0  0
   -5.2500   -0.8184    4.8403 O   0  0  0  0  0  0  0  0  0  0  0  0
   -2.8106   -1.2432    2.7922 H   0  0  0  0  0  0  0  0  0  0  0  0
   -4.3392    0.3189    2.4788 C   0  0  0  0  0  0  0  0  0  0  0  0
   -5.0748   -1.1538    0.5213 N   0  0  0  0  0  0  0  0  0  0  0  0
   -4.4108   -0.0434    1.0933 C   0  0  0  0  0  0  0  0  0  0  0  0
   -3.8063    0.6881    0.1995 O   0  0  0  0  0  0  0  0  0  0  0  0
   -5.5923   -1.8043    1.1327 H   0  0  0  0  0  0  0  0  0  0  0  0
   -5.0617   -1.4438   -0.8969 C   0  0  0  0  0  0  0  0  0  0  0  0
   -6.2904   -1.1735   -1.6248 C   0  0  0  0  0  0  0  0  0  0  0  0
   -6.6681   -1.6802   -2.7085 O   0  0  0  0  0  0  0  0  0  0  0  0
   -7.1983   -0.2180   -1.0578 N   0  0  0  0  0  0  0  0  0  0  0  0
   -7.0010    0.2706   -0.1656 H   0  0  0  0  0  0  0  0  0  0  0  0
   -8.4703    0.1226   -1.7102 C   0  0  0  0  0  0  0  0  0  0  0  0
   -8.3601    1.4960   -2.2279 C   0  0  0  0  0  0  0  0  0  0  0  0
   -7.3174    2.3975   -1.9071 N   0  0  0  0  0  0  0  0  0  0  0  0
   -9.2425    1.9303   -3.0121 O   0  0  0  0  0  0  0  0  0  0  0  0
   -6.9389    2.3844   -0.9387 H   0  0  0  0  0  0  0  0  0  0  0  0
   -6.9203    3.0645   -2.5933 H   0  0  0  0  0  0  0  0  0  0  0  0
   -9.5640    0.0339   -0.6924 C   0  0  0  0  0  0  0  0  0  0  0  0
   -9.4283    1.0832    0.3268 C   0  0  0  0  0  0  0  0  0  0  0  0
  -10.5399    1.9143    0.5150 O   0  0  0  0  0  0  0  0  0  0  0  0
   -8.3835    1.2566    1.0160 O   0  0  0  0  0  0  0  0  0  0  0  0
  -11.2788    2.0185   -0.1588 H   0  0  0  0  0  0  0  0  0  0  0  0
   -4.3845   -2.7339   -1.1542 C   0  0  0  0  0  0  0  0  0  0  0  0
   -2.1362   -3.1223   -2.2429 C   0  0  0  0  0  0  0  0  0  0  0  0
   -2.9161   -2.8241   -0.9935 C   0  0  0  0  0  0  0  0  0  0  0  0
   -2.4128   -3.6380    0.1513 C   0  0  0  0  0  0  0  0  0  0  0  0
   -3.6457    1.5457    2.9329 C   0  0  0  0  0  0  0  0  0  0  0  0
   -4.3817    2.6903    3.4873 C   0  0  0  0  0  0  0  0  0  0  0  0
   -4.5767    2.6333    4.9951 C   0  0  0  0  0  0  0  0  0  0  0  0
   -5.5301    3.2341    2.7186 C   0  0  0  0  0  0  0  0  0  0  0  0
   -4.0461   -3.8126    4.7411 C   0  0  0  0  0  0  0  0  0  0  0  0
   -3.0138   -4.8327    4.6320 C   0  0  0  0  0  0  0  0  0  0  0  0
   -2.1153   -4.8113    3.5960 C   0  0  0  0  0  0  0  0  0  0  0  0
   -1.1292   -5.7845    3.4955 C   0  0  0  0  0  0  0  0  0  0  0  0
   -1.0081   -6.8026    4.4161 C   0  0  0  0  0  0  0  0  0  0  0  0
   -1.9209   -6.8169    5.4603 C   0  0  0  0  0  0  0  0  0  0  0  0
   -2.8924   -5.8506    5.5521 C   0  0  0  0  0  0  0  0  0  0  0  0
 61 62  1  0  0  0
 62 63  1  0  0  0
 62 60  1  0  0  0
 60 44  1  0  0  0
 44 40  1  0  0  0
 40 41  1  0  0  0
 41 42  2  0  0  0
 41 39  1  0  0  0
 39 64  1  0  0  0
 64 65  1  0  0  0
 65 66  1  0  0  0
 65 67  1  0  0  0
 39 35  1  0  0  0
 35 36  1  0  0  0
 36 37  2  0  0  0
 36  1  1  0  0  0
  1 68  1  0  0  0
 68 69  1  0  0  0
 69 70  2  0  0  0
 70 71  1  0  0  0
 71 72  2  0  0  0
 72 73  1  0  0  0
 73 74  2  0  0  0
  1  2  1  0  0  0
  2  3  1  0  0  0
  3  4  2  0  0  0
  3  6  1  0  0  0
  6 26  1  0  0  0
 26 27  1  0  0  0
 27 28  2  0  0  0
 28 29  1  0  0  0
 29 30  2  0  0  0
 30 31  1  0  0  0
 30 32  1  0  0  0
 32 33  2  0  0  0
  6  7  1  0  0  0
  7  8  1  0  0  0
  8  9  2  0  0  0
  8 11  1  0  0  0
 11 17  1  0  0  0
 17 18  1  0  0  0
 18 19  2  0  0  0
 19 20  1  0  0  0
 20 21  2  0  0  0
 21 22  1  0  0  0
 21 23  1  0  0  0
 23 24  2  0  0  0
 11 12  1  0  0  0
 12 13  1  0  0  0
 13 14  1  0  0  0
 13 15  2  0  0  0
 44 45  1  0  0  0
 45 46  2  0  0  0
 45 47  1  0  0  0
 47 49  1  0  0  0
 49 55  1  0  0  0
 55 56  1  0  0  0
 56 57  1  0  0  0
 56 58  2  0  0  0
 49 50  1  0  0  0
 50 51  1  0  0  0
 50 52  2  0  0  0
 74 69  1  0  0  0
 33 27  1  0  0  0
 24 18  1  0  0  0
 40 43  1  0  0  0
 35 38  1  0  0  0
  2  5  1  0  0  0
 31 34  1  0  0  0
  7 10  1  0  0  0
 22 25  1  0  0  0
 12 16  1  0  0  0
 47 48  1  0  0  0
 57 59  1  0  0  0
 51 53  1  0  0  0
 51 54  1  0  0  0
M  END
> <minimizedAffinity>
-5.90110

> <CNNscore>
0.1210237592

> <CNNaffinity>
6.3260321617

> <CNN_VS>
0.7656002045

> <CNNaffinity_variance>
0.4180754125

$$$$
[H]OC(=O)C([H])([H])[C@@]([H])(C(=O)N([H])[H])N([H])C(=O)[C@@]([H])(N([H])C(=O)[C@@]([H])(N([H])C(=O)[C@@]([H])(N([H])C(=O)[C@@]([H])(N([H])C(=O)[C@@]([H])(N([H])C(=O)C([H])([H])[H])C([H])([H])c1c([H])c([H])c(O[H])c([H])c1[H])C([H])([H])c1c([H])c([H])c(O[H])c([H])c1[H])C([H])([H])c1c([H])c([H])c([H])c([H])c1[H])C([H])([H])C([H])(C([H])([H])[H])C([H])([H])[H])C([H])([H])C([H])(C([H])([H])[H])C([H])([H])[H]


 74 76  0  0  0  0  0  0  0  0999 V2000
   -3.6566   -2.0723    3.7988 C   0  0  0  0  0  0  0  0  0  0  0  0
   -3.9954   -3.0314    4.8574 N   0  0  0  0  0  0  0  0  0  0  0  0
   -3.1437   -3.2272    5.9550 C   0  0  0  0  0  0  0  0  0  0  0  0
   -2.0765   -2.5338    5.9918 O   0  0  0  0  0  0  0  0  0  0  0  0
   -4.8731   -3.5737    4.7990 H   0  0  0  0  0  0  0  0  0  0  0  0
   -3.3816   -4.1611    7.0519 C   0  0  0  0  0  0  0  0  0  0  0  0
   -4.0377   -5.3885    6.5553 N   0  0  0  0  0  0  0  0  0  0  0  0
   -4.9974   -6.1091    7.3034 C   0  0  0  0  0  0  0  0  0  0  0  0
   -5.3599   -5.7395    8.4699 O   0  0  0  0  0  0  0  0  0  0  0  0
   -3.7825   -5.7449    5.6108 H   0  0  0  0  0  0  0  0  0  0  0  0
   -5.6285   -7.3331    6.7735 C   0  0  0  0  0  0  0  0  0  0  0  0
   -4.5606   -8.1678    6.1795 N   0  0  0  0  0  0  0  0  0  0  0  0
   -3.3534   -8.3886    6.8545 C   0  0  0  0  0  0  0  0  0  0  0  0
   -2.2912   -9.2278    6.2531 C   0  0  0  0  0  0  0  0  0  0  0  0
   -3.1682   -7.8621    7.9973 O   0  0  0  0  0  0  0  0  0  0  0  0
   -4.7222   -8.5929    5.2439 H   0  0  0  0  0  0  0  0  0  0  0  0
   -6.2629   -8.2128    7.8042 C   0  0  0  0  0  0  0  0  0  0  0  0
   -7.7171   -8.3563    7.7300 C   0  0  0  0  0  0  0  0  0  0  0  0
   -8.2784   -9.5567    7.3725 C   0  0  0  0  0  0  0  0  0  0  0  0
   -9.6732   -9.7167    7.3295 C   0  0  0  0  0  0  0  0  0  0  0  0
  -10.4885   -8.6504    7.6525 C   0  0  0  0  0  0  0  0  0  0  0  0
  -11.8600   -8.8471    7.5977 O   0  0  0  0  0  0  0  0  0  0  0  0
   -9.9343   -7.4398    8.0137 C   0  0  0  0  0  0  0  0  0  0  0  0
   -8.5614   -7.3023    8.0491 C   0  0  0  0  0  0  0  0  0  0  0  0
  -12.4017   -8.6761    6.7479 H   0  0  0  0  0  0  0  0  0  0  0  0
   -2.1414   -4.5636    7.8332 C   0  0  0  0  0  0  0  0  0  0  0  0
   -2.2967   -4.5198    9.2819 C   0  0  0  0  0  0  0  0  0  0  0  0
   -1.7317   -5.4560   10.1123 C   0  0  0  0  0  0  0  0  0  0  0  0
   -1.9009   -5.4096   11.4965 C   0  0  0  0  0  0  0  0  0  0  0  0
   -2.6517   -4.4071   12.0742 C   0  0  0  0  0  0  0  0  0  0  0  0
   -2.8332   -4.3444   13.4691 O   0  0  0  0  0  0  0  0  0  0  0  0
   -3.2195   -3.4685   11.2404 C   0  0  0  0  0  0  0  0  0  0  0  0
   -3.0414   -3.5307    9.8783 C   0  0  0  0  0  0  0  0  0  0  0  0
   -3.6133   -4.8119   13.9377 H   0  0  0  0  0  0  0  0  0  0  0  0
   -3.8082    0.3651    3.2962 N   0  0  0  0  0  0  0  0  0  0  0  0
   -4.2927   -0.7704    3.9725 C   0  0  0  0  0  0  0  0  0  0  0  0
   -5.2710   -0.6350    4.7300 O   0  0  0  0  0  0  0  0  0  0  0  0
   -3.0035    0.2882    2.6486 H   0  0  0  0  0  0  0  0  0  0  0  0
   -4.4549    1.7160    3.5028 C   0  0  0  0  0  0  0  0  0  0  0  0
   -6.0125    1.2150    1.5370 N   0  0  0  0  0  0  0  0  0  0  0  0
   -5.1388    2.0389    2.2846 C   0  0  0  0  0  0  0  0  0  0  0  0
   -4.9739    3.2114    1.7392 O   0  0  0  0  0  0  0  0  0  0  0  0
   -6.2222    0.2624    1.8737 H   0  0  0  0  0  0  0  0  0  0  0  0
   -6.6332    1.6328    0.2978 C   0  0  0  0  0  0  0  0  0  0  0  0
   -8.0777    1.4933    0.2175 C   0  0  0  0  0  0  0  0  0  0  0  0
   -8.8644    1.1195    1.1205 O   0  0  0  0  0  0  0  0  0  0  0  0
   -8.7049    1.8166   -1.0319 N   0  0  0  0  0  0  0  0  0  0  0  0
   -8.1640    2.1373   -1.8555 H   0  0  0  0  0  0  0  0  0  0  0  0
  -10.1592    1.7157   -1.2168 C   0  0  0  0  0  0  0  0  0  0  0  0
  -10.4096    0.8200   -2.3576 C   0  0  0  0  0  0  0  0  0  0  0  0
   -9.9441   -0.5131   -2.4535 N   0  0  0  0  0  0  0  0  0  0  0  0
  -11.0800    1.2415   -3.3349 O   0  0  0  0  0  0  0  0  0  0  0  0
   -9.0033   -0.7325   -2.0689 H   0  0  0  0  0  0  0  0  0  0  0  0
  -10.4992   -1.2720   -2.8885 H   0  0  0  0  0  0  0  0  0  0  0  0
  -10.6976    3.0835   -1.4982 C   0  0  0  0  0  0  0  0  0  0  0  0
   -9.6115    4.0457   -1.7276 C   0  0  0  0  0  0  0  0  0  0  0  0
   -9.1344    4.1430   -3.0409 O   0  0  0  0  0  0  0  0  0  0  0  0
   -9.1105    4.7638   -0.8166 O   0  0  0  0  0  0  0  0  0  0  0  0
   -9.2800    3.4363   -3.7410 H   0  0  0  0  0  0  0  0  0  0  0  0
   -5.8365    1.1712   -0.8604 C   0  0  0  0  0  0  0  0  0  0  0  0
   -3.6226   -0.0056   -1.1842 C   0  0  0  0  0  0  0  0  0  0  0  0
   -5.0590   -0.0830   -0.7491 C   0  0  0  0  0  0  0  0  0  0  0  0
   -5.7036   -1.3235   -1.2705 C   0  0  0  0  0  0  0  0  0  0  0  0
   -3.4032    2.5925    4.0667 C   0  0  0  0  0  0  0  0  0  0  0  0
   -3.1772    2.6967    5.5149 C   0  0  0  0  0  0  0  0  0  0  0  0
   -4.3760    2.2969    6.3620 C   0  0  0  0  0  0  0  0  0  0  0  0
   -2.3922    3.8479    6.0286 C   0  0  0  0  0  0  0  0  0  0  0  0
   -3.8871   -2.7163    2.4439 C   0  0  0  0  0  0  0  0  0  0  0  0
   -2.7357   -2.7230    1.5538 C   0  0  0  0  0  0  0  0  0  0  0  0
   -2.7648   -3.4269    0.3770 C   0  0  0  0  0  0  0  0  0  0  0  0
   -1.6656   -3.4296   -0.4723 C   0  0  0  0  0  0  0  0  0  0  0  0
   -0.5109   -2.7374   -0.1784 C   0  0  0  0  0  0  0  0  0  0  0  0
   -0.4898   -2.0286    1.0137 C   0  0  0  0  0  0  0  0  0  0  0  0
   -1.5813   -2.0311    1.8472 C   0  0  0  0  0  0  0  0  0  0  0  0
 61 62  1  0  0  0
 62 63  1  0  0  0
 62 60  1  0  0  0
 60 44  1  0  0  0
 44 40  1  0  0  0
 40 41  1  0  0  0
 41 42  2  0  0  0
 41 39  1  0  0  0
 39 64  1  0  0  0
 64 65  1  0  0  0
 65 66  1  0  0  0
 65 67  1  0  0  0
 39 35  1  0  0  0
 35 36  1  0  0  0
 36 37  2  0  0  0
 36  1  1  0  0  0
  1 68  1  0  0  0
 68 69  1  0  0  0
 69 70  2  0  0  0
 70 71  1  0  0  0
 71 72  2  0  0  0
 72 73  1  0  0  0
 73 74  2  0  0  0
  1  2  1  0  0  0
  2  3  1  0  0  0
  3  4  2  0  0  0
  3  6  1  0  0  0
  6 26  1  0  0  0
 26 27  1  0  0  0
 27 28  2  0  0  0
 28 29  1  0  0  0
 29 30  2  0  0  0
 30 31  1  0  0  0
 30 32  1  0  0  0
 32 33  2  0  0  0
  6  7  1  0  0  0
  7  8  1  0  0  0
  8  9  2  0  0  0
  8 11  1  0  0  0
 11 17  1  0  0  0
 17 18  1  0  0  0
 18 19  2  0  0  0
 19 20  1  0  0  0
 20 21  2  0  0  0
 21 22  1  0  0  0
 21 23  1  0  0  0
 23 24  2  0  0  0
 11 12  1  0  0  0
 12 13  1  0  0  0
 13 14  1  0  0  0
 13 15  2  0  0  0
 44 45  1  0  0  0
 45 46  2  0  0  0
 45 47  1  0  0  0
 47 49  1  0  0  0
 49 55  1  0  0  0
 55 56  1  0  0  0
 56 57  1  0  0  0
 56 58  2  0  0  0
 49 50  1  0  0  0
 50 51  1  0  0  0
 50 52  2  0  0  0
 74 69  1  0  0  0
 33 27  1  0  0  0
 24 18  1  0  0  0
 40 43  1  0  0  0
 35 38  1  0  0  0
  2  5  1  0  0  0
 31 34  1  0  0  0
  7 10  1  0  0  0
 22 25  1  0  0  0
 12 16  1  0  0  0
 47 48  1  0  0  0
 57 59  1  0  0  0
 51 53  1  0  0  0
 51 54  1  0  0  0
M  END
> <minimizedAffinity>
-6.38759

> <CNNscore>
0.1201549023

> <CNNaffinity>
6.5379548073

> <CNN_VS>
0.7855673432

> <CNNaffinity_variance>
0.5659466982

$$$$
[H]c1c([H])c(N([H])C(=O)N([H])c2c([H])c([H])c(C(C([H])([H])[H])(C([H])([H])[H])C([H])([H])[H])c([H])c2[H])c([H])c([H])c1-c1nc(N2C([H])([H])C([H])([H])OC([H])([H])[C@@]2([H])C([H])([H])[H])nc(C2([H])C([H])([H])C([H])([H])OC([H])([H])C2([H])[H])n1


 41 45  0  0  0  0  0  0  0  0999 V2000
  -12.3210   -9.4375    4.5495 C   0  0  0  0  0  0  0  0  0  0  0  0
  -12.9642   -9.6014    3.3432 C   0  0  0  0  0  0  0  0  0  0  0  0
  -14.2918   -9.1812    3.1706 C   0  0  0  0  0  0  0  0  0  0  0  0
  -15.0283   -8.5956    4.1561 C   0  0  0  0  0  0  0  0  0  0  0  0
  -14.3518   -8.4344    5.3903 C   0  0  0  0  0  0  0  0  0  0  0  0
  -13.0567   -8.8466    5.5514 C   0  0  0  0  0  0  0  0  0  0  0  0
   -9.1462  -11.2757    4.2182 C   0  0  0  0  0  0  0  0  0  0  0  0
   -8.3649  -10.5825    5.1044 N   0  0  0  0  0  0  0  0  0  0  0  0
   -8.8469   -9.5502    5.8003 C   0  0  0  0  0  0  0  0  0  0  0  0
  -10.1311   -9.2094    5.6015 N   0  0  0  0  0  0  0  0  0  0  0  0
  -10.9397   -9.8457    4.7530 C   0  0  0  0  0  0  0  0  0  0  0  0
  -10.4312  -10.8790    4.0681 N   0  0  0  0  0  0  0  0  0  0  0  0
   -8.2468  -14.3391    4.7470 C   0  0  0  0  0  0  0  0  0  0  0  0
   -9.1118  -13.7113    3.6446 C   0  0  0  0  0  0  0  0  0  0  0  0
   -8.7777  -14.4433    2.3661 C   0  0  0  0  0  0  0  0  0  0  0  0
   -8.9540  -13.6829    1.2383 O   0  0  0  0  0  0  0  0  0  0  0  0
   -8.1716  -12.5472    1.1574 C   0  0  0  0  0  0  0  0  0  0  0  0
   -7.5310  -12.1786    2.5092 C   0  0  0  0  0  0  0  0  0  0  0  0
   -8.5946  -12.3496    3.4767 N   0  0  0  0  0  0  0  0  0  0  0  0
   -8.0773   -8.7615    6.7951 C   0  0  0  0  0  0  0  0  0  0  0  0
   -7.7705   -9.5082    8.0477 C   0  0  0  0  0  0  0  0  0  0  0  0
   -7.8810   -8.5686    9.2353 C   0  0  0  0  0  0  0  0  0  0  0  0
   -9.1884   -8.1365    9.4521 O   0  0  0  0  0  0  0  0  0  0  0  0
   -9.8708   -7.9486    8.2462 C   0  0  0  0  0  0  0  0  0  0  0  0
   -8.9586   -7.5467    7.1339 C   0  0  0  0  0  0  0  0  0  0  0  0
  -16.3630   -8.1651    4.0469 N   0  0  0  0  0  0  0  0  0  0  0  0
  -16.9594   -6.9539    4.4029 C   0  0  0  0  0  0  0  0  0  0  0  0
  -16.2421   -6.0588    4.9075 O   0  0  0  0  0  0  0  0  0  0  0  0
  -18.3483   -6.7703    4.1833 N   0  0  0  0  0  0  0  0  0  0  0  0
  -17.0470   -8.8842    3.6271 H   0  0  0  0  0  0  0  0  0  0  0  0
  -18.8665   -7.6120    3.7417 H   0  0  0  0  0  0  0  0  0  0  0  0
  -19.0446   -5.6025    4.4863 C   0  0  0  0  0  0  0  0  0  0  0  0
  -18.3578   -4.6703    5.2882 C   0  0  0  0  0  0  0  0  0  0  0  0
  -18.9710   -3.5100    5.6542 C   0  0  0  0  0  0  0  0  0  0  0  0
  -20.2638   -3.1821    5.2747 C   0  0  0  0  0  0  0  0  0  0  0  0
  -20.9266   -4.0700    4.5061 C   0  0  0  0  0  0  0  0  0  0  0  0
  -20.3126   -5.2693    4.1204 C   0  0  0  0  0  0  0  0  0  0  0  0
  -20.8008   -1.8934    5.7526 C   0  0  0  0  0  0  0  0  0  0  0  0
  -19.5845   -1.0143    6.0728 C   0  0  0  0  0  0  0  0  0  0  0  0
  -21.6123   -1.2650    4.6427 C   0  0  0  0  0  0  0  0  0  0  0  0
  -21.5980   -2.0001    7.0170 C   0  0  0  0  0  0  0  0  0  0  0  0
 13 14  1  0  0  0
 14 15  1  0  0  0
 15 16  1  0  0  0
 16 17  1  0  0  0
 17 18  1  0  0  0
 18 19  1  0  0  0
 19  7  1  0  0  0
  7  8  2  0  0  0
  8  9  1  0  0  0
  9 10  2  0  0  0
 10 11  1  0  0  0
 11 12  2  0  0  0
 11  1  1  0  0  0
  1  2  2  0  0  0
  2  3  1  0  0  0
  3  4  2  0  0  0
  4 26  1  0  0  0
 26 27  1  0  0  0
 27 28  2  0  0  0
 27 29  1  0  0  0
 29 32  1  0  0  0
 32 33  2  0  0  0
 33 34  1  0  0  0
 34 35  2  0  0  0
 35 36  1  0  0  0
 36 37  2  0  0  0
 35 38  1  0  0  0
 38 39  1  0  0  0
 38 40  1  0  0  0
 38 41  1  0  0  0
  4  5  1  0  0  0
  5  6  2  0  0  0
  9 20  1  0  0  0
 20 21  1  0  0  0
 21 22  1  0  0  0
 22 23  1  0  0  0
 23 24  1  0  0  0
 24 25  1  0  0  0
 19 14  1  0  0  0
 12  7  1  0  0  0
  6  1  1  0  0  0
 25 20  1  0  0  0
 37 32  1  0  0  0
 26 30  1  0  0  0
 29 31  1  0  0  0
M  END
> <minimizedAffinity>
42.32404

> <CNNscore>
0.4731347263

> <CNNaffinity>
6.9383535385

> <CNN_VS>
3.2827761173

> <CNNaffinity_variance>
1.4937336445

$$$$
[H]c1c([H])c(N([H])C(=O)N([H])c2c([H])c([H])c(C(C([H])([H])[H])(C([H])([H])[H])C([H])([H])[H])c([H])c2[H])c([H])c([H])c1-c1nc(N2C([H])([H])C([H])([H])OC([H])([H])[C@@]2([H])C([H])([H])[H])nc(C2([H])C([H])([H])C([H])([H])OC([H])([H])C2([H])[H])n1


 41 45  0  0  0  0  0  0  0  0999 V2000
  -14.1884   -5.7057    5.1941 C   0  0  0  0  0  0  0  0  0  0  0  0
  -13.5931   -6.7853    4.5809 C   0  0  0  0  0  0  0  0  0  0  0  0
  -12.5670   -7.5006    5.2167 C   0  0  0  0  0  0  0  0  0  0  0  0
  -12.0916   -7.1907    6.4555 C   0  0  0  0  0  0  0  0  0  0  0  0
  -12.7147   -6.0779    7.0721 C   0  0  0  0  0  0  0  0  0  0  0  0
  -13.7151   -5.3848    6.4460 C   0  0  0  0  0  0  0  0  0  0  0  0
  -17.5080   -4.2322    4.5801 C   0  0  0  0  0  0  0  0  0  0  0  0
  -17.2609   -3.5370    3.4260 N   0  0  0  0  0  0  0  0  0  0  0  0
  -16.0561   -3.5450    2.8510 C   0  0  0  0  0  0  0  0  0  0  0  0
  -15.0864   -4.2605    3.4450 N   0  0  0  0  0  0  0  0  0  0  0  0
  -15.2668   -4.9564    4.5683 C   0  0  0  0  0  0  0  0  0  0  0  0
  -16.4859   -4.9325    5.1240 N   0  0  0  0  0  0  0  0  0  0  0  0
  -18.9736   -2.6162    6.9704 C   0  0  0  0  0  0  0  0  0  0  0  0
  -19.3995   -2.8907    5.5209 C   0  0  0  0  0  0  0  0  0  0  0  0
  -20.8910   -3.1286    5.5482 C   0  0  0  0  0  0  0  0  0  0  0  0
  -21.3329   -3.9479    4.5409 O   0  0  0  0  0  0  0  0  0  0  0  0
  -20.8156   -5.2289    4.5450 C   0  0  0  0  0  0  0  0  0  0  0  0
  -19.5819   -5.3605    5.4582 C   0  0  0  0  0  0  0  0  0  0  0  0
  -18.7916   -4.1801    5.1777 N   0  0  0  0  0  0  0  0  0  0  0  0
  -15.7102   -2.8401    1.5912 C   0  0  0  0  0  0  0  0  0  0  0  0
  -14.9443   -1.5787    1.7983 C   0  0  0  0  0  0  0  0  0  0  0  0
  -15.4074   -0.5365    0.7957 C   0  0  0  0  0  0  0  0  0  0  0  0
  -16.7229   -0.1326    1.0177 O   0  0  0  0  0  0  0  0  0  0  0  0
  -17.5171   -1.1969    1.4555 C   0  0  0  0  0  0  0  0  0  0  0  0
  -17.0535   -2.5106    0.9170 C   0  0  0  0  0  0  0  0  0  0  0  0
  -11.0602   -7.8614    7.1376 N   0  0  0  0  0  0  0  0  0  0  0  0
   -9.6753   -7.6936    7.0829 C   0  0  0  0  0  0  0  0  0  0  0  0
   -9.2081   -6.8156    6.3203 O   0  0  0  0  0  0  0  0  0  0  0  0
   -8.8421   -8.5125    7.8868 N   0  0  0  0  0  0  0  0  0  0  0  0
  -11.3816   -8.6396    7.8100 H   0  0  0  0  0  0  0  0  0  0  0  0
   -9.3564   -9.2364    8.5061 H   0  0  0  0  0  0  0  0  0  0  0  0
   -7.4523   -8.4244    7.9231 C   0  0  0  0  0  0  0  0  0  0  0  0
   -6.9164   -7.1303    7.7753 C   0  0  0  0  0  0  0  0  0  0  0  0
   -5.5656   -6.9526    7.7744 C   0  0  0  0  0  0  0  0  0  0  0  0
   -4.6627   -7.9957    7.9145 C   0  0  0  0  0  0  0  0  0  0  0  0
   -5.1693   -9.2372    8.0573 C   0  0  0  0  0  0  0  0  0  0  0  0
   -6.5561   -9.4396    8.0597 C   0  0  0  0  0  0  0  0  0  0  0  0
   -3.2274   -7.6536    7.8873 C   0  0  0  0  0  0  0  0  0  0  0  0
   -3.1350   -6.2376    7.3034 C   0  0  0  0  0  0  0  0  0  0  0  0
   -2.7004   -7.6616    9.3041 C   0  0  0  0  0  0  0  0  0  0  0  0
   -2.4098   -8.5392    6.9968 C   0  0  0  0  0  0  0  0  0  0  0  0
 13 14  1  0  0  0
 14 15  1  0  0  0
 15 16  1  0  0  0
 16 17  1  0  0  0
 17 18  1  0  0  0
 18 19  1  0  0  0
 19  7  1  0  0  0
  7  8  2  0  0  0
  8  9  1  0  0  0
  9 10  2  0  0  0
 10 11  1  0  0  0
 11 12  2  0  0  0
 11  1  1  0  0  0
  1  2  2  0  0  0
  2  3  1  0  0  0
  3  4  2  0  0  0
  4 26  1  0  0  0
 26 27  1  0  0  0
 27 28  2  0  0  0
 27 29  1  0  0  0
 29 32  1  0  0  0
 32 33  2  0  0  0
 33 34  1  0  0  0
 34 35  2  0  0  0
 35 36  1  0  0  0
 36 37  2  0  0  0
 35 38  1  0  0  0
 38 39  1  0  0  0
 38 40  1  0  0  0
 38 41  1  0  0  0
  4  5  1  0  0  0
  5  6  2  0  0  0
  9 20  1  0  0  0
 20 21  1  0  0  0
 21 22  1  0  0  0
 22 23  1  0  0  0
 23 24  1  0  0  0
 24 25  1  0  0  0
 19 14  1  0  0  0
 12  7  1  0  0  0
  6  1  1  0  0  0
 25 20  1  0  0  0
 37 32  1  0  0  0
 26 30  1  0  0  0
 29 31  1  0  0  0
M  END
> <minimizedAffinity>
50.83349

> <CNNscore>
0.4722289145

> <CNNaffinity>
6.7203874588

> <CNN_VS>
3.1735613346

> <CNNaffinity_variance>
1.4687253237

$$$$
[H]c1c([H])c(N([H])C(=O)N([H])c2c([H])c([H])c(C(C([H])([H])[H])(C([H])([H])[H])C([H])([H])[H])c([H])c2[H])c([H])c([H])c1-c1nc(N2C([H])([H])C([H])([H])OC([H])([H])[C@@]2([H])C([H])([H])[H])nc(C2([H])C([H])([H])C([H])([H])OC([H])([H])C2([H])[H])n1


 41 45  0  0  0  0  0  0  0  0999 V2000
  -12.2147   -9.7449    4.6821 C   0  0  0  0  0  0  0  0  0  0  0  0
  -12.7574   -9.7902    3.4175 C   0  0  0  0  0  0  0  0  0  0  0  0
  -14.0304   -9.2595    3.1594 C   0  0  0  0  0  0  0  0  0  0  0  0
  -14.8081   -8.6753    4.1136 C   0  0  0  0  0  0  0  0  0  0  0  0
  -14.2351   -8.6369    5.4086 C   0  0  0  0  0  0  0  0  0  0  0  0
  -12.9927   -9.1565    5.6530 C   0  0  0  0  0  0  0  0  0  0  0  0
   -9.2742  -11.9630    4.7158 C   0  0  0  0  0  0  0  0  0  0  0  0
   -8.4186  -11.2285    5.4934 N   0  0  0  0  0  0  0  0  0  0  0  0
   -8.7783  -10.0483    6.0034 C   0  0  0  0  0  0  0  0  0  0  0  0
  -10.0142   -9.6000    5.7266 N   0  0  0  0  0  0  0  0  0  0  0  0
  -10.8903  -10.2695    4.9764 C   0  0  0  0  0  0  0  0  0  0  0  0
  -10.5044  -11.4520    4.4780 N   0  0  0  0  0  0  0  0  0  0  0  0
   -8.7730  -13.2397    1.7845 C   0  0  0  0  0  0  0  0  0  0  0  0
   -7.9032  -13.2309    3.0499 C   0  0  0  0  0  0  0  0  0  0  0  0
   -7.2264  -14.5798    3.1162 C   0  0  0  0  0  0  0  0  0  0  0  0
   -6.9271  -14.9796    4.3937 O   0  0  0  0  0  0  0  0  0  0  0  0
   -8.0096  -15.1353    5.2379 C   0  0  0  0  0  0  0  0  0  0  0  0
   -9.2879  -14.4816    4.6794 C   0  0  0  0  0  0  0  0  0  0  0  0
   -8.8501  -13.1994    4.1689 N   0  0  0  0  0  0  0  0  0  0  0  0
   -7.9234   -9.2011    6.8724 C   0  0  0  0  0  0  0  0  0  0  0  0
   -8.0266   -9.5298    8.3222 C   0  0  0  0  0  0  0  0  0  0  0  0
   -7.9735   -8.2485    9.1353 C   0  0  0  0  0  0  0  0  0  0  0  0
   -9.0897   -7.4398    8.9273 O   0  0  0  0  0  0  0  0  0  0  0  0
   -9.5241   -7.5004    7.5996 C   0  0  0  0  0  0  0  0  0  0  0  0
   -8.4032   -7.7568    6.6464 C   0  0  0  0  0  0  0  0  0  0  0  0
  -16.0932   -8.1374    3.9185 N   0  0  0  0  0  0  0  0  0  0  0  0
  -16.6725   -6.9662    4.4104 C   0  0  0  0  0  0  0  0  0  0  0  0
  -15.9874   -6.2257    5.1538 O   0  0  0  0  0  0  0  0  0  0  0  0
  -18.0083   -6.6479    4.0561 N   0  0  0  0  0  0  0  0  0  0  0  0
  -16.7482   -8.7220    3.2937 H   0  0  0  0  0  0  0  0  0  0  0  0
  -18.5023   -7.3611    3.4086 H   0  0  0  0  0  0  0  0  0  0  0  0
  -18.6815   -5.5028    4.4761 C   0  0  0  0  0  0  0  0  0  0  0  0
  -18.0669   -4.7772    5.5151 C   0  0  0  0  0  0  0  0  0  0  0  0
  -18.6669   -3.6567    6.0055 C   0  0  0  0  0  0  0  0  0  0  0  0
  -19.8772   -3.1741    5.5311 C   0  0  0  0  0  0  0  0  0  0  0  0
  -20.4705   -3.8638    4.5357 C   0  0  0  0  0  0  0  0  0  0  0  0
  -19.8688   -5.0193    4.0189 C   0  0  0  0  0  0  0  0  0  0  0  0
  -20.4110   -1.9524    6.1638 C   0  0  0  0  0  0  0  0  0  0  0  0
  -19.1935   -1.1001    6.5455 C   0  0  0  0  0  0  0  0  0  0  0  0
  -21.2596   -1.2145    5.1534 C   0  0  0  0  0  0  0  0  0  0  0  0
  -21.1703   -2.2076    7.4302 C   0  0  0  0  0  0  0  0  0  0  0  0
 13 14  1  0  0  0
 14 15  1  0  0  0
 15 16  1  0  0  0
 16 17  1  0  0  0
 17 18  1  0  0  0
 18 19  1  0  0  0
 19  7  1  0  0  0
  7  8  2  0  0  0
  8  9  1  0  0  0
  9 10  2  0  0  0
 10 11  1  0  0  0
 11 12  2  0  0  0
 11  1  1  0  0  0
  1  2  2  0  0  0
  2  3  1  0  0  0
  3  4  2  0  0  0
  4 26  1  0  0  0
 26 27  1  0  0  0
 27 28  2  0  0  0
 27 29  1  0  0  0
 29 32  1  0  0  0
 32 33  2  0  0  0
 33 34  1  0  0  0
 34 35  2  0  0  0
 35 36  1  0  0  0
 36 37  2  0  0  0
 35 38  1  0  0  0
 38 39  1  0  0  0
 38 40  1  0  0  0
 38 41  1  0  0  0
  4  5  1  0  0  0
  5  6  2  0  0  0
  9 20  1  0  0  0
 20 21  1  0  0  0
 21 22  1  0  0  0
 22 23  1  0  0  0
 23 24  1  0  0  0
 24 25  1  0  0  0
 19 14  1  0  0  0
 12  7  1  0  0  0
  6  1  1  0  0  0
 25 20  1  0  0  0
 37 32  1  0  0  0
 26 30  1  0  0  0
 29 31  1  0  0  0
M  END
> <minimizedAffinity>
38.54543

> <CNNscore>
0.4492186308

> <CNNaffinity>
6.8536810875

> <CNN_VS>
3.0788011551

> <CNNaffinity_variance>
1.1903111935

$$$$
[H]c1c([H])c(N([H])C(=O)N([H])c2c([H])c([H])c(C(C([H])([H])[H])(C([H])([H])[H])C([H])([H])[H])c([H])c2[H])c([H])c([H])c1-c1nc(N2C([H])([H])C([H])([H])OC([H])([H])[C@@]2([H])C([H])([H])[H])nc(C2([H])C([H])([H])C([H])([H])OC([H])([H])C2([H])[H])n1


 41 45  0  0  0  0  0  0  0  0999 V2000
  -13.0124   -7.3102    8.1074 C   0  0  0  0  0  0  0  0  0  0  0  0
  -12.7012   -6.7547    6.8866 C   0  0  0  0  0  0  0  0  0  0  0  0
  -11.3658   -6.5792    6.4932 C   0  0  0  0  0  0  0  0  0  0  0  0
  -10.3021   -6.9337    7.2674 C   0  0  0  0  0  0  0  0  0  0  0  0
  -10.6396   -7.5036    8.5197 C   0  0  0  0  0  0  0  0  0  0  0  0
  -11.9445   -7.6718    8.8968 C   0  0  0  0  0  0  0  0  0  0  0  0
  -16.6694   -7.7372    7.9961 C   0  0  0  0  0  0  0  0  0  0  0  0
  -16.9345   -7.9499    9.3231 N   0  0  0  0  0  0  0  0  0  0  0  0
  -15.9619   -7.9499   10.2376 C   0  0  0  0  0  0  0  0  0  0  0  0
  -14.7059   -7.7345    9.8122 N   0  0  0  0  0  0  0  0  0  0  0  0
  -14.3866   -7.5220    8.5349 C   0  0  0  0  0  0  0  0  0  0  0  0
  -15.3818   -7.5258    7.6376 N   0  0  0  0  0  0  0  0  0  0  0  0
  -17.5575   -6.1098    5.3436 C   0  0  0  0  0  0  0  0  0  0  0  0
  -17.4402   -7.6159    5.6185 C   0  0  0  0  0  0  0  0  0  0  0  0
  -18.5898   -8.2763    4.8944 C   0  0  0  0  0  0  0  0  0  0  0  0
  -19.0049   -9.4457    5.4786 O   0  0  0  0  0  0  0  0  0  0  0  0
  -19.4794   -9.3302    6.7709 C   0  0  0  0  0  0  0  0  0  0  0  0
  -19.1079   -7.9803    7.4137 C   0  0  0  0  0  0  0  0  0  0  0  0
  -17.7226   -7.7704    7.0489 N   0  0  0  0  0  0  0  0  0  0  0  0
  -16.1647   -8.1486   11.6947 C   0  0  0  0  0  0  0  0  0  0  0  0
  -15.1154   -7.5126   12.5405 C   0  0  0  0  0  0  0  0  0  0  0  0
  -14.8042   -8.4143   13.7219 C   0  0  0  0  0  0  0  0  0  0  0  0
  -14.1988   -9.6087   13.3345 O   0  0  0  0  0  0  0  0  0  0  0  0
  -14.7116  -10.0702   12.1182 C   0  0  0  0  0  0  0  0  0  0  0  0
  -16.1364   -9.6712   11.9145 C   0  0  0  0  0  0  0  0  0  0  0  0
   -8.9452   -6.7725    6.9333 N   0  0  0  0  0  0  0  0  0  0  0  0
   -7.8066   -7.4180    7.4192 C   0  0  0  0  0  0  0  0  0  0  0  0
   -7.9473   -8.2987    8.2996 O   0  0  0  0  0  0  0  0  0  0  0  0
   -6.5329   -7.0643    6.9057 N   0  0  0  0  0  0  0  0  0  0  0  0
   -8.7399   -6.0248    6.1850 H   0  0  0  0  0  0  0  0  0  0  0  0
   -6.5331   -6.2907    6.1485 H   0  0  0  0  0  0  0  0  0  0  0  0
   -5.3337   -7.6496    7.3057 C   0  0  0  0  0  0  0  0  0  0  0  0
   -5.3269   -9.0570    7.3595 C   0  0  0  0  0  0  0  0  0  0  0  0
   -4.2037   -9.7139    7.7635 C   0  0  0  0  0  0  0  0  0  0  0  0
   -3.0361   -9.0642    8.1341 C   0  0  0  0  0  0  0  0  0  0  0  0
   -3.0358   -7.7166    8.0840 C   0  0  0  0  0  0  0  0  0  0  0  0
   -4.1820   -7.0234    7.6718 C   0  0  0  0  0  0  0  0  0  0  0  0
   -1.9006   -9.9063    8.5572 C   0  0  0  0  0  0  0  0  0  0  0  0
   -2.5107  -11.1923    9.1306 C   0  0  0  0  0  0  0  0  0  0  0  0
   -1.0601  -10.2320    7.3436 C   0  0  0  0  0  0  0  0  0  0  0  0
   -1.0706   -9.3015    9.6484 C   0  0  0  0  0  0  0  0  0  0  0  0
 13 14  1  0  0  0
 14 15  1  0  0  0
 15 16  1  0  0  0
 16 17  1  0  0  0
 17 18  1  0  0  0
 18 19  1  0  0  0
 19  7  1  0  0  0
  7  8  2  0  0  0
  8  9  1  0  0  0
  9 10  2  0  0  0
 10 11  1  0  0  0
 11 12  2  0  0  0
 11  1  1  0  0  0
  1  2  2  0  0  0
  2  3  1  0  0  0
  3  4  2  0  0  0
  4 26  1  0  0  0
 26 27  1  0  0  0
 27 28  2  0  0  0
 27 29  1  0  0  0
 29 32  1  0  0  0
 32 33  2  0  0  0
 33 34  1  0  0  0
 34 35  2  0  0  0
 35 36  1  0  0  0
 36 37  2  0  0  0
 35 38  1  0  0  0
 38 39  1  0  0  0
 38 40  1  0  0  0
 38 41  1  0  0  0
  4  5  1  0  0  0
  5  6  2  0  0  0
  9 20  1  0  0  0
 20 21  1  0  0  0
 21 22  1  0  0  0
 22 23  1  0  0  0
 23 24  1  0  0  0
 24 25  1  0  0  0
 19 14  1  0  0  0
 12  7  1  0  0  0
  6  1  1  0  0  0
 25 20  1  0  0  0
 37 32  1  0  0  0
 26 30  1  0  0  0
 29 31  1  0  0  0
M  END
> <minimizedAffinity>
31.16811

> <CNNscore>
0.4096004665

> <CNNaffinity>
6.6488990784

> <CNN_VS>
2.7233922482

> <CNNaffinity_variance>
1.7956488132

$$$$
[H]c1c([H])c(N([H])C(=O)N([H])c2c([H])c([H])c(C(C([H])([H])[H])(C([H])([H])[H])C([H])([H])[H])c([H])c2[H])c([H])c([H])c1-c1nc(N2C([H])([H])C([H])([H])OC([H])([H])[C@@]2([H])C([H])([H])[H])nc(C2([H])C([H])([H])C([H])([H])OC([H])([H])C2([H])[H])n1


 41 45  0  0  0  0  0  0  0  0999 V2000
   -7.3572   -6.9174    8.8589 C   0  0  0  0  0  0  0  0  0  0  0  0
   -7.6122   -6.9604    7.5065 C   0  0  0  0  0  0  0  0  0  0  0  0
   -8.7734   -7.5722    7.0105 C   0  0  0  0  0  0  0  0  0  0  0  0
   -9.7127   -8.1565    7.8060 C   0  0  0  0  0  0  0  0  0  0  0  0
   -9.4352   -8.1034    9.1942 C   0  0  0  0  0  0  0  0  0  0  0  0
   -8.3005   -7.5049    9.6709 C   0  0  0  0  0  0  0  0  0  0  0  0
   -4.2448   -4.9596    9.0783 C   0  0  0  0  0  0  0  0  0  0  0  0
   -3.9896   -5.0494   10.4210 N   0  0  0  0  0  0  0  0  0  0  0  0
   -4.7948   -5.7297   11.2403 C   0  0  0  0  0  0  0  0  0  0  0  0
   -5.8717   -6.3264   10.7024 N   0  0  0  0  0  0  0  0  0  0  0  0
   -6.1719   -6.2740    9.4041 C   0  0  0  0  0  0  0  0  0  0  0  0
   -5.3465   -5.5858    8.6037 N   0  0  0  0  0  0  0  0  0  0  0  0
   -1.0864   -4.8369    8.3836 C   0  0  0  0  0  0  0  0  0  0  0  0
   -2.3244   -4.8718    7.4761 C   0  0  0  0  0  0  0  0  0  0  0  0
   -2.0260   -3.9643    6.3059 C   0  0  0  0  0  0  0  0  0  0  0  0
   -3.1467   -3.4028    5.7492 O   0  0  0  0  0  0  0  0  0  0  0  0
   -3.8860   -2.5917    6.5884 C   0  0  0  0  0  0  0  0  0  0  0  0
   -3.5020   -2.7745    8.0691 C   0  0  0  0  0  0  0  0  0  0  0  0
   -3.3833   -4.2071    8.2421 N   0  0  0  0  0  0  0  0  0  0  0  0
   -4.5798   -5.8960   12.6997 C   0  0  0  0  0  0  0  0  0  0  0  0
   -5.7936   -5.6271   13.5212 C   0  0  0  0  0  0  0  0  0  0  0  0
   -5.3896   -4.9178   14.8016 C   0  0  0  0  0  0  0  0  0  0  0  0
   -4.8928   -3.6368   14.5660 O   0  0  0  0  0  0  0  0  0  0  0  0
   -4.1505   -3.5865   13.3821 C   0  0  0  0  0  0  0  0  0  0  0  0
   -3.4814   -4.8862   13.0756 C   0  0  0  0  0  0  0  0  0  0  0  0
  -10.8878   -8.7937    7.3677 N   0  0  0  0  0  0  0  0  0  0  0  0
  -12.1097   -8.2611    6.9523 C   0  0  0  0  0  0  0  0  0  0  0  0
  -12.2481   -7.0156    6.9437 O   0  0  0  0  0  0  0  0  0  0  0  0
  -13.1512   -9.1366    6.5524 N   0  0  0  0  0  0  0  0  0  0  0  0
  -10.8511   -9.8705    7.3535 H   0  0  0  0  0  0  0  0  0  0  0  0
  -12.9180  -10.1926    6.6010 H   0  0  0  0  0  0  0  0  0  0  0  0
  -14.4034   -8.7177    6.1082 C   0  0  0  0  0  0  0  0  0  0  0  0
  -14.5114   -8.4689    4.7261 C   0  0  0  0  0  0  0  0  0  0  0  0
  -15.6929   -8.0324    4.2068 C   0  0  0  0  0  0  0  0  0  0  0  0
  -16.8255   -7.8130    4.9764 C   0  0  0  0  0  0  0  0  0  0  0  0
  -16.7289   -8.0502    6.3003 C   0  0  0  0  0  0  0  0  0  0  0  0
  -15.5215   -8.4988    6.8528 C   0  0  0  0  0  0  0  0  0  0  0  0
  -18.0331   -7.3324    4.2776 C   0  0  0  0  0  0  0  0  0  0  0  0
  -18.4037   -5.9951    4.9324 C   0  0  0  0  0  0  0  0  0  0  0  0
  -17.6957   -7.1159    2.8200 C   0  0  0  0  0  0  0  0  0  0  0  0
  -19.2221   -8.2309    4.4340 C   0  0  0  0  0  0  0  0  0  0  0  0
 13 14  1  0  0  0
 14 15  1  0  0  0
 15 16  1  0  0  0
 16 17  1  0  0  0
 17 18  1  0  0  0
 18 19  1  0  0  0
 19  7  1  0  0  0
  7  8  2  0  0  0
  8  9  1  0  0  0
  9 10  2  0  0  0
 10 11  1  0  0  0
 11 12  2  0  0  0
 11  1  1  0  0  0
  1  2  2  0  0  0
  2  3  1  0  0  0
  3  4  2  0  0  0
  4 26  1  0  0  0
 26 27  1  0  0  0
 27 28  2  0  0  0
 27 29  1  0  0  0
 29 32  1  0  0  0
 32 33  2  0  0  0
 33 34  1  0  0  0
 34 35  2  0  0  0
 35 36  1  0  0  0
 36 37  2  0  0  0
 35 38  1  0  0  0
 38 39  1  0  0  0
 38 40  1  0  0  0
 38 41  1  0  0  0
  4  5  1  0  0  0
  5  6  2  0  0  0
  9 20  1  0  0  0
 20 21  1  0  0  0
 21 22  1  0  0  0
 22 23  1  0  0  0
 23 24  1  0  0  0
 24 25  1  0  0  0
 19 14  1  0  0  0
 12  7  1  0  0  0
  6  1  1  0  0  0
 25 20  1  0  0  0
 37 32  1  0  0  0
 26 30  1  0  0  0
 29 31  1  0  0  0
M  END
> <minimizedAffinity>
0.03375

> <CNNscore>
0.3895573318

> <CNNaffinity>
6.6690545082

> <CNN_VS>
2.5979790688

> <CNNaffinity_variance>
1.2094560862

$$$$
[H]c1c([H])c(N([H])C(=O)N([H])c2c([H])c([H])c(C(C([H])([H])[H])(C([H])([H])[H])C([H])([H])[H])c([H])c2[H])c([H])c([H])c1-c1nc(N2C([H])([H])C([H])([H])OC([H])([H])[C@@]2([H])C([H])([H])[H])nc(C2([H])C([H])([H])C([H])([H])OC([H])([H])C2([H])[H])n1


 41 45  0  0  0  0  0  0  0  0999 V2000
   -7.2670   -6.8615    9.8205 C   0  0  0  0  0  0  0  0  0  0  0  0
   -7.4069   -7.6418    8.6947 C   0  0  0  0  0  0  0  0  0  0  0  0
   -8.6663   -8.1159    8.2974 C   0  0  0  0  0  0  0  0  0  0  0  0
   -9.8173   -7.8496    8.9763 C   0  0  0  0  0  0  0  0  0  0  0  0
   -9.6559   -7.0458   10.1316 C   0  0  0  0  0  0  0  0  0  0  0  0
   -8.4242   -6.5869   10.5131 C   0  0  0  0  0  0  0  0  0  0  0  0
   -4.5447   -5.6380   11.9791 C   0  0  0  0  0  0  0  0  0  0  0  0
   -3.5722   -5.4047   11.0432 N   0  0  0  0  0  0  0  0  0  0  0  0
   -3.7857   -5.6282    9.7445 C   0  0  0  0  0  0  0  0  0  0  0  0
   -4.9927   -6.0938    9.3821 N   0  0  0  0  0  0  0  0  0  0  0  0
   -5.9778   -6.3400   10.2467 C   0  0  0  0  0  0  0  0  0  0  0  0
   -5.7375   -6.1058   11.5441 N   0  0  0  0  0  0  0  0  0  0  0  0
   -4.0914   -7.4085   14.6499 C   0  0  0  0  0  0  0  0  0  0  0  0
   -3.2902   -6.2394   14.0592 C   0  0  0  0  0  0  0  0  0  0  0  0
   -2.8156   -5.4088   15.2284 C   0  0  0  0  0  0  0  0  0  0  0  0
   -2.6371   -4.0839   14.9216 O   0  0  0  0  0  0  0  0  0  0  0  0
   -3.7695   -3.4114   14.5044 C   0  0  0  0  0  0  0  0  0  0  0  0
   -4.9141   -4.3698   14.1239 C   0  0  0  0  0  0  0  0  0  0  0  0
   -4.2750   -5.4148   13.3521 N   0  0  0  0  0  0  0  0  0  0  0  0
   -2.7970   -5.3809    8.6651 C   0  0  0  0  0  0  0  0  0  0  0  0
   -2.3942   -3.9522    8.5338 C   0  0  0  0  0  0  0  0  0  0  0  0
   -2.2258   -3.6081    7.0645 C   0  0  0  0  0  0  0  0  0  0  0  0
   -3.4321   -3.6486    6.3671 O   0  0  0  0  0  0  0  0  0  0  0  0
   -4.2588   -4.6745    6.8354 C   0  0  0  0  0  0  0  0  0  0  0  0
   -3.4805   -5.8348    7.3635 C   0  0  0  0  0  0  0  0  0  0  0  0
  -11.1037   -8.3048    8.6346 N   0  0  0  0  0  0  0  0  0  0  0  0
  -12.0371   -7.7963    7.7294 C   0  0  0  0  0  0  0  0  0  0  0  0
  -11.7418   -6.7658    7.0802 O   0  0  0  0  0  0  0  0  0  0  0  0
  -13.2824   -8.4555    7.5688 N   0  0  0  0  0  0  0  0  0  0  0  0
  -11.4352   -9.1867    9.1576 H   0  0  0  0  0  0  0  0  0  0  0  0
  -13.4272   -9.3359    8.1820 H   0  0  0  0  0  0  0  0  0  0  0  0
  -14.2807   -8.0464    6.6876 C   0  0  0  0  0  0  0  0  0  0  0  0
  -14.1231   -8.4573    5.3496 C   0  0  0  0  0  0  0  0  0  0  0  0
  -15.0394   -8.0826    4.4136 C   0  0  0  0  0  0  0  0  0  0  0  0
  -16.1472   -7.3013    4.7058 C   0  0  0  0  0  0  0  0  0  0  0  0
  -16.3044   -6.9053    5.9852 C   0  0  0  0  0  0  0  0  0  0  0  0
  -15.3717   -7.2801    6.9618 C   0  0  0  0  0  0  0  0  0  0  0  0
  -17.0510   -6.9674    3.5881 C   0  0  0  0  0  0  0  0  0  0  0  0
  -17.9955   -8.1660    3.4276 C   0  0  0  0  0  0  0  0  0  0  0  0
  -17.8429   -5.7337    3.9572 C   0  0  0  0  0  0  0  0  0  0  0  0
  -16.3517   -6.7930    2.2743 C   0  0  0  0  0  0  0  0  0  0  0  0
 13 14  1  0  0  0
 14 15  1  0  0  0
 15 16  1  0  0  0
 16 17  1  0  0  0
 17 18  1  0  0  0
 18 19  1  0  0  0
 19  7  1  0  0  0
  7  8  2  0  0  0
  8  9  1  0  0  0
  9 10  2  0  0  0
 10 11  1  0  0  0
 11 12  2  0  0  0
 11  1  1  0  0  0
  1  2  2  0  0  0
  2  3  1  0  0  0
  3  4  2  0  0  0
  4 26  1  0  0  0
 26 27  1  0  0  0
 27 28  2  0  0  0
 27 29  1  0  0  0
 29 32  1  0  0  0
 32 33  2  0  0  0
 33 34  1  0  0  0
 34 35  2  0  0  0
 35 36  1  0  0  0
 36 37  2  0  0  0
 35 38  1  0  0  0
 38 39  1  0  0  0
 38 40  1  0  0  0
 38 41  1  0  0  0
  4  5  1  0  0  0
  5  6  2  0  0  0
  9 20  1  0  0  0
 20 21  1  0  0  0
 21 22  1  0  0  0
 22 23  1  0  0  0
 23 24  1  0  0  0
 24 25  1  0  0  0
 19 14  1  0  0  0
 12  7  1  0  0  0
  6  1  1  0  0  0
 25 20  1  0  0  0
 37 32  1  0  0  0
 26 30  1  0  0  0
 29 31  1  0  0  0
M  END
> <minimizedAffinity>
3.25235

> <CNNscore>
0.3630381227

> <CNNaffinity>
6.6198377609

> <CNN_VS>
2.4032535553

> <CNNaffinity_variance>
1.9356052876

$$$$
[H]c1c([H])c(N([H])C(=O)N([H])c2c([H])c([H])c(C(C([H])([H])[H])(C([H])([H])[H])C([H])([H])[H])c([H])c2[H])c([H])c([H])c1-c1nc(N2C([H])([H])C([H])([H])OC([H])([H])[C@@]2([H])C([H])([H])[H])nc(C2([H])C([H])([H])C([H])([H])OC([H])([H])C2([H])[H])n1


 41 45  0  0  0  0  0  0  0  0999 V2000
  -14.4285   -8.4608    6.5427 C   0  0  0  0  0  0  0  0  0  0  0  0
  -13.9920   -9.7570    6.7020 C   0  0  0  0  0  0  0  0  0  0  0  0
  -12.6825  -10.0302    7.1253 C   0  0  0  0  0  0  0  0  0  0  0  0
  -11.7654   -9.0615    7.4029 C   0  0  0  0  0  0  0  0  0  0  0  0
  -12.2305   -7.7341    7.2340 C   0  0  0  0  0  0  0  0  0  0  0  0
  -13.5093   -7.4750    6.8208 C   0  0  0  0  0  0  0  0  0  0  0  0
  -17.3565   -6.5713    5.3491 C   0  0  0  0  0  0  0  0  0  0  0  0
  -18.2958   -7.5675    5.3116 N   0  0  0  0  0  0  0  0  0  0  0  0
  -17.9997   -8.8195    5.6682 C   0  0  0  0  0  0  0  0  0  0  0  0
  -16.7420   -9.0734    6.0665 N   0  0  0  0  0  0  0  0  0  0  0  0
  -15.7854   -8.1459    6.1235 C   0  0  0  0  0  0  0  0  0  0  0  0
  -16.1095   -6.8972    5.7614 N   0  0  0  0  0  0  0  0  0  0  0  0
  -19.2464   -5.1736    3.1247 C   0  0  0  0  0  0  0  0  0  0  0  0
  -19.0903   -4.9161    4.6304 C   0  0  0  0  0  0  0  0  0  0  0  0
  -19.2031   -3.4224    4.8255 C   0  0  0  0  0  0  0  0  0  0  0  0
  -18.5169   -2.9602    5.9194 O   0  0  0  0  0  0  0  0  0  0  0  0
  -17.1510   -3.1664    5.8964 C   0  0  0  0  0  0  0  0  0  0  0  0
  -16.7301   -4.1888    4.8236 C   0  0  0  0  0  0  0  0  0  0  0  0
  -17.6984   -5.2591    4.9384 N   0  0  0  0  0  0  0  0  0  0  0  0
  -18.9609   -9.9507    5.6790 C   0  0  0  0  0  0  0  0  0  0  0  0
  -20.2877   -9.6186    5.0874 C   0  0  0  0  0  0  0  0  0  0  0  0
  -21.3822  -10.3053    5.8850 C   0  0  0  0  0  0  0  0  0  0  0  0
  -21.4927   -9.8014    7.1800 O   0  0  0  0  0  0  0  0  0  0  0  0
  -20.2413   -9.4660    7.7061 C   0  0  0  0  0  0  0  0  0  0  0  0
  -19.1472  -10.3237    7.1601 C   0  0  0  0  0  0  0  0  0  0  0  0
  -10.4383   -9.2731    7.8187 N   0  0  0  0  0  0  0  0  0  0  0  0
   -9.2774   -8.5417    7.5607 C   0  0  0  0  0  0  0  0  0  0  0  0
   -9.3629   -7.5143    6.8482 O   0  0  0  0  0  0  0  0  0  0  0  0
   -8.0440   -8.9761    8.1094 N   0  0  0  0  0  0  0  0  0  0  0  0
  -10.2802  -10.1451    8.4318 H   0  0  0  0  0  0  0  0  0  0  0  0
   -8.0909   -9.8765    8.7086 H   0  0  0  0  0  0  0  0  0  0  0  0
   -6.8287   -8.3193    7.9297 C   0  0  0  0  0  0  0  0  0  0  0  0
   -6.0414   -8.7713    6.8529 C   0  0  0  0  0  0  0  0  0  0  0  0
   -4.8261   -8.2026    6.6169 C   0  0  0  0  0  0  0  0  0  0  0  0
   -4.3037   -7.1785    7.3923 C   0  0  0  0  0  0  0  0  0  0  0  0
   -5.0530   -6.7405    8.4244 C   0  0  0  0  0  0  0  0  0  0  0  0
   -6.3053   -7.3139    8.6832 C   0  0  0  0  0  0  0  0  0  0  0  0
   -2.9707   -6.6648    7.0223 C   0  0  0  0  0  0  0  0  0  0  0  0
   -2.6585   -5.5322    8.0093 C   0  0  0  0  0  0  0  0  0  0  0  0
   -1.9610   -7.7787    7.1808 C   0  0  0  0  0  0  0  0  0  0  0  0
   -2.9110   -6.0666    5.6497 C   0  0  0  0  0  0  0  0  0  0  0  0
 13 14  1  0  0  0
 14 15  1  0  0  0
 15 16  1  0  0  0
 16 17  1  0  0  0
 17 18  1  0  0  0
 18 19  1  0  0  0
 19  7  1  0  0  0
  7  8  2  0  0  0
  8  9  1  0  0  0
  9 10  2  0  0  0
 10 11  1  0  0  0
 11 12  2  0  0  0
 11  1  1  0  0  0
  1  2  2  0  0  0
  2  3  1  0  0  0
  3  4  2  0  0  0
  4 26  1  0  0  0
 26 27  1  0  0  0
 27 28  2  0  0  0
 27 29  1  0  0  0
 29 32  1  0  0  0
 32 33  2  0  0  0
 33 34  1  0  0  0
 34 35  2  0  0  0
 35 36  1  0  0  0
 36 37  2  0  0  0
 35 38  1  0  0  0
 38 39  1  0  0  0
 38 40  1  0  0  0
 38 41  1  0  0  0
  4  5  1  0  0  0
  5  6  2  0  0  0
  9 20  1  0  0  0
 20 21  1  0  0  0
 21 22  1  0  0  0
 22 23  1  0  0  0
 23 24  1  0  0  0
 24 25  1  0  0  0
 19 14  1  0  0  0
 12  7  1  0  0  0
  6  1  1  0  0  0
 25 20  1  0  0  0
 37 32  1  0  0  0
 26 30  1  0  0  0
 29 31  1  0  0  0
M  END
> <minimizedAffinity>
13.05063

> <CNNscore>
0.3318927586

> <CNNaffinity>
7.1181097031

> <CNN_VS>
2.3624491692

> <CNNaffinity_variance>
1.7958835363

$$$$
[H]c1c([H])c(N([H])C(=O)N([H])c2c([H])c([H])c(C(C([H])([H])[H])(C([H])([H])[H])C([H])([H])[H])c([H])c2[H])c([H])c([H])c1-c1nc(N2C([H])([H])C([H])([H])OC([H])([H])[C@@]2([H])C([H])([H])[H])nc(C2([H])C([H])([H])C([H])([H])OC([H])([H])C2([H])[H])n1


 41 45  0  0  0  0  0  0  0  0999 V2000
  -14.2566   -7.1536    7.8634 C   0  0  0  0  0  0  0  0  0  0  0  0
  -14.2551   -8.5171    8.0551 C   0  0  0  0  0  0  0  0  0  0  0  0
  -13.8704   -9.0723    9.2851 C   0  0  0  0  0  0  0  0  0  0  0  0
  -13.4780   -8.3264   10.3557 C   0  0  0  0  0  0  0  0  0  0  0  0
  -13.4852   -6.9260   10.1417 C   0  0  0  0  0  0  0  0  0  0  0  0
  -13.8617   -6.3916    8.9393 C   0  0  0  0  0  0  0  0  0  0  0  0
  -14.7862   -4.6570    5.2075 C   0  0  0  0  0  0  0  0  0  0  0  0
  -15.4000   -5.4310    4.2586 N   0  0  0  0  0  0  0  0  0  0  0  0
  -15.6462   -6.7264    4.4674 C   0  0  0  0  0  0  0  0  0  0  0  0
  -15.2689   -7.2509    5.6453 N   0  0  0  0  0  0  0  0  0  0  0  0
  -14.6679   -6.5482    6.6064 C   0  0  0  0  0  0  0  0  0  0  0  0
  -14.4338   -5.2499    6.3717 N   0  0  0  0  0  0  0  0  0  0  0  0
  -15.0321   -2.6071    2.7153 C   0  0  0  0  0  0  0  0  0  0  0  0
  -15.4714   -2.4800    4.1811 C   0  0  0  0  0  0  0  0  0  0  0  0
  -15.2136   -1.0473    4.5849 C   0  0  0  0  0  0  0  0  0  0  0  0
  -14.9631   -0.8932    5.9246 O   0  0  0  0  0  0  0  0  0  0  0  0
  -13.8478   -1.5541    6.4018 C   0  0  0  0  0  0  0  0  0  0  0  0
  -13.3265   -2.6145    5.4132 C   0  0  0  0  0  0  0  0  0  0  0  0
  -14.5164   -3.2916    4.9421 N   0  0  0  0  0  0  0  0  0  0  0  0
  -16.3256   -7.6291    3.5043 C   0  0  0  0  0  0  0  0  0  0  0  0
  -17.6114   -7.0898    2.9785 C   0  0  0  0  0  0  0  0  0  0  0  0
  -18.6139   -8.2216    2.8386 C   0  0  0  0  0  0  0  0  0  0  0  0
  -18.9897   -8.7547    4.0706 O   0  0  0  0  0  0  0  0  0  0  0  0
  -17.9174   -8.7726    4.9679 C   0  0  0  0  0  0  0  0  0  0  0  0
  -16.6021   -8.9300    4.2781 C   0  0  0  0  0  0  0  0  0  0  0  0
  -13.0714   -8.8247   11.6068 N   0  0  0  0  0  0  0  0  0  0  0  0
  -12.9652  -10.1369   12.0716 C   0  0  0  0  0  0  0  0  0  0  0  0
  -13.2655  -11.0734   11.2950 O   0  0  0  0  0  0  0  0  0  0  0  0
  -12.5216  -10.3722   13.3979 N   0  0  0  0  0  0  0  0  0  0  0  0
  -12.8024   -8.0779   12.3356 H   0  0  0  0  0  0  0  0  0  0  0  0
  -12.2906   -9.4872   13.9770 H   0  0  0  0  0  0  0  0  0  0  0  0
  -12.3654  -11.6364   13.9620 C   0  0  0  0  0  0  0  0  0  0  0  0
  -12.9428  -12.7026   13.2454 C   0  0  0  0  0  0  0  0  0  0  0  0
  -12.8599  -13.9713   13.7351 C   0  0  0  0  0  0  0  0  0  0  0  0
  -12.2243  -14.2849   14.9270 C   0  0  0  0  0  0  0  0  0  0  0  0
  -11.6686  -13.2687   15.6175 C   0  0  0  0  0  0  0  0  0  0  0  0
  -11.7445  -11.9569   15.1301 C   0  0  0  0  0  0  0  0  0  0  0  0
  -12.2198  -15.7027   15.3363 C   0  0  0  0  0  0  0  0  0  0  0  0
  -13.6630  -16.0385   15.7351 C   0  0  0  0  0  0  0  0  0  0  0  0
  -11.8027  -16.5471   14.1538 C   0  0  0  0  0  0  0  0  0  0  0  0
  -11.3665  -15.9849   16.5354 C   0  0  0  0  0  0  0  0  0  0  0  0
 13 14  1  0  0  0
 14 15  1  0  0  0
 15 16  1  0  0  0
 16 17  1  0  0  0
 17 18  1  0  0  0
 18 19  1  0  0  0
 19  7  1  0  0  0
  7  8  2  0  0  0
  8  9  1  0  0  0
  9 10  2  0  0  0
 10 11  1  0  0  0
 11 12  2  0  0  0
 11  1  1  0  0  0
  1  2  2  0  0  0
  2  3  1  0  0  0
  3  4  2  0  0  0
  4 26  1  0  0  0
 26 27  1  0  0  0
 27 28  2  0  0  0
 27 29  1  0  0  0
 29 32  1  0  0  0
 32 33  2  0  0  0
 33 34  1  0  0  0
 34 35  2  0  0  0
 35 36  1  0  0  0
 36 37  2  0  0  0
 35 38  1  0  0  0
 38 39  1  0  0  0
 38 40  1  0  0  0
 38 41  1  0  0  0
  4  5  1  0  0  0
  5  6  2  0  0  0
  9 20  1  0  0  0
 20 21  1  0  0  0
 21 22  1  0  0  0
 22 23  1  0  0  0
 23 24  1  0  0  0
 24 25  1  0  0  0
 19 14  1  0  0  0
 12  7  1  0  0  0
  6  1  1  0  0  0
 25 20  1  0  0  0
 37 32  1  0  0  0
 26 30  1  0  0  0
 29 31  1  0  0  0
M  END
> <minimizedAffinity>
41.94225

> <CNNscore>
0.3255792856

> <CNNaffinity>
6.5714211464

> <CNN_VS>
2.1395184994

> <CNNaffinity_variance>
0.3361310065

$$$$
[H]c1c([H])c(N([H])C(=O)N([H])c2c([H])c([H])c(C(C([H])([H])[H])(C([H])([H])[H])C([H])([H])[H])c([H])c2[H])c([H])c([H])c1-c1nc(N2C([H])([H])C([H])([H])OC([H])([H])[C@@]2([H])C([H])([H])[H])nc(C2([H])C([H])([H])C([H])([H])OC([H])([H])C2([H])[H])n1


 41 45  0  0  0  0  0  0  0  0999 V2000
  -13.4338   -8.3031    6.5769 C   0  0  0  0  0  0  0  0  0  0  0  0
  -12.9547   -9.5918    6.6515 C   0  0  0  0  0  0  0  0  0  0  0  0
  -11.6514   -9.8520    7.1016 C   0  0  0  0  0  0  0  0  0  0  0  0
  -10.7817   -8.8769    7.4881 C   0  0  0  0  0  0  0  0  0  0  0  0
  -11.2902   -7.5573    7.4053 C   0  0  0  0  0  0  0  0  0  0  0  0
  -12.5625   -7.3110    6.9653 C   0  0  0  0  0  0  0  0  0  0  0  0
  -16.2914   -6.5514    5.0494 C   0  0  0  0  0  0  0  0  0  0  0  0
  -17.2896   -7.4617    5.2756 N   0  0  0  0  0  0  0  0  0  0  0  0
  -17.0543   -8.6119    5.9112 C   0  0  0  0  0  0  0  0  0  0  0  0
  -15.7981   -8.8506    6.3237 N   0  0  0  0  0  0  0  0  0  0  0  0
  -14.7860   -8.0035    6.1324 C   0  0  0  0  0  0  0  0  0  0  0  0
  -15.0498   -6.8559    5.4929 N   0  0  0  0  0  0  0  0  0  0  0  0
  -18.8550   -4.6692    4.4505 C   0  0  0  0  0  0  0  0  0  0  0  0
  -17.4398   -4.3307    4.9408 C   0  0  0  0  0  0  0  0  0  0  0  0
  -17.0565   -3.0265    4.2818 C   0  0  0  0  0  0  0  0  0  0  0  0
  -15.7047   -2.8817    4.1006 O   0  0  0  0  0  0  0  0  0  0  0  0
  -15.1084   -3.8257    3.2871 C   0  0  0  0  0  0  0  0  0  0  0  0
  -16.0136   -5.0490    3.0469 C   0  0  0  0  0  0  0  0  0  0  0  0
  -16.5712   -5.3525    4.3481 N   0  0  0  0  0  0  0  0  0  0  0  0
  -18.0804   -9.6401    6.2170 C   0  0  0  0  0  0  0  0  0  0  0  0
  -19.2507   -9.6152    5.2947 C   0  0  0  0  0  0  0  0  0  0  0  0
  -20.5180   -9.9041    6.0795 C   0  0  0  0  0  0  0  0  0  0  0  0
  -20.8248   -8.8909    6.9864 O   0  0  0  0  0  0  0  0  0  0  0  0
  -19.6686   -8.3435    7.5511 C   0  0  0  0  0  0  0  0  0  0  0  0
  -18.5583   -9.3378    7.6479 C   0  0  0  0  0  0  0  0  0  0  0  0
   -9.4629   -9.0745    7.9361 N   0  0  0  0  0  0  0  0  0  0  0  0
   -8.2862   -8.3888    7.6286 C   0  0  0  0  0  0  0  0  0  0  0  0
   -8.3457   -7.4265    6.8281 O   0  0  0  0  0  0  0  0  0  0  0  0
   -7.0666   -8.7950    8.2275 N   0  0  0  0  0  0  0  0  0  0  0  0
   -9.3271   -9.8920    8.6249 H   0  0  0  0  0  0  0  0  0  0  0  0
   -7.1360   -9.6385    8.9025 H   0  0  0  0  0  0  0  0  0  0  0  0
   -5.8377   -8.1778    8.0051 C   0  0  0  0  0  0  0  0  0  0  0  0
   -5.6634   -6.9214    8.6174 C   0  0  0  0  0  0  0  0  0  0  0  0
   -4.5014   -6.2342    8.4345 C   0  0  0  0  0  0  0  0  0  0  0  0
   -3.4519   -6.7092    7.6625 C   0  0  0  0  0  0  0  0  0  0  0  0
   -3.6120   -7.9120    7.0743 C   0  0  0  0  0  0  0  0  0  0  0  0
   -4.8008   -8.6332    7.2501 C   0  0  0  0  0  0  0  0  0  0  0  0
   -2.2564   -5.8516    7.5482 C   0  0  0  0  0  0  0  0  0  0  0  0
   -1.5381   -6.2863    6.2639 C   0  0  0  0  0  0  0  0  0  0  0  0
   -2.7024   -4.4123    7.4267 C   0  0  0  0  0  0  0  0  0  0  0  0
   -1.2762   -6.0255    8.6682 C   0  0  0  0  0  0  0  0  0  0  0  0
 13 14  1  0  0  0
 14 15  1  0  0  0
 15 16  1  0  0  0
 16 17  1  0  0  0
 17 18  1  0  0  0
 18 19  1  0  0  0
 19  7  1  0  0  0
  7  8  2  0  0  0
  8  9  1  0  0  0
  9 10  2  0  0  0
 10 11  1  0  0  0
 11 12  2  0  0  0
 11  1  1  0  0  0
  1  2  2  0  0  0
  2  3  1  0  0  0
  3  4  2  0  0  0
  4 26  1  0  0  0
 26 27  1  0  0  0
 27 28  2  0  0  0
 27 29  1  0  0  0
 29 32  1  0  0  0
 32 33  2  0  0  0
 33 34  1  0  0  0
 34 35  2  0  0  0
 35 36  1  0  0  0
 36 37  2  0  0  0
 35 38  1  0  0  0
 38 39  1  0  0  0
 38 40  1  0  0  0
 38 41  1  0  0  0
  4  5  1  0  0  0
  5  6  2  0  0  0
  9 20  1  0  0  0
 20 21  1  0  0  0
 21 22  1  0  0  0
 22 23  1  0  0  0
 23 24  1  0  0  0
 24 25  1  0  0  0
 19 14  1  0  0  0
 12  7  1  0  0  0
  6  1  1  0  0  0
 25 20  1  0  0  0
 37 32  1  0  0  0
 26 30  1  0  0  0
 29 31  1  0  0  0
M  END
> <minimizedAffinity>
11.01316

> <CNNscore>
0.2928106487

> <CNNaffinity>
7.0707116127

> <CNN_VS>
2.0703797340

> <CNNaffinity_variance>
1.8969122171

$$$$
[H]N=C(N([H])[H])N([H])C([H])([H])C([H])([H])C([H])([H])[C@@]([H])(C(=O)O[H])N([H])C(=O)[C@@]([H])(N([H])C(=O)[C@]([H])(N([H])C(=O)[C@@]([H])(N([H])[H])C([H])([H])c1c(C([H])([H])[H])c([H])c(O[H])c([H])c1C([H])([H])[H])C([H])([H])C([H])([H])C([H])([H])N([H])C(=N[H])N([H])[H])C([H])([H])c1c([H])c([H])c([H])c([H])c1[H]


 63 64  0  0  0  0  0  0  0  0999 V2000
   -9.8549   -8.7569    7.1610 C   0  0  0  0  0  0  0  0  0  0  0  0
   -8.8735   -9.2388    7.8754 O   0  0  0  0  0  0  0  0  0  0  0  0
  -10.0285   -7.3799    7.1595 N   0  0  0  0  0  0  0  0  0  0  0  0
  -10.7317   -6.8627    6.5973 H   0  0  0  0  0  0  0  0  0  0  0  0
   -9.1304   -6.5338    7.9620 C   0  0  0  0  0  0  0  0  0  0  0  0
   -7.7436   -6.6384    7.5823 C   0  0  0  0  0  0  0  0  0  0  0  0
   -7.4611   -6.3266    6.3642 O   0  0  0  0  0  0  0  0  0  0  0  0
   -6.6395   -7.0326    8.3755 N   0  0  0  0  0  0  0  0  0  0  0  0
   -6.8417   -7.3221    9.3804 H   0  0  0  0  0  0  0  0  0  0  0  0
   -5.2985   -7.0641    7.9139 C   0  0  0  0  0  0  0  0  0  0  0  0
   -4.6158   -5.7375    8.0649 C   0  0  0  0  0  0  0  0  0  0  0  0
   -4.4191   -5.2129    9.3268 O   0  0  0  0  0  0  0  0  0  0  0  0
   -4.2125   -5.0799    7.0745 O   0  0  0  0  0  0  0  0  0  0  0  0
   -4.9506   -5.5803   10.0943 H   0  0  0  0  0  0  0  0  0  0  0  0
   -5.1266   -7.6374    6.5685 C   0  0  0  0  0  0  0  0  0  0  0  0
   -4.1942   -8.8131    6.4607 C   0  0  0  0  0  0  0  0  0  0  0  0
   -2.8094   -8.3828    6.8451 C   0  0  0  0  0  0  0  0  0  0  0  0
   -1.8048   -9.3395    6.4077 N   0  0  0  0  0  0  0  0  0  0  0  0
   -1.3763   -9.9949    7.0789 H   0  0  0  0  0  0  0  0  0  0  0  0
   -1.4280   -9.3534    5.0478 C   0  0  0  0  0  0  0  0  0  0  0  0
   -1.4258  -10.5470    4.2885 N   0  0  0  0  0  0  0  0  0  0  0  0
   -1.0615   -8.2580    4.4333 N   0  0  0  0  0  0  0  0  0  0  0  0
   -0.6658  -10.7169    3.6145 H   0  0  0  0  0  0  0  0  0  0  0  0
   -2.1795  -11.2365    4.4117 H   0  0  0  0  0  0  0  0  0  0  0  0
   -0.7860   -8.3030    3.4145 H   0  0  0  0  0  0  0  0  0  0  0  0
   -9.5423   -6.6698    9.3780 C   0  0  0  0  0  0  0  0  0  0  0  0
  -10.9684   -6.4962    9.6717 C   0  0  0  0  0  0  0  0  0  0  0  0
  -11.4637   -5.2318    9.9785 C   0  0  0  0  0  0  0  0  0  0  0  0
  -12.7761   -5.0100   10.2825 C   0  0  0  0  0  0  0  0  0  0  0  0
  -13.6570   -6.0600   10.2917 C   0  0  0  0  0  0  0  0  0  0  0  0
  -13.2196   -7.3167    9.9983 C   0  0  0  0  0  0  0  0  0  0  0  0
  -11.8753   -7.5219    9.6906 C   0  0  0  0  0  0  0  0  0  0  0  0
  -10.6090   -9.8334    6.4577 C   0  0  0  0  0  0  0  0  0  0  0  0
  -13.0856   -9.4106    6.0708 C   0  0  0  0  0  0  0  0  0  0  0  0
  -12.9110   -9.2996    4.8466 O   0  0  0  0  0  0  0  0  0  0  0  0
  -12.0157   -9.6714    6.9343 N   0  0  0  0  0  0  0  0  0  0  0  0
  -12.1441   -9.7623    7.9515 H   0  0  0  0  0  0  0  0  0  0  0  0
  -14.4597   -9.2695    6.6874 C   0  0  0  0  0  0  0  0  0  0  0  0
  -14.4692  -10.1362    7.8172 N   0  0  0  0  0  0  0  0  0  0  0  0
  -13.5584  -10.3948    8.2123 H   0  0  0  0  0  0  0  0  0  0  0  0
  -15.1651  -10.9003    7.7731 H   0  0  0  0  0  0  0  0  0  0  0  0
  -14.6234   -7.8022    6.9667 C   0  0  0  0  0  0  0  0  0  0  0  0
  -13.9456   -6.1818    4.5567 C   0  0  0  0  0  0  0  0  0  0  0  0
  -15.3368   -6.3441    5.0868 C   0  0  0  0  0  0  0  0  0  0  0  0
  -16.3805   -5.6958    4.4088 C   0  0  0  0  0  0  0  0  0  0  0  0
  -17.6799   -5.8444    4.8191 C   0  0  0  0  0  0  0  0  0  0  0  0
  -18.7001   -5.2034    4.1460 O   0  0  0  0  0  0  0  0  0  0  0  0
  -17.9744   -6.6289    5.8979 C   0  0  0  0  0  0  0  0  0  0  0  0
  -16.9899   -7.2637    6.5692 C   0  0  0  0  0  0  0  0  0  0  0  0
  -17.3242   -8.1366    7.7461 C   0  0  0  0  0  0  0  0  0  0  0  0
  -15.6673   -7.1236    6.1677 C   0  0  0  0  0  0  0  0  0  0  0  0
  -19.6671   -5.2692    4.3921 H   0  0  0  0  0  0  0  0  0  0  0  0
  -10.0666  -11.1662    6.7153 C   0  0  0  0  0  0  0  0  0  0  0  0
   -9.5807  -11.8806    5.5061 C   0  0  0  0  0  0  0  0  0  0  0  0
   -8.8202  -13.1433    5.9908 C   0  0  0  0  0  0  0  0  0  0  0  0
   -9.2892  -14.2220    5.1276 N   0  0  0  0  0  0  0  0  0  0  0  0
  -10.2874  -14.4721    5.1786 H   0  0  0  0  0  0  0  0  0  0  0  0
   -8.3685  -14.8751    4.2657 C   0  0  0  0  0  0  0  0  0  0  0  0
   -7.7131  -16.0360    4.7311 N   0  0  0  0  0  0  0  0  0  0  0  0
   -8.1192  -14.4414    3.0807 N   0  0  0  0  0  0  0  0  0  0  0  0
   -6.7142  -16.0106    4.9618 H   0  0  0  0  0  0  0  0  0  0  0  0
   -8.2574  -16.9166    4.8364 H   0  0  0  0  0  0  0  0  0  0  0  0
   -8.5466  -13.6113    2.6611 H   0  0  0  0  0  0  0  0  0  0  0  0
 43 44  1  0  0  0
 44 45  2  0  0  0
 45 46  1  0  0  0
 46 47  1  0  0  0
 46 48  2  0  0  0
 48 49  1  0  0  0
 49 50  1  0  0  0
 49 51  2  0  0  0
 51 42  1  0  0  0
 42 38  1  0  0  0
 38 39  1  0  0  0
 38 34  1  0  0  0
 34 35  2  0  0  0
 34 36  1  0  0  0
 36 33  1  0  0  0
 33 53  1  0  0  0
 53 54  1  0  0  0
 54 55  1  0  0  0
 55 56  1  0  0  0
 56 58  1  0  0  0
 58 59  1  0  0  0
 58 60  2  0  0  0
 33  1  1  0  0  0
  1  2  2  0  0  0
  1  3  1  0  0  0
  3  5  1  0  0  0
  5 26  1  0  0  0
 26 27  1  0  0  0
 27 28  2  0  0  0
 28 29  1  0  0  0
 29 30  2  0  0  0
 30 31  1  0  0  0
 31 32  2  0  0  0
  5  6  1  0  0  0
  6  7  2  0  0  0
  6  8  1  0  0  0
  8 10  1  0  0  0
 10 15  1  0  0  0
 15 16  1  0  0  0
 16 17  1  0  0  0
 17 18  1  0  0  0
 18 20  1  0  0  0
 20 21  1  0  0  0
 20 22  2  0  0  0
 10 11  1  0  0  0
 11 12  1  0  0  0
 11 13  2  0  0  0
 51 44  1  0  0  0
 32 27  1  0  0  0
 47 52  1  0  0  0
 39 40  1  0  0  0
 39 41  1  0  0  0
 36 37  1  0  0  0
 56 57  1  0  0  0
 59 61  1  0  0  0
 59 62  1  0  0  0
 60 63  1  0  0  0
  3  4  1  0  0  0
  8  9  1  0  0  0
 18 19  1  0  0  0
 21 23  1  0  0  0
 21 24  1  0  0  0
 22 25  1  0  0  0
 12 14  1  0  0  0
M  END
> <minimizedAffinity>
-2.66640

> <CNNscore>
0.5875142813

> <CNNaffinity>
7.6201004982

> <CNN_VS>
4.4769177437

> <CNNaffinity_variance>
0.1605357230

$$$$
[H]N=C(N([H])[H])N([H])C([H])([H])C([H])([H])C([H])([H])[C@@]([H])(C(=O)O[H])N([H])C(=O)[C@@]([H])(N([H])C(=O)[C@]([H])(N([H])C(=O)[C@@]([H])(N([H])[H])C([H])([H])c1c(C([H])([H])[H])c([H])c(O[H])c([H])c1C([H])([H])[H])C([H])([H])C([H])([H])C([H])([H])N([H])C(=N[H])N([H])[H])C([H])([H])c1c([H])c([H])c([H])c([H])c1[H]


 63 64  0  0  0  0  0  0  0  0999 V2000
   -9.7917   -8.9645    7.0815 C   0  0  0  0  0  0  0  0  0  0  0  0
   -8.8520   -9.3829    7.8864 O   0  0  0  0  0  0  0  0  0  0  0  0
   -9.9442   -7.5928    6.9352 N   0  0  0  0  0  0  0  0  0  0  0  0
  -10.6126   -7.1270    6.2915 H   0  0  0  0  0  0  0  0  0  0  0  0
   -9.0719   -6.6802    7.6919 C   0  0  0  0  0  0  0  0  0  0  0  0
   -7.6998   -6.6913    7.2497 C   0  0  0  0  0  0  0  0  0  0  0  0
   -7.4960   -7.0641    6.0330 O   0  0  0  0  0  0  0  0  0  0  0  0
   -6.5367   -6.3371    7.9746 N   0  0  0  0  0  0  0  0  0  0  0  0
   -6.6670   -6.0492    8.9918 H   0  0  0  0  0  0  0  0  0  0  0  0
   -5.2266   -6.3447    7.4310 C   0  0  0  0  0  0  0  0  0  0  0  0
   -4.1794   -6.0840    8.4722 C   0  0  0  0  0  0  0  0  0  0  0  0
   -4.3633   -5.0613    9.3814 O   0  0  0  0  0  0  0  0  0  0  0  0
   -3.1304   -6.7695    8.5476 O   0  0  0  0  0  0  0  0  0  0  0  0
   -5.0449   -4.3521    9.1841 H   0  0  0  0  0  0  0  0  0  0  0  0
   -5.0544   -5.5038    6.2344 C   0  0  0  0  0  0  0  0  0  0  0  0
   -3.7354   -5.6242    5.5212 C   0  0  0  0  0  0  0  0  0  0  0  0
   -3.2226   -4.2525    5.1950 C   0  0  0  0  0  0  0  0  0  0  0  0
   -1.9455   -4.3036    4.5007 N   0  0  0  0  0  0  0  0  0  0  0  0
   -1.0683   -4.0863    4.9979 H   0  0  0  0  0  0  0  0  0  0  0  0
   -1.9298   -4.6557    3.1343 C   0  0  0  0  0  0  0  0  0  0  0  0
   -1.4165   -5.8974    2.6917 N   0  0  0  0  0  0  0  0  0  0  0  0
   -2.3894   -3.8426    2.2180 N   0  0  0  0  0  0  0  0  0  0  0  0
   -0.8600   -5.9356    1.8258 H   0  0  0  0  0  0  0  0  0  0  0  0
   -1.6003   -6.7526    3.2334 H   0  0  0  0  0  0  0  0  0  0  0  0
   -2.3636   -4.1372    1.2039 H   0  0  0  0  0  0  0  0  0  0  0  0
   -9.4087   -6.8335    9.1258 C   0  0  0  0  0  0  0  0  0  0  0  0
  -10.7943   -6.5508    9.5138 C   0  0  0  0  0  0  0  0  0  0  0  0
  -11.1759   -5.2476    9.8204 C   0  0  0  0  0  0  0  0  0  0  0  0
  -12.4442   -4.9249   10.2093 C   0  0  0  0  0  0  0  0  0  0  0  0
  -13.3940   -5.9081   10.3082 C   0  0  0  0  0  0  0  0  0  0  0  0
  -13.0686   -7.1991   10.0187 C   0  0  0  0  0  0  0  0  0  0  0  0
  -11.7676   -7.5077    9.6234 C   0  0  0  0  0  0  0  0  0  0  0  0
  -10.5283  -10.0980    6.4532 C   0  0  0  0  0  0  0  0  0  0  0  0
  -13.0389   -9.7193    6.3277 C   0  0  0  0  0  0  0  0  0  0  0  0
  -12.9757   -9.4697    5.1131 O   0  0  0  0  0  0  0  0  0  0  0  0
  -11.8910  -10.0364    7.0627 N   0  0  0  0  0  0  0  0  0  0  0  0
  -11.9270  -10.2421    8.0705 H   0  0  0  0  0  0  0  0  0  0  0  0
  -14.3563   -9.6929    7.0708 C   0  0  0  0  0  0  0  0  0  0  0  0
  -14.2729  -10.7270    8.0461 N   0  0  0  0  0  0  0  0  0  0  0  0
  -13.3327  -11.0344    8.3183 H   0  0  0  0  0  0  0  0  0  0  0  0
  -14.9715  -11.4824    7.9396 H   0  0  0  0  0  0  0  0  0  0  0  0
  -14.4931   -8.2899    7.5913 C   0  0  0  0  0  0  0  0  0  0  0  0
  -17.4694   -8.2969    7.4041 C   0  0  0  0  0  0  0  0  0  0  0  0
  -16.5859   -7.4023    6.5904 C   0  0  0  0  0  0  0  0  0  0  0  0
  -17.1955   -6.5167    5.6887 C   0  0  0  0  0  0  0  0  0  0  0  0
  -16.4420   -5.6414    4.9503 C   0  0  0  0  0  0  0  0  0  0  0  0
  -17.0501   -4.7736    4.0660 O   0  0  0  0  0  0  0  0  0  0  0  0
  -15.0827   -5.6219    5.0850 C   0  0  0  0  0  0  0  0  0  0  0  0
  -14.4699   -6.4634    5.9446 C   0  0  0  0  0  0  0  0  0  0  0  0
  -12.9752   -6.4251    6.0973 C   0  0  0  0  0  0  0  0  0  0  0  0
  -15.2180   -7.3576    6.7002 C   0  0  0  0  0  0  0  0  0  0  0  0
  -16.5606   -4.1113    3.4987 H   0  0  0  0  0  0  0  0  0  0  0  0
   -9.8671  -11.3857    6.6567 C   0  0  0  0  0  0  0  0  0  0  0  0
   -9.3921  -12.0408    5.4102 C   0  0  0  0  0  0  0  0  0  0  0  0
   -8.8856  -13.4556    5.7970 C   0  0  0  0  0  0  0  0  0  0  0  0
   -9.1534  -14.2862    4.6277 N   0  0  0  0  0  0  0  0  0  0  0  0
  -10.1225  -14.3187    4.2793 H   0  0  0  0  0  0  0  0  0  0  0  0
   -8.0875  -15.0056    4.0250 C   0  0  0  0  0  0  0  0  0  0  0  0
   -7.5406  -16.1090    4.7158 N   0  0  0  0  0  0  0  0  0  0  0  0
   -7.6119  -14.6822    2.8744 N   0  0  0  0  0  0  0  0  0  0  0  0
   -6.6049  -16.0493    5.1310 H   0  0  0  0  0  0  0  0  0  0  0  0
   -8.1000  -16.9827    4.7974 H   0  0  0  0  0  0  0  0  0  0  0  0
   -7.9457  -13.9008    2.3036 H   0  0  0  0  0  0  0  0  0  0  0  0
 43 44  1  0  0  0
 44 45  2  0  0  0
 45 46  1  0  0  0
 46 47  1  0  0  0
 46 48  2  0  0  0
 48 49  1  0  0  0
 49 50  1  0  0  0
 49 51  2  0  0  0
 51 42  1  0  0  0
 42 38  1  0  0  0
 38 39  1  0  0  0
 38 34  1  0  0  0
 34 35  2  0  0  0
 34 36  1  0  0  0
 36 33  1  0  0  0
 33 53  1  0  0  0
 53 54  1  0  0  0
 54 55  1  0  0  0
 55 56  1  0  0  0
 56 58  1  0  0  0
 58 59  1  0  0  0
 58 60  2  0  0  0
 33  1  1  0  0  0
  1  2  2  0  0  0
  1  3  1  0  0  0
  3  5  1  0  0  0
  5 26  1  0  0  0
 26 27  1  0  0  0
 27 28  2  0  0  0
 28 29  1  0  0  0
 29 30  2  0  0  0
 30 31  1  0  0  0
 31 32  2  0  0  0
  5  6  1  0  0  0
  6  7  2  0  0  0
  6  8  1  0  0  0
  8 10  1  0  0  0
 10 15  1  0  0  0
 15 16  1  0  0  0
 16 17  1  0  0  0
 17 18  1  0  0  0
 18 20  1  0  0  0
 20 21  1  0  0  0
 20 22  2  0  0  0
 10 11  1  0  0  0
 11 12  1  0  0  0
 11 13  2  0  0  0
 51 44  1  0  0  0
 32 27  1  0  0  0
 47 52  1  0  0  0
 39 40  1  0  0  0
 39 41  1  0  0  0
 36 37  1  0  0  0
 56 57  1  0  0  0
 59 61  1  0  0  0
 59 62  1  0  0  0
 60 63  1  0  0  0
  3  4  1  0  0  0
  8  9  1  0  0  0
 18 19  1  0  0  0
 21 23  1  0  0  0
 21 24  1  0  0  0
 22 25  1  0  0  0
 12 14  1  0  0  0
M  END
> <minimizedAffinity>
-2.57712

> <CNNscore>
0.5576755404

> <CNNaffinity>
7.6708388329

> <CNN_VS>
4.2778391838

> <CNNaffinity_variance>
0.2176672220

$$$$
[H]N=C(N([H])[H])N([H])C([H])([H])C([H])([H])C([H])([H])[C@@]([H])(C(=O)O[H])N([H])C(=O)[C@@]([H])(N([H])C(=O)[C@]([H])(N([H])C(=O)[C@@]([H])(N([H])[H])C([H])([H])c1c(C([H])([H])[H])c([H])c(O[H])c([H])c1C([H])([H])[H])C([H])([H])C([H])([H])C([H])([H])N([H])C(=N[H])N([H])[H])C([H])([H])c1c([H])c([H])c([H])c([H])c1[H]


 63 64  0  0  0  0  0  0  0  0999 V2000
   -9.4399   -9.4986    7.1343 C   0  0  0  0  0  0  0  0  0  0  0  0
   -9.1404  -10.0748    8.2674 O   0  0  0  0  0  0  0  0  0  0  0  0
   -9.2831   -8.1218    7.0561 N   0  0  0  0  0  0  0  0  0  0  0  0
   -9.4332   -7.5464    6.2049 H   0  0  0  0  0  0  0  0  0  0  0  0
   -8.8131   -7.3763    8.2350 C   0  0  0  0  0  0  0  0  0  0  0  0
   -7.3777   -7.3424    8.3643 C   0  0  0  0  0  0  0  0  0  0  0  0
   -6.8482   -8.2704    9.0848 O   0  0  0  0  0  0  0  0  0  0  0  0
   -6.4625   -6.4247    7.7951 N   0  0  0  0  0  0  0  0  0  0  0  0
   -6.8691   -5.6294    7.2149 H   0  0  0  0  0  0  0  0  0  0  0  0
   -5.0549   -6.5030    7.9524 C   0  0  0  0  0  0  0  0  0  0  0  0
   -4.5447   -5.5362    8.9790 C   0  0  0  0  0  0  0  0  0  0  0  0
   -3.6329   -4.5680    8.6084 O   0  0  0  0  0  0  0  0  0  0  0  0
   -4.9209   -5.5763   10.1760 O   0  0  0  0  0  0  0  0  0  0  0  0
   -3.1311   -4.6771    7.7466 H   0  0  0  0  0  0  0  0  0  0  0  0
   -4.2931   -6.4437    6.6936 C   0  0  0  0  0  0  0  0  0  0  0  0
   -4.8687   -5.5754    5.6082 C   0  0  0  0  0  0  0  0  0  0  0  0
   -3.9034   -4.4705    5.2948 C   0  0  0  0  0  0  0  0  0  0  0  0
   -4.4916   -3.4716    4.4162 N   0  0  0  0  0  0  0  0  0  0  0  0
   -5.1819   -3.7435    3.6998 H   0  0  0  0  0  0  0  0  0  0  0  0
   -4.0992   -2.1240    4.5626 C   0  0  0  0  0  0  0  0  0  0  0  0
   -4.8566   -1.2077    5.3294 N   0  0  0  0  0  0  0  0  0  0  0  0
   -3.0155   -1.6660    3.9902 N   0  0  0  0  0  0  0  0  0  0  0  0
   -4.9756   -0.2419    4.9918 H   0  0  0  0  0  0  0  0  0  0  0  0
   -5.2829   -1.5079    6.2164 H   0  0  0  0  0  0  0  0  0  0  0  0
   -2.7498   -0.6520    4.1205 H   0  0  0  0  0  0  0  0  0  0  0  0
   -9.6693   -7.7696    9.3775 C   0  0  0  0  0  0  0  0  0  0  0  0
  -10.9112   -7.0127    9.5650 C   0  0  0  0  0  0  0  0  0  0  0  0
  -12.1375   -7.6695    9.5132 C   0  0  0  0  0  0  0  0  0  0  0  0
  -13.3280   -7.0169    9.6577 C   0  0  0  0  0  0  0  0  0  0  0  0
  -13.3379   -5.6618    9.8626 C   0  0  0  0  0  0  0  0  0  0  0  0
  -12.1629   -4.9744    9.9208 C   0  0  0  0  0  0  0  0  0  0  0  0
  -10.9579   -5.6598    9.7706 C   0  0  0  0  0  0  0  0  0  0  0  0
   -9.8973  -10.4852    6.1147 C   0  0  0  0  0  0  0  0  0  0  0  0
  -12.1724   -9.3836    6.3839 C   0  0  0  0  0  0  0  0  0  0  0  0
  -11.6684   -8.2500    6.3322 O   0  0  0  0  0  0  0  0  0  0  0  0
  -11.3807  -10.5333    6.2861 N   0  0  0  0  0  0  0  0  0  0  0  0
  -11.7834  -11.4795    6.3309 H   0  0  0  0  0  0  0  0  0  0  0  0
  -13.6629   -9.5768    6.5550 C   0  0  0  0  0  0  0  0  0  0  0  0
  -13.8259  -10.2663    7.7902 N   0  0  0  0  0  0  0  0  0  0  0  0
  -13.0564  -10.1985    8.4654 H   0  0  0  0  0  0  0  0  0  0  0  0
  -14.2647  -11.1998    7.7123 H   0  0  0  0  0  0  0  0  0  0  0  0
  -14.2563   -8.1987    6.4732 C   0  0  0  0  0  0  0  0  0  0  0  0
  -16.6984   -7.8331    8.1453 C   0  0  0  0  0  0  0  0  0  0  0  0
  -16.7258   -8.0078    6.6581 C   0  0  0  0  0  0  0  0  0  0  0  0
  -17.9735   -7.9982    6.0161 C   0  0  0  0  0  0  0  0  0  0  0  0
  -18.0594   -8.1073    4.6523 C   0  0  0  0  0  0  0  0  0  0  0  0
  -19.2908   -8.0965    4.0292 O   0  0  0  0  0  0  0  0  0  0  0  0
  -16.9256   -8.2271    3.8999 C   0  0  0  0  0  0  0  0  0  0  0  0
  -15.7120   -8.2399    4.4915 C   0  0  0  0  0  0  0  0  0  0  0  0
  -14.4690   -8.3574    3.6549 C   0  0  0  0  0  0  0  0  0  0  0  0
  -15.6065   -8.1313    5.8725 C   0  0  0  0  0  0  0  0  0  0  0  0
  -19.4237   -8.1717    3.0409 H   0  0  0  0  0  0  0  0  0  0  0  0
   -9.2603  -11.7922    6.2654 C   0  0  0  0  0  0  0  0  0  0  0  0
   -8.9331  -12.4721    4.9850 C   0  0  0  0  0  0  0  0  0  0  0  0
   -8.9444  -13.9996    5.2579 C   0  0  0  0  0  0  0  0  0  0  0  0
   -8.4184  -14.6055    4.0393 N   0  0  0  0  0  0  0  0  0  0  0  0
   -8.6813  -14.1736    3.1417 H   0  0  0  0  0  0  0  0  0  0  0  0
   -7.5794  -15.7475    4.1349 C   0  0  0  0  0  0  0  0  0  0  0  0
   -6.5897  -15.9441    3.1471 N   0  0  0  0  0  0  0  0  0  0  0  0
   -7.6953  -16.6000    5.0911 N   0  0  0  0  0  0  0  0  0  0  0  0
   -6.6903  -16.6927    2.4536 H   0  0  0  0  0  0  0  0  0  0  0  0
   -5.7576  -15.3192    3.1331 H   0  0  0  0  0  0  0  0  0  0  0  0
   -8.3812  -16.5379    5.8485 H   0  0  0  0  0  0  0  0  0  0  0  0
 43 44  1  0  0  0
 44 45  2  0  0  0
 45 46  1  0  0  0
 46 47  1  0  0  0
 46 48  2  0  0  0
 48 49  1  0  0  0
 49 50  1  0  0  0
 49 51  2  0  0  0
 51 42  1  0  0  0
 42 38  1  0  0  0
 38 39  1  0  0  0
 38 34  1  0  0  0
 34 35  2  0  0  0
 34 36  1  0  0  0
 36 33  1  0  0  0
 33 53  1  0  0  0
 53 54  1  0  0  0
 54 55  1  0  0  0
 55 56  1  0  0  0
 56 58  1  0  0  0
 58 59  1  0  0  0
 58 60  2  0  0  0
 33  1  1  0  0  0
  1  2  2  0  0  0
  1  3  1  0  0  0
  3  5  1  0  0  0
  5 26  1  0  0  0
 26 27  1  0  0  0
 27 28  2  0  0  0
 28 29  1  0  0  0
 29 30  2  0  0  0
 30 31  1  0  0  0
 31 32  2  0  0  0
  5  6  1  0  0  0
  6  7  2  0  0  0
  6  8  1  0  0  0
  8 10  1  0  0  0
 10 15  1  0  0  0
 15 16  1  0  0  0
 16 17  1  0  0  0
 17 18  1  0  0  0
 18 20  1  0  0  0
 20 21  1  0  0  0
 20 22  2  0  0  0
 10 11  1  0  0  0
 11 12  1  0  0  0
 11 13  2  0  0  0
 51 44  1  0  0  0
 32 27  1  0  0  0
 47 52  1  0  0  0
 39 40  1  0  0  0
 39 41  1  0  0  0
 36 37  1  0  0  0
 56 57  1  0  0  0
 59 61  1  0  0  0
 59 62  1  0  0  0
 60 63  1  0  0  0
  3  4  1  0  0  0
  8  9  1  0  0  0
 18 19  1  0  0  0
 21 23  1  0  0  0
 21 24  1  0  0  0
 22 25  1  0  0  0
 12 14  1  0  0  0
M  END
> <minimizedAffinity>
-2.13774

> <CNNscore>
0.5496577621

> <CNNaffinity>
7.7035422325

> <CNN_VS>
4.2343115807

> <CNNaffinity_variance>
0.3771513104

$$$$
[H]N=C(N([H])[H])N([H])C([H])([H])C([H])([H])C([H])([H])[C@@]([H])(C(=O)O[H])N([H])C(=O)[C@@]([H])(N([H])C(=O)[C@]([H])(N([H])C(=O)[C@@]([H])(N([H])[H])C([H])([H])c1c(C([H])([H])[H])c([H])c(O[H])c([H])c1C([H])([H])[H])C([H])([H])C([H])([H])C([H])([H])N([H])C(=N[H])N([H])[H])C([H])([H])c1c([H])c([H])c([H])c([H])c1[H]


 63 64  0  0  0  0  0  0  0  0999 V2000
  -12.0135   -7.3997    6.7108 C   0  0  0  0  0  0  0  0  0  0  0  0
  -12.4845   -6.2841    7.1998 O   0  0  0  0  0  0  0  0  0  0  0  0
  -10.6843   -7.7015    6.9722 N   0  0  0  0  0  0  0  0  0  0  0  0
  -10.1989   -8.5751    6.6906 H   0  0  0  0  0  0  0  0  0  0  0  0
   -9.8674   -6.7628    7.7584 C   0  0  0  0  0  0  0  0  0  0  0  0
   -8.5426   -6.5623    7.2265 C   0  0  0  0  0  0  0  0  0  0  0  0
   -8.4686   -6.2865    5.9698 O   0  0  0  0  0  0  0  0  0  0  0  0
   -7.3018   -6.6197    7.9054 N   0  0  0  0  0  0  0  0  0  0  0  0
   -7.3251   -6.8712    8.9401 H   0  0  0  0  0  0  0  0  0  0  0  0
   -6.0473   -6.3657    7.2939 C   0  0  0  0  0  0  0  0  0  0  0  0
   -5.3213   -7.6301    6.9433 C   0  0  0  0  0  0  0  0  0  0  0  0
   -4.0325   -7.5615    6.4529 O   0  0  0  0  0  0  0  0  0  0  0  0
   -5.8491   -8.7608    7.0812 O   0  0  0  0  0  0  0  0  0  0  0  0
   -3.6945   -6.6874    6.0948 H   0  0  0  0  0  0  0  0  0  0  0  0
   -5.1950   -5.4079    8.0183 C   0  0  0  0  0  0  0  0  0  0  0  0
   -4.2311   -5.9953    9.0128 C   0  0  0  0  0  0  0  0  0  0  0  0
   -3.8642   -4.9488   10.0233 C   0  0  0  0  0  0  0  0  0  0  0  0
   -3.8660   -5.4803   11.3773 N   0  0  0  0  0  0  0  0  0  0  0  0
   -3.1267   -6.1290   11.6877 H   0  0  0  0  0  0  0  0  0  0  0  0
   -4.8984   -5.0915   12.2573 C   0  0  0  0  0  0  0  0  0  0  0  0
   -4.7512   -3.9948   13.1387 N   0  0  0  0  0  0  0  0  0  0  0  0
   -6.0371   -5.7347   12.2947 N   0  0  0  0  0  0  0  0  0  0  0  0
   -5.1279   -4.0598   14.0950 H   0  0  0  0  0  0  0  0  0  0  0  0
   -4.2713   -3.1414   12.8224 H   0  0  0  0  0  0  0  0  0  0  0  0
   -6.7896   -5.4173   12.9648 H   0  0  0  0  0  0  0  0  0  0  0  0
  -10.0699   -7.0902    9.1884 C   0  0  0  0  0  0  0  0  0  0  0  0
  -11.2519   -6.5145    9.8379 C   0  0  0  0  0  0  0  0  0  0  0  0
  -12.2956   -7.3442   10.2384 C   0  0  0  0  0  0  0  0  0  0  0  0
  -13.4307   -6.8659   10.8274 C   0  0  0  0  0  0  0  0  0  0  0  0
  -13.5678   -5.5191   11.0415 C   0  0  0  0  0  0  0  0  0  0  0  0
  -12.5734   -4.6665   10.6665 C   0  0  0  0  0  0  0  0  0  0  0  0
  -11.4222   -5.1752   10.0664 C   0  0  0  0  0  0  0  0  0  0  0  0
  -13.0508   -8.1529    5.9500 C   0  0  0  0  0  0  0  0  0  0  0  0
  -14.1034   -6.2281    4.6658 C   0  0  0  0  0  0  0  0  0  0  0  0
  -13.1533   -6.1954    3.8673 O   0  0  0  0  0  0  0  0  0  0  0  0
  -14.1360   -7.1532    5.7153 N   0  0  0  0  0  0  0  0  0  0  0  0
  -14.9148   -7.1901    6.3872 H   0  0  0  0  0  0  0  0  0  0  0  0
  -15.2694   -5.2721    4.5437 C   0  0  0  0  0  0  0  0  0  0  0  0
  -14.7001   -4.0015    4.2453 N   0  0  0  0  0  0  0  0  0  0  0  0
  -13.7589   -3.9982    3.8372 H   0  0  0  0  0  0  0  0  0  0  0  0
  -14.8776   -3.2685    4.9533 H   0  0  0  0  0  0  0  0  0  0  0  0
  -16.1662   -5.8678    3.4954 C   0  0  0  0  0  0  0  0  0  0  0  0
  -15.5067   -8.7761    3.4922 C   0  0  0  0  0  0  0  0  0  0  0  0
  -16.8233   -8.2213    3.9411 C   0  0  0  0  0  0  0  0  0  0  0  0
  -17.8018   -9.1234    4.3858 C   0  0  0  0  0  0  0  0  0  0  0  0
  -19.0092   -8.6720    4.8522 C   0  0  0  0  0  0  0  0  0  0  0  0
  -19.9656   -9.5665    5.2881 O   0  0  0  0  0  0  0  0  0  0  0  0
  -19.2743   -7.3325    4.8891 C   0  0  0  0  0  0  0  0  0  0  0  0
  -18.3513   -6.4422    4.4667 C   0  0  0  0  0  0  0  0  0  0  0  0
  -18.6456   -4.9695    4.5244 C   0  0  0  0  0  0  0  0  0  0  0  0
  -17.1227   -6.8821    3.9902 C   0  0  0  0  0  0  0  0  0  0  0  0
  -20.8645   -9.3047    5.6395 H   0  0  0  0  0  0  0  0  0  0  0  0
  -13.5143   -9.3471    6.6542 C   0  0  0  0  0  0  0  0  0  0  0  0
  -13.7295   -9.1606    8.1128 C   0  0  0  0  0  0  0  0  0  0  0  0
  -15.1403   -9.7145    8.4453 C   0  0  0  0  0  0  0  0  0  0  0  0
  -15.9062   -8.5558    8.8918 N   0  0  0  0  0  0  0  0  0  0  0  0
  -15.7477   -8.2229    9.8539 H   0  0  0  0  0  0  0  0  0  0  0  0
  -16.8250   -7.9418    7.9996 C   0  0  0  0  0  0  0  0  0  0  0  0
  -18.1472   -8.4346    7.9457 N   0  0  0  0  0  0  0  0  0  0  0  0
  -16.4876   -6.9552    7.2465 N   0  0  0  0  0  0  0  0  0  0  0  0
  -18.4716   -8.9614    7.1280 H   0  0  0  0  0  0  0  0  0  0  0  0
  -18.7870   -8.2555    8.7466 H   0  0  0  0  0  0  0  0  0  0  0  0
  -15.5552   -6.5336    7.2196 H   0  0  0  0  0  0  0  0  0  0  0  0
 43 44  1  0  0  0
 44 45  2  0  0  0
 45 46  1  0  0  0
 46 47  1  0  0  0
 46 48  2  0  0  0
 48 49  1  0  0  0
 49 50  1  0  0  0
 49 51  2  0  0  0
 51 42  1  0  0  0
 42 38  1  0  0  0
 38 39  1  0  0  0
 38 34  1  0  0  0
 34 35  2  0  0  0
 34 36  1  0  0  0
 36 33  1  0  0  0
 33 53  1  0  0  0
 53 54  1  0  0  0
 54 55  1  0  0  0
 55 56  1  0  0  0
 56 58  1  0  0  0
 58 59  1  0  0  0
 58 60  2  0  0  0
 33  1  1  0  0  0
  1  2  2  0  0  0
  1  3  1  0  0  0
  3  5  1  0  0  0
  5 26  1  0  0  0
 26 27  1  0  0  0
 27 28  2  0  0  0
 28 29  1  0  0  0
 29 30  2  0  0  0
 30 31  1  0  0  0
 31 32  2  0  0  0
  5  6  1  0  0  0
  6  7  2  0  0  0
  6  8  1  0  0  0
  8 10  1  0  0  0
 10 15  1  0  0  0
 15 16  1  0  0  0
 16 17  1  0  0  0
 17 18  1  0  0  0
 18 20  1  0  0  0
 20 21  1  0  0  0
 20 22  2  0  0  0
 10 11  1  0  0  0
 11 12  1  0  0  0
 11 13  2  0  0  0
 51 44  1  0  0  0
 32 27  1  0  0  0
 47 52  1  0  0  0
 39 40  1  0  0  0
 39 41  1  0  0  0
 36 37  1  0  0  0
 56 57  1  0  0  0
 59 61  1  0  0  0
 59 62  1  0  0  0
 60 63  1  0  0  0
  3  4  1  0  0  0
  8  9  1  0  0  0
 18 19  1  0  0  0
 21 23  1  0  0  0
 21 24  1  0  0  0
 22 25  1  0  0  0
 12 14  1  0  0  0
M  END
> <minimizedAffinity>
-2.11990

> <CNNscore>
0.4545891881

> <CNNaffinity>
7.6088438034

> <CNN_VS>
3.4588980675

> <CNNaffinity_variance>
0.1147653610

$$$$
[H]N=C(N([H])[H])N([H])C([H])([H])C([H])([H])C([H])([H])[C@@]([H])(C(=O)O[H])N([H])C(=O)[C@@]([H])(N([H])C(=O)[C@]([H])(N([H])C(=O)[C@@]([H])(N([H])[H])C([H])([H])c1c(C([H])([H])[H])c([H])c(O[H])c([H])c1C([H])([H])[H])C([H])([H])C([H])([H])C([H])([H])N([H])C(=N[H])N([H])[H])C([H])([H])c1c([H])c([H])c([H])c([H])c1[H]


 63 64  0  0  0  0  0  0  0  0999 V2000
   -9.9210   -8.8356    7.0758 C   0  0  0  0  0  0  0  0  0  0  0  0
   -8.7819   -9.1613    7.6255 O   0  0  0  0  0  0  0  0  0  0  0  0
  -10.2907   -7.4984    7.1154 N   0  0  0  0  0  0  0  0  0  0  0  0
  -11.1396   -7.0955    6.6737 H   0  0  0  0  0  0  0  0  0  0  0  0
   -9.4123   -6.5214    7.7789 C   0  0  0  0  0  0  0  0  0  0  0  0
   -8.0658   -6.5099    7.2638 C   0  0  0  0  0  0  0  0  0  0  0  0
   -7.9408   -6.2908    6.0001 O   0  0  0  0  0  0  0  0  0  0  0  0
   -6.8515   -6.7001    7.9659 N   0  0  0  0  0  0  0  0  0  0  0  0
   -6.9202   -6.9095    9.0080 H   0  0  0  0  0  0  0  0  0  0  0  0
   -5.5669   -6.6296    7.3683 C   0  0  0  0  0  0  0  0  0  0  0  0
   -5.1379   -7.9449    6.7898 C   0  0  0  0  0  0  0  0  0  0  0  0
   -6.0904   -8.8162    6.3000 O   0  0  0  0  0  0  0  0  0  0  0  0
   -3.9310   -8.2858    6.7344 O   0  0  0  0  0  0  0  0  0  0  0  0
   -7.0494   -8.6873    6.5650 H   0  0  0  0  0  0  0  0  0  0  0  0
   -4.5287   -6.0206    8.2167 C   0  0  0  0  0  0  0  0  0  0  0  0
   -3.6746   -4.9655    7.5683 C   0  0  0  0  0  0  0  0  0  0  0  0
   -2.7460   -4.3829    8.5926 C   0  0  0  0  0  0  0  0  0  0  0  0
   -3.1594   -3.0495    9.0011 N   0  0  0  0  0  0  0  0  0  0  0  0
   -3.1894   -2.2768    8.3186 H   0  0  0  0  0  0  0  0  0  0  0  0
   -3.5182   -2.8336   10.3487 C   0  0  0  0  0  0  0  0  0  0  0  0
   -4.3214   -3.7545   11.0615 N   0  0  0  0  0  0  0  0  0  0  0  0
   -3.1223   -1.7668   10.9945 N   0  0  0  0  0  0  0  0  0  0  0  0
   -5.0424   -3.4032   11.7077 H   0  0  0  0  0  0  0  0  0  0  0  0
   -4.1826   -4.7658   10.9325 H   0  0  0  0  0  0  0  0  0  0  0  0
   -3.4081   -1.6360   12.0030 H   0  0  0  0  0  0  0  0  0  0  0  0
   -9.6675   -6.6138    9.2348 C   0  0  0  0  0  0  0  0  0  0  0  0
  -11.0501   -6.4088    9.6783 C   0  0  0  0  0  0  0  0  0  0  0  0
  -11.9179   -7.4939    9.7657 C   0  0  0  0  0  0  0  0  0  0  0  0
  -13.2214   -7.3640   10.1502 C   0  0  0  0  0  0  0  0  0  0  0  0
  -13.7148   -6.1251   10.4667 C   0  0  0  0  0  0  0  0  0  0  0  0
  -12.9041   -5.0322   10.3962 C   0  0  0  0  0  0  0  0  0  0  0  0
  -11.5759   -5.1864   10.0011 C   0  0  0  0  0  0  0  0  0  0  0  0
  -10.6100  -10.0185    6.4858 C   0  0  0  0  0  0  0  0  0  0  0  0
  -13.1235   -9.6662    6.3442 C   0  0  0  0  0  0  0  0  0  0  0  0
  -13.0520   -9.3910    5.1356 O   0  0  0  0  0  0  0  0  0  0  0  0
  -11.9789   -9.9851    7.0834 N   0  0  0  0  0  0  0  0  0  0  0  0
  -12.0218  -10.2118    8.0865 H   0  0  0  0  0  0  0  0  0  0  0  0
  -14.4480   -9.6701    7.0751 C   0  0  0  0  0  0  0  0  0  0  0  0
  -14.3514  -10.7051    8.0483 N   0  0  0  0  0  0  0  0  0  0  0  0
  -13.4074  -10.9931    8.3284 H   0  0  0  0  0  0  0  0  0  0  0  0
  -15.0327  -11.4750    7.9333 H   0  0  0  0  0  0  0  0  0  0  0  0
  -14.6196   -8.2719    7.5981 C   0  0  0  0  0  0  0  0  0  0  0  0
  -17.5911   -8.3095    7.3478 C   0  0  0  0  0  0  0  0  0  0  0  0
  -16.6998   -7.4051    6.5537 C   0  0  0  0  0  0  0  0  0  0  0  0
  -17.2993   -6.5249    5.6399 C   0  0  0  0  0  0  0  0  0  0  0  0
  -16.5394   -5.6411    4.9184 C   0  0  0  0  0  0  0  0  0  0  0  0
  -17.1375   -4.7788    4.0221 O   0  0  0  0  0  0  0  0  0  0  0  0
  -15.1836   -5.6077    5.0819 C   0  0  0  0  0  0  0  0  0  0  0  0
  -14.5804   -6.4437    5.9537 C   0  0  0  0  0  0  0  0  0  0  0  0
  -13.0898   -6.3901    6.1382 C   0  0  0  0  0  0  0  0  0  0  0  0
  -15.3350   -7.3463    6.6926 C   0  0  0  0  0  0  0  0  0  0  0  0
  -16.6430   -4.1110    3.4658 H   0  0  0  0  0  0  0  0  0  0  0  0
   -9.9031  -11.2721    6.7422 C   0  0  0  0  0  0  0  0  0  0  0  0
   -9.4712  -11.9996    5.5204 C   0  0  0  0  0  0  0  0  0  0  0  0
   -8.7604  -13.2986    5.9842 C   0  0  0  0  0  0  0  0  0  0  0  0
   -9.2153  -14.3302    5.0581 N   0  0  0  0  0  0  0  0  0  0  0  0
  -10.2211  -14.5534    5.0516 H   0  0  0  0  0  0  0  0  0  0  0  0
   -8.2714  -14.9762    4.2162 C   0  0  0  0  0  0  0  0  0  0  0  0
   -7.5714  -16.0949    4.7187 N   0  0  0  0  0  0  0  0  0  0  0  0
   -8.0405  -14.5735    3.0167 N   0  0  0  0  0  0  0  0  0  0  0  0
   -6.5739  -16.0236    4.9458 H   0  0  0  0  0  0  0  0  0  0  0  0
   -8.0814  -16.9916    4.8550 H   0  0  0  0  0  0  0  0  0  0  0  0
   -8.4999  -13.7750    2.5705 H   0  0  0  0  0  0  0  0  0  0  0  0
 43 44  1  0  0  0
 44 45  2  0  0  0
 45 46  1  0  0  0
 46 47  1  0  0  0
 46 48  2  0  0  0
 48 49  1  0  0  0
 49 50  1  0  0  0
 49 51  2  0  0  0
 51 42  1  0  0  0
 42 38  1  0  0  0
 38 39  1  0  0  0
 38 34  1  0  0  0
 34 35  2  0  0  0
 34 36  1  0  0  0
 36 33  1  0  0  0
 33 53  1  0  0  0
 53 54  1  0  0  0
 54 55  1  0  0  0
 55 56  1  0  0  0
 56 58  1  0  0  0
 58 59  1  0  0  0
 58 60  2  0  0  0
 33  1  1  0  0  0
  1  2  2  0  0  0
  1  3  1  0  0  0
  3  5  1  0  0  0
  5 26  1  0  0  0
 26 27  1  0  0  0
 27 28  2  0  0  0
 28 29  1  0  0  0
 29 30  2  0  0  0
 30 31  1  0  0  0
 31 32  2  0  0  0
  5  6  1  0  0  0
  6  7  2  0  0  0
  6  8  1  0  0  0
  8 10  1  0  0  0
 10 15  1  0  0  0
 15 16  1  0  0  0
 16 17  1  0  0  0
 17 18  1  0  0  0
 18 20  1  0  0  0
 20 21  1  0  0  0
 20 22  2  0  0  0
 10 11  1  0  0  0
 11 12  1  0  0  0
 11 13  2  0  0  0
 51 44  1  0  0  0
 32 27  1  0  0  0
 47 52  1  0  0  0
 39 40  1  0  0  0
 39 41  1  0  0  0
 36 37  1  0  0  0
 56 57  1  0  0  0
 59 61  1  0  0  0
 59 62  1  0  0  0
 60 63  1  0  0  0
  3  4  1  0  0  0
  8  9  1  0  0  0
 18 19  1  0  0  0
 21 23  1  0  0  0
 21 24  1  0  0  0
 22 25  1  0  0  0
 12 14  1  0  0  0
M  END
> <minimizedAffinity>
-2.99467

> <CNNscore>
0.4222037196

> <CNNaffinity>
7.5179948807

> <CNN_VS>
3.1741254330

> <CNNaffinity_variance>
0.1583334208

$$$$
[H]N=C(N([H])[H])N([H])C([H])([H])C([H])([H])C([H])([H])[C@@]([H])(C(=O)O[H])N([H])C(=O)[C@@]([H])(N([H])C(=O)[C@]([H])(N([H])C(=O)[C@@]([H])(N([H])[H])C([H])([H])c1c(C([H])([H])[H])c([H])c(O[H])c([H])c1C([H])([H])[H])C([H])([H])C([H])([H])C([H])([H])N([H])C(=N[H])N([H])[H])C([H])([H])c1c([H])c([H])c([H])c([H])c1[H]


 63 64  0  0  0  0  0  0  0  0999 V2000
   -9.9026   -8.7469    7.0410 C   0  0  0  0  0  0  0  0  0  0  0  0
   -8.8620   -9.1721    7.7058 O   0  0  0  0  0  0  0  0  0  0  0  0
  -10.1279   -7.3776    7.0134 N   0  0  0  0  0  0  0  0  0  0  0  0
  -10.8831   -6.9026    6.4823 H   0  0  0  0  0  0  0  0  0  0  0  0
   -9.2151   -6.4768    7.7358 C   0  0  0  0  0  0  0  0  0  0  0  0
   -7.8550   -6.5279    7.2606 C   0  0  0  0  0  0  0  0  0  0  0  0
   -7.6912   -6.4113    5.9877 O   0  0  0  0  0  0  0  0  0  0  0  0
   -6.6642   -6.6818    8.0103 N   0  0  0  0  0  0  0  0  0  0  0  0
   -6.7655   -6.8070    9.0631 H   0  0  0  0  0  0  0  0  0  0  0  0
   -5.3625   -6.6794    7.4464 C   0  0  0  0  0  0  0  0  0  0  0  0
   -4.9850   -8.0185    6.8868 C   0  0  0  0  0  0  0  0  0  0  0  0
   -5.9745   -8.9287    6.5731 O   0  0  0  0  0  0  0  0  0  0  0  0
   -3.7886   -8.3449    6.6911 O   0  0  0  0  0  0  0  0  0  0  0  0
   -6.8932   -8.7990    6.9548 H   0  0  0  0  0  0  0  0  0  0  0  0
   -4.3177   -6.1173    8.3185 C   0  0  0  0  0  0  0  0  0  0  0  0
   -3.3843   -5.1235    7.6826 C   0  0  0  0  0  0  0  0  0  0  0  0
   -3.9871   -4.6291    6.4007 C   0  0  0  0  0  0  0  0  0  0  0  0
   -3.8925   -3.1826    6.2812 N   0  0  0  0  0  0  0  0  0  0  0  0
   -3.6866   -2.5997    7.1068 H   0  0  0  0  0  0  0  0  0  0  0  0
   -4.0882   -2.5924    5.0144 C   0  0  0  0  0  0  0  0  0  0  0  0
   -4.8254   -1.3953    4.8572 N   0  0  0  0  0  0  0  0  0  0  0  0
   -3.5953   -3.1331    3.9297 N   0  0  0  0  0  0  0  0  0  0  0  0
   -5.4585   -1.2926    4.0513 H   0  0  0  0  0  0  0  0  0  0  0  0
   -4.7264   -0.6360    5.5445 H   0  0  0  0  0  0  0  0  0  0  0  0
   -3.7597   -2.6652    2.9969 H   0  0  0  0  0  0  0  0  0  0  0  0
   -9.5202   -6.6023    9.1795 C   0  0  0  0  0  0  0  0  0  0  0  0
  -10.9198   -6.4214    9.5780 C   0  0  0  0  0  0  0  0  0  0  0  0
  -11.3873   -5.1528    9.9101 C   0  0  0  0  0  0  0  0  0  0  0  0
  -12.6725   -4.9241   10.3098 C   0  0  0  0  0  0  0  0  0  0  0  0
  -13.5530   -5.9711   10.3943 C   0  0  0  0  0  0  0  0  0  0  0  0
  -13.1423   -7.2316   10.0799 C   0  0  0  0  0  0  0  0  0  0  0  0
  -11.8254   -7.4439    9.6738 C   0  0  0  0  0  0  0  0  0  0  0  0
  -10.6571   -9.8698    6.4149 C   0  0  0  0  0  0  0  0  0  0  0  0
  -13.1449   -9.4207    6.1479 C   0  0  0  0  0  0  0  0  0  0  0  0
  -13.0175   -9.2453    4.9253 O   0  0  0  0  0  0  0  0  0  0  0  0
  -12.0435   -9.7297    6.9539 N   0  0  0  0  0  0  0  0  0  0  0  0
  -12.1326   -9.8743    7.9690 H   0  0  0  0  0  0  0  0  0  0  0  0
  -14.4933   -9.3092    6.8242 C   0  0  0  0  0  0  0  0  0  0  0  0
  -14.4408  -10.1890    7.9426 N   0  0  0  0  0  0  0  0  0  0  0  0
  -13.5100  -10.4375    8.2952 H   0  0  0  0  0  0  0  0  0  0  0  0
  -15.1258  -10.9638    7.9188 H   0  0  0  0  0  0  0  0  0  0  0  0
  -14.6679   -7.8480    7.1284 C   0  0  0  0  0  0  0  0  0  0  0  0
  -13.8758   -6.1386    4.8168 C   0  0  0  0  0  0  0  0  0  0  0  0
  -15.2921   -6.3300    5.2643 C   0  0  0  0  0  0  0  0  0  0  0  0
  -16.3035   -5.6661    4.5534 C   0  0  0  0  0  0  0  0  0  0  0  0
  -17.6219   -5.8388    4.8869 C   0  0  0  0  0  0  0  0  0  0  0  0
  -18.6101   -5.1821    4.1819 O   0  0  0  0  0  0  0  0  0  0  0  0
  -17.9670   -6.6630    5.9201 C   0  0  0  0  0  0  0  0  0  0  0  0
  -17.0144   -7.3136    6.6216 C   0  0  0  0  0  0  0  0  0  0  0  0
  -17.4037   -8.2300    7.7474 C   0  0  0  0  0  0  0  0  0  0  0  0
  -15.6733   -7.1496    6.2978 C   0  0  0  0  0  0  0  0  0  0  0  0
  -19.5883   -5.2638    4.3725 H   0  0  0  0  0  0  0  0  0  0  0  0
  -10.0632  -11.1762    6.6933 C   0  0  0  0  0  0  0  0  0  0  0  0
   -9.1146  -11.6582    5.6558 C   0  0  0  0  0  0  0  0  0  0  0  0
   -9.2052  -13.2070    5.6319 C   0  0  0  0  0  0  0  0  0  0  0  0
   -8.8629  -13.5850    4.2649 N   0  0  0  0  0  0  0  0  0  0  0  0
   -9.1701  -12.9582    3.5071 H   0  0  0  0  0  0  0  0  0  0  0  0
   -8.1326  -14.7812    4.0347 C   0  0  0  0  0  0  0  0  0  0  0  0
   -7.3591  -14.8854    2.8580 N   0  0  0  0  0  0  0  0  0  0  0  0
   -8.1557  -15.7639    4.8643 N   0  0  0  0  0  0  0  0  0  0  0  0
   -7.6529  -15.5071    2.0973 H   0  0  0  0  0  0  0  0  0  0  0  0
   -6.4875  -14.3231    2.7738 H   0  0  0  0  0  0  0  0  0  0  0  0
   -8.6857  -15.7762    5.7400 H   0  0  0  0  0  0  0  0  0  0  0  0
 43 44  1  0  0  0
 44 45  2  0  0  0
 45 46  1  0  0  0
 46 47  1  0  0  0
 46 48  2  0  0  0
 48 49  1  0  0  0
 49 50  1  0  0  0
 49 51  2  0  0  0
 51 42  1  0  0  0
 42 38  1  0  0  0
 38 39  1  0  0  0
 38 34  1  0  0  0
 34 35  2  0  0  0
 34 36  1  0  0  0
 36 33  1  0  0  0
 33 53  1  0  0  0
 53 54  1  0  0  0
 54 55  1  0  0  0
 55 56  1  0  0  0
 56 58  1  0  0  0
 58 59  1  0  0  0
 58 60  2  0  0  0
 33  1  1  0  0  0
  1  2  2  0  0  0
  1  3  1  0  0  0
  3  5  1  0  0  0
  5 26  1  0  0  0
 26 27  1  0  0  0
 27 28  2  0  0  0
 28 29  1  0  0  0
 29 30  2  0  0  0
 30 31  1  0  0  0
 31 32  2  0  0  0
  5  6  1  0  0  0
  6  7  2  0  0  0
  6  8  1  0  0  0
  8 10  1  0  0  0
 10 15  1  0  0  0
 15 16  1  0  0  0
 16 17  1  0  0  0
 17 18  1  0  0  0
 18 20  1  0  0  0
 20 21  1  0  0  0
 20 22  2  0  0  0
 10 11  1  0  0  0
 11 12  1  0  0  0
 11 13  2  0  0  0
 51 44  1  0  0  0
 32 27  1  0  0  0
 47 52  1  0  0  0
 39 40  1  0  0  0
 39 41  1  0  0  0
 36 37  1  0  0  0
 56 57  1  0  0  0
 59 61  1  0  0  0
 59 62  1  0  0  0
 60 63  1  0  0  0
  3  4  1  0  0  0
  8  9  1  0  0  0
 18 19  1  0  0  0
 21 23  1  0  0  0
 21 24  1  0  0  0
 22 25  1  0  0  0
 12 14  1  0  0  0
M  END
> <minimizedAffinity>
-2.89594

> <CNNscore>
0.3295889795

> <CNNaffinity>
7.2919893265

> <CNN_VS>
2.4033594131

> <CNNaffinity_variance>
0.0495735183

$$$$
[H]N=C(N([H])[H])N([H])C([H])([H])C([H])([H])C([H])([H])[C@@]([H])(C(=O)O[H])N([H])C(=O)[C@@]([H])(N([H])C(=O)[C@]([H])(N([H])C(=O)[C@@]([H])(N([H])[H])C([H])([H])c1c(C([H])([H])[H])c([H])c(O[H])c([H])c1C([H])([H])[H])C([H])([H])C([H])([H])C([H])([H])N([H])C(=N[H])N([H])[H])C([H])([H])c1c([H])c([H])c([H])c([H])c1[H]


 63 64  0  0  0  0  0  0  0  0999 V2000
  -10.0853   -7.9491    7.3139 C   0  0  0  0  0  0  0  0  0  0  0  0
   -9.9021   -6.9073    6.5480 O   0  0  0  0  0  0  0  0  0  0  0  0
   -9.5913   -7.8851    8.6094 N   0  0  0  0  0  0  0  0  0  0  0  0
   -9.7124   -8.6164    9.3364 H   0  0  0  0  0  0  0  0  0  0  0  0
   -8.8774   -6.6777    9.0555 C   0  0  0  0  0  0  0  0  0  0  0  0
   -7.4432   -6.8239    9.0665 C   0  0  0  0  0  0  0  0  0  0  0  0
   -6.9794   -7.8476    9.6970 O   0  0  0  0  0  0  0  0  0  0  0  0
   -6.4675   -5.9925    8.4661 N   0  0  0  0  0  0  0  0  0  0  0  0
   -6.8154   -5.1229    7.9590 H   0  0  0  0  0  0  0  0  0  0  0  0
   -5.0726   -6.2481    8.5021 C   0  0  0  0  0  0  0  0  0  0  0  0
   -4.3577   -5.3556    9.4723 C   0  0  0  0  0  0  0  0  0  0  0  0
   -3.2684   -4.6219    9.0468 O   0  0  0  0  0  0  0  0  0  0  0  0
   -4.7182   -5.2507   10.6703 O   0  0  0  0  0  0  0  0  0  0  0  0
   -2.8120   -4.8805    8.1916 H   0  0  0  0  0  0  0  0  0  0  0  0
   -4.4214   -6.2827    7.1818 C   0  0  0  0  0  0  0  0  0  0  0  0
   -3.3311   -7.3040    7.0046 C   0  0  0  0  0  0  0  0  0  0  0  0
   -2.5829   -7.0136    5.7371 C   0  0  0  0  0  0  0  0  0  0  0  0
   -1.2953   -7.6894    5.7023 N   0  0  0  0  0  0  0  0  0  0  0  0
   -0.4850   -7.3020    6.2095 H   0  0  0  0  0  0  0  0  0  0  0  0
   -1.1761   -8.8844    4.9614 C   0  0  0  0  0  0  0  0  0  0  0  0
   -1.0603   -8.8773    3.5515 N   0  0  0  0  0  0  0  0  0  0  0  0
   -1.1705  -10.0520    5.5517 N   0  0  0  0  0  0  0  0  0  0  0  0
   -1.5542   -9.5928    2.9992 H   0  0  0  0  0  0  0  0  0  0  0  0
   -0.4860   -8.1616    3.0860 H   0  0  0  0  0  0  0  0  0  0  0  0
   -1.0791  -10.9274    4.9676 H   0  0  0  0  0  0  0  0  0  0  0  0
   -9.5959   -6.1504   10.2383 C   0  0  0  0  0  0  0  0  0  0  0  0
  -11.0609   -6.1469   10.1750 C   0  0  0  0  0  0  0  0  0  0  0  0
  -11.7529   -4.9393   10.2062 C   0  0  0  0  0  0  0  0  0  0  0  0
  -13.1161   -4.8718   10.1731 C   0  0  0  0  0  0  0  0  0  0  0  0
  -13.8508   -6.0270   10.1066 C   0  0  0  0  0  0  0  0  0  0  0  0
  -13.2188   -7.2336   10.0741 C   0  0  0  0  0  0  0  0  0  0  0  0
  -11.8258   -7.2807   10.1090 C   0  0  0  0  0  0  0  0  0  0  0  0
  -10.8285   -9.0317    6.6085 C   0  0  0  0  0  0  0  0  0  0  0  0
  -13.3432   -9.0703    6.2384 C   0  0  0  0  0  0  0  0  0  0  0  0
  -13.1980   -9.3845    5.0460 O   0  0  0  0  0  0  0  0  0  0  0  0
  -12.2391   -8.8772    7.0761 N   0  0  0  0  0  0  0  0  0  0  0  0
  -12.3434   -8.6131    8.0654 H   0  0  0  0  0  0  0  0  0  0  0  0
  -14.7172   -8.8814    6.8424 C   0  0  0  0  0  0  0  0  0  0  0  0
  -14.7340   -9.6747    8.0248 N   0  0  0  0  0  0  0  0  0  0  0  0
  -13.8255   -9.9138    8.4370 H   0  0  0  0  0  0  0  0  0  0  0  0
  -15.4350  -10.4354    8.0279 H   0  0  0  0  0  0  0  0  0  0  0  0
  -14.8713   -7.3982    7.0279 C   0  0  0  0  0  0  0  0  0  0  0  0
  -13.9835   -5.6958    4.7460 C   0  0  0  0  0  0  0  0  0  0  0  0
  -15.4196   -5.9319    5.0996 C   0  0  0  0  0  0  0  0  0  0  0  0
  -16.4028   -5.3159    4.3103 C   0  0  0  0  0  0  0  0  0  0  0  0
  -17.7339   -5.5314    4.5565 C   0  0  0  0  0  0  0  0  0  0  0  0
  -18.6941   -4.9217    3.7748 O   0  0  0  0  0  0  0  0  0  0  0  0
  -18.1196   -6.3521    5.5781 C   0  0  0  0  0  0  0  0  0  0  0  0
  -17.1949   -6.9571    6.3538 C   0  0  0  0  0  0  0  0  0  0  0  0
  -17.6278   -7.8701    7.4664 C   0  0  0  0  0  0  0  0  0  0  0  0
  -15.8415   -6.7493    6.1190 C   0  0  0  0  0  0  0  0  0  0  0  0
  -19.6796   -5.0361    3.9000 H   0  0  0  0  0  0  0  0  0  0  0  0
  -10.2796  -10.3606    6.8723 C   0  0  0  0  0  0  0  0  0  0  0  0
   -8.9900  -10.6437    6.1903 C   0  0  0  0  0  0  0  0  0  0  0  0
   -7.8691  -10.5289    7.2572 C   0  0  0  0  0  0  0  0  0  0  0  0
   -7.4330   -9.1378    7.1997 N   0  0  0  0  0  0  0  0  0  0  0  0
   -7.6203   -8.5463    8.0222 H   0  0  0  0  0  0  0  0  0  0  0  0
   -6.7788   -8.6602    6.0330 C   0  0  0  0  0  0  0  0  0  0  0  0
   -7.2682   -7.4888    5.4149 N   0  0  0  0  0  0  0  0  0  0  0  0
   -5.7591   -9.2611    5.5294 N   0  0  0  0  0  0  0  0  0  0  0  0
   -7.7572   -7.5423    4.5152 H   0  0  0  0  0  0  0  0  0  0  0  0
   -7.1256   -6.5713    5.8849 H   0  0  0  0  0  0  0  0  0  0  0  0
   -5.3370  -10.1127    5.9094 H   0  0  0  0  0  0  0  0  0  0  0  0
 43 44  1  0  0  0
 44 45  2  0  0  0
 45 46  1  0  0  0
 46 47  1  0  0  0
 46 48  2  0  0  0
 48 49  1  0  0  0
 49 50  1  0  0  0
 49 51  2  0  0  0
 51 42  1  0  0  0
 42 38  1  0  0  0
 38 39  1  0  0  0
 38 34  1  0  0  0
 34 35  2  0  0  0
 34 36  1  0  0  0
 36 33  1  0  0  0
 33 53  1  0  0  0
 53 54  1  0  0  0
 54 55  1  0  0  0
 55 56  1  0  0  0
 56 58  1  0  0  0
 58 59  1  0  0  0
 58 60  2  0  0  0
 33  1  1  0  0  0
  1  2  2  0  0  0
  1  3  1  0  0  0
  3  5  1  0  0  0
  5 26  1  0  0  0
 26 27  1  0  0  0
 27 28  2  0  0  0
 28 29  1  0  0  0
 29 30  2  0  0  0
 30 31  1  0  0  0
 31 32  2  0  0  0
  5  6  1  0  0  0
  6  7  2  0  0  0
  6  8  1  0  0  0
  8 10  1  0  0  0
 10 15  1  0  0  0
 15 16  1  0  0  0
 16 17  1  0  0  0
 17 18  1  0  0  0
 18 20  1  0  0  0
 20 21  1  0  0  0
 20 22  2  0  0  0
 10 11  1  0  0  0
 11 12  1  0  0  0
 11 13  2  0  0  0
 51 44  1  0  0  0
 32 27  1  0  0  0
 47 52  1  0  0  0
 39 40  1  0  0  0
 39 41  1  0  0  0
 36 37  1  0  0  0
 56 57  1  0  0  0
 59 61  1  0  0  0
 59 62  1  0  0  0
 60 63  1  0  0  0
  3  4  1  0  0  0
  8  9  1  0  0  0
 18 19  1  0  0  0
 21 23  1  0  0  0
 21 24  1  0  0  0
 22 25  1  0  0  0
 12 14  1  0  0  0
M  END
> <minimizedAffinity>
-1.65662

> <CNNscore>
0.3283816278

> <CNNaffinity>
7.2703695297

> <CNN_VS>
2.3874557018

> <CNNaffinity_variance>
0.2985671461

$$$$
[H]N=C(N([H])[H])N([H])C([H])([H])C([H])([H])C([H])([H])[C@@]([H])(C(=O)O[H])N([H])C(=O)[C@@]([H])(N([H])C(=O)[C@]([H])(N([H])C(=O)[C@@]([H])(N([H])[H])C([H])([H])c1c(C([H])([H])[H])c([H])c(O[H])c([H])c1C([H])([H])[H])C([H])([H])C([H])([H])C([H])([H])N([H])C(=N[H])N([H])[H])C([H])([H])c1c([H])c([H])c([H])c([H])c1[H]


 63 64  0  0  0  0  0  0  0  0999 V2000
   -6.9497   -8.2307    7.5803 C   0  0  0  0  0  0  0  0  0  0  0  0
   -6.1576   -9.2667    7.5106 O   0  0  0  0  0  0  0  0  0  0  0  0
   -6.3660   -6.9946    7.8206 N   0  0  0  0  0  0  0  0  0  0  0  0
   -6.8690   -6.0867    7.8478 H   0  0  0  0  0  0  0  0  0  0  0  0
   -4.9084   -6.9030    8.0033 C   0  0  0  0  0  0  0  0  0  0  0  0
   -4.4915   -5.7525    8.7654 C   0  0  0  0  0  0  0  0  0  0  0  0
   -5.1155   -4.6514    8.5226 O   0  0  0  0  0  0  0  0  0  0  0  0
   -3.4865   -5.6697    9.7588 N   0  0  0  0  0  0  0  0  0  0  0  0
   -2.9333   -6.5561    9.9655 H   0  0  0  0  0  0  0  0  0  0  0  0
   -3.1786   -4.4897   10.4833 C   0  0  0  0  0  0  0  0  0  0  0  0
   -4.0515   -4.3221   11.6911 C   0  0  0  0  0  0  0  0  0  0  0  0
   -3.7563   -3.3377   12.6130 O   0  0  0  0  0  0  0  0  0  0  0  0
   -5.0516   -5.0527   11.8961 O   0  0  0  0  0  0  0  0  0  0  0  0
   -2.8409   -2.9272   12.6097 H   0  0  0  0  0  0  0  0  0  0  0  0
   -3.1082   -3.2681    9.6640 C   0  0  0  0  0  0  0  0  0  0  0  0
   -1.9943   -3.2076    8.6546 C   0  0  0  0  0  0  0  0  0  0  0  0
   -2.5532   -2.7918    7.3259 C   0  0  0  0  0  0  0  0  0  0  0  0
   -2.2269   -3.7474    6.2790 N   0  0  0  0  0  0  0  0  0  0  0  0
   -1.3262   -4.2498    6.2886 H   0  0  0  0  0  0  0  0  0  0  0  0
   -3.1660   -3.9735    5.2502 C   0  0  0  0  0  0  0  0  0  0  0  0
   -2.7658   -4.1722    3.9080 N   0  0  0  0  0  0  0  0  0  0  0  0
   -4.4503   -4.0060    5.4979 N   0  0  0  0  0  0  0  0  0  0  0  0
   -3.3176   -3.7505    3.1474 H   0  0  0  0  0  0  0  0  0  0  0  0
   -1.9299   -4.7343    3.6981 H   0  0  0  0  0  0  0  0  0  0  0  0
   -5.1266   -4.1782    4.7049 H   0  0  0  0  0  0  0  0  0  0  0  0
   -4.2784   -7.2200    6.7011 C   0  0  0  0  0  0  0  0  0  0  0  0
   -3.1554   -8.1628    6.7216 C   0  0  0  0  0  0  0  0  0  0  0  0
   -2.7545   -8.7887    5.5445 C   0  0  0  0  0  0  0  0  0  0  0  0
   -1.7315   -9.6919    5.5034 C   0  0  0  0  0  0  0  0  0  0  0  0
   -1.0600  -10.0089    6.6555 C   0  0  0  0  0  0  0  0  0  0  0  0
   -1.4159   -9.4226    7.8329 C   0  0  0  0  0  0  0  0  0  0  0  0
   -2.4635   -8.5028    7.8533 C   0  0  0  0  0  0  0  0  0  0  0  0
   -8.3759   -8.6082    7.3670 C   0  0  0  0  0  0  0  0  0  0  0  0
  -10.4809   -7.3790    8.0882 C   0  0  0  0  0  0  0  0  0  0  0  0
  -11.1131   -7.8183    7.1142 O   0  0  0  0  0  0  0  0  0  0  0  0
   -9.1372   -7.7136    8.2902 N   0  0  0  0  0  0  0  0  0  0  0  0
   -8.5990   -7.3544    9.0907 H   0  0  0  0  0  0  0  0  0  0  0  0
  -11.1304   -6.4627    9.1016 C   0  0  0  0  0  0  0  0  0  0  0  0
  -10.1178   -5.5441    9.4997 N   0  0  0  0  0  0  0  0  0  0  0  0
   -9.3297   -5.4134    8.8560 H   0  0  0  0  0  0  0  0  0  0  0  0
   -9.8680   -5.5803   10.5029 H   0  0  0  0  0  0  0  0  0  0  0  0
  -12.3273   -5.8804    8.4043 C   0  0  0  0  0  0  0  0  0  0  0  0
  -13.1646   -7.0666   11.0091 C   0  0  0  0  0  0  0  0  0  0  0  0
  -13.9243   -7.2440    9.7307 C   0  0  0  0  0  0  0  0  0  0  0  0
  -15.0978   -8.0127    9.7623 C   0  0  0  0  0  0  0  0  0  0  0  0
  -15.8602   -8.1723    8.6343 C   0  0  0  0  0  0  0  0  0  0  0  0
  -17.0132   -8.9298    8.6747 O   0  0  0  0  0  0  0  0  0  0  0  0
  -15.4838   -7.5819    7.4614 C   0  0  0  0  0  0  0  0  0  0  0  0
  -14.3590   -6.8374    7.4022 C   0  0  0  0  0  0  0  0  0  0  0  0
  -13.9601   -6.1793    6.1112 C   0  0  0  0  0  0  0  0  0  0  0  0
  -13.5740   -6.6658    8.5355 C   0  0  0  0  0  0  0  0  0  0  0  0
  -17.6135   -9.0858    7.8904 H   0  0  0  0  0  0  0  0  0  0  0  0
   -8.6283  -10.0279    7.6072 C   0  0  0  0  0  0  0  0  0  0  0  0
   -9.1046  -10.7812    6.4181 C   0  0  0  0  0  0  0  0  0  0  0  0
  -10.5111  -10.2334    6.0580 C   0  0  0  0  0  0  0  0  0  0  0  0
  -11.3981  -10.7614    7.0891 N   0  0  0  0  0  0  0  0  0  0  0  0
  -10.9908  -11.4049    7.7829 H   0  0  0  0  0  0  0  0  0  0  0  0
  -12.7649  -10.3754    7.0970 C   0  0  0  0  0  0  0  0  0  0  0  0
  -13.2958   -9.7438    5.9511 N   0  0  0  0  0  0  0  0  0  0  0  0
  -13.5266  -10.5860    8.1119 N   0  0  0  0  0  0  0  0  0  0  0  0
  -13.5291   -8.7454    5.9701 H   0  0  0  0  0  0  0  0  0  0  0  0
  -13.4470  -10.3053    5.0881 H   0  0  0  0  0  0  0  0  0  0  0  0
  -13.2289  -11.0365    8.9815 H   0  0  0  0  0  0  0  0  0  0  0  0
 43 44  1  0  0  0
 44 45  2  0  0  0
 45 46  1  0  0  0
 46 47  1  0  0  0
 46 48  2  0  0  0
 48 49  1  0  0  0
 49 50  1  0  0  0
 49 51  2  0  0  0
 51 42  1  0  0  0
 42 38  1  0  0  0
 38 39  1  0  0  0
 38 34  1  0  0  0
 34 35  2  0  0  0
 34 36  1  0  0  0
 36 33  1  0  0  0
 33 53  1  0  0  0
 53 54  1  0  0  0
 54 55  1  0  0  0
 55 56  1  0  0  0
 56 58  1  0  0  0
 58 59  1  0  0  0
 58 60  2  0  0  0
 33  1  1  0  0  0
  1  2  2  0  0  0
  1  3  1  0  0  0
  3  5  1  0  0  0
  5 26  1  0  0  0
 26 27  1  0  0  0
 27 28  2  0  0  0
 28 29  1  0  0  0
 29 30  2  0  0  0
 30 31  1  0  0  0
 31 32  2  0  0  0
  5  6  1  0  0  0
  6  7  2  0  0  0
  6  8  1  0  0  0
  8 10  1  0  0  0
 10 15  1  0  0  0
 15 16  1  0  0  0
 16 17  1  0  0  0
 17 18  1  0  0  0
 18 20  1  0  0  0
 20 21  1  0  0  0
 20 22  2  0  0  0
 10 11  1  0  0  0
 11 12  1  0  0  0
 11 13  2  0  0  0
 51 44  1  0  0  0
 32 27  1  0  0  0
 47 52  1  0  0  0
 39 40  1  0  0  0
 39 41  1  0  0  0
 36 37  1  0  0  0
 56 57  1  0  0  0
 59 61  1  0  0  0
 59 62  1  0  0  0
 60 63  1  0  0  0
  3  4  1  0  0  0
  8  9  1  0  0  0
 18 19  1  0  0  0
 21 23  1  0  0  0
 21 24  1  0  0  0
 22 25  1  0  0  0
 12 14  1  0  0  0
M  END
> <minimizedAffinity>
-4.02014

> <CNNscore>
0.3091252744

> <CNNaffinity>
7.2192888260

> <CNN_VS>
2.2316646576

> <CNNaffinity_variance>
0.4225485921

$$$$
[H]N=C(N([H])[H])N([H])C([H])([H])C([H])([H])C([H])([H])[C@@]([H])(C(=O)O[H])N([H])C(=O)[C@@]([H])(N([H])C(=O)[C@]([H])(N([H])C(=O)[C@@]([H])(N([H])[H])C([H])([H])c1c(C([H])([H])[H])c([H])c(O[H])c([H])c1C([H])([H])[H])C([H])([H])C([H])([H])C([H])([H])N([H])C(=N[H])N([H])[H])C([H])([H])c1c([H])c([H])c([H])c([H])c1[H]


 63 64  0  0  0  0  0  0  0  0999 V2000
  -10.0236   -9.0976    7.0962 C   0  0  0  0  0  0  0  0  0  0  0  0
   -9.6990   -7.8477    7.2912 O   0  0  0  0  0  0  0  0  0  0  0  0
  -11.3492   -9.4535    7.3026 N   0  0  0  0  0  0  0  0  0  0  0  0
  -11.7525  -10.3953    7.1344 H   0  0  0  0  0  0  0  0  0  0  0  0
  -12.3148   -8.4337    7.7430 C   0  0  0  0  0  0  0  0  0  0  0  0
  -13.5036   -8.3725    6.9297 C   0  0  0  0  0  0  0  0  0  0  0  0
  -14.5789   -8.8507    7.4550 O   0  0  0  0  0  0  0  0  0  0  0  0
  -13.6528   -7.8460    5.6242 N   0  0  0  0  0  0  0  0  0  0  0  0
  -12.7777   -7.4663    5.1504 H   0  0  0  0  0  0  0  0  0  0  0  0
  -14.8840   -7.7973    4.9213 C   0  0  0  0  0  0  0  0  0  0  0  0
  -14.9423   -8.8025    3.8101 C   0  0  0  0  0  0  0  0  0  0  0  0
  -15.8521   -9.8389    3.8768 O   0  0  0  0  0  0  0  0  0  0  0  0
  -14.1856   -8.7347    2.8107 O   0  0  0  0  0  0  0  0  0  0  0  0
  -16.2724  -10.0608    4.7604 H   0  0  0  0  0  0  0  0  0  0  0  0
  -15.2881   -6.4500    4.4854 C   0  0  0  0  0  0  0  0  0  0  0  0
  -16.5661   -6.3617    3.6967 C   0  0  0  0  0  0  0  0  0  0  0  0
  -17.6879   -5.9749    4.6147 C   0  0  0  0  0  0  0  0  0  0  0  0
  -17.4175   -6.3599    5.9911 N   0  0  0  0  0  0  0  0  0  0  0  0
  -17.0311   -5.6775    6.6611 H   0  0  0  0  0  0  0  0  0  0  0  0
  -17.6937   -7.6845    6.3918 C   0  0  0  0  0  0  0  0  0  0  0  0
  -18.2568   -8.6290    5.5017 N   0  0  0  0  0  0  0  0  0  0  0  0
  -17.4409   -8.0927    7.6089 N   0  0  0  0  0  0  0  0  0  0  0  0
  -18.9715   -9.2857    5.8461 H   0  0  0  0  0  0  0  0  0  0  0  0
  -17.9515   -8.6560    4.5195 H   0  0  0  0  0  0  0  0  0  0  0  0
  -17.6591   -9.0912    7.8762 H   0  0  0  0  0  0  0  0  0  0  0  0
  -11.5487   -7.2069    8.0613 C   0  0  0  0  0  0  0  0  0  0  0  0
  -11.9135   -6.5002    9.2933 C   0  0  0  0  0  0  0  0  0  0  0  0
  -13.1932   -5.9709    9.4354 C   0  0  0  0  0  0  0  0  0  0  0  0
  -13.5855   -5.2838   10.5482 C   0  0  0  0  0  0  0  0  0  0  0  0
  -12.6994   -5.0967   11.5770 C   0  0  0  0  0  0  0  0  0  0  0  0
  -11.4350   -5.5960   11.4845 C   0  0  0  0  0  0  0  0  0  0  0  0
  -11.0543   -6.2946   10.3395 C   0  0  0  0  0  0  0  0  0  0  0  0
   -8.8533   -9.9132    6.6636 C   0  0  0  0  0  0  0  0  0  0  0  0
   -6.6433   -8.6712    6.8525 C   0  0  0  0  0  0  0  0  0  0  0  0
   -6.3377   -9.3000    7.8785 O   0  0  0  0  0  0  0  0  0  0  0  0
   -7.8548   -8.9064    6.1927 N   0  0  0  0  0  0  0  0  0  0  0  0
   -8.1237   -8.3907    5.3436 H   0  0  0  0  0  0  0  0  0  0  0  0
   -5.7236   -7.6226    6.2669 C   0  0  0  0  0  0  0  0  0  0  0  0
   -6.4427   -6.3953    6.3319 N   0  0  0  0  0  0  0  0  0  0  0  0
   -7.2070   -6.3400    7.0140 H   0  0  0  0  0  0  0  0  0  0  0  0
   -6.6350   -5.9551    5.4157 H   0  0  0  0  0  0  0  0  0  0  0  0
   -4.4600   -7.7029    7.0761 C   0  0  0  0  0  0  0  0  0  0  0  0
   -5.2360   -6.2172    9.5426 C   0  0  0  0  0  0  0  0  0  0  0  0
   -4.2514   -5.7051    8.5371 C   0  0  0  0  0  0  0  0  0  0  0  0
   -3.6606   -4.4539    8.7708 C   0  0  0  0  0  0  0  0  0  0  0  0
   -2.7182   -3.9535    7.9102 C   0  0  0  0  0  0  0  0  0  0  0  0
   -2.1421   -2.7221    8.1482 O   0  0  0  0  0  0  0  0  0  0  0  0
   -2.3423   -4.6710    6.8102 C   0  0  0  0  0  0  0  0  0  0  0  0
   -2.8949   -5.8772    6.5606 C   0  0  0  0  0  0  0  0  0  0  0  0
   -2.4648   -6.6665    5.3560 C   0  0  0  0  0  0  0  0  0  0  0  0
   -3.8520   -6.3992    7.4217 C   0  0  0  0  0  0  0  0  0  0  0  0
   -1.4504   -2.3001    7.5622 H   0  0  0  0  0  0  0  0  0  0  0  0
   -9.1973  -10.9004    5.6419 C   0  0  0  0  0  0  0  0  0  0  0  0
   -8.4976  -10.7164    4.3437 C   0  0  0  0  0  0  0  0  0  0  0  0
   -8.8140  -11.9585    3.4692 C   0  0  0  0  0  0  0  0  0  0  0  0
   -7.9526  -11.8267    2.2990 N   0  0  0  0  0  0  0  0  0  0  0  0
   -7.5477  -10.8986    2.1086 H   0  0  0  0  0  0  0  0  0  0  0  0
   -7.7096  -12.9621    1.4811 C   0  0  0  0  0  0  0  0  0  0  0  0
   -7.4077  -14.1925    2.1047 N   0  0  0  0  0  0  0  0  0  0  0  0
   -7.7585  -12.9000    0.1973 N   0  0  0  0  0  0  0  0  0  0  0  0
   -6.4584  -14.5775    2.0603 H   0  0  0  0  0  0  0  0  0  0  0  0
   -8.1616  -14.7025    2.6092 H   0  0  0  0  0  0  0  0  0  0  0  0
   -7.9699  -12.0538   -0.3386 H   0  0  0  0  0  0  0  0  0  0  0  0
 43 44  1  0  0  0
 44 45  2  0  0  0
 45 46  1  0  0  0
 46 47  1  0  0  0
 46 48  2  0  0  0
 48 49  1  0  0  0
 49 50  1  0  0  0
 49 51  2  0  0  0
 51 42  1  0  0  0
 42 38  1  0  0  0
 38 39  1  0  0  0
 38 34  1  0  0  0
 34 35  2  0  0  0
 34 36  1  0  0  0
 36 33  1  0  0  0
 33 53  1  0  0  0
 53 54  1  0  0  0
 54 55  1  0  0  0
 55 56  1  0  0  0
 56 58  1  0  0  0
 58 59  1  0  0  0
 58 60  2  0  0  0
 33  1  1  0  0  0
  1  2  2  0  0  0
  1  3  1  0  0  0
  3  5  1  0  0  0
  5 26  1  0  0  0
 26 27  1  0  0  0
 27 28  2  0  0  0
 28 29  1  0  0  0
 29 30  2  0  0  0
 30 31  1  0  0  0
 31 32  2  0  0  0
  5  6  1  0  0  0
  6  7  2  0  0  0
  6  8  1  0  0  0
  8 10  1  0  0  0
 10 15  1  0  0  0
 15 16  1  0  0  0
 16 17  1  0  0  0
 17 18  1  0  0  0
 18 20  1  0  0  0
 20 21  1  0  0  0
 20 22  2  0  0  0
 10 11  1  0  0  0
 11 12  1  0  0  0
 11 13  2  0  0  0
 51 44  1  0  0  0
 32 27  1  0  0  0
 47 52  1  0  0  0
 39 40  1  0  0  0
 39 41  1  0  0  0
 36 37  1  0  0  0
 56 57  1  0  0  0
 59 61  1  0  0  0
 59 62  1  0  0  0
 60 63  1  0  0  0
  3  4  1  0  0  0
  8  9  1  0  0  0
 18 19  1  0  0  0
 21 23  1  0  0  0
 21 24  1  0  0  0
 22 25  1  0  0  0
 12 14  1  0  0  0
M  END
> <minimizedAffinity>
-2.57458

> <CNNscore>
0.3082533181

> <CNNaffinity>
7.8135633469

> <CNN_VS>
2.4085569382

> <CNNaffinity_variance>
0.3143103719

$$$$
[H]c1sc(N([H])C(=O)c2c([H])c([H])c(C(C([H])([H])[H])(C([H])([H])[H])C([H])([H])[H])c([H])c2[H])nc1-c1c([H])c([H])c(C(C([H])([H])[H])(C([H])([H])[H])C([H])([H])[H])c([H])c1[H]


 29 31  0  0  0  0  0  0  0  0999 V2000
  -14.1973   -6.9852    4.6414 C   0  0  0  0  0  0  0  0  0  0  0  0
  -15.1523   -6.0543    4.9351 N   0  0  0  0  0  0  0  0  0  0  0  0
  -16.3286   -6.1777    4.4584 C   0  0  0  0  0  0  0  0  0  0  0  0
  -16.5926   -7.2681    3.6539 C   0  0  0  0  0  0  0  0  0  0  0  0
  -15.0776   -8.0400    3.6569 S   0  0  0  0  0  0  0  0  0  0  0  0
  -17.4070   -5.1901    4.7798 C   0  0  0  0  0  0  0  0  0  0  0  0
  -18.6412   -5.3053    4.2115 C   0  0  0  0  0  0  0  0  0  0  0  0
  -19.6404   -4.3954    4.5555 C   0  0  0  0  0  0  0  0  0  0  0  0
  -19.4056   -3.3832    5.4532 C   0  0  0  0  0  0  0  0  0  0  0  0
  -18.1268   -3.2608    6.0419 C   0  0  0  0  0  0  0  0  0  0  0  0
  -17.1786   -4.1693    5.6845 C   0  0  0  0  0  0  0  0  0  0  0  0
  -20.3733   -2.3573    5.8806 C   0  0  0  0  0  0  0  0  0  0  0  0
  -21.6083   -2.3467    4.9667 C   0  0  0  0  0  0  0  0  0  0  0  0
  -20.8823   -2.7599    7.2492 C   0  0  0  0  0  0  0  0  0  0  0  0
  -19.7751   -0.9832    5.9008 C   0  0  0  0  0  0  0  0  0  0  0  0
  -12.3896   -7.0019    6.3895 C   0  0  0  0  0  0  0  0  0  0  0  0
  -11.0504   -6.8487    6.4659 O   0  0  0  0  0  0  0  0  0  0  0  0
  -12.8569   -6.8750    5.1093 N   0  0  0  0  0  0  0  0  0  0  0  0
  -12.1083   -6.6661    4.3167 H   0  0  0  0  0  0  0  0  0  0  0  0
  -14.2363   -8.0661   10.0917 C   0  0  0  0  0  0  0  0  0  0  0  0
  -13.9070   -8.9877    9.1070 C   0  0  0  0  0  0  0  0  0  0  0  0
  -13.2988   -8.6226    7.9351 C   0  0  0  0  0  0  0  0  0  0  0  0
  -12.9736   -7.2598    7.6739 C   0  0  0  0  0  0  0  0  0  0  0  0
  -13.3031   -6.3659    8.6525 C   0  0  0  0  0  0  0  0  0  0  0  0
  -13.9207   -6.7437    9.8429 C   0  0  0  0  0  0  0  0  0  0  0  0
  -16.1461   -9.3511   11.0453 C   0  0  0  0  0  0  0  0  0  0  0  0
  -14.9107   -8.4988   11.3311 C   0  0  0  0  0  0  0  0  0  0  0  0
  -13.9593   -9.4133   12.0764 C   0  0  0  0  0  0  0  0  0  0  0  0
  -15.3412   -7.3576   12.2063 C   0  0  0  0  0  0  0  0  0  0  0  0
 26 27  1  0  0  0
 27 28  1  0  0  0
 27 29  1  0  0  0
 27 20  1  0  0  0
 20 21  2  0  0  0
 21 22  1  0  0  0
 22 23  2  0  0  0
 23 24  1  0  0  0
 24 25  2  0  0  0
 23 16  1  0  0  0
 16 17  2  0  0  0
 16 18  1  0  0  0
 18  1  1  0  0  0
  1  2  2  0  0  0
  2  3  1  0  0  0
  3  4  2  0  0  0
  4  5  1  0  0  0
  3  6  1  0  0  0
  6  7  2  0  0  0
  7  8  1  0  0  0
  8  9  2  0  0  0
  9 10  1  0  0  0
 10 11  2  0  0  0
  9 12  1  0  0  0
 12 13  1  0  0  0
 12 14  1  0  0  0
 12 15  1  0  0  0
 25 20  1  0  0  0
  5  1  1  0  0  0
 11  6  1  0  0  0
 18 19  1  0  0  0
M  END
> <minimizedAffinity>
25.14995

> <CNNscore>
0.5724602342

> <CNNaffinity>
7.0759749413

> <CNN_VS>
4.0507144928

> <CNNaffinity_variance>
2.4482491016

$$$$
[H]c1sc(N([H])C(=O)c2c([H])c([H])c(C(C([H])([H])[H])(C([H])([H])[H])C([H])([H])[H])c([H])c2[H])nc1-c1c([H])c([H])c(C(C([H])([H])[H])(C([H])([H])[H])C([H])([H])[H])c([H])c1[H]


 29 31  0  0  0  0  0  0  0  0999 V2000
   -7.7242   -8.3270    6.2324 C   0  0  0  0  0  0  0  0  0  0  0  0
   -9.0383   -8.1588    6.5636 N   0  0  0  0  0  0  0  0  0  0  0  0
   -9.5365   -8.8102    7.5401 C   0  0  0  0  0  0  0  0  0  0  0  0
   -8.7110   -9.6709    8.2357 C   0  0  0  0  0  0  0  0  0  0  0  0
   -7.2483   -9.4577    7.3953 S   0  0  0  0  0  0  0  0  0  0  0  0
  -10.9662   -8.6320    7.9470 C   0  0  0  0  0  0  0  0  0  0  0  0
  -11.3276   -7.6076    8.7713 C   0  0  0  0  0  0  0  0  0  0  0  0
  -12.6709   -7.4398    9.1057 C   0  0  0  0  0  0  0  0  0  0  0  0
  -13.6376   -8.2877    8.6239 C   0  0  0  0  0  0  0  0  0  0  0  0
  -13.2651   -9.3512    7.7711 C   0  0  0  0  0  0  0  0  0  0  0  0
  -11.9456   -9.4807    7.4641 C   0  0  0  0  0  0  0  0  0  0  0  0
  -15.0798   -8.2204    8.9188 C   0  0  0  0  0  0  0  0  0  0  0  0
  -15.7455   -9.5937    8.7420 C   0  0  0  0  0  0  0  0  0  0  0  0
  -15.2242   -7.8835   10.3884 C   0  0  0  0  0  0  0  0  0  0  0  0
  -15.7919   -7.2233    8.0555 C   0  0  0  0  0  0  0  0  0  0  0  0
   -6.9350   -8.1266    3.8532 C   0  0  0  0  0  0  0  0  0  0  0  0
   -6.3453   -7.2127    3.0532 O   0  0  0  0  0  0  0  0  0  0  0  0
   -7.1262   -7.6599    5.1256 N   0  0  0  0  0  0  0  0  0  0  0  0
   -6.7838   -6.6262    5.3413 H   0  0  0  0  0  0  0  0  0  0  0  0
   -7.7845  -11.9204    2.0827 C   0  0  0  0  0  0  0  0  0  0  0  0
   -8.1062  -11.5977    3.3942 C   0  0  0  0  0  0  0  0  0  0  0  0
   -7.8387  -10.3670    3.9330 C   0  0  0  0  0  0  0  0  0  0  0  0
   -7.2090   -9.3505    3.1574 C   0  0  0  0  0  0  0  0  0  0  0  0
   -6.8999   -9.6833    1.8694 C   0  0  0  0  0  0  0  0  0  0  0  0
   -7.1755  -10.9366    1.3267 C   0  0  0  0  0  0  0  0  0  0  0  0
   -8.4580  -14.2514    2.6491 C   0  0  0  0  0  0  0  0  0  0  0  0
   -8.0708  -13.2657    1.5478 C   0  0  0  0  0  0  0  0  0  0  0  0
   -9.2956  -13.1567    0.6618 C   0  0  0  0  0  0  0  0  0  0  0  0
   -6.9215  -13.8637    0.7893 C   0  0  0  0  0  0  0  0  0  0  0  0
 26 27  1  0  0  0
 27 28  1  0  0  0
 27 29  1  0  0  0
 27 20  1  0  0  0
 20 21  2  0  0  0
 21 22  1  0  0  0
 22 23  2  0  0  0
 23 24  1  0  0  0
 24 25  2  0  0  0
 23 16  1  0  0  0
 16 17  2  0  0  0
 16 18  1  0  0  0
 18  1  1  0  0  0
  1  2  2  0  0  0
  2  3  1  0  0  0
  3  4  2  0  0  0
  4  5  1  0  0  0
  3  6  1  0  0  0
  6  7  2  0  0  0
  7  8  1  0  0  0
  8  9  2  0  0  0
  9 10  1  0  0  0
 10 11  2  0  0  0
  9 12  1  0  0  0
 12 13  1  0  0  0
 12 14  1  0  0  0
 12 15  1  0  0  0
 25 20  1  0  0  0
  5  1  1  0  0  0
 11  6  1  0  0  0
 18 19  1  0  0  0
M  END
> <minimizedAffinity>
14.08916

> <CNNscore>
0.5383355618

> <CNNaffinity>
6.3024215698

> <CNN_VS>
3.3928177357

> <CNNaffinity_variance>
1.2507569790

$$$$
[H]c1sc(N([H])C(=O)c2c([H])c([H])c(C(C([H])([H])[H])(C([H])([H])[H])C([H])([H])[H])c([H])c2[H])nc1-c1c([H])c([H])c(C(C([H])([H])[H])(C([H])([H])[H])C([H])([H])[H])c([H])c1[H]


 29 31  0  0  0  0  0  0  0  0999 V2000
  -12.3905   -6.7681   11.2371 C   0  0  0  0  0  0  0  0  0  0  0  0
  -12.7561   -5.7986   10.3474 N   0  0  0  0  0  0  0  0  0  0  0  0
  -12.6948   -4.5703   10.6844 C   0  0  0  0  0  0  0  0  0  0  0  0
  -12.2507   -4.2667   11.9559 C   0  0  0  0  0  0  0  0  0  0  0  0
  -11.9525   -5.8243   12.5692 S   0  0  0  0  0  0  0  0  0  0  0  0
  -13.0635   -3.4804    9.7267 C   0  0  0  0  0  0  0  0  0  0  0  0
  -13.5728   -3.7827    8.4984 C   0  0  0  0  0  0  0  0  0  0  0  0
  -13.9441   -2.7497    7.6384 C   0  0  0  0  0  0  0  0  0  0  0  0
  -13.8042   -1.4330    8.0024 C   0  0  0  0  0  0  0  0  0  0  0  0
  -13.2748   -1.1173    9.2740 C   0  0  0  0  0  0  0  0  0  0  0  0
  -12.9274   -2.1521   10.0870 C   0  0  0  0  0  0  0  0  0  0  0  0
  -14.1451   -0.2610    7.1768 C   0  0  0  0  0  0  0  0  0  0  0  0
  -15.0839    0.6930    7.9311 C   0  0  0  0  0  0  0  0  0  0  0  0
  -12.8665    0.5190    6.9514 C   0  0  0  0  0  0  0  0  0  0  0  0
  -14.7882   -0.6461    5.8788 C   0  0  0  0  0  0  0  0  0  0  0  0
  -13.1934   -8.7623    9.9324 C   0  0  0  0  0  0  0  0  0  0  0  0
  -13.0344  -10.1031    9.9281 O   0  0  0  0  0  0  0  0  0  0  0  0
  -12.4802   -8.1559   10.9309 N   0  0  0  0  0  0  0  0  0  0  0  0
  -11.8814   -8.8135   11.5951 H   0  0  0  0  0  0  0  0  0  0  0  0
  -15.5529   -7.2530    6.7069 C   0  0  0  0  0  0  0  0  0  0  0  0
  -14.1676   -7.1691    6.7476 C   0  0  0  0  0  0  0  0  0  0  0  0
  -13.4326   -7.6772    7.7859 C   0  0  0  0  0  0  0  0  0  0  0  0
  -14.0695   -8.3232    8.8852 C   0  0  0  0  0  0  0  0  0  0  0  0
  -15.4320   -8.3984    8.8298 C   0  0  0  0  0  0  0  0  0  0  0  0
  -16.1740   -7.8806    7.7702 C   0  0  0  0  0  0  0  0  0  0  0  0
  -16.4877   -7.6699    4.4353 C   0  0  0  0  0  0  0  0  0  0  0  0
  -16.3082   -6.6733    5.5794 C   0  0  0  0  0  0  0  0  0  0  0  0
  -17.7103   -6.3743    6.0711 C   0  0  0  0  0  0  0  0  0  0  0  0
  -15.6740   -5.4383    5.0080 C   0  0  0  0  0  0  0  0  0  0  0  0
 26 27  1  0  0  0
 27 28  1  0  0  0
 27 29  1  0  0  0
 27 20  1  0  0  0
 20 21  2  0  0  0
 21 22  1  0  0  0
 22 23  2  0  0  0
 23 24  1  0  0  0
 24 25  2  0  0  0
 23 16  1  0  0  0
 16 17  2  0  0  0
 16 18  1  0  0  0
 18  1  1  0  0  0
  1  2  2  0  0  0
  2  3  1  0  0  0
  3  4  2  0  0  0
  4  5  1  0  0  0
  3  6  1  0  0  0
  6  7  2  0  0  0
  7  8  1  0  0  0
  8  9  2  0  0  0
  9 10  1  0  0  0
 10 11  2  0  0  0
  9 12  1  0  0  0
 12 13  1  0  0  0
 12 14  1  0  0  0
 12 15  1  0  0  0
 25 20  1  0  0  0
  5  1  1  0  0  0
 11  6  1  0  0  0
 18 19  1  0  0  0
M  END
> <minimizedAffinity>
31.59385

> <CNNscore>
0.5055501461

> <CNNaffinity>
6.6373910904

> <CNN_VS>
3.3555340767

> <CNNaffinity_variance>
0.5941393375

$$$$
[H]c1sc(N([H])C(=O)c2c([H])c([H])c(C(C([H])([H])[H])(C([H])([H])[H])C([H])([H])[H])c([H])c2[H])nc1-c1c([H])c([H])c(C(C([H])([H])[H])(C([H])([H])[H])C([H])([H])[H])c([H])c1[H]


 29 31  0  0  0  0  0  0  0  0999 V2000
  -11.5900   -8.4171    8.5865 C   0  0  0  0  0  0  0  0  0  0  0  0
  -10.3031   -8.3536    8.1338 N   0  0  0  0  0  0  0  0  0  0  0  0
   -9.6256   -7.2847    8.2910 C   0  0  0  0  0  0  0  0  0  0  0  0
  -10.2313   -6.2190    8.9263 C   0  0  0  0  0  0  0  0  0  0  0  0
  -11.7675   -6.8723    9.2493 S   0  0  0  0  0  0  0  0  0  0  0  0
   -8.2045   -7.1882    7.8301 C   0  0  0  0  0  0  0  0  0  0  0  0
   -7.9118   -6.7045    6.5892 C   0  0  0  0  0  0  0  0  0  0  0  0
   -6.5787   -6.5888    6.1969 C   0  0  0  0  0  0  0  0  0  0  0  0
   -5.5540   -6.9554    7.0342 C   0  0  0  0  0  0  0  0  0  0  0  0
   -5.8550   -7.4588    8.3198 C   0  0  0  0  0  0  0  0  0  0  0  0
   -7.1671   -7.5536    8.6685 C   0  0  0  0  0  0  0  0  0  0  0  0
   -4.1142   -6.8939    6.7262 C   0  0  0  0  0  0  0  0  0  0  0  0
   -3.2992   -6.4992    7.9673 C   0  0  0  0  0  0  0  0  0  0  0  0
   -3.6680   -8.2980    6.3749 C   0  0  0  0  0  0  0  0  0  0  0  0
   -3.8088   -5.9291    5.6205 C   0  0  0  0  0  0  0  0  0  0  0  0
  -13.6002   -9.6655    7.7354 C   0  0  0  0  0  0  0  0  0  0  0  0
  -14.0929  -10.9225    7.7447 O   0  0  0  0  0  0  0  0  0  0  0  0
  -12.4073   -9.5680    8.3995 N   0  0  0  0  0  0  0  0  0  0  0  0
  -12.0038  -10.4977    8.8523 H   0  0  0  0  0  0  0  0  0  0  0  0
  -15.8939   -6.9004    5.4241 C   0  0  0  0  0  0  0  0  0  0  0  0
  -14.7280   -7.4994    4.9665 C   0  0  0  0  0  0  0  0  0  0  0  0
  -14.0200   -8.3970    5.7212 C   0  0  0  0  0  0  0  0  0  0  0  0
  -14.4578   -8.7590    7.0284 C   0  0  0  0  0  0  0  0  0  0  0  0
  -15.6064   -8.1619    7.4634 C   0  0  0  0  0  0  0  0  0  0  0  0
  -16.3228   -7.2504    6.6906 C   0  0  0  0  0  0  0  0  0  0  0  0
  -15.7092   -4.7798    4.1291 C   0  0  0  0  0  0  0  0  0  0  0  0
  -16.6149   -5.9219    4.5870 C   0  0  0  0  0  0  0  0  0  0  0  0
  -17.0384   -6.6291    3.3152 C   0  0  0  0  0  0  0  0  0  0  0  0
  -17.8025   -5.3103    5.2721 C   0  0  0  0  0  0  0  0  0  0  0  0
 26 27  1  0  0  0
 27 28  1  0  0  0
 27 29  1  0  0  0
 27 20  1  0  0  0
 20 21  2  0  0  0
 21 22  1  0  0  0
 22 23  2  0  0  0
 23 24  1  0  0  0
 24 25  2  0  0  0
 23 16  1  0  0  0
 16 17  2  0  0  0
 16 18  1  0  0  0
 18  1  1  0  0  0
  1  2  2  0  0  0
  2  3  1  0  0  0
  3  4  2  0  0  0
  4  5  1  0  0  0
  3  6  1  0  0  0
  6  7  2  0  0  0
  7  8  1  0  0  0
  8  9  2  0  0  0
  9 10  1  0  0  0
 10 11  2  0  0  0
  9 12  1  0  0  0
 12 13  1  0  0  0
 12 14  1  0  0  0
 12 15  1  0  0  0
 25 20  1  0  0  0
  5  1  1  0  0  0
 11  6  1  0  0  0
 18 19  1  0  0  0
M  END
> <minimizedAffinity>
-9.89181

> <CNNscore>
0.4894264042

> <CNNaffinity>
7.1537604332

> <CNN_VS>
3.5012392998

> <CNNaffinity_variance>
0.1911617368

$$$$
[H]c1sc(N([H])C(=O)c2c([H])c([H])c(C(C([H])([H])[H])(C([H])([H])[H])C([H])([H])[H])c([H])c2[H])nc1-c1c([H])c([H])c(C(C([H])([H])[H])(C([H])([H])[H])C([H])([H])[H])c([H])c1[H]


 29 31  0  0  0  0  0  0  0  0999 V2000
  -13.9771  -10.1100    6.0910 C   0  0  0  0  0  0  0  0  0  0  0  0
  -13.6904   -8.9488    6.7500 N   0  0  0  0  0  0  0  0  0  0  0  0
  -13.4486   -8.9709    8.0018 C   0  0  0  0  0  0  0  0  0  0  0  0
  -13.4844  -10.1899    8.6491 C   0  0  0  0  0  0  0  0  0  0  0  0
  -13.8746  -11.2247    7.3576 S   0  0  0  0  0  0  0  0  0  0  0  0
  -13.1060   -7.7210    8.7514 C   0  0  0  0  0  0  0  0  0  0  0  0
  -12.0388   -7.6945    9.5997 C   0  0  0  0  0  0  0  0  0  0  0  0
  -11.7170   -6.5079   10.2577 C   0  0  0  0  0  0  0  0  0  0  0  0
  -12.4556   -5.3654   10.0709 C   0  0  0  0  0  0  0  0  0  0  0  0
  -13.5632   -5.3911    9.1937 C   0  0  0  0  0  0  0  0  0  0  0  0
  -13.8439   -6.5660    8.5668 C   0  0  0  0  0  0  0  0  0  0  0  0
  -12.2229   -4.0629   10.7198 C   0  0  0  0  0  0  0  0  0  0  0  0
  -13.5040   -3.2150   10.7336 C   0  0  0  0  0  0  0  0  0  0  0  0
  -11.8985   -4.3353   12.1740 C   0  0  0  0  0  0  0  0  0  0  0  0
  -11.1326   -3.2806   10.0522 C   0  0  0  0  0  0  0  0  0  0  0  0
  -15.0085   -9.2240    3.9756 C   0  0  0  0  0  0  0  0  0  0  0  0
  -15.1083   -9.5680    2.6738 O   0  0  0  0  0  0  0  0  0  0  0  0
  -14.2980  -10.1395    4.7040 N   0  0  0  0  0  0  0  0  0  0  0  0
  -13.9061  -11.0238    4.1594 H   0  0  0  0  0  0  0  0  0  0  0  0
  -17.2346   -5.6311    4.5954 C   0  0  0  0  0  0  0  0  0  0  0  0
  -17.7889   -6.7976    4.0858 C   0  0  0  0  0  0  0  0  0  0  0  0
  -17.0569   -7.9425    3.9131 C   0  0  0  0  0  0  0  0  0  0  0  0
  -15.6739   -7.9845    4.2548 C   0  0  0  0  0  0  0  0  0  0  0  0
  -15.1440   -6.8296    4.7555 C   0  0  0  0  0  0  0  0  0  0  0  0
  -15.8941   -5.6685    4.9299 C   0  0  0  0  0  0  0  0  0  0  0  0
  -19.4768   -4.6096    4.2253 C   0  0  0  0  0  0  0  0  0  0  0  0
  -18.0538   -4.4127    4.7455 C   0  0  0  0  0  0  0  0  0  0  0  0
  -18.2057   -4.1411    6.2288 C   0  0  0  0  0  0  0  0  0  0  0  0
  -17.4779   -3.2161    4.0454 C   0  0  0  0  0  0  0  0  0  0  0  0
 26 27  1  0  0  0
 27 28  1  0  0  0
 27 29  1  0  0  0
 27 20  1  0  0  0
 20 21  2  0  0  0
 21 22  1  0  0  0
 22 23  2  0  0  0
 23 24  1  0  0  0
 24 25  2  0  0  0
 23 16  1  0  0  0
 16 17  2  0  0  0
 16 18  1  0  0  0
 18  1  1  0  0  0
  1  2  2  0  0  0
  2  3  1  0  0  0
  3  4  2  0  0  0
  4  5  1  0  0  0
  3  6  1  0  0  0
  6  7  2  0  0  0
  7  8  1  0  0  0
  8  9  2  0  0  0
  9 10  1  0  0  0
 10 11  2  0  0  0
  9 12  1  0  0  0
 12 13  1  0  0  0
 12 14  1  0  0  0
 12 15  1  0  0  0
 25 20  1  0  0  0
  5  1  1  0  0  0
 11  6  1  0  0  0
 18 19  1  0  0  0
M  END
> <minimizedAffinity>
11.20641

> <CNNscore>
0.4875894189

> <CNNaffinity>
6.8835830688

> <CNN_VS>
3.3563623428

> <CNNaffinity_variance>
1.2528909445

$$$$
[H]c1sc(N([H])C(=O)c2c([H])c([H])c(C(C([H])([H])[H])(C([H])([H])[H])C([H])([H])[H])c([H])c2[H])nc1-c1c([H])c([H])c(C(C([H])([H])[H])(C([H])([H])[H])C([H])([H])[H])c([H])c1[H]


 29 31  0  0  0  0  0  0  0  0999 V2000
  -13.4540   -9.8748    5.7563 C   0  0  0  0  0  0  0  0  0  0  0  0
  -13.1553   -8.8347    6.5894 N   0  0  0  0  0  0  0  0  0  0  0  0
  -13.2609   -8.9806    7.8518 C   0  0  0  0  0  0  0  0  0  0  0  0
  -13.6769  -10.2064    8.3318 C   0  0  0  0  0  0  0  0  0  0  0  0
  -13.8846  -11.0635    6.8781 S   0  0  0  0  0  0  0  0  0  0  0  0
  -12.9178   -7.8703    8.7957 C   0  0  0  0  0  0  0  0  0  0  0  0
  -11.6475   -7.3778    8.8507 C   0  0  0  0  0  0  0  0  0  0  0  0
  -11.3611   -6.3180    9.7107 C   0  0  0  0  0  0  0  0  0  0  0  0
  -12.3325   -5.7621   10.5063 C   0  0  0  0  0  0  0  0  0  0  0  0
  -13.6493   -6.2723   10.4524 C   0  0  0  0  0  0  0  0  0  0  0  0
  -13.8913   -7.3040    9.5985 C   0  0  0  0  0  0  0  0  0  0  0  0
  -12.1471   -4.6553   11.4614 C   0  0  0  0  0  0  0  0  0  0  0  0
  -11.5521   -3.4201   10.7681 C   0  0  0  0  0  0  0  0  0  0  0  0
  -13.5224   -4.2338   11.9356 C   0  0  0  0  0  0  0  0  0  0  0  0
  -11.2640   -5.0368   12.6108 C   0  0  0  0  0  0  0  0  0  0  0  0
  -14.1968   -9.0114    3.5142 C   0  0  0  0  0  0  0  0  0  0  0  0
  -13.8454   -9.1256    2.2156 O   0  0  0  0  0  0  0  0  0  0  0  0
  -13.3966   -9.7556    4.3384 N   0  0  0  0  0  0  0  0  0  0  0  0
  -12.5869  -10.3447    3.8593 H   0  0  0  0  0  0  0  0  0  0  0  0
  -17.3199   -6.1608    4.1218 C   0  0  0  0  0  0  0  0  0  0  0  0
  -15.9943   -5.8102    3.9033 C   0  0  0  0  0  0  0  0  0  0  0  0
  -15.0142   -6.7438    3.6934 C   0  0  0  0  0  0  0  0  0  0  0  0
  -15.3192   -8.1360    3.6906 C   0  0  0  0  0  0  0  0  0  0  0  0
  -16.6272   -8.4644    3.9060 C   0  0  0  0  0  0  0  0  0  0  0  0
  -17.6199   -7.5099    4.1178 C   0  0  0  0  0  0  0  0  0  0  0  0
  -18.1284   -4.4094    5.6988 C   0  0  0  0  0  0  0  0  0  0  0  0
  -18.3413   -5.1238    4.3652 C   0  0  0  0  0  0  0  0  0  0  0  0
  -18.1694   -4.0523    3.3072 C   0  0  0  0  0  0  0  0  0  0  0  0
  -19.7454   -5.6550    4.3560 C   0  0  0  0  0  0  0  0  0  0  0  0
 26 27  1  0  0  0
 27 28  1  0  0  0
 27 29  1  0  0  0
 27 20  1  0  0  0
 20 21  2  0  0  0
 21 22  1  0  0  0
 22 23  2  0  0  0
 23 24  1  0  0  0
 24 25  2  0  0  0
 23 16  1  0  0  0
 16 17  2  0  0  0
 16 18  1  0  0  0
 18  1  1  0  0  0
  1  2  2  0  0  0
  2  3  1  0  0  0
  3  4  2  0  0  0
  4  5  1  0  0  0
  3  6  1  0  0  0
  6  7  2  0  0  0
  7  8  1  0  0  0
  8  9  2  0  0  0
  9 10  1  0  0  0
 10 11  2  0  0  0
  9 12  1  0  0  0
 12 13  1  0  0  0
 12 14  1  0  0  0
 12 15  1  0  0  0
 25 20  1  0  0  0
  5  1  1  0  0  0
 11  6  1  0  0  0
 18 19  1  0  0  0
M  END
> <minimizedAffinity>
7.02223

> <CNNscore>
0.4527938962

> <CNNaffinity>
6.6948089600

> <CNN_VS>
3.0313687325

> <CNNaffinity_variance>
1.0659692287

$$$$
[H]c1sc(N([H])C(=O)c2c([H])c([H])c(C(C([H])([H])[H])(C([H])([H])[H])C([H])([H])[H])c([H])c2[H])nc1-c1c([H])c([H])c(C(C([H])([H])[H])(C([H])([H])[H])C([H])([H])[H])c([H])c1[H]


 29 31  0  0  0  0  0  0  0  0999 V2000
   -9.7962   -7.3388    8.9214 C   0  0  0  0  0  0  0  0  0  0  0  0
   -8.6018   -6.7719    8.5795 N   0  0  0  0  0  0  0  0  0  0  0  0
   -7.8223   -7.3718    7.7679 C   0  0  0  0  0  0  0  0  0  0  0  0
   -8.2272   -8.5891    7.2577 C   0  0  0  0  0  0  0  0  0  0  0  0
   -9.7392   -8.7647    8.0155 S   0  0  0  0  0  0  0  0  0  0  0  0
   -6.5170   -6.7683    7.3514 C   0  0  0  0  0  0  0  0  0  0  0  0
   -6.2413   -6.5608    6.0322 C   0  0  0  0  0  0  0  0  0  0  0  0
   -5.0345   -5.9625    5.6713 C   0  0  0  0  0  0  0  0  0  0  0  0
   -4.1161   -5.5806    6.6180 C   0  0  0  0  0  0  0  0  0  0  0  0
   -4.3988   -5.7965    7.9856 C   0  0  0  0  0  0  0  0  0  0  0  0
   -5.5880   -6.3794    8.2992 C   0  0  0  0  0  0  0  0  0  0  0  0
   -2.8064   -4.9570    6.3582 C   0  0  0  0  0  0  0  0  0  0  0  0
   -1.6958   -6.0154    6.2776 C   0  0  0  0  0  0  0  0  0  0  0  0
   -2.8715   -4.3286    4.9816 C   0  0  0  0  0  0  0  0  0  0  0  0
   -2.4382   -3.9485    7.4041 C   0  0  0  0  0  0  0  0  0  0  0  0
  -10.3917   -6.1697   11.0667 C   0  0  0  0  0  0  0  0  0  0  0  0
  -11.4872   -5.6790   11.6848 O   0  0  0  0  0  0  0  0  0  0  0  0
  -10.6857   -6.7358    9.8558 N   0  0  0  0  0  0  0  0  0  0  0  0
  -11.7496   -6.7277    9.5393 H   0  0  0  0  0  0  0  0  0  0  0  0
   -6.6905   -5.7711   13.1623 C   0  0  0  0  0  0  0  0  0  0  0  0
   -6.7835   -6.2089   11.8480 C   0  0  0  0  0  0  0  0  0  0  0  0
   -7.9820   -6.3111   11.1925 C   0  0  0  0  0  0  0  0  0  0  0  0
   -9.2027   -5.9669   11.8428 C   0  0  0  0  0  0  0  0  0  0  0  0
   -9.0941   -5.5373   13.1346 C   0  0  0  0  0  0  0  0  0  0  0  0
   -7.8719   -5.4344   13.7957 C   0  0  0  0  0  0  0  0  0  0  0  0
   -4.7589   -7.0767   14.0412 C   0  0  0  0  0  0  0  0  0  0  0  0
   -5.3809   -5.6960   13.8387 C   0  0  0  0  0  0  0  0  0  0  0  0
   -4.4289   -4.9614   12.9162 C   0  0  0  0  0  0  0  0  0  0  0  0
   -5.4396   -5.0252   15.1805 C   0  0  0  0  0  0  0  0  0  0  0  0
 26 27  1  0  0  0
 27 28  1  0  0  0
 27 29  1  0  0  0
 27 20  1  0  0  0
 20 21  2  0  0  0
 21 22  1  0  0  0
 22 23  2  0  0  0
 23 24  1  0  0  0
 24 25  2  0  0  0
 23 16  1  0  0  0
 16 17  2  0  0  0
 16 18  1  0  0  0
 18  1  1  0  0  0
  1  2  2  0  0  0
  2  3  1  0  0  0
  3  4  2  0  0  0
  4  5  1  0  0  0
  3  6  1  0  0  0
  6  7  2  0  0  0
  7  8  1  0  0  0
  8  9  2  0  0  0
  9 10  1  0  0  0
 10 11  2  0  0  0
  9 12  1  0  0  0
 12 13  1  0  0  0
 12 14  1  0  0  0
 12 15  1  0  0  0
 25 20  1  0  0  0
  5  1  1  0  0  0
 11  6  1  0  0  0
 18 19  1  0  0  0
M  END
> <minimizedAffinity>
7.42869

> <CNNscore>
0.4492953420

> <CNNaffinity>
5.9713926315

> <CNN_VS>
2.6829187870

> <CNNaffinity_variance>
0.6358622313

$$$$
[H]c1sc(N([H])C(=O)c2c([H])c([H])c(C(C([H])([H])[H])(C([H])([H])[H])C([H])([H])[H])c([H])c2[H])nc1-c1c([H])c([H])c(C(C([H])([H])[H])(C([H])([H])[H])C([H])([H])[H])c([H])c1[H]


 29 31  0  0  0  0  0  0  0  0999 V2000
  -11.2334   -8.9334    7.0527 C   0  0  0  0  0  0  0  0  0  0  0  0
  -12.3057   -8.2756    6.5214 N   0  0  0  0  0  0  0  0  0  0  0  0
  -13.4098   -8.8910    6.3530 C   0  0  0  0  0  0  0  0  0  0  0  0
  -13.4767  -10.2191    6.7244 C   0  0  0  0  0  0  0  0  0  0  0  0
  -11.8962  -10.4686    7.2998 S   0  0  0  0  0  0  0  0  0  0  0  0
  -14.6128   -8.1948    5.7969 C   0  0  0  0  0  0  0  0  0  0  0  0
  -15.4816   -7.5481    6.6254 C   0  0  0  0  0  0  0  0  0  0  0  0
  -16.5743   -6.8749    6.0802 C   0  0  0  0  0  0  0  0  0  0  0  0
  -16.7952   -6.8526    4.7251 C   0  0  0  0  0  0  0  0  0  0  0  0
  -15.8974   -7.5238    3.8648 C   0  0  0  0  0  0  0  0  0  0  0  0
  -14.8408   -8.1664    4.4331 C   0  0  0  0  0  0  0  0  0  0  0  0
  -17.9184   -6.1915    4.0373 C   0  0  0  0  0  0  0  0  0  0  0  0
  -19.2030   -7.0271    4.1465 C   0  0  0  0  0  0  0  0  0  0  0  0
  -18.2059   -4.9028    4.7793 C   0  0  0  0  0  0  0  0  0  0  0  0
  -17.6289   -5.9370    2.5888 C   0  0  0  0  0  0  0  0  0  0  0  0
   -9.5758   -7.4216    8.1887 C   0  0  0  0  0  0  0  0  0  0  0  0
   -8.2871   -7.0432    8.0510 O   0  0  0  0  0  0  0  0  0  0  0  0
   -9.9646   -8.3095    7.2224 N   0  0  0  0  0  0  0  0  0  0  0  0
   -9.2044   -8.5994    6.4672 H   0  0  0  0  0  0  0  0  0  0  0  0
  -11.1713   -5.6449   11.7308 C   0  0  0  0  0  0  0  0  0  0  0  0
   -9.8283   -5.9575   11.5685 C   0  0  0  0  0  0  0  0  0  0  0  0
   -9.3387   -6.5109   10.4150 C   0  0  0  0  0  0  0  0  0  0  0  0
  -10.2012   -6.7933    9.3162 C   0  0  0  0  0  0  0  0  0  0  0  0
  -11.5187   -6.4792    9.4912 C   0  0  0  0  0  0  0  0  0  0  0  0
  -12.0106   -5.9154   10.6666 C   0  0  0  0  0  0  0  0  0  0  0  0
  -10.9056   -3.7980   13.3820 C   0  0  0  0  0  0  0  0  0  0  0  0
  -11.6612   -5.0693   12.9984 C   0  0  0  0  0  0  0  0  0  0  0  0
  -13.0951   -4.6300   12.7795 C   0  0  0  0  0  0  0  0  0  0  0  0
  -11.5702   -6.0171   14.1591 C   0  0  0  0  0  0  0  0  0  0  0  0
 26 27  1  0  0  0
 27 28  1  0  0  0
 27 29  1  0  0  0
 27 20  1  0  0  0
 20 21  2  0  0  0
 21 22  1  0  0  0
 22 23  2  0  0  0
 23 24  1  0  0  0
 24 25  2  0  0  0
 23 16  1  0  0  0
 16 17  2  0  0  0
 16 18  1  0  0  0
 18  1  1  0  0  0
  1  2  2  0  0  0
  2  3  1  0  0  0
  3  4  2  0  0  0
  4  5  1  0  0  0
  3  6  1  0  0  0
  6  7  2  0  0  0
  7  8  1  0  0  0
  8  9  2  0  0  0
  9 10  1  0  0  0
 10 11  2  0  0  0
  9 12  1  0  0  0
 12 13  1  0  0  0
 12 14  1  0  0  0
 12 15  1  0  0  0
 25 20  1  0  0  0
  5  1  1  0  0  0
 11  6  1  0  0  0
 18 19  1  0  0  0
M  END
> <minimizedAffinity>
8.08408

> <CNNscore>
0.4339289665

> <CNNaffinity>
6.6933913231

> <CNN_VS>
2.9044563770

> <CNNaffinity_variance>
1.1446508169

$$$$
[H]c1sc(N([H])C(=O)c2c([H])c([H])c(C(C([H])([H])[H])(C([H])([H])[H])C([H])([H])[H])c([H])c2[H])nc1-c1c([H])c([H])c(C(C([H])([H])[H])(C([H])([H])[H])C([H])([H])[H])c([H])c1[H]


 29 31  0  0  0  0  0  0  0  0999 V2000
   -9.4321   -9.5429    6.8914 C   0  0  0  0  0  0  0  0  0  0  0  0
  -10.6837   -9.0177    6.7410 N   0  0  0  0  0  0  0  0  0  0  0  0
  -11.6312   -9.7484    6.3002 C   0  0  0  0  0  0  0  0  0  0  0  0
  -11.3477  -11.0637    5.9911 C   0  0  0  0  0  0  0  0  0  0  0  0
   -9.6926  -11.1311    6.3749 S   0  0  0  0  0  0  0  0  0  0  0  0
  -13.0209   -9.2131    6.1465 C   0  0  0  0  0  0  0  0  0  0  0  0
  -13.6259   -9.2017    4.9244 C   0  0  0  0  0  0  0  0  0  0  0  0
  -14.9346   -8.7332    4.8132 C   0  0  0  0  0  0  0  0  0  0  0  0
  -15.6259   -8.2798    5.9096 C   0  0  0  0  0  0  0  0  0  0  0  0
  -15.0003   -8.2888    7.1766 C   0  0  0  0  0  0  0  0  0  0  0  0
  -13.7242   -8.7567    7.2464 C   0  0  0  0  0  0  0  0  0  0  0  0
  -17.0006   -7.7489    5.9131 C   0  0  0  0  0  0  0  0  0  0  0  0
  -17.9492   -8.6642    5.1241 C   0  0  0  0  0  0  0  0  0  0  0  0
  -17.4946   -7.7863    7.3444 C   0  0  0  0  0  0  0  0  0  0  0  0
  -17.0783   -6.3651    5.3425 C   0  0  0  0  0  0  0  0  0  0  0  0
   -8.3401   -7.6336    8.1106 C   0  0  0  0  0  0  0  0  0  0  0  0
   -7.0986   -7.1616    8.3524 O   0  0  0  0  0  0  0  0  0  0  0  0
   -8.3273   -8.7629    7.3372 N   0  0  0  0  0  0  0  0  0  0  0  0
   -7.3357   -9.1400    7.0104 H   0  0  0  0  0  0  0  0  0  0  0  0
  -11.5517   -5.5006    9.9504 C   0  0  0  0  0  0  0  0  0  0  0  0
  -11.4686   -6.8862    9.9229 C   0  0  0  0  0  0  0  0  0  0  0  0
  -10.4185   -7.5462    9.3415 C   0  0  0  0  0  0  0  0  0  0  0  0
   -9.3505   -6.8265    8.7309 C   0  0  0  0  0  0  0  0  0  0  0  0
   -9.4466   -5.4647    8.7671 C   0  0  0  0  0  0  0  0  0  0  0  0
  -10.5169   -4.7991    9.3610 C   0  0  0  0  0  0  0  0  0  0  0  0
  -12.7884   -3.3509   10.1902 C   0  0  0  0  0  0  0  0  0  0  0  0
  -12.7116   -4.8292   10.5684 C   0  0  0  0  0  0  0  0  0  0  0  0
  -13.9656   -5.4541    9.9908 C   0  0  0  0  0  0  0  0  0  0  0  0
  -12.7214   -4.9136   12.0673 C   0  0  0  0  0  0  0  0  0  0  0  0
 26 27  1  0  0  0
 27 28  1  0  0  0
 27 29  1  0  0  0
 27 20  1  0  0  0
 20 21  2  0  0  0
 21 22  1  0  0  0
 22 23  2  0  0  0
 23 24  1  0  0  0
 24 25  2  0  0  0
 23 16  1  0  0  0
 16 17  2  0  0  0
 16 18  1  0  0  0
 18  1  1  0  0  0
  1  2  2  0  0  0
  2  3  1  0  0  0
  3  4  2  0  0  0
  4  5  1  0  0  0
  3  6  1  0  0  0
  6  7  2  0  0  0
  7  8  1  0  0  0
  8  9  2  0  0  0
  9 10  1  0  0  0
 10 11  2  0  0  0
  9 12  1  0  0  0
 12 13  1  0  0  0
 12 14  1  0  0  0
 12 15  1  0  0  0
 25 20  1  0  0  0
  5  1  1  0  0  0
 11  6  1  0  0  0
 18 19  1  0  0  0
M  END
> <minimizedAffinity>
1.52722

> <CNNscore>
0.4255041182

> <CNNaffinity>
6.6888985634

> <CNN_VS>
2.8461539745

> <CNNaffinity_variance>
0.5691614151

$$$$
[H]C1=C([H])C([H])(F)C([H])([H])C([H])=C1N([H])C(=O)C1(C(=O)N([H])c2c([H])c([H])c(Oc3c([H])c([H])nc4c([H])c(OC([H])([H])C([H])([H])C([H])([H])N5C([H])([H])C([H])([H])N([H])C([H])([H])C5([H])[H])c(OC([H])([H])[H])c([H])c34)c(F)c2[H])C([H])([H])C1([H])[H]


 49 54  0  0  0  0  0  0  0  0999 V2000
   -6.7609   -7.7288    7.2692 C   0  0  0  0  0  0  0  0  0  0  0  0
   -7.4711   -6.5614    7.1454 C   0  0  0  0  0  0  0  0  0  0  0  0
   -8.7886   -6.4838    7.4194 C   0  0  0  0  0  0  0  0  0  0  0  0
   -9.5508   -7.5947    7.8640 C   0  0  0  0  0  0  0  0  0  0  0  0
   -8.8451   -8.7348    7.9865 C   0  0  0  0  0  0  0  0  0  0  0  0
   -7.4930   -8.8342    7.7069 C   0  0  0  0  0  0  0  0  0  0  0  0
   -6.9001  -10.0633    7.8721 F   0  0  0  0  0  0  0  0  0  0  0  0
  -10.9135   -7.2969    8.0712 N   0  0  0  0  0  0  0  0  0  0  0  0
  -12.0391   -8.1510    7.9424 C   0  0  0  0  0  0  0  0  0  0  0  0
  -11.9384   -9.3337    7.6083 O   0  0  0  0  0  0  0  0  0  0  0  0
  -11.1548   -6.2794    8.3737 H   0  0  0  0  0  0  0  0  0  0  0  0
  -13.4004   -7.5957    8.2635 C   0  0  0  0  0  0  0  0  0  0  0  0
  -13.3539   -6.5263    9.3754 C   0  0  0  0  0  0  0  0  0  0  0  0
  -13.8821   -7.8435    9.7224 C   0  0  0  0  0  0  0  0  0  0  0  0
  -14.4361   -7.3219    7.2848 C   0  0  0  0  0  0  0  0  0  0  0  0
  -14.5155   -6.0522    6.9018 O   0  0  0  0  0  0  0  0  0  0  0  0
  -15.3917   -8.1233    6.6668 N   0  0  0  0  0  0  0  0  0  0  0  0
  -15.5093   -9.1072    6.8542 H   0  0  0  0  0  0  0  0  0  0  0  0
  -16.3110   -7.4974    5.7005 C   0  0  0  0  0  0  0  0  0  0  0  0
  -17.3581   -8.1693    5.2615 C   0  0  0  0  0  0  0  0  0  0  0  0
  -18.3298   -7.6331    4.3053 C   0  0  0  0  0  0  0  0  0  0  0  0
  -18.0864   -6.2605    3.7962 C   0  0  0  0  0  0  0  0  0  0  0  0
  -19.2243   -5.4358    3.9925 F   0  0  0  0  0  0  0  0  0  0  0  0
  -16.8936   -5.5907    4.3178 C   0  0  0  0  0  0  0  0  0  0  0  0
  -16.0849   -6.1620    5.1967 C   0  0  0  0  0  0  0  0  0  0  0  0
   -5.4307   -7.8483    6.9899 O   0  0  0  0  0  0  0  0  0  0  0  0
   -1.5828   -9.0099    5.6998 C   0  0  0  0  0  0  0  0  0  0  0  0
   -2.8415   -8.6107    6.1217 C   0  0  0  0  0  0  0  0  0  0  0  0
   -3.0682   -7.6061    7.0329 C   0  0  0  0  0  0  0  0  0  0  0  0
   -4.3341   -7.1901    7.4725 C   0  0  0  0  0  0  0  0  0  0  0  0
   -4.4053   -6.1499    8.3905 C   0  0  0  0  0  0  0  0  0  0  0  0
   -3.2370   -5.5600    8.8523 C   0  0  0  0  0  0  0  0  0  0  0  0
   -2.0498   -5.9774    8.4254 N   0  0  0  0  0  0  0  0  0  0  0  0
   -1.9222   -6.9835    7.5316 C   0  0  0  0  0  0  0  0  0  0  0  0
   -0.6662   -7.3644    7.1271 C   0  0  0  0  0  0  0  0  0  0  0  0
   -0.4727   -8.3797    6.2101 C   0  0  0  0  0  0  0  0  0  0  0  0
   -1.0629  -11.3569    5.0872 C   0  0  0  0  0  0  0  0  0  0  0  0
   -1.3471  -10.0139    4.7798 O   0  0  0  0  0  0  0  0  0  0  0  0
    0.8337   -8.7089    5.8623 O   0  0  0  0  0  0  0  0  0  0  0  0
    1.5945   -7.7650    5.1452 C   0  0  0  0  0  0  0  0  0  0  0  0
    1.7847   -8.1754    3.7167 C   0  0  0  0  0  0  0  0  0  0  0  0
    0.6478   -7.8803    2.8008 C   0  0  0  0  0  0  0  0  0  0  0  0
    0.6558   -6.5588    2.2747 N   0  0  0  0  0  0  0  0  0  0  0  0
    1.9058   -6.0325    1.8632 C   0  0  0  0  0  0  0  0  0  0  0  0
    1.7850   -4.4998    1.8820 C   0  0  0  0  0  0  0  0  0  0  0  0
    0.7401   -4.1624    0.9296 N   0  0  0  0  0  0  0  0  0  0  0  0
   -0.5130   -4.7005    1.3749 C   0  0  0  0  0  0  0  0  0  0  0  0
   -0.4241   -6.2089    1.4200 C   0  0  0  0  0  0  0  0  0  0  0  0
    0.9720   -4.6150    0.0234 H   0  0  0  0  0  0  0  0  0  0  0  0
 37 38  1  0  0  0
 38 27  1  0  0  0
 27 28  2  0  0  0
 28 29  1  0  0  0
 29 30  2  0  0  0
 30 26  1  0  0  0
 26  1  1  0  0  0
  1  2  2  0  0  0
  2  3  1  0  0  0
  3  4  2  0  0  0
  4  8  1  0  0  0
  8  9  1  0  0  0
  9 10  2  0  0  0
  9 12  1  0  0  0
 12 13  1  0  0  0
 13 14  1  0  0  0
 12 15  1  0  0  0
 15 16  2  0  0  0
 15 17  1  0  0  0
 17 19  1  0  0  0
 19 20  2  0  0  0
 20 21  1  0  0  0
 21 22  1  0  0  0
 22 23  1  0  0  0
 22 24  1  0  0  0
 24 25  2  0  0  0
  4  5  1  0  0  0
  5  6  2  0  0  0
  6  7  1  0  0  0
 30 31  1  0  0  0
 31 32  2  0  0  0
 32 33  1  0  0  0
 33 34  2  0  0  0
 34 35  1  0  0  0
 35 36  2  0  0  0
 36 39  1  0  0  0
 39 40  1  0  0  0
 40 41  1  0  0  0
 41 42  1  0  0  0
 42 43  1  0  0  0
 43 44  1  0  0  0
 44 45  1  0  0  0
 45 46  1  0  0  0
 46 47  1  0  0  0
 47 48  1  0  0  0
 36 27  1  0  0  0
 48 43  1  0  0  0
 34 29  1  0  0  0
  6  1  1  0  0  0
 14 12  1  0  0  0
 25 19  1  0  0  0
  8 11  1  0  0  0
 17 18  1  0  0  0
 46 49  1  0  0  0
M  END
> <minimizedAffinity>
-8.59994

> <CNNscore>
0.4489059746

> <CNNaffinity>
7.2677421570

> <CNN_VS>
3.2625329494

> <CNNaffinity_variance>
0.2395917624

$$$$
[H]C1=C([H])C([H])(F)C([H])([H])C([H])=C1N([H])C(=O)C1(C(=O)N([H])c2c([H])c([H])c(Oc3c([H])c([H])nc4c([H])c(OC([H])([H])C([H])([H])C([H])([H])N5C([H])([H])C([H])([H])N([H])C([H])([H])C5([H])[H])c(OC([H])([H])[H])c([H])c34)c(F)c2[H])C([H])([H])C1([H])[H]


 49 54  0  0  0  0  0  0  0  0999 V2000
   -7.0127   -7.1416    7.4331 C   0  0  0  0  0  0  0  0  0  0  0  0
   -7.0607   -6.8730    6.0884 C   0  0  0  0  0  0  0  0  0  0  0  0
   -6.0927   -6.1824    5.4538 C   0  0  0  0  0  0  0  0  0  0  0  0
   -4.9421   -5.6814    6.1155 C   0  0  0  0  0  0  0  0  0  0  0  0
   -4.9013   -5.9531    7.4336 C   0  0  0  0  0  0  0  0  0  0  0  0
   -5.8871   -6.6578    8.1027 C   0  0  0  0  0  0  0  0  0  0  0  0
   -5.7178   -6.8589    9.4520 F   0  0  0  0  0  0  0  0  0  0  0  0
   -4.0682   -4.9709    5.2670 N   0  0  0  0  0  0  0  0  0  0  0  0
   -2.7747   -5.3387    4.8147 C   0  0  0  0  0  0  0  0  0  0  0  0
   -2.2350   -6.3981    5.1419 O   0  0  0  0  0  0  0  0  0  0  0  0
   -4.4161   -4.0083    4.8962 H   0  0  0  0  0  0  0  0  0  0  0  0
   -2.0556   -4.4134    3.8706 C   0  0  0  0  0  0  0  0  0  0  0  0
   -0.6681   -4.9508    3.4605 C   0  0  0  0  0  0  0  0  0  0  0  0
   -0.7127   -3.8410    4.4096 C   0  0  0  0  0  0  0  0  0  0  0  0
   -2.6889   -3.6632    2.8021 C   0  0  0  0  0  0  0  0  0  0  0  0
   -3.8023   -3.0294    3.1539 O   0  0  0  0  0  0  0  0  0  0  0  0
   -2.3768   -3.4812    1.4579 N   0  0  0  0  0  0  0  0  0  0  0  0
   -1.5878   -3.9101    0.9990 H   0  0  0  0  0  0  0  0  0  0  0  0
   -3.2651   -2.6357    0.6415 C   0  0  0  0  0  0  0  0  0  0  0  0
   -4.2388   -3.1892   -0.0557 C   0  0  0  0  0  0  0  0  0  0  0  0
   -5.1747   -2.4342   -0.8926 C   0  0  0  0  0  0  0  0  0  0  0  0
   -4.9798   -0.9648   -0.9635 C   0  0  0  0  0  0  0  0  0  0  0  0
   -6.1752   -0.2763   -0.6310 F   0  0  0  0  0  0  0  0  0  0  0  0
   -3.8663   -0.4320   -0.1762 C   0  0  0  0  0  0  0  0  0  0  0  0
   -3.0856   -1.2040    0.5636 C   0  0  0  0  0  0  0  0  0  0  0  0
   -7.9784   -7.8264    8.1114 O   0  0  0  0  0  0  0  0  0  0  0  0
  -11.9615   -6.7165    8.9615 C   0  0  0  0  0  0  0  0  0  0  0  0
  -10.6586   -7.0855    8.6651 C   0  0  0  0  0  0  0  0  0  0  0  0
  -10.3154   -8.2336    7.9904 C   0  0  0  0  0  0  0  0  0  0  0  0
   -9.0030   -8.6237    7.6835 C   0  0  0  0  0  0  0  0  0  0  0  0
   -8.8131   -9.8086    6.9834 C   0  0  0  0  0  0  0  0  0  0  0  0
   -9.9116  -10.5734    6.6166 C   0  0  0  0  0  0  0  0  0  0  0  0
  -11.1443  -10.1851    6.9257 N   0  0  0  0  0  0  0  0  0  0  0  0
  -11.3869   -9.0408    7.6033 C   0  0  0  0  0  0  0  0  0  0  0  0
  -12.6850   -8.6936    7.8877 C   0  0  0  0  0  0  0  0  0  0  0  0
  -12.9960   -7.5326    8.5694 C   0  0  0  0  0  0  0  0  0  0  0  0
  -12.3930   -5.4174   11.0304 C   0  0  0  0  0  0  0  0  0  0  0  0
  -12.3148   -5.5615    9.6332 O   0  0  0  0  0  0  0  0  0  0  0  0
  -14.3366   -7.2612    8.8245 O   0  0  0  0  0  0  0  0  0  0  0  0
  -15.2792   -8.2873    8.6184 C   0  0  0  0  0  0  0  0  0  0  0  0
  -16.3072   -7.9001    7.5993 C   0  0  0  0  0  0  0  0  0  0  0  0
  -15.8674   -7.9661    6.1778 C   0  0  0  0  0  0  0  0  0  0  0  0
  -16.2744   -6.8517    5.3932 N   0  0  0  0  0  0  0  0  0  0  0  0
  -15.2631   -6.1489    4.6918 C   0  0  0  0  0  0  0  0  0  0  0  0
  -15.8001   -4.7361    4.4094 C   0  0  0  0  0  0  0  0  0  0  0  0
  -16.9828   -4.9082    3.5821 N   0  0  0  0  0  0  0  0  0  0  0  0
  -17.9906   -5.6147    4.3191 C   0  0  0  0  0  0  0  0  0  0  0  0
  -17.4847   -6.9971    4.6630 C   0  0  0  0  0  0  0  0  0  0  0  0
  -16.7216   -5.4951    2.7652 H   0  0  0  0  0  0  0  0  0  0  0  0
 37 38  1  0  0  0
 38 27  1  0  0  0
 27 28  2  0  0  0
 28 29  1  0  0  0
 29 30  2  0  0  0
 30 26  1  0  0  0
 26  1  1  0  0  0
  1  2  2  0  0  0
  2  3  1  0  0  0
  3  4  2  0  0  0
  4  8  1  0  0  0
  8  9  1  0  0  0
  9 10  2  0  0  0
  9 12  1  0  0  0
 12 13  1  0  0  0
 13 14  1  0  0  0
 12 15  1  0  0  0
 15 16  2  0  0  0
 15 17  1  0  0  0
 17 19  1  0  0  0
 19 20  2  0  0  0
 20 21  1  0  0  0
 21 22  1  0  0  0
 22 23  1  0  0  0
 22 24  1  0  0  0
 24 25  2  0  0  0
  4  5  1  0  0  0
  5  6  2  0  0  0
  6  7  1  0  0  0
 30 31  1  0  0  0
 31 32  2  0  0  0
 32 33  1  0  0  0
 33 34  2  0  0  0
 34 35  1  0  0  0
 35 36  2  0  0  0
 36 39  1  0  0  0
 39 40  1  0  0  0
 40 41  1  0  0  0
 41 42  1  0  0  0
 42 43  1  0  0  0
 43 44  1  0  0  0
 44 45  1  0  0  0
 45 46  1  0  0  0
 46 47  1  0  0  0
 47 48  1  0  0  0
 36 27  1  0  0  0
 48 43  1  0  0  0
 34 29  1  0  0  0
  6  1  1  0  0  0
 14 12  1  0  0  0
 25 19  1  0  0  0
  8 11  1  0  0  0
 17 18  1  0  0  0
 46 49  1  0  0  0
M  END
> <minimizedAffinity>
-8.93965

> <CNNscore>
0.3393117785

> <CNNaffinity>
7.7076950073

> <CNN_VS>
2.6153116226

> <CNNaffinity_variance>
0.1279105842

$$$$
[H]C1=C([H])C([H])(F)C([H])([H])C([H])=C1N([H])C(=O)C1(C(=O)N([H])c2c([H])c([H])c(Oc3c([H])c([H])nc4c([H])c(OC([H])([H])C([H])([H])C([H])([H])N5C([H])([H])C([H])([H])N([H])C([H])([H])C5([H])[H])c(OC([H])([H])[H])c([H])c34)c(F)c2[H])C([H])([H])C1([H])[H]


 49 54  0  0  0  0  0  0  0  0999 V2000
   -6.6536   -6.9810    7.4565 C   0  0  0  0  0  0  0  0  0  0  0  0
   -6.6348   -6.8323    6.0926 C   0  0  0  0  0  0  0  0  0  0  0  0
   -5.6392   -6.1913    5.4486 C   0  0  0  0  0  0  0  0  0  0  0  0
   -4.5261   -5.6232    6.1201 C   0  0  0  0  0  0  0  0  0  0  0  0
   -4.5507   -5.7774    7.4574 C   0  0  0  0  0  0  0  0  0  0  0  0
   -5.5657   -6.4296    8.1362 C   0  0  0  0  0  0  0  0  0  0  0  0
   -5.4638   -6.5095    9.5047 F   0  0  0  0  0  0  0  0  0  0  0  0
   -3.6139   -4.9821    5.2568 N   0  0  0  0  0  0  0  0  0  0  0  0
   -3.4386   -3.5938    5.0218 C   0  0  0  0  0  0  0  0  0  0  0  0
   -4.1182   -2.7351    5.5886 O   0  0  0  0  0  0  0  0  0  0  0  0
   -2.9428   -5.6218    4.6863 H   0  0  0  0  0  0  0  0  0  0  0  0
   -2.3556   -3.1590    4.0717 C   0  0  0  0  0  0  0  0  0  0  0  0
   -2.2267   -4.0990    2.8543 C   0  0  0  0  0  0  0  0  0  0  0  0
   -1.1965   -4.1808    3.8871 C   0  0  0  0  0  0  0  0  0  0  0  0
   -2.0548   -1.7807    3.7322 C   0  0  0  0  0  0  0  0  0  0  0  0
   -1.5196   -1.0706    4.7193 O   0  0  0  0  0  0  0  0  0  0  0  0
   -2.2300   -1.0302    2.5732 N   0  0  0  0  0  0  0  0  0  0  0  0
   -2.6515   -1.3863    1.7290 H   0  0  0  0  0  0  0  0  0  0  0  0
   -1.8034    0.3799    2.5813 C   0  0  0  0  0  0  0  0  0  0  0  0
   -0.7174    0.7403    1.9246 C   0  0  0  0  0  0  0  0  0  0  0  0
   -0.2154    2.1154    1.8696 C   0  0  0  0  0  0  0  0  0  0  0  0
   -0.9766    3.1408    2.6257 C   0  0  0  0  0  0  0  0  0  0  0  0
   -1.3365    4.2279    1.7878 F   0  0  0  0  0  0  0  0  0  0  0  0
   -2.1575    2.6562    3.3427 C   0  0  0  0  0  0  0  0  0  0  0  0
   -2.5354    1.3876    3.3139 C   0  0  0  0  0  0  0  0  0  0  0  0
   -7.6490   -7.6124    8.1437 O   0  0  0  0  0  0  0  0  0  0  0  0
  -11.6659   -6.6281    8.9894 C   0  0  0  0  0  0  0  0  0  0  0  0
  -10.3517   -6.9564    8.6946 C   0  0  0  0  0  0  0  0  0  0  0  0
   -9.9703   -8.1054    8.0425 C   0  0  0  0  0  0  0  0  0  0  0  0
   -8.6460   -8.4547    7.7374 C   0  0  0  0  0  0  0  0  0  0  0  0
   -8.4166   -9.6465    7.0614 C   0  0  0  0  0  0  0  0  0  0  0  0
   -9.4884  -10.4576    6.7160 C   0  0  0  0  0  0  0  0  0  0  0  0
  -10.7330  -10.1073    7.0228 N   0  0  0  0  0  0  0  0  0  0  0  0
  -11.0138   -8.9584    7.6775 C   0  0  0  0  0  0  0  0  0  0  0  0
  -12.3223   -8.6519    7.9608 C   0  0  0  0  0  0  0  0  0  0  0  0
  -12.6720   -7.4888    8.6195 C   0  0  0  0  0  0  0  0  0  0  0  0
  -12.4795   -5.3878   10.9779 C   0  0  0  0  0  0  0  0  0  0  0  0
  -12.0577   -5.4725    9.6385 O   0  0  0  0  0  0  0  0  0  0  0  0
  -14.0205   -7.2602    8.8754 O   0  0  0  0  0  0  0  0  0  0  0  0
  -14.9354   -7.3878    7.8122 C   0  0  0  0  0  0  0  0  0  0  0  0
  -14.6145   -6.4501    6.6883 C   0  0  0  0  0  0  0  0  0  0  0  0
  -14.7634   -7.0089    5.3157 C   0  0  0  0  0  0  0  0  0  0  0  0
  -16.1055   -7.0404    4.8456 N   0  0  0  0  0  0  0  0  0  0  0  0
  -16.5581   -5.9222    4.1018 C   0  0  0  0  0  0  0  0  0  0  0  0
  -18.0927   -5.9014    4.1959 C   0  0  0  0  0  0  0  0  0  0  0  0
  -18.5537   -7.1439    3.5989 N   0  0  0  0  0  0  0  0  0  0  0  0
  -18.0878   -8.2564    4.3756 C   0  0  0  0  0  0  0  0  0  0  0  0
  -16.5766   -8.2870    4.3525 C   0  0  0  0  0  0  0  0  0  0  0  0
  -18.1314   -7.2226    2.6526 H   0  0  0  0  0  0  0  0  0  0  0  0
 37 38  1  0  0  0
 38 27  1  0  0  0
 27 28  2  0  0  0
 28 29  1  0  0  0
 29 30  2  0  0  0
 30 26  1  0  0  0
 26  1  1  0  0  0
  1  2  2  0  0  0
  2  3  1  0  0  0
  3  4  2  0  0  0
  4  8  1  0  0  0
  8  9  1  0  0  0
  9 10  2  0  0  0
  9 12  1  0  0  0
 12 13  1  0  0  0
 13 14  1  0  0  0
 12 15  1  0  0  0
 15 16  2  0  0  0
 15 17  1  0  0  0
 17 19  1  0  0  0
 19 20  2  0  0  0
 20 21  1  0  0  0
 21 22  1  0  0  0
 22 23  1  0  0  0
 22 24  1  0  0  0
 24 25  2  0  0  0
  4  5  1  0  0  0
  5  6  2  0  0  0
  6  7  1  0  0  0
 30 31  1  0  0  0
 31 32  2  0  0  0
 32 33  1  0  0  0
 33 34  2  0  0  0
 34 35  1  0  0  0
 35 36  2  0  0  0
 36 39  1  0  0  0
 39 40  1  0  0  0
 40 41  1  0  0  0
 41 42  1  0  0  0
 42 43  1  0  0  0
 43 44  1  0  0  0
 44 45  1  0  0  0
 45 46  1  0  0  0
 46 47  1  0  0  0
 47 48  1  0  0  0
 36 27  1  0  0  0
 48 43  1  0  0  0
 34 29  1  0  0  0
  6  1  1  0  0  0
 14 12  1  0  0  0
 25 19  1  0  0  0
  8 11  1  0  0  0
 17 18  1  0  0  0
 46 49  1  0  0  0
M  END
> <minimizedAffinity>
-8.09201

> <CNNscore>
0.2903356552

> <CNNaffinity>
7.4115762711

> <CNN_VS>
2.1518447399

> <CNNaffinity_variance>
0.1213579997

$$$$
[H]C1=C([H])C([H])(F)C([H])([H])C([H])=C1N([H])C(=O)C1(C(=O)N([H])c2c([H])c([H])c(Oc3c([H])c([H])nc4c([H])c(OC([H])([H])C([H])([H])C([H])([H])N5C([H])([H])C([H])([H])N([H])C([H])([H])C5([H])[H])c(OC([H])([H])[H])c([H])c34)c(F)c2[H])C([H])([H])C1([H])[H]


 49 54  0  0  0  0  0  0  0  0999 V2000
   -6.0650   -7.3915    6.4653 C   0  0  0  0  0  0  0  0  0  0  0  0
   -7.0454   -6.4442    6.3098 C   0  0  0  0  0  0  0  0  0  0  0  0
   -8.3133   -6.6410    6.7225 C   0  0  0  0  0  0  0  0  0  0  0  0
   -8.7416   -7.8356    7.3567 C   0  0  0  0  0  0  0  0  0  0  0  0
   -7.7724   -8.7577    7.5089 C   0  0  0  0  0  0  0  0  0  0  0  0
   -6.4661   -8.5747    7.0888 C   0  0  0  0  0  0  0  0  0  0  0  0
   -5.5806   -9.6037    7.3046 F   0  0  0  0  0  0  0  0  0  0  0  0
  -10.1124   -7.8384    7.6871 N   0  0  0  0  0  0  0  0  0  0  0  0
  -11.0793   -8.8515    7.4587 C   0  0  0  0  0  0  0  0  0  0  0  0
  -10.8035   -9.9171    6.9030 O   0  0  0  0  0  0  0  0  0  0  0  0
  -10.5002   -6.9531    8.1880 H   0  0  0  0  0  0  0  0  0  0  0  0
  -12.4838   -8.6251    7.9492 C   0  0  0  0  0  0  0  0  0  0  0  0
  -12.5227   -7.9349    9.3291 C   0  0  0  0  0  0  0  0  0  0  0  0
  -12.8420   -9.3595    9.2736 C   0  0  0  0  0  0  0  0  0  0  0  0
  -13.6018   -8.2342    7.1109 C   0  0  0  0  0  0  0  0  0  0  0  0
  -13.6653   -6.9348    6.8415 O   0  0  0  0  0  0  0  0  0  0  0  0
  -14.6497   -8.9472    6.5355 N   0  0  0  0  0  0  0  0  0  0  0  0
  -14.7897   -9.9388    6.6548 H   0  0  0  0  0  0  0  0  0  0  0  0
  -15.6355   -8.2107    5.7254 C   0  0  0  0  0  0  0  0  0  0  0  0
  -15.6520   -8.3623    4.4150 C   0  0  0  0  0  0  0  0  0  0  0  0
  -16.5942   -7.6782    3.5259 C   0  0  0  0  0  0  0  0  0  0  0  0
  -17.5607   -6.7462    4.1580 C   0  0  0  0  0  0  0  0  0  0  0  0
  -18.8930   -7.0690    3.7914 F   0  0  0  0  0  0  0  0  0  0  0  0
  -17.4644   -6.6203    5.6134 C   0  0  0  0  0  0  0  0  0  0  0  0
  -16.5815   -7.3000    6.3285 C   0  0  0  0  0  0  0  0  0  0  0  0
   -4.7751   -7.2329    6.0499 O   0  0  0  0  0  0  0  0  0  0  0  0
   -3.3793   -3.2623    5.7245 C   0  0  0  0  0  0  0  0  0  0  0  0
   -3.8342   -4.5658    5.8495 C   0  0  0  0  0  0  0  0  0  0  0  0
   -3.1959   -5.5399    6.5807 C   0  0  0  0  0  0  0  0  0  0  0  0
   -3.6404   -6.8637    6.7169 C   0  0  0  0  0  0  0  0  0  0  0  0
   -2.8933   -7.7337    7.5011 C   0  0  0  0  0  0  0  0  0  0  0  0
   -1.7345   -7.2810    8.1163 C   0  0  0  0  0  0  0  0  0  0  0  0
   -1.3312   -6.0237    7.9656 N   0  0  0  0  0  0  0  0  0  0  0  0
   -2.0204   -5.1346    7.2161 C   0  0  0  0  0  0  0  0  0  0  0  0
   -1.5524   -3.8482    7.1043 C   0  0  0  0  0  0  0  0  0  0  0  0
   -2.2175   -2.8930    6.3599 C   0  0  0  0  0  0  0  0  0  0  0  0
   -3.8418   -2.0260    3.6240 C   0  0  0  0  0  0  0  0  0  0  0  0
   -4.0185   -2.2762    4.9970 O   0  0  0  0  0  0  0  0  0  0  0  0
   -1.6692   -1.6159    6.2916 O   0  0  0  0  0  0  0  0  0  0  0  0
   -1.1549   -1.0435    7.4712 C   0  0  0  0  0  0  0  0  0  0  0  0
   -2.2429   -0.4864    8.3380 C   0  0  0  0  0  0  0  0  0  0  0  0
   -3.4200    0.0759    7.6193 C   0  0  0  0  0  0  0  0  0  0  0  0
   -3.3730    1.4869    7.4459 N   0  0  0  0  0  0  0  0  0  0  0  0
   -3.9026    2.0097    6.2397 C   0  0  0  0  0  0  0  0  0  0  0  0
   -3.2599    3.3888    6.0181 C   0  0  0  0  0  0  0  0  0  0  0  0
   -3.6498    4.2068    7.1546 N   0  0  0  0  0  0  0  0  0  0  0  0
   -3.0943    3.6591    8.3585 C   0  0  0  0  0  0  0  0  0  0  0  0
   -3.6623    2.2776    8.5905 C   0  0  0  0  0  0  0  0  0  0  0  0
   -4.6847    4.1671    7.2399 H   0  0  0  0  0  0  0  0  0  0  0  0
 37 38  1  0  0  0
 38 27  1  0  0  0
 27 28  2  0  0  0
 28 29  1  0  0  0
 29 30  2  0  0  0
 30 26  1  0  0  0
 26  1  1  0  0  0
  1  2  2  0  0  0
  2  3  1  0  0  0
  3  4  2  0  0  0
  4  8  1  0  0  0
  8  9  1  0  0  0
  9 10  2  0  0  0
  9 12  1  0  0  0
 12 13  1  0  0  0
 13 14  1  0  0  0
 12 15  1  0  0  0
 15 16  2  0  0  0
 15 17  1  0  0  0
 17 19  1  0  0  0
 19 20  2  0  0  0
 20 21  1  0  0  0
 21 22  1  0  0  0
 22 23  1  0  0  0
 22 24  1  0  0  0
 24 25  2  0  0  0
  4  5  1  0  0  0
  5  6  2  0  0  0
  6  7  1  0  0  0
 30 31  1  0  0  0
 31 32  2  0  0  0
 32 33  1  0  0  0
 33 34  2  0  0  0
 34 35  1  0  0  0
 35 36  2  0  0  0
 36 39  1  0  0  0
 39 40  1  0  0  0
 40 41  1  0  0  0
 41 42  1  0  0  0
 42 43  1  0  0  0
 43 44  1  0  0  0
 44 45  1  0  0  0
 45 46  1  0  0  0
 46 47  1  0  0  0
 47 48  1  0  0  0
 36 27  1  0  0  0
 48 43  1  0  0  0
 34 29  1  0  0  0
  6  1  1  0  0  0
 14 12  1  0  0  0
 25 19  1  0  0  0
  8 11  1  0  0  0
 17 18  1  0  0  0
 46 49  1  0  0  0
M  END
> <minimizedAffinity>
-8.07930

> <CNNscore>
0.2416498661

> <CNNaffinity>
7.1923933029

> <CNN_VS>
1.7380409241

> <CNNaffinity_variance>
0.1647162735

$$$$
[H]C1=C([H])C([H])(F)C([H])([H])C([H])=C1N([H])C(=O)C1(C(=O)N([H])c2c([H])c([H])c(Oc3c([H])c([H])nc4c([H])c(OC([H])([H])C([H])([H])C([H])([H])N5C([H])([H])C([H])([H])N([H])C([H])([H])C5([H])[H])c(OC([H])([H])[H])c([H])c34)c(F)c2[H])C([H])([H])C1([H])[H]


 49 54  0  0  0  0  0  0  0  0999 V2000
   -6.5655   -7.2410    6.7331 C   0  0  0  0  0  0  0  0  0  0  0  0
   -7.5206   -6.2584    6.6635 C   0  0  0  0  0  0  0  0  0  0  0  0
   -8.7982   -6.4636    7.0411 C   0  0  0  0  0  0  0  0  0  0  0  0
   -9.2632   -7.7046    7.5474 C   0  0  0  0  0  0  0  0  0  0  0  0
   -8.3185   -8.6615    7.6161 C   0  0  0  0  0  0  0  0  0  0  0  0
   -7.0029   -8.4702    7.2302 C   0  0  0  0  0  0  0  0  0  0  0  0
   -6.1453   -9.5378    7.3506 F   0  0  0  0  0  0  0  0  0  0  0  0
  -10.6379   -7.7059    7.8615 N   0  0  0  0  0  0  0  0  0  0  0  0
  -11.3377   -6.8938    8.7910 C   0  0  0  0  0  0  0  0  0  0  0  0
  -10.7754   -6.0370    9.4768 O   0  0  0  0  0  0  0  0  0  0  0  0
  -11.2645   -8.4179    7.3271 H   0  0  0  0  0  0  0  0  0  0  0  0
  -12.8279   -7.0647    8.9122 C   0  0  0  0  0  0  0  0  0  0  0  0
  -13.4468   -6.1169    9.9614 C   0  0  0  0  0  0  0  0  0  0  0  0
  -13.3227   -7.5296   10.3124 C   0  0  0  0  0  0  0  0  0  0  0  0
  -13.7272   -7.3114    7.8005 C   0  0  0  0  0  0  0  0  0  0  0  0
  -14.1673   -6.2167    7.1897 O   0  0  0  0  0  0  0  0  0  0  0  0
  -14.2477   -8.4758    7.2431 N   0  0  0  0  0  0  0  0  0  0  0  0
  -14.0557   -9.4026    7.5912 H   0  0  0  0  0  0  0  0  0  0  0  0
  -15.1593   -8.3537    6.0921 C   0  0  0  0  0  0  0  0  0  0  0  0
  -16.4316   -8.0669    6.2908 C   0  0  0  0  0  0  0  0  0  0  0  0
  -17.4134   -7.9210    5.2133 C   0  0  0  0  0  0  0  0  0  0  0  0
  -16.9292   -8.1379    3.8274 C   0  0  0  0  0  0  0  0  0  0  0  0
  -17.2415   -7.0284    2.9998 F   0  0  0  0  0  0  0  0  0  0  0  0
  -15.5098   -8.4708    3.6942 C   0  0  0  0  0  0  0  0  0  0  0  0
  -14.7005   -8.5631    4.7380 C   0  0  0  0  0  0  0  0  0  0  0  0
   -5.2668   -7.0741    6.3493 O   0  0  0  0  0  0  0  0  0  0  0  0
   -3.4374   -4.9950    9.5353 C   0  0  0  0  0  0  0  0  0  0  0  0
   -4.0346   -5.6938    8.4976 C   0  0  0  0  0  0  0  0  0  0  0  0
   -3.5045   -6.8247    7.9222 C   0  0  0  0  0  0  0  0  0  0  0  0
   -4.0936   -7.5433    6.8709 C   0  0  0  0  0  0  0  0  0  0  0  0
   -3.4434   -8.6774    6.4006 C   0  0  0  0  0  0  0  0  0  0  0  0
   -2.2372   -9.0629    6.9686 C   0  0  0  0  0  0  0  0  0  0  0  0
   -1.6967   -8.3607    7.9590 N   0  0  0  0  0  0  0  0  0  0  0  0
   -2.2869   -7.2510    8.4564 C   0  0  0  0  0  0  0  0  0  0  0  0
   -1.6785   -6.5726    9.4840 C   0  0  0  0  0  0  0  0  0  0  0  0
   -2.2374   -5.4375   10.0393 C   0  0  0  0  0  0  0  0  0  0  0  0
   -3.6829   -2.5356    9.7490 C   0  0  0  0  0  0  0  0  0  0  0  0
   -3.9669   -3.8617   10.1230 O   0  0  0  0  0  0  0  0  0  0  0  0
   -1.5500   -4.8056   11.0710 O   0  0  0  0  0  0  0  0  0  0  0  0
   -0.4967   -3.9320   10.7380 C   0  0  0  0  0  0  0  0  0  0  0  0
   -0.1226   -3.0492   11.8896 C   0  0  0  0  0  0  0  0  0  0  0  0
   -1.2589   -2.4967   12.6783 C   0  0  0  0  0  0  0  0  0  0  0  0
   -1.6439   -1.1818   12.2964 N   0  0  0  0  0  0  0  0  0  0  0  0
   -2.4410   -0.4485   13.2104 C   0  0  0  0  0  0  0  0  0  0  0  0
   -3.1805    0.6335   12.4064 C   0  0  0  0  0  0  0  0  0  0  0  0
   -2.1531    1.4776   11.8193 N   0  0  0  0  0  0  0  0  0  0  0  0
   -1.3679    0.7121   10.8942 C   0  0  0  0  0  0  0  0  0  0  0  0
   -0.6595   -0.3984   11.6358 C   0  0  0  0  0  0  0  0  0  0  0  0
   -1.5213    1.7932   12.5815 H   0  0  0  0  0  0  0  0  0  0  0  0
 37 38  1  0  0  0
 38 27  1  0  0  0
 27 28  2  0  0  0
 28 29  1  0  0  0
 29 30  2  0  0  0
 30 26  1  0  0  0
 26  1  1  0  0  0
  1  2  2  0  0  0
  2  3  1  0  0  0
  3  4  2  0  0  0
  4  8  1  0  0  0
  8  9  1  0  0  0
  9 10  2  0  0  0
  9 12  1  0  0  0
 12 13  1  0  0  0
 13 14  1  0  0  0
 12 15  1  0  0  0
 15 16  2  0  0  0
 15 17  1  0  0  0
 17 19  1  0  0  0
 19 20  2  0  0  0
 20 21  1  0  0  0
 21 22  1  0  0  0
 22 23  1  0  0  0
 22 24  1  0  0  0
 24 25  2  0  0  0
  4  5  1  0  0  0
  5  6  2  0  0  0
  6  7  1  0  0  0
 30 31  1  0  0  0
 31 32  2  0  0  0
 32 33  1  0  0  0
 33 34  2  0  0  0
 34 35  1  0  0  0
 35 36  2  0  0  0
 36 39  1  0  0  0
 39 40  1  0  0  0
 40 41  1  0  0  0
 41 42  1  0  0  0
 42 43  1  0  0  0
 43 44  1  0  0  0
 44 45  1  0  0  0
 45 46  1  0  0  0
 46 47  1  0  0  0
 47 48  1  0  0  0
 36 27  1  0  0  0
 48 43  1  0  0  0
 34 29  1  0  0  0
  6  1  1  0  0  0
 14 12  1  0  0  0
 25 19  1  0  0  0
  8 11  1  0  0  0
 17 18  1  0  0  0
 46 49  1  0  0  0
M  END
> <minimizedAffinity>
-8.30967

> <CNNscore>
0.2382736206

> <CNNaffinity>
7.0062422752

> <CNN_VS>
1.6694027185

> <CNNaffinity_variance>
0.0539806597

$$$$
[H]C1=C([H])C([H])(F)C([H])([H])C([H])=C1N([H])C(=O)C1(C(=O)N([H])c2c([H])c([H])c(Oc3c([H])c([H])nc4c([H])c(OC([H])([H])C([H])([H])C([H])([H])N5C([H])([H])C([H])([H])N([H])C([H])([H])C5([H])[H])c(OC([H])([H])[H])c([H])c34)c(F)c2[H])C([H])([H])C1([H])[H]


 49 54  0  0  0  0  0  0  0  0999 V2000
   -7.2557   -7.2259    7.6427 C   0  0  0  0  0  0  0  0  0  0  0  0
   -6.0862   -7.5236    8.2956 C   0  0  0  0  0  0  0  0  0  0  0  0
   -4.8754   -7.2364    7.7777 C   0  0  0  0  0  0  0  0  0  0  0  0
   -4.7050   -6.5981    6.5222 C   0  0  0  0  0  0  0  0  0  0  0  0
   -5.8576   -6.3059    5.8907 C   0  0  0  0  0  0  0  0  0  0  0  0
   -7.1096   -6.5959    6.4053 C   0  0  0  0  0  0  0  0  0  0  0  0
   -8.2027   -6.2445    5.6495 F   0  0  0  0  0  0  0  0  0  0  0  0
   -3.3542   -6.4118    6.1631 N   0  0  0  0  0  0  0  0  0  0  0  0
   -2.3546   -7.3907    5.9267 C   0  0  0  0  0  0  0  0  0  0  0  0
   -2.5768   -8.6001    6.0193 O   0  0  0  0  0  0  0  0  0  0  0  0
   -3.0134   -5.3849    6.0438 H   0  0  0  0  0  0  0  0  0  0  0  0
   -0.9838   -6.9293    5.5115 C   0  0  0  0  0  0  0  0  0  0  0  0
    0.0815   -8.0361    5.6607 C   0  0  0  0  0  0  0  0  0  0  0  0
    0.0861   -6.9531    6.6413 C   0  0  0  0  0  0  0  0  0  0  0  0
   -0.7088   -6.0541    4.3872 C   0  0  0  0  0  0  0  0  0  0  0  0
   -1.6489   -5.1463    4.1481 O   0  0  0  0  0  0  0  0  0  0  0  0
    0.3447   -5.9785    3.4806 N   0  0  0  0  0  0  0  0  0  0  0  0
    1.1349   -6.6051    3.4807 H   0  0  0  0  0  0  0  0  0  0  0  0
    0.2955   -4.9412    2.4356 C   0  0  0  0  0  0  0  0  0  0  0  0
   -0.1664   -5.2398    1.2364 C   0  0  0  0  0  0  0  0  0  0  0  0
   -0.2587   -4.2787    0.1346 C   0  0  0  0  0  0  0  0  0  0  0  0
    0.2253   -2.9012    0.4005 C   0  0  0  0  0  0  0  0  0  0  0  0
   -0.7720   -1.9419    0.0862 F   0  0  0  0  0  0  0  0  0  0  0  0
    0.7396   -2.6568    1.7493 C   0  0  0  0  0  0  0  0  0  0  0  0
    0.7641   -3.5965    2.6815 C   0  0  0  0  0  0  0  0  0  0  0  0
   -8.4979   -7.5118    8.1295 O   0  0  0  0  0  0  0  0  0  0  0  0
  -12.5428   -6.8317    9.1276 C   0  0  0  0  0  0  0  0  0  0  0  0
  -11.2196   -7.0601    8.7828 C   0  0  0  0  0  0  0  0  0  0  0  0
  -10.7811   -8.1654    8.0920 C   0  0  0  0  0  0  0  0  0  0  0  0
   -9.4468   -8.4137    7.7362 C   0  0  0  0  0  0  0  0  0  0  0  0
   -9.1576   -9.5719    7.0254 C   0  0  0  0  0  0  0  0  0  0  0  0
  -10.1812  -10.4493    6.6960 C   0  0  0  0  0  0  0  0  0  0  0  0
  -11.4362  -10.1942    7.0510 N   0  0  0  0  0  0  0  0  0  0  0  0
  -11.7742   -9.0821    7.7411 C   0  0  0  0  0  0  0  0  0  0  0  0
  -13.0905   -8.8749    8.0737 C   0  0  0  0  0  0  0  0  0  0  0  0
  -13.4982   -7.7534    8.7704 C   0  0  0  0  0  0  0  0  0  0  0  0
  -12.2117   -4.9068   10.6571 C   0  0  0  0  0  0  0  0  0  0  0  0
  -12.9921   -5.7207    9.8158 O   0  0  0  0  0  0  0  0  0  0  0  0
  -14.8499   -7.6261    9.0750 O   0  0  0  0  0  0  0  0  0  0  0  0
  -15.7531   -8.5502    8.5148 C   0  0  0  0  0  0  0  0  0  0  0  0
  -16.6507   -7.9054    7.5029 C   0  0  0  0  0  0  0  0  0  0  0  0
  -16.1950   -7.9867    6.0872 C   0  0  0  0  0  0  0  0  0  0  0  0
  -16.4180   -6.7984    5.3379 N   0  0  0  0  0  0  0  0  0  0  0  0
  -15.3072   -6.2466    4.6522 C   0  0  0  0  0  0  0  0  0  0  0  0
  -15.6103   -4.7580    4.4142 C   0  0  0  0  0  0  0  0  0  0  0  0
  -16.8056   -4.7133    3.5884 N   0  0  0  0  0  0  0  0  0  0  0  0
  -17.9135   -5.2704    4.3096 C   0  0  0  0  0  0  0  0  0  0  0  0
  -17.6362   -6.7257    4.6101 C   0  0  0  0  0  0  0  0  0  0  0  0
  -16.6425   -5.3098    2.7533 H   0  0  0  0  0  0  0  0  0  0  0  0
 37 38  1  0  0  0
 38 27  1  0  0  0
 27 28  2  0  0  0
 28 29  1  0  0  0
 29 30  2  0  0  0
 30 26  1  0  0  0
 26  1  1  0  0  0
  1  2  2  0  0  0
  2  3  1  0  0  0
  3  4  2  0  0  0
  4  8  1  0  0  0
  8  9  1  0  0  0
  9 10  2  0  0  0
  9 12  1  0  0  0
 12 13  1  0  0  0
 13 14  1  0  0  0
 12 15  1  0  0  0
 15 16  2  0  0  0
 15 17  1  0  0  0
 17 19  1  0  0  0
 19 20  2  0  0  0
 20 21  1  0  0  0
 21 22  1  0  0  0
 22 23  1  0  0  0
 22 24  1  0  0  0
 24 25  2  0  0  0
  4  5  1  0  0  0
  5  6  2  0  0  0
  6  7  1  0  0  0
 30 31  1  0  0  0
 31 32  2  0  0  0
 32 33  1  0  0  0
 33 34  2  0  0  0
 34 35  1  0  0  0
 35 36  2  0  0  0
 36 39  1  0  0  0
 39 40  1  0  0  0
 40 41  1  0  0  0
 41 42  1  0  0  0
 42 43  1  0  0  0
 43 44  1  0  0  0
 44 45  1  0  0  0
 45 46  1  0  0  0
 46 47  1  0  0  0
 47 48  1  0  0  0
 36 27  1  0  0  0
 48 43  1  0  0  0
 34 29  1  0  0  0
  6  1  1  0  0  0
 14 12  1  0  0  0
 25 19  1  0  0  0
  8 11  1  0  0  0
 17 18  1  0  0  0
 46 49  1  0  0  0
M  END
> <minimizedAffinity>
-7.99095

> <CNNscore>
0.2035213709

> <CNNaffinity>
7.3681282997

> <CNN_VS>
1.4995715618

> <CNNaffinity_variance>
0.0184440538

$$$$
[H]C1=C([H])C([H])(F)C([H])([H])C([H])=C1N([H])C(=O)C1(C(=O)N([H])c2c([H])c([H])c(Oc3c([H])c([H])nc4c([H])c(OC([H])([H])C([H])([H])C([H])([H])N5C([H])([H])C([H])([H])N([H])C([H])([H])C5([H])[H])c(OC([H])([H])[H])c([H])c34)c(F)c2[H])C([H])([H])C1([H])[H]


 49 54  0  0  0  0  0  0  0  0999 V2000
   -7.1645   -7.2304    7.4958 C   0  0  0  0  0  0  0  0  0  0  0  0
   -7.1037   -7.0105    6.1429 C   0  0  0  0  0  0  0  0  0  0  0  0
   -6.0260   -6.4628    5.5468 C   0  0  0  0  0  0  0  0  0  0  0  0
   -4.8636   -6.0740    6.2612 C   0  0  0  0  0  0  0  0  0  0  0  0
   -4.9304   -6.2971    7.5873 C   0  0  0  0  0  0  0  0  0  0  0  0
   -6.0293   -6.8555    8.2172 C   0  0  0  0  0  0  0  0  0  0  0  0
   -5.9620   -7.0223    9.5800 F   0  0  0  0  0  0  0  0  0  0  0  0
   -3.8647   -5.5039    5.4454 N   0  0  0  0  0  0  0  0  0  0  0  0
   -3.3764   -4.1717    5.4387 C   0  0  0  0  0  0  0  0  0  0  0  0
   -3.8074   -3.3043    6.2018 O   0  0  0  0  0  0  0  0  0  0  0  0
   -3.3902   -6.1592    4.7171 H   0  0  0  0  0  0  0  0  0  0  0  0
   -2.2644   -3.8209    4.4873 C   0  0  0  0  0  0  0  0  0  0  0  0
   -1.5075   -2.5439    4.9099 C   0  0  0  0  0  0  0  0  0  0  0  0
   -2.4211   -2.4468    3.7739 C   0  0  0  0  0  0  0  0  0  0  0  0
   -1.3932   -4.7834    3.8392 C   0  0  0  0  0  0  0  0  0  0  0  0
   -1.9951   -5.5651    2.9494 O   0  0  0  0  0  0  0  0  0  0  0  0
   -0.0387   -5.0752    3.9715 N   0  0  0  0  0  0  0  0  0  0  0  0
    0.5774   -4.6110    4.6212 H   0  0  0  0  0  0  0  0  0  0  0  0
    0.5313   -6.1464    3.1361 C   0  0  0  0  0  0  0  0  0  0  0  0
    0.5291   -7.3909    3.5740 C   0  0  0  0  0  0  0  0  0  0  0  0
    1.0678   -8.5236    2.8169 C   0  0  0  0  0  0  0  0  0  0  0  0
    1.6682   -8.2241    1.4932 C   0  0  0  0  0  0  0  0  0  0  0  0
    1.0840   -9.0236    0.4769 F   0  0  0  0  0  0  0  0  0  0  0  0
    1.6481   -6.8171    1.0892 C   0  0  0  0  0  0  0  0  0  0  0  0
    1.1193   -5.8680    1.8459 C   0  0  0  0  0  0  0  0  0  0  0  0
   -8.2417   -7.7710    8.1355 O   0  0  0  0  0  0  0  0  0  0  0  0
  -12.2448   -6.7446    8.9967 C   0  0  0  0  0  0  0  0  0  0  0  0
  -10.9351   -7.0861    8.6967 C   0  0  0  0  0  0  0  0  0  0  0  0
  -10.5708   -8.2191    8.0079 C   0  0  0  0  0  0  0  0  0  0  0  0
   -9.2514   -8.5814    7.6970 C   0  0  0  0  0  0  0  0  0  0  0  0
   -9.0396   -9.7537    6.9822 C   0  0  0  0  0  0  0  0  0  0  0  0
  -10.1238  -10.5337    6.6051 C   0  0  0  0  0  0  0  0  0  0  0  0
  -11.3635  -10.1719    6.9182 N   0  0  0  0  0  0  0  0  0  0  0  0
  -11.6273   -9.0408    7.6099 C   0  0  0  0  0  0  0  0  0  0  0  0
  -12.9316   -8.7209    7.8978 C   0  0  0  0  0  0  0  0  0  0  0  0
  -13.2640   -7.5745    8.5937 C   0  0  0  0  0  0  0  0  0  0  0  0
  -12.5178   -5.4143   11.0728 C   0  0  0  0  0  0  0  0  0  0  0  0
  -12.6193   -5.6047    9.6826 O   0  0  0  0  0  0  0  0  0  0  0  0
  -14.6095   -7.3308    8.8514 O   0  0  0  0  0  0  0  0  0  0  0  0
  -15.5548   -8.2919    8.4435 C   0  0  0  0  0  0  0  0  0  0  0  0
  -16.6160   -7.6917    7.5723 C   0  0  0  0  0  0  0  0  0  0  0  0
  -16.4857   -7.9614    6.1132 C   0  0  0  0  0  0  0  0  0  0  0  0
  -16.2077   -6.8049    5.3331 N   0  0  0  0  0  0  0  0  0  0  0  0
  -17.2901   -5.9317    5.0601 C   0  0  0  0  0  0  0  0  0  0  0  0
  -16.9218   -5.1259    3.8035 C   0  0  0  0  0  0  0  0  0  0  0  0
  -15.7215   -4.3773    4.1376 N   0  0  0  0  0  0  0  0  0  0  0  0
  -14.6424   -5.2851    4.4011 C   0  0  0  0  0  0  0  0  0  0  0  0
  -14.9838   -6.1356    5.6032 C   0  0  0  0  0  0  0  0  0  0  0  0
  -15.9059   -3.8465    5.0118 H   0  0  0  0  0  0  0  0  0  0  0  0
 37 38  1  0  0  0
 38 27  1  0  0  0
 27 28  2  0  0  0
 28 29  1  0  0  0
 29 30  2  0  0  0
 30 26  1  0  0  0
 26  1  1  0  0  0
  1  2  2  0  0  0
  2  3  1  0  0  0
  3  4  2  0  0  0
  4  8  1  0  0  0
  8  9  1  0  0  0
  9 10  2  0  0  0
  9 12  1  0  0  0
 12 13  1  0  0  0
 13 14  1  0  0  0
 12 15  1  0  0  0
 15 16  2  0  0  0
 15 17  1  0  0  0
 17 19  1  0  0  0
 19 20  2  0  0  0
 20 21  1  0  0  0
 21 22  1  0  0  0
 22 23  1  0  0  0
 22 24  1  0  0  0
 24 25  2  0  0  0
  4  5  1  0  0  0
  5  6  2  0  0  0
  6  7  1  0  0  0
 30 31  1  0  0  0
 31 32  2  0  0  0
 32 33  1  0  0  0
 33 34  2  0  0  0
 34 35  1  0  0  0
 35 36  2  0  0  0
 36 39  1  0  0  0
 39 40  1  0  0  0
 40 41  1  0  0  0
 41 42  1  0  0  0
 42 43  1  0  0  0
 43 44  1  0  0  0
 44 45  1  0  0  0
 45 46  1  0  0  0
 46 47  1  0  0  0
 47 48  1  0  0  0
 36 27  1  0  0  0
 48 43  1  0  0  0
 34 29  1  0  0  0
  6  1  1  0  0  0
 14 12  1  0  0  0
 25 19  1  0  0  0
  8 11  1  0  0  0
 17 18  1  0  0  0
 46 49  1  0  0  0
M  END
> <minimizedAffinity>
-8.34260

> <CNNscore>
0.1684313267

> <CNNaffinity>
7.4352006912

> <CNN_VS>
1.2523207664

> <CNNaffinity_variance>
0.0462670475

$$$$
[H]C1=C([H])C([H])(F)C([H])([H])C([H])=C1N([H])C(=O)C1(C(=O)N([H])c2c([H])c([H])c(Oc3c([H])c([H])nc4c([H])c(OC([H])([H])C([H])([H])C([H])([H])N5C([H])([H])C([H])([H])N([H])C([H])([H])C5([H])[H])c(OC([H])([H])[H])c([H])c34)c(F)c2[H])C([H])([H])C1([H])[H]


 49 54  0  0  0  0  0  0  0  0999 V2000
   -6.7639   -7.3880    7.7673 C   0  0  0  0  0  0  0  0  0  0  0  0
   -6.5489   -7.3342    6.4132 C   0  0  0  0  0  0  0  0  0  0  0  0
   -5.5431   -6.6213    5.8683 C   0  0  0  0  0  0  0  0  0  0  0  0
   -4.6194   -5.8736    6.6432 C   0  0  0  0  0  0  0  0  0  0  0  0
   -4.8354   -5.9354    7.9707 C   0  0  0  0  0  0  0  0  0  0  0  0
   -5.8644   -6.6595    8.5480 C   0  0  0  0  0  0  0  0  0  0  0  0
   -5.9694   -6.6299    9.9183 F   0  0  0  0  0  0  0  0  0  0  0  0
   -3.6611   -5.1863    5.8701 N   0  0  0  0  0  0  0  0  0  0  0  0
   -2.4923   -5.6945    5.2465 C   0  0  0  0  0  0  0  0  0  0  0  0
   -2.1639   -6.8807    5.3217 O   0  0  0  0  0  0  0  0  0  0  0  0
   -3.8237   -4.1208    5.7175 H   0  0  0  0  0  0  0  0  0  0  0  0
   -1.6465   -4.7522    4.4335 C   0  0  0  0  0  0  0  0  0  0  0  0
   -0.7160   -5.4937    3.4504 C   0  0  0  0  0  0  0  0  0  0  0  0
   -0.1117   -4.9029    4.6421 C   0  0  0  0  0  0  0  0  0  0  0  0
   -2.0989   -3.4795    3.9033 C   0  0  0  0  0  0  0  0  0  0  0  0
   -2.5241   -3.5223    2.6453 O   0  0  0  0  0  0  0  0  0  0  0  0
   -2.1643   -2.1978    4.4421 N   0  0  0  0  0  0  0  0  0  0  0  0
   -1.8551   -1.9605    5.3723 H   0  0  0  0  0  0  0  0  0  0  0  0
   -2.6884   -1.1098    3.5983 C   0  0  0  0  0  0  0  0  0  0  0  0
   -3.9712   -0.8049    3.6433 C   0  0  0  0  0  0  0  0  0  0  0  0
   -4.5853    0.2607    2.8473 C   0  0  0  0  0  0  0  0  0  0  0  0
   -3.6961    1.0101    1.9253 C   0  0  0  0  0  0  0  0  0  0  0  0
   -3.7855    2.4073    2.1558 F   0  0  0  0  0  0  0  0  0  0  0  0
   -2.2913    0.5979    1.9212 C   0  0  0  0  0  0  0  0  0  0  0  0
   -1.8333   -0.3730    2.6961 C   0  0  0  0  0  0  0  0  0  0  0  0
   -7.7774   -8.0884    8.3538 O   0  0  0  0  0  0  0  0  0  0  0  0
  -11.6843   -6.6229    8.9928 C   0  0  0  0  0  0  0  0  0  0  0  0
  -10.4056   -7.1076    8.7653 C   0  0  0  0  0  0  0  0  0  0  0  0
  -10.1290   -8.2593    8.0666 C   0  0  0  0  0  0  0  0  0  0  0  0
   -8.8423   -8.7655    7.8283 C   0  0  0  0  0  0  0  0  0  0  0  0
   -8.7197   -9.9378    7.0929 C   0  0  0  0  0  0  0  0  0  0  0  0
   -9.8590  -10.5774    6.6249 C   0  0  0  0  0  0  0  0  0  0  0  0
  -11.0670  -10.0809    6.8704 N   0  0  0  0  0  0  0  0  0  0  0  0
  -11.2442   -8.9430    7.5783 C   0  0  0  0  0  0  0  0  0  0  0  0
  -12.5193   -8.4801    7.7933 C   0  0  0  0  0  0  0  0  0  0  0  0
  -12.7632   -7.3190    8.5015 C   0  0  0  0  0  0  0  0  0  0  0  0
  -12.3442   -5.3908   11.0423 C   0  0  0  0  0  0  0  0  0  0  0  0
  -11.9700   -5.4632    9.6881 O   0  0  0  0  0  0  0  0  0  0  0  0
  -14.0859   -6.9263    8.6815 O   0  0  0  0  0  0  0  0  0  0  0  0
  -15.0662   -7.9253    8.8380 C   0  0  0  0  0  0  0  0  0  0  0  0
  -16.1356   -7.8222    7.7934 C   0  0  0  0  0  0  0  0  0  0  0  0
  -15.6966   -8.0634    6.3907 C   0  0  0  0  0  0  0  0  0  0  0  0
  -15.8462   -6.9370    5.5351 N   0  0  0  0  0  0  0  0  0  0  0  0
  -17.1598   -6.4426    5.3383 C   0  0  0  0  0  0  0  0  0  0  0  0
  -17.1598   -5.6588    4.0155 C   0  0  0  0  0  0  0  0  0  0  0  0
  -16.2144   -4.5684    4.1886 N   0  0  0  0  0  0  0  0  0  0  0  0
  -14.8945   -5.0975    4.3779 C   0  0  0  0  0  0  0  0  0  0  0  0
  -14.8602   -5.9199    5.6458 C   0  0  0  0  0  0  0  0  0  0  0  0
  -16.4729   -4.0524    5.0528 H   0  0  0  0  0  0  0  0  0  0  0  0
 37 38  1  0  0  0
 38 27  1  0  0  0
 27 28  2  0  0  0
 28 29  1  0  0  0
 29 30  2  0  0  0
 30 26  1  0  0  0
 26  1  1  0  0  0
  1  2  2  0  0  0
  2  3  1  0  0  0
  3  4  2  0  0  0
  4  8  1  0  0  0
  8  9  1  0  0  0
  9 10  2  0  0  0
  9 12  1  0  0  0
 12 13  1  0  0  0
 13 14  1  0  0  0
 12 15  1  0  0  0
 15 16  2  0  0  0
 15 17  1  0  0  0
 17 19  1  0  0  0
 19 20  2  0  0  0
 20 21  1  0  0  0
 21 22  1  0  0  0
 22 23  1  0  0  0
 22 24  1  0  0  0
 24 25  2  0  0  0
  4  5  1  0  0  0
  5  6  2  0  0  0
  6  7  1  0  0  0
 30 31  1  0  0  0
 31 32  2  0  0  0
 32 33  1  0  0  0
 33 34  2  0  0  0
 34 35  1  0  0  0
 35 36  2  0  0  0
 36 39  1  0  0  0
 39 40  1  0  0  0
 40 41  1  0  0  0
 41 42  1  0  0  0
 42 43  1  0  0  0
 43 44  1  0  0  0
 44 45  1  0  0  0
 45 46  1  0  0  0
 46 47  1  0  0  0
 47 48  1  0  0  0
 36 27  1  0  0  0
 48 43  1  0  0  0
 34 29  1  0  0  0
  6  1  1  0  0  0
 14 12  1  0  0  0
 25 19  1  0  0  0
  8 11  1  0  0  0
 17 18  1  0  0  0
 46 49  1  0  0  0
M  END
> <minimizedAffinity>
-8.17869

> <CNNscore>
0.1584888250

> <CNNaffinity>
7.3398652077

> <CNN_VS>
1.1632865667

> <CNNaffinity_variance>
0.0459884778

$$$$
[H]C1=C([H])C([H])(F)C([H])([H])C([H])=C1N([H])C(=O)C1(C(=O)N([H])c2c([H])c([H])c(Oc3c([H])c([H])nc4c([H])c(OC([H])([H])C([H])([H])C([H])([H])N5C([H])([H])C([H])([H])N([H])C([H])([H])C5([H])[H])c(OC([H])([H])[H])c([H])c34)c(F)c2[H])C([H])([H])C1([H])[H]


 49 54  0  0  0  0  0  0  0  0999 V2000
   -6.2167   -6.3739    7.3447 C   0  0  0  0  0  0  0  0  0  0  0  0
   -5.8916   -6.1984    6.0233 C   0  0  0  0  0  0  0  0  0  0  0  0
   -4.6680   -5.7953    5.6268 C   0  0  0  0  0  0  0  0  0  0  0  0
   -3.6126   -5.5254    6.5357 C   0  0  0  0  0  0  0  0  0  0  0  0
   -3.9392   -5.7042    7.8295 C   0  0  0  0  0  0  0  0  0  0  0  0
   -5.1908   -6.1145    8.2556 C   0  0  0  0  0  0  0  0  0  0  0  0
   -5.3862   -6.2519    9.6093 F   0  0  0  0  0  0  0  0  0  0  0  0
   -2.4245   -5.0967    5.9088 N   0  0  0  0  0  0  0  0  0  0  0  0
   -1.2015   -5.7981    5.7486 C   0  0  0  0  0  0  0  0  0  0  0  0
   -1.0339   -6.9430    6.1746 O   0  0  0  0  0  0  0  0  0  0  0  0
   -2.4267   -4.0956    5.4814 H   0  0  0  0  0  0  0  0  0  0  0  0
   -0.0839   -5.1271    4.9968 C   0  0  0  0  0  0  0  0  0  0  0  0
    1.2884   -5.7752    5.2779 C   0  0  0  0  0  0  0  0  0  0  0  0
    1.0116   -4.4786    5.8919 C   0  0  0  0  0  0  0  0  0  0  0  0
   -0.1828   -4.6238    3.6394 C   0  0  0  0  0  0  0  0  0  0  0  0
    0.2058   -5.4799    2.7007 O   0  0  0  0  0  0  0  0  0  0  0  0
   -0.5900   -3.4032    3.1086 N   0  0  0  0  0  0  0  0  0  0  0  0
   -0.8880   -2.6171    3.6658 H   0  0  0  0  0  0  0  0  0  0  0  0
   -0.5586   -3.2308    1.6458 C   0  0  0  0  0  0  0  0  0  0  0  0
    0.5349   -2.7791    1.0620 C   0  0  0  0  0  0  0  0  0  0  0  0
    0.6650   -2.5779   -0.3832 C   0  0  0  0  0  0  0  0  0  0  0  0
   -0.5251   -2.8837   -1.2154 C   0  0  0  0  0  0  0  0  0  0  0  0
   -0.1994   -3.7941   -2.2540 F   0  0  0  0  0  0  0  0  0  0  0  0
   -1.7032   -3.3617   -0.4895 C   0  0  0  0  0  0  0  0  0  0  0  0
   -1.7106   -3.5244    0.8244 C   0  0  0  0  0  0  0  0  0  0  0  0
   -7.4466   -6.7688    7.7841 O   0  0  0  0  0  0  0  0  0  0  0  0
  -11.4854   -6.8965    9.0054 C   0  0  0  0  0  0  0  0  0  0  0  0
  -10.1638   -6.8623    8.5882 C   0  0  0  0  0  0  0  0  0  0  0  0
   -9.5238   -7.9068    7.9634 C   0  0  0  0  0  0  0  0  0  0  0  0
   -8.1874   -7.8906    7.5362 C   0  0  0  0  0  0  0  0  0  0  0  0
   -7.6818   -9.0211    6.9067 C   0  0  0  0  0  0  0  0  0  0  0  0
   -8.4975  -10.1292    6.7255 C   0  0  0  0  0  0  0  0  0  0  0  0
   -9.7582  -10.1216    7.1458 N   0  0  0  0  0  0  0  0  0  0  0  0
  -10.3021   -9.0485    7.7621 C   0  0  0  0  0  0  0  0  0  0  0  0
  -11.6129   -9.1029    8.1685 C   0  0  0  0  0  0  0  0  0  0  0  0
  -12.2263   -8.0353    8.7955 C   0  0  0  0  0  0  0  0  0  0  0  0
  -12.2639   -5.6724   11.0178 C   0  0  0  0  0  0  0  0  0  0  0  0
  -12.1375   -5.8489    9.6278 O   0  0  0  0  0  0  0  0  0  0  0  0
  -13.5549   -8.1778    9.1833 O   0  0  0  0  0  0  0  0  0  0  0  0
  -14.5424   -7.4797    8.4614 C   0  0  0  0  0  0  0  0  0  0  0  0
  -14.9000   -8.1831    7.1875 C   0  0  0  0  0  0  0  0  0  0  0  0
  -16.2530   -7.8853    6.6406 C   0  0  0  0  0  0  0  0  0  0  0  0
  -16.2503   -6.9600    5.5603 N   0  0  0  0  0  0  0  0  0  0  0  0
  -17.4799   -6.7426    4.8899 C   0  0  0  0  0  0  0  0  0  0  0  0
  -17.1478   -6.2011    3.4897 C   0  0  0  0  0  0  0  0  0  0  0  0
  -16.4393   -4.9487    3.6953 N   0  0  0  0  0  0  0  0  0  0  0  0
  -15.1972   -5.1999    4.3678 C   0  0  0  0  0  0  0  0  0  0  0  0
  -15.4751   -5.7820    5.7349 C   0  0  0  0  0  0  0  0  0  0  0  0
  -17.0177   -4.3499    4.3172 H   0  0  0  0  0  0  0  0  0  0  0  0
 37 38  1  0  0  0
 38 27  1  0  0  0
 27 28  2  0  0  0
 28 29  1  0  0  0
 29 30  2  0  0  0
 30 26  1  0  0  0
 26  1  1  0  0  0
  1  2  2  0  0  0
  2  3  1  0  0  0
  3  4  2  0  0  0
  4  8  1  0  0  0
  8  9  1  0  0  0
  9 10  2  0  0  0
  9 12  1  0  0  0
 12 13  1  0  0  0
 13 14  1  0  0  0
 12 15  1  0  0  0
 15 16  2  0  0  0
 15 17  1  0  0  0
 17 19  1  0  0  0
 19 20  2  0  0  0
 20 21  1  0  0  0
 21 22  1  0  0  0
 22 23  1  0  0  0
 22 24  1  0  0  0
 24 25  2  0  0  0
  4  5  1  0  0  0
  5  6  2  0  0  0
  6  7  1  0  0  0
 30 31  1  0  0  0
 31 32  2  0  0  0
 32 33  1  0  0  0
 33 34  2  0  0  0
 34 35  1  0  0  0
 35 36  2  0  0  0
 36 39  1  0  0  0
 39 40  1  0  0  0
 40 41  1  0  0  0
 41 42  1  0  0  0
 42 43  1  0  0  0
 43 44  1  0  0  0
 44 45  1  0  0  0
 45 46  1  0  0  0
 46 47  1  0  0  0
 47 48  1  0  0  0
 36 27  1  0  0  0
 48 43  1  0  0  0
 34 29  1  0  0  0
  6  1  1  0  0  0
 14 12  1  0  0  0
 25 19  1  0  0  0
  8 11  1  0  0  0
 17 18  1  0  0  0
 46 49  1  0  0  0
M  END
> <minimizedAffinity>
-7.23479

> <CNNscore>
0.1482906938

> <CNNaffinity>
7.1101388931

> <CNN_VS>
1.0543674231

> <CNNaffinity_variance>
0.0636127442

$$$$
[H]c1c(C(F)(F)F)c([H])c2c(c1[H])c(C1=C(c3c([H])n(C([H])([H])[H])c4c([H])c([H])c(Cl)c([H])c34)C(=O)N([H])C1=O)c([H])n2C([H])([H])[H]


 33 37  0  0  0  0  0  0  0  0999 V2000
  -12.6576   -8.9733    8.0478 C   0  0  0  0  0  0  0  0  0  0  0  0
  -13.4726   -9.4315    7.1715 C   0  0  0  0  0  0  0  0  0  0  0  0
  -14.0322  -10.7454    7.6623 C   0  0  0  0  0  0  0  0  0  0  0  0
  -14.8504  -11.4336    7.0260 O   0  0  0  0  0  0  0  0  0  0  0  0
  -13.4898  -11.0427    8.9144 N   0  0  0  0  0  0  0  0  0  0  0  0
  -12.6272   -9.9755    9.2070 C   0  0  0  0  0  0  0  0  0  0  0  0
  -11.9248   -9.8029   10.2294 O   0  0  0  0  0  0  0  0  0  0  0  0
  -13.6915  -11.8951    9.5280 H   0  0  0  0  0  0  0  0  0  0  0  0
   -8.6676   -6.0763    7.3509 C   0  0  0  0  0  0  0  0  0  0  0  0
   -9.9871   -6.5319    7.8445 N   0  0  0  0  0  0  0  0  0  0  0  0
  -10.6079   -7.6628    7.4797 C   0  0  0  0  0  0  0  0  0  0  0  0
  -11.8266   -7.7772    8.1615 C   0  0  0  0  0  0  0  0  0  0  0  0
  -11.9157   -6.6601    8.9570 C   0  0  0  0  0  0  0  0  0  0  0  0
  -12.8836   -6.2219    9.8758 C   0  0  0  0  0  0  0  0  0  0  0  0
  -12.6308   -5.0423   10.5354 C   0  0  0  0  0  0  0  0  0  0  0  0
  -13.8238   -4.4522   11.7120 Cl  0  0  0  0  0  0  0  0  0  0  0  0
  -11.4815   -4.2972   10.3200 C   0  0  0  0  0  0  0  0  0  0  0  0
  -10.5346   -4.7178    9.4250 C   0  0  0  0  0  0  0  0  0  0  0  0
  -10.7807   -5.9123    8.7521 C   0  0  0  0  0  0  0  0  0  0  0  0
  -13.8767   -8.9557    5.8328 C   0  0  0  0  0  0  0  0  0  0  0  0
  -13.5318   -9.3242    4.5716 C   0  0  0  0  0  0  0  0  0  0  0  0
  -14.3052   -8.6448    3.6758 N   0  0  0  0  0  0  0  0  0  0  0  0
  -14.2451   -8.7877    2.2527 C   0  0  0  0  0  0  0  0  0  0  0  0
  -15.1522   -7.8285    4.3162 C   0  0  0  0  0  0  0  0  0  0  0  0
  -16.1318   -6.9419    3.8824 C   0  0  0  0  0  0  0  0  0  0  0  0
  -16.8861   -6.2064    4.7676 C   0  0  0  0  0  0  0  0  0  0  0  0
  -16.6289   -6.3792    6.1216 C   0  0  0  0  0  0  0  0  0  0  0  0
  -15.6542   -7.2628    6.5463 C   0  0  0  0  0  0  0  0  0  0  0  0
  -14.9029   -8.0025    5.6696 C   0  0  0  0  0  0  0  0  0  0  0  0
  -17.9638   -5.2825    4.2911 C   0  0  0  0  0  0  0  0  0  0  0  0
  -17.6120   -4.5409    3.2066 F   0  0  0  0  0  0  0  0  0  0  0  0
  -19.1171   -6.0053    3.9803 F   0  0  0  0  0  0  0  0  0  0  0  0
  -18.3070   -4.3998    5.2997 F   0  0  0  0  0  0  0  0  0  0  0  0
  9 10  1  0  0  0
 10 11  1  0  0  0
 11 12  2  0  0  0
 12  1  1  0  0  0
  1  2  2  0  0  0
  2  3  1  0  0  0
  3  4  2  0  0  0
  3  5  1  0  0  0
  5  6  1  0  0  0
  6  7  2  0  0  0
  2 20  1  0  0  0
 20 21  2  0  0  0
 21 22  1  0  0  0
 22 23  1  0  0  0
 22 24  1  0  0  0
 24 25  2  0  0  0
 25 26  1  0  0  0
 26 27  2  0  0  0
 27 28  1  0  0  0
 28 29  2  0  0  0
 26 30  1  0  0  0
 30 31  1  0  0  0
 30 32  1  0  0  0
 30 33  1  0  0  0
 12 13  1  0  0  0
 13 14  2  0  0  0
 14 15  1  0  0  0
 15 16  1  0  0  0
 15 17  2  0  0  0
 17 18  1  0  0  0
 18 19  2  0  0  0
 19 10  1  0  0  0
  6  1  1  0  0  0
 29 20  1  0  0  0
 19 13  1  0  0  0
 29 24  1  0  0  0
  5  8  1  0  0  0
M  END
> <minimizedAffinity>
4.08614

> <CNNscore>
0.5233197808

> <CNNaffinity>
7.4035925865

> <CNN_VS>
3.8744463921

> <CNNaffinity_variance>
0.6500556469

$$$$
[H]c1c(C(F)(F)F)c([H])c2c(c1[H])c(C1=C(c3c([H])n(C([H])([H])[H])c4c([H])c([H])c(Cl)c([H])c34)C(=O)N([H])C1=O)c([H])n2C([H])([H])[H]


 33 37  0  0  0  0  0  0  0  0999 V2000
  -12.6259   -8.9538    8.4340 C   0  0  0  0  0  0  0  0  0  0  0  0
  -13.4443   -9.3786    7.5443 C   0  0  0  0  0  0  0  0  0  0  0  0
  -14.0994  -10.6437    8.0452 C   0  0  0  0  0  0  0  0  0  0  0  0
  -14.9421  -11.2926    7.3998 O   0  0  0  0  0  0  0  0  0  0  0  0
  -13.6110  -10.9473    9.3178 N   0  0  0  0  0  0  0  0  0  0  0  0
  -12.6906   -9.9305    9.6134 C   0  0  0  0  0  0  0  0  0  0  0  0
  -12.0065   -9.7803   10.6517 O   0  0  0  0  0  0  0  0  0  0  0  0
  -13.8831  -11.7718    9.9424 H   0  0  0  0  0  0  0  0  0  0  0  0
  -11.2357   -4.2980    9.5246 C   0  0  0  0  0  0  0  0  0  0  0  0
  -11.1657   -5.6901    9.0250 N   0  0  0  0  0  0  0  0  0  0  0  0
  -12.1272   -6.6150    9.1570 C   0  0  0  0  0  0  0  0  0  0  0  0
  -11.7238   -7.8102    8.5473 C   0  0  0  0  0  0  0  0  0  0  0  0
  -10.4702   -7.5660    8.0398 C   0  0  0  0  0  0  0  0  0  0  0  0
   -9.5680   -8.3592    7.3119 C   0  0  0  0  0  0  0  0  0  0  0  0
   -8.3860   -7.7705    6.9288 C   0  0  0  0  0  0  0  0  0  0  0  0
   -7.2169   -8.7335    6.0005 Cl  0  0  0  0  0  0  0  0  0  0  0  0
   -8.0721   -6.4555    7.2365 C   0  0  0  0  0  0  0  0  0  0  0  0
   -8.9463   -5.6771    7.9467 C   0  0  0  0  0  0  0  0  0  0  0  0
  -10.1472   -6.2638    8.3388 C   0  0  0  0  0  0  0  0  0  0  0  0
  -13.7810   -8.9075    6.1854 C   0  0  0  0  0  0  0  0  0  0  0  0
  -13.3647   -9.2724    4.9449 C   0  0  0  0  0  0  0  0  0  0  0  0
  -14.0962   -8.6017    4.0083 N   0  0  0  0  0  0  0  0  0  0  0  0
  -13.9580   -8.7442    2.5906 C   0  0  0  0  0  0  0  0  0  0  0  0
  -14.9854   -7.7948    4.6015 C   0  0  0  0  0  0  0  0  0  0  0  0
  -15.9498   -6.9190    4.1150 C   0  0  0  0  0  0  0  0  0  0  0  0
  -16.7587   -6.1917    4.9577 C   0  0  0  0  0  0  0  0  0  0  0  0
  -16.5728   -6.3615    6.3238 C   0  0  0  0  0  0  0  0  0  0  0  0
  -15.6128   -7.2343    6.8010 C   0  0  0  0  0  0  0  0  0  0  0  0
  -14.8073   -7.9657    5.9665 C   0  0  0  0  0  0  0  0  0  0  0  0
  -17.8193   -5.2798    4.4232 C   0  0  0  0  0  0  0  0  0  0  0  0
  -18.2822   -4.3821    5.3341 F   0  0  0  0  0  0  0  0  0  0  0  0
  -17.3409   -4.5807    3.3135 F   0  0  0  0  0  0  0  0  0  0  0  0
  -18.9032   -6.0221    3.9891 F   0  0  0  0  0  0  0  0  0  0  0  0
  9 10  1  0  0  0
 10 11  1  0  0  0
 11 12  2  0  0  0
 12  1  1  0  0  0
  1  2  2  0  0  0
  2  3  1  0  0  0
  3  4  2  0  0  0
  3  5  1  0  0  0
  5  6  1  0  0  0
  6  7  2  0  0  0
  2 20  1  0  0  0
 20 21  2  0  0  0
 21 22  1  0  0  0
 22 23  1  0  0  0
 22 24  1  0  0  0
 24 25  2  0  0  0
 25 26  1  0  0  0
 26 27  2  0  0  0
 27 28  1  0  0  0
 28 29  2  0  0  0
 26 30  1  0  0  0
 30 31  1  0  0  0
 30 32  1  0  0  0
 30 33  1  0  0  0
 12 13  1  0  0  0
 13 14  2  0  0  0
 14 15  1  0  0  0
 15 16  1  0  0  0
 15 17  2  0  0  0
 17 18  1  0  0  0
 18 19  2  0  0  0
 19 10  1  0  0  0
  6  1  1  0  0  0
 29 20  1  0  0  0
 19 13  1  0  0  0
 29 24  1  0  0  0
  5  8  1  0  0  0
M  END
> <minimizedAffinity>
3.35752

> <CNNscore>
0.4887333810

> <CNNaffinity>
7.5736284256

> <CNN_VS>
3.7014849186

> <CNNaffinity_variance>
0.9140083194

$$$$
[H]c1c(C(F)(F)F)c([H])c2c(c1[H])c(C1=C(c3c([H])n(C([H])([H])[H])c4c([H])c([H])c(Cl)c([H])c34)C(=O)N([H])C1=O)c([H])n2C([H])([H])[H]


 33 37  0  0  0  0  0  0  0  0999 V2000
  -14.6274   -8.2357    5.6843 C   0  0  0  0  0  0  0  0  0  0  0  0
  -13.5897   -8.6702    6.2976 C   0  0  0  0  0  0  0  0  0  0  0  0
  -13.5668  -10.1778    6.2145 C   0  0  0  0  0  0  0  0  0  0  0  0
  -12.6795  -10.8885    6.7201 O   0  0  0  0  0  0  0  0  0  0  0  0
  -14.6780  -10.6203    5.4936 N   0  0  0  0  0  0  0  0  0  0  0  0
  -15.3753   -9.4564    5.1369 C   0  0  0  0  0  0  0  0  0  0  0  0
  -16.4346   -9.3576    4.4760 O   0  0  0  0  0  0  0  0  0  0  0  0
  -14.9418  -11.6287    5.2536 H   0  0  0  0  0  0  0  0  0  0  0  0
  -18.1647   -4.7565    5.2570 C   0  0  0  0  0  0  0  0  0  0  0  0
  -16.8323   -5.4002    5.2025 N   0  0  0  0  0  0  0  0  0  0  0  0
  -16.5434   -6.6329    5.6434 C   0  0  0  0  0  0  0  0  0  0  0  0
  -15.1907   -6.9153    5.4125 C   0  0  0  0  0  0  0  0  0  0  0  0
  -14.6723   -5.7936    4.8111 C   0  0  0  0  0  0  0  0  0  0  0  0
  -13.3913   -5.4796    4.3280 C   0  0  0  0  0  0  0  0  0  0  0  0
  -13.2287   -4.2462    3.7426 C   0  0  0  0  0  0  0  0  0  0  0  0
  -11.6272   -3.8080    3.1110 Cl  0  0  0  0  0  0  0  0  0  0  0  0
  -14.2651   -3.3328    3.6244 C   0  0  0  0  0  0  0  0  0  0  0  0
  -15.5159   -3.6317    4.0943 C   0  0  0  0  0  0  0  0  0  0  0  0
  -15.6915   -4.8793    4.6882 C   0  0  0  0  0  0  0  0  0  0  0  0
  -12.5260   -7.9961    7.0696 C   0  0  0  0  0  0  0  0  0  0  0  0
  -11.1933   -7.8285    6.8665 C   0  0  0  0  0  0  0  0  0  0  0  0
  -10.6905   -7.0035    7.8301 N   0  0  0  0  0  0  0  0  0  0  0  0
   -9.3270   -6.5786    7.9287 C   0  0  0  0  0  0  0  0  0  0  0  0
  -11.6606   -6.6248    8.6722 C   0  0  0  0  0  0  0  0  0  0  0  0
  -11.6806   -5.8055    9.7957 C   0  0  0  0  0  0  0  0  0  0  0  0
  -12.8394   -5.5689   10.4989 C   0  0  0  0  0  0  0  0  0  0  0  0
  -13.9979   -6.1867   10.0453 C   0  0  0  0  0  0  0  0  0  0  0  0
  -13.9715   -6.9994    8.9274 C   0  0  0  0  0  0  0  0  0  0  0  0
  -12.8212   -7.2348    8.2192 C   0  0  0  0  0  0  0  0  0  0  0  0
  -12.8570   -4.6552   11.6851 C   0  0  0  0  0  0  0  0  0  0  0  0
  -14.0857   -4.5121   12.2503 F   0  0  0  0  0  0  0  0  0  0  0  0
  -11.9694   -5.1131   12.6606 F   0  0  0  0  0  0  0  0  0  0  0  0
  -12.4249   -3.3942   11.3142 F   0  0  0  0  0  0  0  0  0  0  0  0
  9 10  1  0  0  0
 10 11  1  0  0  0
 11 12  2  0  0  0
 12  1  1  0  0  0
  1  2  2  0  0  0
  2  3  1  0  0  0
  3  4  2  0  0  0
  3  5  1  0  0  0
  5  6  1  0  0  0
  6  7  2  0  0  0
  2 20  1  0  0  0
 20 21  2  0  0  0
 21 22  1  0  0  0
 22 23  1  0  0  0
 22 24  1  0  0  0
 24 25  2  0  0  0
 25 26  1  0  0  0
 26 27  2  0  0  0
 27 28  1  0  0  0
 28 29  2  0  0  0
 26 30  1  0  0  0
 30 31  1  0  0  0
 30 32  1  0  0  0
 30 33  1  0  0  0
 12 13  1  0  0  0
 13 14  2  0  0  0
 14 15  1  0  0  0
 15 16  1  0  0  0
 15 17  2  0  0  0
 17 18  1  0  0  0
 18 19  2  0  0  0
 19 10  1  0  0  0
  6  1  1  0  0  0
 29 20  1  0  0  0
 19 13  1  0  0  0
 29 24  1  0  0  0
  5  8  1  0  0  0
M  END
> <minimizedAffinity>
7.05152

> <CNNscore>
0.4768231213

> <CNNaffinity>
7.1935372353

> <CNN_VS>
3.4300448895

> <CNNaffinity_variance>
0.5864206553

$$$$
[H]c1c(C(F)(F)F)c([H])c2c(c1[H])c(C1=C(c3c([H])n(C([H])([H])[H])c4c([H])c([H])c(Cl)c([H])c34)C(=O)N([H])C1=O)c([H])n2C([H])([H])[H]


 33 37  0  0  0  0  0  0  0  0999 V2000
  -11.9106   -8.9936    7.5828 C   0  0  0  0  0  0  0  0  0  0  0  0
  -13.1156   -9.3675    7.3591 C   0  0  0  0  0  0  0  0  0  0  0  0
  -13.1331  -10.8621    7.1441 C   0  0  0  0  0  0  0  0  0  0  0  0
  -14.1625  -11.5177    6.9024 O   0  0  0  0  0  0  0  0  0  0  0  0
  -11.8350  -11.3636    7.2614 N   0  0  0  0  0  0  0  0  0  0  0  0
  -11.0302  -10.2473    7.5348 C   0  0  0  0  0  0  0  0  0  0  0  0
   -9.7931  -10.2103    7.7262 O   0  0  0  0  0  0  0  0  0  0  0  0
  -11.5171  -12.3809    7.1721 H   0  0  0  0  0  0  0  0  0  0  0  0
   -8.3154   -5.5503    7.4536 C   0  0  0  0  0  0  0  0  0  0  0  0
   -9.5902   -6.2185    7.8012 N   0  0  0  0  0  0  0  0  0  0  0  0
  -10.0256   -7.3799    7.2924 C   0  0  0  0  0  0  0  0  0  0  0  0
  -11.2596   -7.7164    7.8643 C   0  0  0  0  0  0  0  0  0  0  0  0
  -11.5524   -6.7021    8.7442 C   0  0  0  0  0  0  0  0  0  0  0  0
  -12.6295   -6.4835    9.6189 C   0  0  0  0  0  0  0  0  0  0  0  0
  -12.5840   -5.3501   10.3959 C   0  0  0  0  0  0  0  0  0  0  0  0
  -13.9213   -5.0356   11.5222 Cl  0  0  0  0  0  0  0  0  0  0  0  0
  -11.5352   -4.4451   10.3364 C   0  0  0  0  0  0  0  0  0  0  0  0
  -10.4829   -4.6512    9.4851 C   0  0  0  0  0  0  0  0  0  0  0  0
  -10.5189   -5.7972    8.6942 C   0  0  0  0  0  0  0  0  0  0  0  0
  -14.3861   -8.6265    7.2229 C   0  0  0  0  0  0  0  0  0  0  0  0
  -15.5736   -8.6879    7.8798 C   0  0  0  0  0  0  0  0  0  0  0  0
  -16.3830   -7.6797    7.4436 N   0  0  0  0  0  0  0  0  0  0  0  0
  -17.7048   -7.4112    7.9234 C   0  0  0  0  0  0  0  0  0  0  0  0
  -15.7597   -6.9539    6.5063 C   0  0  0  0  0  0  0  0  0  0  0  0
  -16.1311   -5.8409    5.7600 C   0  0  0  0  0  0  0  0  0  0  0  0
  -15.2815   -5.2684    4.8414 C   0  0  0  0  0  0  0  0  0  0  0  0
  -14.0301   -5.8499    4.6814 C   0  0  0  0  0  0  0  0  0  0  0  0
  -13.6667   -6.9558    5.4269 C   0  0  0  0  0  0  0  0  0  0  0  0
  -14.5067   -7.5276    6.3476 C   0  0  0  0  0  0  0  0  0  0  0  0
  -15.6776   -4.0476    4.0703 C   0  0  0  0  0  0  0  0  0  0  0  0
  -14.7869   -3.6943    3.1050 F   0  0  0  0  0  0  0  0  0  0  0  0
  -16.9264   -4.2362    3.4753 F   0  0  0  0  0  0  0  0  0  0  0  0
  -15.8042   -2.9695    4.9282 F   0  0  0  0  0  0  0  0  0  0  0  0
  9 10  1  0  0  0
 10 11  1  0  0  0
 11 12  2  0  0  0
 12  1  1  0  0  0
  1  2  2  0  0  0
  2  3  1  0  0  0
  3  4  2  0  0  0
  3  5  1  0  0  0
  5  6  1  0  0  0
  6  7  2  0  0  0
  2 20  1  0  0  0
 20 21  2  0  0  0
 21 22  1  0  0  0
 22 23  1  0  0  0
 22 24  1  0  0  0
 24 25  2  0  0  0
 25 26  1  0  0  0
 26 27  2  0  0  0
 27 28  1  0  0  0
 28 29  2  0  0  0
 26 30  1  0  0  0
 30 31  1  0  0  0
 30 32  1  0  0  0
 30 33  1  0  0  0
 12 13  1  0  0  0
 13 14  2  0  0  0
 14 15  1  0  0  0
 15 16  1  0  0  0
 15 17  2  0  0  0
 17 18  1  0  0  0
 18 19  2  0  0  0
 19 10  1  0  0  0
  6  1  1  0  0  0
 29 20  1  0  0  0
 19 13  1  0  0  0
 29 24  1  0  0  0
  5  8  1  0  0  0
M  END
> <minimizedAffinity>
5.27360

> <CNNscore>
0.4211031199

> <CNNaffinity>
7.2510986328

> <CNN_VS>
3.0534603596

> <CNNaffinity_variance>
1.0089901686

$$$$
[H]c1c(C(F)(F)F)c([H])c2c(c1[H])c(C1=C(c3c([H])n(C([H])([H])[H])c4c([H])c([H])c(Cl)c([H])c34)C(=O)N([H])C1=O)c([H])n2C([H])([H])[H]


 33 37  0  0  0  0  0  0  0  0999 V2000
  -15.3339   -7.7461    7.4914 C   0  0  0  0  0  0  0  0  0  0  0  0
  -14.5681   -7.6559    8.5148 C   0  0  0  0  0  0  0  0  0  0  0  0
  -15.3057   -8.1751    9.7260 C   0  0  0  0  0  0  0  0  0  0  0  0
  -14.8213   -8.2131   10.8713 O   0  0  0  0  0  0  0  0  0  0  0  0
  -16.5837   -8.5924    9.3481 N   0  0  0  0  0  0  0  0  0  0  0  0
  -16.6593   -8.3504    7.9683 C   0  0  0  0  0  0  0  0  0  0  0  0
  -17.6165   -8.5738    7.1921 O   0  0  0  0  0  0  0  0  0  0  0  0
  -17.3436   -9.0152    9.9708 H   0  0  0  0  0  0  0  0  0  0  0  0
  -14.7109   -8.6226    2.6291 C   0  0  0  0  0  0  0  0  0  0  0  0
  -14.8836   -7.8793    3.8980 N   0  0  0  0  0  0  0  0  0  0  0  0
  -15.1161   -8.4294    5.0982 C   0  0  0  0  0  0  0  0  0  0  0  0
  -15.2047   -7.4258    6.0719 C   0  0  0  0  0  0  0  0  0  0  0  0
  -15.0157   -6.2397    5.4039 C   0  0  0  0  0  0  0  0  0  0  0  0
  -14.9736   -4.9029    5.8332 C   0  0  0  0  0  0  0  0  0  0  0  0
  -14.7273   -3.9464    4.8766 C   0  0  0  0  0  0  0  0  0  0  0  0
  -14.6582   -2.2426    5.3743 Cl  0  0  0  0  0  0  0  0  0  0  0  0
  -14.5289   -4.2596    3.5406 C   0  0  0  0  0  0  0  0  0  0  0  0
  -14.5699   -5.5604    3.1150 C   0  0  0  0  0  0  0  0  0  0  0  0
  -14.8179   -6.5372    4.0765 C   0  0  0  0  0  0  0  0  0  0  0  0
  -13.2088   -7.1100    8.7046 C   0  0  0  0  0  0  0  0  0  0  0  0
  -12.7286   -6.0113    9.3429 C   0  0  0  0  0  0  0  0  0  0  0  0
  -11.3645   -6.0424    9.3301 N   0  0  0  0  0  0  0  0  0  0  0  0
  -10.5073   -5.0634    9.9270 C   0  0  0  0  0  0  0  0  0  0  0  0
  -10.9292   -7.1361    8.6914 C   0  0  0  0  0  0  0  0  0  0  0  0
   -9.6615   -7.6332    8.4095 C   0  0  0  0  0  0  0  0  0  0  0  0
   -9.4821   -8.8128    7.7239 C   0  0  0  0  0  0  0  0  0  0  0  0
  -10.6225   -9.4929    7.3159 C   0  0  0  0  0  0  0  0  0  0  0  0
  -11.8799   -8.9936    7.5999 C   0  0  0  0  0  0  0  0  0  0  0  0
  -12.0653   -7.8217    8.2872 C   0  0  0  0  0  0  0  0  0  0  0  0
   -8.1130   -9.3581    7.4585 C   0  0  0  0  0  0  0  0  0  0  0  0
   -7.7047   -9.2143    6.1692 F   0  0  0  0  0  0  0  0  0  0  0  0
   -7.1778   -8.7422    8.2923 F   0  0  0  0  0  0  0  0  0  0  0  0
   -8.0795  -10.7096    7.7528 F   0  0  0  0  0  0  0  0  0  0  0  0
  9 10  1  0  0  0
 10 11  1  0  0  0
 11 12  2  0  0  0
 12  1  1  0  0  0
  1  2  2  0  0  0
  2  3  1  0  0  0
  3  4  2  0  0  0
  3  5  1  0  0  0
  5  6  1  0  0  0
  6  7  2  0  0  0
  2 20  1  0  0  0
 20 21  2  0  0  0
 21 22  1  0  0  0
 22 23  1  0  0  0
 22 24  1  0  0  0
 24 25  2  0  0  0
 25 26  1  0  0  0
 26 27  2  0  0  0
 27 28  1  0  0  0
 28 29  2  0  0  0
 26 30  1  0  0  0
 30 31  1  0  0  0
 30 32  1  0  0  0
 30 33  1  0  0  0
 12 13  1  0  0  0
 13 14  2  0  0  0
 14 15  1  0  0  0
 15 16  1  0  0  0
 15 17  2  0  0  0
 17 18  1  0  0  0
 18 19  2  0  0  0
 19 10  1  0  0  0
  6  1  1  0  0  0
 29 20  1  0  0  0
 19 13  1  0  0  0
 29 24  1  0  0  0
  5  8  1  0  0  0
M  END
> <minimizedAffinity>
-2.51451

> <CNNscore>
0.4167048931

> <CNNaffinity>
7.3694839478

> <CNN_VS>
3.0708999634

> <CNNaffinity_variance>
0.3300321102

$$$$
[H]c1c(C(F)(F)F)c([H])c2c(c1[H])c(C1=C(c3c([H])n(C([H])([H])[H])c4c([H])c([H])c(Cl)c([H])c34)C(=O)N([H])C1=O)c([H])n2C([H])([H])[H]


 33 37  0  0  0  0  0  0  0  0999 V2000
  -15.0800   -8.0145    7.8910 C   0  0  0  0  0  0  0  0  0  0  0  0
  -14.1526   -7.7617    8.7383 C   0  0  0  0  0  0  0  0  0  0  0  0
  -14.6465   -8.1069   10.1230 C   0  0  0  0  0  0  0  0  0  0  0  0
  -13.9695   -7.9672   11.1574 O   0  0  0  0  0  0  0  0  0  0  0  0
  -15.9522   -8.5956   10.0420 N   0  0  0  0  0  0  0  0  0  0  0  0
  -16.2762   -8.5621    8.6774 C   0  0  0  0  0  0  0  0  0  0  0  0
  -17.3434   -8.9130    8.1239 O   0  0  0  0  0  0  0  0  0  0  0  0
  -16.5743   -8.9332   10.8439 H   0  0  0  0  0  0  0  0  0  0  0  0
  -13.9629   -8.8374    3.1083 C   0  0  0  0  0  0  0  0  0  0  0  0
  -14.6389   -8.2846    4.3040 N   0  0  0  0  0  0  0  0  0  0  0  0
  -14.4056   -8.6533    5.5717 C   0  0  0  0  0  0  0  0  0  0  0  0
  -15.2125   -7.9063    6.4400 C   0  0  0  0  0  0  0  0  0  0  0  0
  -15.9477   -7.0671    5.6376 C   0  0  0  0  0  0  0  0  0  0  0  0
  -16.9046   -6.0783    5.9199 C   0  0  0  0  0  0  0  0  0  0  0  0
  -17.4293   -5.3924    4.8500 C   0  0  0  0  0  0  0  0  0  0  0  0
  -18.6381   -4.1279    5.1594 Cl  0  0  0  0  0  0  0  0  0  0  0  0
  -17.0508   -5.6473    3.5407 C   0  0  0  0  0  0  0  0  0  0  0  0
  -16.1196   -6.6105    3.2583 C   0  0  0  0  0  0  0  0  0  0  0  0
  -15.5811   -7.3106    4.3353 C   0  0  0  0  0  0  0  0  0  0  0  0
  -12.8048   -7.1726    8.6032 C   0  0  0  0  0  0  0  0  0  0  0  0
  -12.2859   -5.9566    8.9151 C   0  0  0  0  0  0  0  0  0  0  0  0
  -10.9375   -5.9745    8.7061 N   0  0  0  0  0  0  0  0  0  0  0  0
  -10.0466   -4.8802    8.9471 C   0  0  0  0  0  0  0  0  0  0  0  0
  -10.5515   -7.1755    8.2562 C   0  0  0  0  0  0  0  0  0  0  0  0
   -9.3171   -7.7077    7.9005 C   0  0  0  0  0  0  0  0  0  0  0  0
   -9.1871   -9.0054    7.4618 C   0  0  0  0  0  0  0  0  0  0  0  0
  -10.3439   -9.7703    7.3820 C   0  0  0  0  0  0  0  0  0  0  0  0
  -11.5680   -9.2355    7.7378 C   0  0  0  0  0  0  0  0  0  0  0  0
  -11.7033   -7.9449    8.1806 C   0  0  0  0  0  0  0  0  0  0  0  0
   -7.8480   -9.5799    7.1171 C   0  0  0  0  0  0  0  0  0  0  0  0
   -7.6310   -9.7040    5.7802 F   0  0  0  0  0  0  0  0  0  0  0  0
   -6.8306   -8.7940    7.6616 F   0  0  0  0  0  0  0  0  0  0  0  0
   -7.7189  -10.8399    7.6740 F   0  0  0  0  0  0  0  0  0  0  0  0
  9 10  1  0  0  0
 10 11  1  0  0  0
 11 12  2  0  0  0
 12  1  1  0  0  0
  1  2  2  0  0  0
  2  3  1  0  0  0
  3  4  2  0  0  0
  3  5  1  0  0  0
  5  6  1  0  0  0
  6  7  2  0  0  0
  2 20  1  0  0  0
 20 21  2  0  0  0
 21 22  1  0  0  0
 22 23  1  0  0  0
 22 24  1  0  0  0
 24 25  2  0  0  0
 25 26  1  0  0  0
 26 27  2  0  0  0
 27 28  1  0  0  0
 28 29  2  0  0  0
 26 30  1  0  0  0
 30 31  1  0  0  0
 30 32  1  0  0  0
 30 33  1  0  0  0
 12 13  1  0  0  0
 13 14  2  0  0  0
 14 15  1  0  0  0
 15 16  1  0  0  0
 15 17  2  0  0  0
 17 18  1  0  0  0
 18 19  2  0  0  0
 19 10  1  0  0  0
  6  1  1  0  0  0
 29 20  1  0  0  0
 19 13  1  0  0  0
 29 24  1  0  0  0
  5  8  1  0  0  0
M  END
> <minimizedAffinity>
-2.98570

> <CNNscore>
0.4114478230

> <CNNaffinity>
7.3251237869

> <CNN_VS>
3.0139062405

> <CNNaffinity_variance>
0.2903286517

$$$$
[H]c1c(C(F)(F)F)c([H])c2c(c1[H])c(C1=C(c3c([H])n(C([H])([H])[H])c4c([H])c([H])c(Cl)c([H])c34)C(=O)N([H])C1=O)c([H])n2C([H])([H])[H]


 33 37  0  0  0  0  0  0  0  0999 V2000
  -14.7196   -8.0889    6.1037 C   0  0  0  0  0  0  0  0  0  0  0  0
  -13.7936   -8.4105    6.9289 C   0  0  0  0  0  0  0  0  0  0  0  0
  -13.6402   -9.9129    6.9320 C   0  0  0  0  0  0  0  0  0  0  0  0
  -12.8190  -10.5262    7.6372 O   0  0  0  0  0  0  0  0  0  0  0  0
  -14.5501  -10.4747    6.0339 N   0  0  0  0  0  0  0  0  0  0  0  0
  -15.2496   -9.3883    5.4874 C   0  0  0  0  0  0  0  0  0  0  0  0
  -16.1618   -9.4046    4.6293 O   0  0  0  0  0  0  0  0  0  0  0  0
  -14.6839  -11.5100    5.8013 H   0  0  0  0  0  0  0  0  0  0  0  0
  -18.3481   -4.7993    5.2025 C   0  0  0  0  0  0  0  0  0  0  0  0
  -16.9978   -5.4057    5.2412 N   0  0  0  0  0  0  0  0  0  0  0  0
  -16.6791   -6.5614    5.8413 C   0  0  0  0  0  0  0  0  0  0  0  0
  -15.3167   -6.8322    5.6580 C   0  0  0  0  0  0  0  0  0  0  0  0
  -14.8238   -5.7840    4.9184 C   0  0  0  0  0  0  0  0  0  0  0  0
  -13.5472   -5.4988    4.4066 C   0  0  0  0  0  0  0  0  0  0  0  0
  -13.4132   -4.3481    3.6661 C   0  0  0  0  0  0  0  0  0  0  0  0
  -11.8182   -3.9499    2.9929 Cl  0  0  0  0  0  0  0  0  0  0  0  0
  -14.4734   -3.4884    3.4228 C   0  0  0  0  0  0  0  0  0  0  0  0
  -15.7201   -3.7596    3.9197 C   0  0  0  0  0  0  0  0  0  0  0  0
  -15.8668   -4.9236    4.6705 C   0  0  0  0  0  0  0  0  0  0  0  0
  -12.9578   -7.6203    7.8555 C   0  0  0  0  0  0  0  0  0  0  0  0
  -13.2463   -6.8086    8.9059 C   0  0  0  0  0  0  0  0  0  0  0  0
  -12.0852   -6.4245    9.5113 N   0  0  0  0  0  0  0  0  0  0  0  0
  -11.9913   -5.5857   10.6675 C   0  0  0  0  0  0  0  0  0  0  0  0
  -11.0317   -6.9596    8.8809 C   0  0  0  0  0  0  0  0  0  0  0  0
   -9.6589   -6.8887    9.0912 C   0  0  0  0  0  0  0  0  0  0  0  0
   -8.7669   -7.5535    8.2815 C   0  0  0  0  0  0  0  0  0  0  0  0
   -9.2908   -8.3010    7.2345 C   0  0  0  0  0  0  0  0  0  0  0  0
  -10.6566   -8.3680    7.0312 C   0  0  0  0  0  0  0  0  0  0  0  0
  -11.5508   -7.7122    7.8376 C   0  0  0  0  0  0  0  0  0  0  0  0
   -7.2929   -7.5006    8.5396 C   0  0  0  0  0  0  0  0  0  0  0  0
   -6.9672   -7.4621    9.8596 F   0  0  0  0  0  0  0  0  0  0  0  0
   -6.6608   -8.6011    7.9577 F   0  0  0  0  0  0  0  0  0  0  0  0
   -6.7518   -6.3726    7.9489 F   0  0  0  0  0  0  0  0  0  0  0  0
  9 10  1  0  0  0
 10 11  1  0  0  0
 11 12  2  0  0  0
 12  1  1  0  0  0
  1  2  2  0  0  0
  2  3  1  0  0  0
  3  4  2  0  0  0
  3  5  1  0  0  0
  5  6  1  0  0  0
  6  7  2  0  0  0
  2 20  1  0  0  0
 20 21  2  0  0  0
 21 22  1  0  0  0
 22 23  1  0  0  0
 22 24  1  0  0  0
 24 25  2  0  0  0
 25 26  1  0  0  0
 26 27  2  0  0  0
 27 28  1  0  0  0
 28 29  2  0  0  0
 26 30  1  0  0  0
 30 31  1  0  0  0
 30 32  1  0  0  0
 30 33  1  0  0  0
 12 13  1  0  0  0
 13 14  2  0  0  0
 14 15  1  0  0  0
 15 16  1  0  0  0
 15 17  2  0  0  0
 17 18  1  0  0  0
 18 19  2  0  0  0
 19 10  1  0  0  0
  6  1  1  0  0  0
 29 20  1  0  0  0
 19 13  1  0  0  0
 29 24  1  0  0  0
  5  8  1  0  0  0
M  END
> <minimizedAffinity>
0.25122

> <CNNscore>
0.4021942019

> <CNNaffinity>
7.3353471756

> <CNN_VS>
2.9502341747

> <CNNaffinity_variance>
0.6584524512

$$$$
[H]c1c(C(F)(F)F)c([H])c2c(c1[H])c(C1=C(c3c([H])n(C([H])([H])[H])c4c([H])c([H])c(Cl)c([H])c34)C(=O)N([H])C1=O)c([H])n2C([H])([H])[H]


 33 37  0  0  0  0  0  0  0  0999 V2000
  -14.0804   -8.4564    5.2860 C   0  0  0  0  0  0  0  0  0  0  0  0
  -13.1098   -8.5438    6.1179 C   0  0  0  0  0  0  0  0  0  0  0  0
  -12.0840   -9.5097    5.5745 C   0  0  0  0  0  0  0  0  0  0  0  0
  -11.0273   -9.8043    6.1612 O   0  0  0  0  0  0  0  0  0  0  0  0
  -12.5140   -9.9973    4.3386 N   0  0  0  0  0  0  0  0  0  0  0  0
  -13.7508   -9.3771    4.1058 C   0  0  0  0  0  0  0  0  0  0  0  0
  -14.5086   -9.5031    3.1167 O   0  0  0  0  0  0  0  0  0  0  0  0
  -12.0091  -10.6888    3.6975 H   0  0  0  0  0  0  0  0  0  0  0  0
  -19.0051   -7.7637    5.0272 C   0  0  0  0  0  0  0  0  0  0  0  0
  -17.5576   -7.4563    5.0787 N   0  0  0  0  0  0  0  0  0  0  0  0
  -16.5764   -8.3518    5.2599 C   0  0  0  0  0  0  0  0  0  0  0  0
  -15.3331   -7.7065    5.2337 C   0  0  0  0  0  0  0  0  0  0  0  0
  -15.6075   -6.3755    5.0289 C   0  0  0  0  0  0  0  0  0  0  0  0
  -14.7848   -5.2454    4.8910 C   0  0  0  0  0  0  0  0  0  0  0  0
  -15.4088   -4.0422    4.6596 C   0  0  0  0  0  0  0  0  0  0  0  0
  -14.4082   -2.5864    4.4718 Cl  0  0  0  0  0  0  0  0  0  0  0  0
  -16.7868   -3.9212    4.5651 C   0  0  0  0  0  0  0  0  0  0  0  0
  -17.5947   -5.0184    4.6997 C   0  0  0  0  0  0  0  0  0  0  0  0
  -16.9723   -6.2424    4.9335 C   0  0  0  0  0  0  0  0  0  0  0  0
  -12.8750   -7.9506    7.4501 C   0  0  0  0  0  0  0  0  0  0  0  0
  -12.0522   -6.9670    7.8983 C   0  0  0  0  0  0  0  0  0  0  0  0
  -12.3255   -6.7134    9.2109 N   0  0  0  0  0  0  0  0  0  0  0  0
  -11.6763   -5.7244   10.0169 C   0  0  0  0  0  0  0  0  0  0  0  0
  -13.3088   -7.5125    9.6450 C   0  0  0  0  0  0  0  0  0  0  0  0
  -13.9509   -7.6531   10.8704 C   0  0  0  0  0  0  0  0  0  0  0  0
  -14.9597   -8.5698   11.0585 C   0  0  0  0  0  0  0  0  0  0  0  0
  -15.3138   -9.3600    9.9723 C   0  0  0  0  0  0  0  0  0  0  0  0
  -14.6720   -9.2148    8.7566 C   0  0  0  0  0  0  0  0  0  0  0  0
  -13.6698   -8.2996    8.5613 C   0  0  0  0  0  0  0  0  0  0  0  0
  -15.6700   -8.6869   12.3715 C   0  0  0  0  0  0  0  0  0  0  0  0
  -14.8461   -8.9558   13.4197 F   0  0  0  0  0  0  0  0  0  0  0  0
  -16.3716   -7.5119   12.6475 F   0  0  0  0  0  0  0  0  0  0  0  0
  -16.6055   -9.7044   12.3114 F   0  0  0  0  0  0  0  0  0  0  0  0
  9 10  1  0  0  0
 10 11  1  0  0  0
 11 12  2  0  0  0
 12  1  1  0  0  0
  1  2  2  0  0  0
  2  3  1  0  0  0
  3  4  2  0  0  0
  3  5  1  0  0  0
  5  6  1  0  0  0
  6  7  2  0  0  0
  2 20  1  0  0  0
 20 21  2  0  0  0
 21 22  1  0  0  0
 22 23  1  0  0  0
 22 24  1  0  0  0
 24 25  2  0  0  0
 25 26  1  0  0  0
 26 27  2  0  0  0
 27 28  1  0  0  0
 28 29  2  0  0  0
 26 30  1  0  0  0
 30 31  1  0  0  0
 30 32  1  0  0  0
 30 33  1  0  0  0
 12 13  1  0  0  0
 13 14  2  0  0  0
 14 15  1  0  0  0
 15 16  1  0  0  0
 15 17  2  0  0  0
 17 18  1  0  0  0
 18 19  2  0  0  0
 19 10  1  0  0  0
  6  1  1  0  0  0
 29 20  1  0  0  0
 19 13  1  0  0  0
 29 24  1  0  0  0
  5  8  1  0  0  0
M  END
> <minimizedAffinity>
10.01810

> <CNNscore>
0.3755987585

> <CNNaffinity>
6.9386053085

> <CNN_VS>
2.6061315536

> <CNNaffinity_variance>
0.4405387044

$$$$
[H]c1c(C(F)(F)F)c([H])c2c(c1[H])c(C1=C(c3c([H])n(C([H])([H])[H])c4c([H])c([H])c(Cl)c([H])c34)C(=O)N([H])C1=O)c([H])n2C([H])([H])[H]


 33 37  0  0  0  0  0  0  0  0999 V2000
  -13.5001   -8.0721    8.9298 C   0  0  0  0  0  0  0  0  0  0  0  0
  -14.5250   -8.1797    8.1683 C   0  0  0  0  0  0  0  0  0  0  0  0
  -15.7250   -8.5426    9.0103 C   0  0  0  0  0  0  0  0  0  0  0  0
  -16.8681   -8.7188    8.5518 O   0  0  0  0  0  0  0  0  0  0  0  0
  -15.3405   -8.6414   10.3491 N   0  0  0  0  0  0  0  0  0  0  0  0
  -13.9663   -8.3585   10.3615 C   0  0  0  0  0  0  0  0  0  0  0  0
  -13.1900   -8.3214   11.3436 O   0  0  0  0  0  0  0  0  0  0  0  0
  -15.9582   -8.8736   11.1908 H   0  0  0  0  0  0  0  0  0  0  0  0
   -9.4270   -5.2100    8.7989 C   0  0  0  0  0  0  0  0  0  0  0  0
  -10.2978   -6.3984    8.6514 N   0  0  0  0  0  0  0  0  0  0  0  0
  -11.5778   -6.4802    9.0414 C   0  0  0  0  0  0  0  0  0  0  0  0
  -12.0907   -7.7455    8.7265 C   0  0  0  0  0  0  0  0  0  0  0  0
  -11.0592   -8.4280    8.1274 C   0  0  0  0  0  0  0  0  0  0  0  0
  -10.9636   -9.7185    7.5811 C   0  0  0  0  0  0  0  0  0  0  0  0
   -9.7588  -10.0729    7.0213 C   0  0  0  0  0  0  0  0  0  0  0  0
   -9.5933  -11.6931    6.3119 Cl  0  0  0  0  0  0  0  0  0  0  0  0
   -8.6698   -9.2153    6.9870 C   0  0  0  0  0  0  0  0  0  0  0  0
   -8.7557   -7.9565    7.5188 C   0  0  0  0  0  0  0  0  0  0  0  0
   -9.9723   -7.5873    8.0875 C   0  0  0  0  0  0  0  0  0  0  0  0
  -14.7020   -8.0785    6.7054 C   0  0  0  0  0  0  0  0  0  0  0  0
  -14.9240   -8.9972    5.7297 C   0  0  0  0  0  0  0  0  0  0  0  0
  -15.1460   -8.3542    4.5468 N   0  0  0  0  0  0  0  0  0  0  0  0
  -15.4389   -8.9917    3.2990 C   0  0  0  0  0  0  0  0  0  0  0  0
  -15.0700   -7.0278    4.7159 C   0  0  0  0  0  0  0  0  0  0  0  0
  -15.2167   -5.9476    3.8525 C   0  0  0  0  0  0  0  0  0  0  0  0
  -15.0909   -4.6489    4.2896 C   0  0  0  0  0  0  0  0  0  0  0  0
  -14.8050   -4.4537    5.6348 C   0  0  0  0  0  0  0  0  0  0  0  0
  -14.6611   -5.5319    6.4880 C   0  0  0  0  0  0  0  0  0  0  0  0
  -14.7905   -6.8280    6.0598 C   0  0  0  0  0  0  0  0  0  0  0  0
  -15.2879   -3.4923    3.3592 C   0  0  0  0  0  0  0  0  0  0  0  0
  -14.3682   -3.4285    2.3593 F   0  0  0  0  0  0  0  0  0  0  0  0
  -16.5615   -3.5423    2.7894 F   0  0  0  0  0  0  0  0  0  0  0  0
  -15.2135   -2.3037    4.0636 F   0  0  0  0  0  0  0  0  0  0  0  0
  9 10  1  0  0  0
 10 11  1  0  0  0
 11 12  2  0  0  0
 12  1  1  0  0  0
  1  2  2  0  0  0
  2  3  1  0  0  0
  3  4  2  0  0  0
  3  5  1  0  0  0
  5  6  1  0  0  0
  6  7  2  0  0  0
  2 20  1  0  0  0
 20 21  2  0  0  0
 21 22  1  0  0  0
 22 23  1  0  0  0
 22 24  1  0  0  0
 24 25  2  0  0  0
 25 26  1  0  0  0
 26 27  2  0  0  0
 27 28  1  0  0  0
 28 29  2  0  0  0
 26 30  1  0  0  0
 30 31  1  0  0  0
 30 32  1  0  0  0
 30 33  1  0  0  0
 12 13  1  0  0  0
 13 14  2  0  0  0
 14 15  1  0  0  0
 15 16  1  0  0  0
 15 17  2  0  0  0
 17 18  1  0  0  0
 18 19  2  0  0  0
 19 10  1  0  0  0
  6  1  1  0  0  0
 29 20  1  0  0  0
 19 13  1  0  0  0
 29 24  1  0  0  0
  5  8  1  0  0  0
M  END
> <minimizedAffinity>
1.13862

> <CNNscore>
0.3659746647

> <CNNaffinity>
7.1811308861

> <CNN_VS>
2.6281120777

> <CNNaffinity_variance>
0.4156981409

$$$$
[H]c1nc(N([H])c2c([H])c(N([H])C(=O)c3c([H])c([H])c(C([H])([H])N4C([H])([H])C([H])([H])N(C([H])([H])[H])C([H])([H])C4([H])[H])c(C(F)(F)F)c3[H])c([H])c([H])c2C([H])([H])[H])nc(-c2c([H])nc([H])c([H])c2[H])c1[H]


 43 47  0  0  0  0  0  0  0  0999 V2000
  -10.3203   -6.3725    6.1355 C   0  0  0  0  0  0  0  0  0  0  0  0
  -10.8338   -6.8616    7.1612 O   0  0  0  0  0  0  0  0  0  0  0  0
  -11.0926   -5.9001    5.0759 N   0  0  0  0  0  0  0  0  0  0  0  0
  -10.5555   -5.4940    4.2257 H   0  0  0  0  0  0  0  0  0  0  0  0
  -12.4900   -5.8599    4.9300 C   0  0  0  0  0  0  0  0  0  0  0  0
  -13.0233   -5.0709    3.9023 C   0  0  0  0  0  0  0  0  0  0  0  0
  -14.3821   -4.9877    3.7310 C   0  0  0  0  0  0  0  0  0  0  0  0
  -15.2394   -5.6752    4.5626 C   0  0  0  0  0  0  0  0  0  0  0  0
  -16.7013   -5.5839    4.3731 C   0  0  0  0  0  0  0  0  0  0  0  0
  -14.7655   -6.4743    5.6008 C   0  0  0  0  0  0  0  0  0  0  0  0
  -13.4040   -6.5385    5.7484 C   0  0  0  0  0  0  0  0  0  0  0  0
  -15.6841   -7.1399    6.4101 N   0  0  0  0  0  0  0  0  0  0  0  0
  -16.6486   -7.3684    5.9624 H   0  0  0  0  0  0  0  0  0  0  0  0
  -15.5831   -7.5788    7.7403 C   0  0  0  0  0  0  0  0  0  0  0  0
  -16.3723   -8.4775    8.3414 N   0  0  0  0  0  0  0  0  0  0  0  0
  -16.2208   -8.8529    9.6168 C   0  0  0  0  0  0  0  0  0  0  0  0
  -15.1950   -8.2999   10.3965 C   0  0  0  0  0  0  0  0  0  0  0  0
  -14.3770   -7.3762    9.7931 C   0  0  0  0  0  0  0  0  0  0  0  0
  -14.6058   -7.0633    8.5117 N   0  0  0  0  0  0  0  0  0  0  0  0
  -13.2615   -6.7315   10.5256 C   0  0  0  0  0  0  0  0  0  0  0  0
  -13.5029   -5.8432   11.5311 C   0  0  0  0  0  0  0  0  0  0  0  0
  -12.4187   -5.2593   12.1964 C   0  0  0  0  0  0  0  0  0  0  0  0
  -11.1249   -5.5682   11.8509 C   0  0  0  0  0  0  0  0  0  0  0  0
  -10.9327   -6.4479   10.8549 N   0  0  0  0  0  0  0  0  0  0  0  0
  -11.9529   -7.0248   10.1978 C   0  0  0  0  0  0  0  0  0  0  0  0
   -6.0313   -6.2757    6.1517 C   0  0  0  0  0  0  0  0  0  0  0  0
   -6.7460   -5.9547    5.0248 C   0  0  0  0  0  0  0  0  0  0  0  0
   -8.1381   -5.9803    5.0088 C   0  0  0  0  0  0  0  0  0  0  0  0
   -8.8557   -6.3299    6.1217 C   0  0  0  0  0  0  0  0  0  0  0  0
   -8.1201   -6.6497    7.2424 C   0  0  0  0  0  0  0  0  0  0  0  0
   -6.7473   -6.6334    7.2906 C   0  0  0  0  0  0  0  0  0  0  0  0
   -5.9918   -6.9820    8.5186 C   0  0  0  0  0  0  0  0  0  0  0  0
   -6.7687   -7.5754    9.4844 F   0  0  0  0  0  0  0  0  0  0  0  0
   -5.0092   -7.8936    8.1494 F   0  0  0  0  0  0  0  0  0  0  0  0
   -5.3102   -5.8820    9.0257 F   0  0  0  0  0  0  0  0  0  0  0  0
   -4.5710   -6.2963    6.1183 C   0  0  0  0  0  0  0  0  0  0  0  0
   -0.6850   -3.3534    4.8754 C   0  0  0  0  0  0  0  0  0  0  0  0
   -1.2032   -4.1038    6.0029 N   0  0  0  0  0  0  0  0  0  0  0  0
   -1.6524   -5.3980    5.4784 C   0  0  0  0  0  0  0  0  0  0  0  0
   -2.9536   -5.1942    4.7627 C   0  0  0  0  0  0  0  0  0  0  0  0
   -4.0787   -4.9587    5.7010 N   0  0  0  0  0  0  0  0  0  0  0  0
   -3.4612   -4.3422    6.9002 C   0  0  0  0  0  0  0  0  0  0  0  0
   -2.3696   -3.3696    6.4994 C   0  0  0  0  0  0  0  0  0  0  0  0
 37 38  1  0  0  0
 38 39  1  0  0  0
 39 40  1  0  0  0
 40 41  1  0  0  0
 41 36  1  0  0  0
 36 26  1  0  0  0
 26 27  2  0  0  0
 27 28  1  0  0  0
 28 29  2  0  0  0
 29 30  1  0  0  0
 30 31  2  0  0  0
 31 32  1  0  0  0
 32 33  1  0  0  0
 32 34  1  0  0  0
 32 35  1  0  0  0
 29  1  1  0  0  0
  1  2  2  0  0  0
  1  3  1  0  0  0
  3  5  1  0  0  0
  5  6  2  0  0  0
  6  7  1  0  0  0
  7  8  2  0  0  0
  8  9  1  0  0  0
  8 10  1  0  0  0
 10 12  1  0  0  0
 12 14  1  0  0  0
 14 15  2  0  0  0
 15 16  1  0  0  0
 16 17  2  0  0  0
 17 18  1  0  0  0
 18 19  2  0  0  0
 18 20  1  0  0  0
 20 21  2  0  0  0
 21 22  1  0  0  0
 22 23  2  0  0  0
 23 24  1  0  0  0
 24 25  2  0  0  0
 10 11  2  0  0  0
 41 42  1  0  0  0
 42 43  1  0  0  0
 43 38  1  0  0  0
 31 26  1  0  0  0
 11  5  1  0  0  0
 19 14  1  0  0  0
 25 20  1  0  0  0
  3  4  1  0  0  0
 12 13  1  0  0  0
M  END
> <minimizedAffinity>
12.51069

> <CNNscore>
0.5213466287

> <CNNaffinity>
7.4594826698

> <CNN_VS>
3.8889760971

> <CNNaffinity_variance>
1.1702070236

$$$$
[H]c1nc(N([H])c2c([H])c(N([H])C(=O)c3c([H])c([H])c(C([H])([H])N4C([H])([H])C([H])([H])N(C([H])([H])[H])C([H])([H])C4([H])[H])c(C(F)(F)F)c3[H])c([H])c([H])c2C([H])([H])[H])nc(-c2c([H])nc([H])c([H])c2[H])c1[H]


 43 47  0  0  0  0  0  0  0  0999 V2000
  -11.9286   -6.7192    6.8205 C   0  0  0  0  0  0  0  0  0  0  0  0
  -12.7643   -7.1699    7.6290 O   0  0  0  0  0  0  0  0  0  0  0  0
  -12.3107   -6.0722    5.6467 N   0  0  0  0  0  0  0  0  0  0  0  0
  -11.5119   -5.7162    5.0053 H   0  0  0  0  0  0  0  0  0  0  0  0
  -13.5963   -5.7958    5.1502 C   0  0  0  0  0  0  0  0  0  0  0  0
  -13.7271   -4.7934    4.1800 C   0  0  0  0  0  0  0  0  0  0  0  0
  -14.9640   -4.4772    3.6773 C   0  0  0  0  0  0  0  0  0  0  0  0
  -16.0914   -5.1370    4.1165 C   0  0  0  0  0  0  0  0  0  0  0  0
  -17.4205   -4.7943    3.5711 C   0  0  0  0  0  0  0  0  0  0  0  0
  -16.0213   -6.1415    5.0793 C   0  0  0  0  0  0  0  0  0  0  0  0
  -14.7730   -6.4361    5.5636 C   0  0  0  0  0  0  0  0  0  0  0  0
  -17.1984   -6.7671    5.4852 N   0  0  0  0  0  0  0  0  0  0  0  0
  -18.0735   -6.6068    4.8595 H   0  0  0  0  0  0  0  0  0  0  0  0
  -17.4634   -7.5900    6.5920 C   0  0  0  0  0  0  0  0  0  0  0  0
  -18.6349   -8.1639    6.8917 N   0  0  0  0  0  0  0  0  0  0  0  0
  -18.8203   -8.9400    7.9658 C   0  0  0  0  0  0  0  0  0  0  0  0
  -17.7579   -9.1890    8.8464 C   0  0  0  0  0  0  0  0  0  0  0  0
  -16.5493   -8.6067    8.5517 C   0  0  0  0  0  0  0  0  0  0  0  0
  -16.4597   -7.8454    7.4542 N   0  0  0  0  0  0  0  0  0  0  0  0
  -15.3610   -8.8056    9.4147 C   0  0  0  0  0  0  0  0  0  0  0  0
  -15.3469   -8.3601   10.7030 C   0  0  0  0  0  0  0  0  0  0  0  0
  -14.2033   -8.5709   11.4821 C   0  0  0  0  0  0  0  0  0  0  0  0
  -13.1042   -9.2161   10.9680 C   0  0  0  0  0  0  0  0  0  0  0  0
  -13.1609   -9.6382    9.6947 N   0  0  0  0  0  0  0  0  0  0  0  0
  -14.2442   -9.4507    8.9222 C   0  0  0  0  0  0  0  0  0  0  0  0
   -7.8225   -7.3594    7.8859 C   0  0  0  0  0  0  0  0  0  0  0  0
   -8.3316   -6.0928    7.7440 C   0  0  0  0  0  0  0  0  0  0  0  0
   -9.6632   -5.8732    7.4010 C   0  0  0  0  0  0  0  0  0  0  0  0
  -10.5242   -6.9169    7.1885 C   0  0  0  0  0  0  0  0  0  0  0  0
   -9.9938   -8.1804    7.3346 C   0  0  0  0  0  0  0  0  0  0  0  0
   -8.6859   -8.4302    7.6726 C   0  0  0  0  0  0  0  0  0  0  0  0
   -8.1537   -9.8066    7.8231 C   0  0  0  0  0  0  0  0  0  0  0  0
   -9.0510  -10.7795    7.4531 F   0  0  0  0  0  0  0  0  0  0  0  0
   -7.0490   -9.9119    6.9856 F   0  0  0  0  0  0  0  0  0  0  0  0
   -7.6718  -10.0278    9.1077 F   0  0  0  0  0  0  0  0  0  0  0  0
   -6.4069   -7.5560    8.1884 C   0  0  0  0  0  0  0  0  0  0  0  0
   -2.3218   -6.1885    5.5908 C   0  0  0  0  0  0  0  0  0  0  0  0
   -2.6936   -6.7508    6.8746 N   0  0  0  0  0  0  0  0  0  0  0  0
   -3.7231   -7.7619    6.6106 C   0  0  0  0  0  0  0  0  0  0  0  0
   -5.0154   -7.0594    6.3216 C   0  0  0  0  0  0  0  0  0  0  0  0
   -5.6206   -6.4738    7.5433 N   0  0  0  0  0  0  0  0  0  0  0  0
   -4.4774   -6.1873    8.4436 C   0  0  0  0  0  0  0  0  0  0  0  0
   -3.2931   -5.6650    7.6543 C   0  0  0  0  0  0  0  0  0  0  0  0
 37 38  1  0  0  0
 38 39  1  0  0  0
 39 40  1  0  0  0
 40 41  1  0  0  0
 41 36  1  0  0  0
 36 26  1  0  0  0
 26 27  2  0  0  0
 27 28  1  0  0  0
 28 29  2  0  0  0
 29 30  1  0  0  0
 30 31  2  0  0  0
 31 32  1  0  0  0
 32 33  1  0  0  0
 32 34  1  0  0  0
 32 35  1  0  0  0
 29  1  1  0  0  0
  1  2  2  0  0  0
  1  3  1  0  0  0
  3  5  1  0  0  0
  5  6  2  0  0  0
  6  7  1  0  0  0
  7  8  2  0  0  0
  8  9  1  0  0  0
  8 10  1  0  0  0
 10 12  1  0  0  0
 12 14  1  0  0  0
 14 15  2  0  0  0
 15 16  1  0  0  0
 16 17  2  0  0  0
 17 18  1  0  0  0
 18 19  2  0  0  0
 18 20  1  0  0  0
 20 21  2  0  0  0
 21 22  1  0  0  0
 22 23  2  0  0  0
 23 24  1  0  0  0
 24 25  2  0  0  0
 10 11  2  0  0  0
 41 42  1  0  0  0
 42 43  1  0  0  0
 43 38  1  0  0  0
 31 26  1  0  0  0
 11  5  1  0  0  0
 19 14  1  0  0  0
 25 20  1  0  0  0
  3  4  1  0  0  0
 12 13  1  0  0  0
M  END
> <minimizedAffinity>
8.19930

> <CNNscore>
0.4378691614

> <CNNaffinity>
7.2697920799

> <CNN_VS>
3.1832177639

> <CNNaffinity_variance>
0.6074624062

$$$$
[H]c1nc(N([H])c2c([H])c(N([H])C(=O)c3c([H])c([H])c(C([H])([H])N4C([H])([H])C([H])([H])N(C([H])([H])[H])C([H])([H])C4([H])[H])c(C(F)(F)F)c3[H])c([H])c([H])c2C([H])([H])[H])nc(-c2c([H])nc([H])c([H])c2[H])c1[H]


 43 47  0  0  0  0  0  0  0  0999 V2000
   -8.9424   -7.0760    7.7631 C   0  0  0  0  0  0  0  0  0  0  0  0
   -8.8182   -6.7316    8.9552 O   0  0  0  0  0  0  0  0  0  0  0  0
   -7.8403   -7.3312    6.9491 N   0  0  0  0  0  0  0  0  0  0  0  0
   -8.0486   -7.6233    5.9256 H   0  0  0  0  0  0  0  0  0  0  0  0
   -6.4683   -7.2741    7.2497 C   0  0  0  0  0  0  0  0  0  0  0  0
   -5.8653   -8.4141    7.7974 C   0  0  0  0  0  0  0  0  0  0  0  0
   -4.5323   -8.4006    8.1221 C   0  0  0  0  0  0  0  0  0  0  0  0
   -3.7694   -7.2717    7.9156 C   0  0  0  0  0  0  0  0  0  0  0  0
   -2.3344   -7.2626    8.2650 C   0  0  0  0  0  0  0  0  0  0  0  0
   -4.3157   -6.1098    7.3745 C   0  0  0  0  0  0  0  0  0  0  0  0
   -5.6494   -6.1521    7.0600 C   0  0  0  0  0  0  0  0  0  0  0  0
   -3.4925   -4.9999    7.1954 N   0  0  0  0  0  0  0  0  0  0  0  0
   -2.5082   -5.0467    7.6559 H   0  0  0  0  0  0  0  0  0  0  0  0
   -3.7154   -3.7960    6.5074 C   0  0  0  0  0  0  0  0  0  0  0  0
   -3.9992   -3.6668    5.2057 N   0  0  0  0  0  0  0  0  0  0  0  0
   -4.2013   -2.4854    4.6107 C   0  0  0  0  0  0  0  0  0  0  0  0
   -4.1204   -1.2995    5.3545 C   0  0  0  0  0  0  0  0  0  0  0  0
   -3.8299   -1.4164    6.6919 C   0  0  0  0  0  0  0  0  0  0  0  0
   -3.6437   -2.6415    7.1987 N   0  0  0  0  0  0  0  0  0  0  0  0
   -3.7225   -0.2272    7.5696 C   0  0  0  0  0  0  0  0  0  0  0  0
   -4.4813    0.8826    7.3438 C   0  0  0  0  0  0  0  0  0  0  0  0
   -4.3477    1.9825    8.1991 C   0  0  0  0  0  0  0  0  0  0  0  0
   -3.4682    1.9569    9.2549 C   0  0  0  0  0  0  0  0  0  0  0  0
   -2.7406    0.8439    9.4407 N   0  0  0  0  0  0  0  0  0  0  0  0
   -2.8466   -0.2275    8.6369 C   0  0  0  0  0  0  0  0  0  0  0  0
  -12.9707   -7.4798    6.3435 C   0  0  0  0  0  0  0  0  0  0  0  0
  -12.5155   -6.2948    6.8652 C   0  0  0  0  0  0  0  0  0  0  0  0
  -11.2095   -6.1516    7.3266 C   0  0  0  0  0  0  0  0  0  0  0  0
  -10.3208   -7.1927    7.2802 C   0  0  0  0  0  0  0  0  0  0  0  0
  -10.7971   -8.3741    6.7541 C   0  0  0  0  0  0  0  0  0  0  0  0
  -12.0786   -8.5471    6.2903 C   0  0  0  0  0  0  0  0  0  0  0  0
  -12.5523   -9.8353    5.7281 C   0  0  0  0  0  0  0  0  0  0  0  0
  -12.0327  -10.1098    4.4858 F   0  0  0  0  0  0  0  0  0  0  0  0
  -12.1299  -10.8389    6.5925 F   0  0  0  0  0  0  0  0  0  0  0  0
  -13.9402   -9.9073    5.7210 F   0  0  0  0  0  0  0  0  0  0  0  0
  -14.3631   -7.6143    5.9230 C   0  0  0  0  0  0  0  0  0  0  0  0
  -18.8771   -8.7531    7.8294 C   0  0  0  0  0  0  0  0  0  0  0  0
  -18.2203   -7.7202    7.0518 N   0  0  0  0  0  0  0  0  0  0  0  0
  -17.3779   -8.4054    6.0655 C   0  0  0  0  0  0  0  0  0  0  0  0
  -16.1600   -8.9302    6.7644 C   0  0  0  0  0  0  0  0  0  0  0  0
  -15.2088   -7.8489    7.1212 N   0  0  0  0  0  0  0  0  0  0  0  0
  -16.0458   -6.6365    7.2921 C   0  0  0  0  0  0  0  0  0  0  0  0
  -17.3545   -6.9822    7.9747 C   0  0  0  0  0  0  0  0  0  0  0  0
 37 38  1  0  0  0
 38 39  1  0  0  0
 39 40  1  0  0  0
 40 41  1  0  0  0
 41 36  1  0  0  0
 36 26  1  0  0  0
 26 27  2  0  0  0
 27 28  1  0  0  0
 28 29  2  0  0  0
 29 30  1  0  0  0
 30 31  2  0  0  0
 31 32  1  0  0  0
 32 33  1  0  0  0
 32 34  1  0  0  0
 32 35  1  0  0  0
 29  1  1  0  0  0
  1  2  2  0  0  0
  1  3  1  0  0  0
  3  5  1  0  0  0
  5  6  2  0  0  0
  6  7  1  0  0  0
  7  8  2  0  0  0
  8  9  1  0  0  0
  8 10  1  0  0  0
 10 12  1  0  0  0
 12 14  1  0  0  0
 14 15  2  0  0  0
 15 16  1  0  0  0
 16 17  2  0  0  0
 17 18  1  0  0  0
 18 19  2  0  0  0
 18 20  1  0  0  0
 20 21  2  0  0  0
 21 22  1  0  0  0
 22 23  2  0  0  0
 23 24  1  0  0  0
 24 25  2  0  0  0
 10 11  2  0  0  0
 41 42  1  0  0  0
 42 43  1  0  0  0
 43 38  1  0  0  0
 31 26  1  0  0  0
 11  5  1  0  0  0
 19 14  1  0  0  0
 25 20  1  0  0  0
  3  4  1  0  0  0
 12 13  1  0  0  0
M  END
> <minimizedAffinity>
7.77495

> <CNNscore>
0.3757493496

> <CNNaffinity>
7.1916565895

> <CNN_VS>
2.7022602558

> <CNNaffinity_variance>
4.3801431656

$$$$
[H]c1nc(N([H])c2c([H])c(N([H])C(=O)c3c([H])c([H])c(C([H])([H])N4C([H])([H])C([H])([H])N(C([H])([H])[H])C([H])([H])C4([H])[H])c(C(F)(F)F)c3[H])c([H])c([H])c2C([H])([H])[H])nc(-c2c([H])nc([H])c([H])c2[H])c1[H]


 43 47  0  0  0  0  0  0  0  0999 V2000
   -8.6786   -7.9972    7.3966 C   0  0  0  0  0  0  0  0  0  0  0  0
   -9.3260   -8.7388    6.6310 O   0  0  0  0  0  0  0  0  0  0  0  0
   -9.2743   -7.3514    8.4784 N   0  0  0  0  0  0  0  0  0  0  0  0
   -8.6301   -6.7256    9.0863 H   0  0  0  0  0  0  0  0  0  0  0  0
  -10.6076   -7.3849    8.9222 C   0  0  0  0  0  0  0  0  0  0  0  0
  -10.8424   -7.4083   10.3033 C   0  0  0  0  0  0  0  0  0  0  0  0
  -12.1267   -7.4575   10.7838 C   0  0  0  0  0  0  0  0  0  0  0  0
  -13.2003   -7.4846    9.9202 C   0  0  0  0  0  0  0  0  0  0  0  0
  -14.5809   -7.5357   10.4423 C   0  0  0  0  0  0  0  0  0  0  0  0
  -13.0266   -7.4637    8.5380 C   0  0  0  0  0  0  0  0  0  0  0  0
  -11.7330   -7.4147    8.0866 C   0  0  0  0  0  0  0  0  0  0  0  0
  -14.1528   -7.4984    7.7182 N   0  0  0  0  0  0  0  0  0  0  0  0
  -15.0774   -7.8394    8.1785 H   0  0  0  0  0  0  0  0  0  0  0  0
  -14.3099   -7.1633    6.3635 C   0  0  0  0  0  0  0  0  0  0  0  0
  -13.3366   -7.0809    5.4484 N   0  0  0  0  0  0  0  0  0  0  0  0
  -13.5554   -6.7553    4.1691 C   0  0  0  0  0  0  0  0  0  0  0  0
  -14.8566   -6.4795    3.7254 C   0  0  0  0  0  0  0  0  0  0  0  0
  -15.8660   -6.5602    4.6534 C   0  0  0  0  0  0  0  0  0  0  0  0
  -15.5503   -6.8935    5.9109 N   0  0  0  0  0  0  0  0  0  0  0  0
  -17.2773   -6.2899    4.2905 C   0  0  0  0  0  0  0  0  0  0  0  0
  -17.9114   -5.1653    4.7283 C   0  0  0  0  0  0  0  0  0  0  0  0
  -19.2446   -4.9502    4.3599 C   0  0  0  0  0  0  0  0  0  0  0  0
  -19.9159   -5.8516    3.5691 C   0  0  0  0  0  0  0  0  0  0  0  0
  -19.2534   -6.9456    3.1604 N   0  0  0  0  0  0  0  0  0  0  0  0
  -17.9739   -7.1796    3.4973 C   0  0  0  0  0  0  0  0  0  0  0  0
   -4.5234   -7.5861    6.4112 C   0  0  0  0  0  0  0  0  0  0  0  0
   -4.9989   -7.2360    7.6501 C   0  0  0  0  0  0  0  0  0  0  0  0
   -6.3449   -7.3675    7.9817 C   0  0  0  0  0  0  0  0  0  0  0  0
   -7.2551   -7.8527    7.0807 C   0  0  0  0  0  0  0  0  0  0  0  0
   -6.7584   -8.1975    5.8423 C   0  0  0  0  0  0  0  0  0  0  0  0
   -5.4372   -8.0805    5.4847 C   0  0  0  0  0  0  0  0  0  0  0  0
   -4.9412   -8.4657    4.1409 C   0  0  0  0  0  0  0  0  0  0  0  0
   -5.2281   -7.5372    3.1692 F   0  0  0  0  0  0  0  0  0  0  0  0
   -3.5576   -8.5689    4.2296 F   0  0  0  0  0  0  0  0  0  0  0  0
   -5.3882   -9.7303    3.7771 F   0  0  0  0  0  0  0  0  0  0  0  0
   -3.1167   -7.3804    6.0756 C   0  0  0  0  0  0  0  0  0  0  0  0
   -1.4667   -2.6613    5.5151 C   0  0  0  0  0  0  0  0  0  0  0  0
   -1.0779   -4.0248    5.2113 N   0  0  0  0  0  0  0  0  0  0  0  0
   -2.2772   -4.7040    4.7090 C   0  0  0  0  0  0  0  0  0  0  0  0
   -3.1723   -5.0089    5.8722 C   0  0  0  0  0  0  0  0  0  0  0  0
   -2.6494   -6.1194    6.7060 N   0  0  0  0  0  0  0  0  0  0  0  0
   -1.1776   -6.0780    6.5287 C   0  0  0  0  0  0  0  0  0  0  0  0
   -0.6851   -4.6451    6.4790 C   0  0  0  0  0  0  0  0  0  0  0  0
 37 38  1  0  0  0
 38 39  1  0  0  0
 39 40  1  0  0  0
 40 41  1  0  0  0
 41 36  1  0  0  0
 36 26  1  0  0  0
 26 27  2  0  0  0
 27 28  1  0  0  0
 28 29  2  0  0  0
 29 30  1  0  0  0
 30 31  2  0  0  0
 31 32  1  0  0  0
 32 33  1  0  0  0
 32 34  1  0  0  0
 32 35  1  0  0  0
 29  1  1  0  0  0
  1  2  2  0  0  0
  1  3  1  0  0  0
  3  5  1  0  0  0
  5  6  2  0  0  0
  6  7  1  0  0  0
  7  8  2  0  0  0
  8  9  1  0  0  0
  8 10  1  0  0  0
 10 12  1  0  0  0
 12 14  1  0  0  0
 14 15  2  0  0  0
 15 16  1  0  0  0
 16 17  2  0  0  0
 17 18  1  0  0  0
 18 19  2  0  0  0
 18 20  1  0  0  0
 20 21  2  0  0  0
 21 22  1  0  0  0
 22 23  2  0  0  0
 23 24  1  0  0  0
 24 25  2  0  0  0
 10 11  2  0  0  0
 41 42  1  0  0  0
 42 43  1  0  0  0
 43 38  1  0  0  0
 31 26  1  0  0  0
 11  5  1  0  0  0
 19 14  1  0  0  0
 25 20  1  0  0  0
  3  4  1  0  0  0
 12 13  1  0  0  0
M  END
> <minimizedAffinity>
16.23127

> <CNNscore>
0.3665091693

> <CNNaffinity>
7.2408499718

> <CNN_VS>
2.6538379192

> <CNNaffinity_variance>
1.6769176722

$$$$
[H]c1nc(N([H])c2c([H])c(N([H])C(=O)c3c([H])c([H])c(C([H])([H])N4C([H])([H])C([H])([H])N(C([H])([H])[H])C([H])([H])C4([H])[H])c(C(F)(F)F)c3[H])c([H])c([H])c2C([H])([H])[H])nc(-c2c([H])nc([H])c([H])c2[H])c1[H]


 43 47  0  0  0  0  0  0  0  0999 V2000
   -4.3886   -5.4105    5.6737 C   0  0  0  0  0  0  0  0  0  0  0  0
   -3.6858   -6.0412    6.4882 O   0  0  0  0  0  0  0  0  0  0  0  0
   -5.7335   -5.7133    5.4685 N   0  0  0  0  0  0  0  0  0  0  0  0
   -6.2619   -5.1104    4.7381 H   0  0  0  0  0  0  0  0  0  0  0  0
   -6.5363   -6.6953    6.0741 C   0  0  0  0  0  0  0  0  0  0  0  0
   -6.5351   -7.9821    5.5197 C   0  0  0  0  0  0  0  0  0  0  0  0
   -7.3151   -8.9695    6.0666 C   0  0  0  0  0  0  0  0  0  0  0  0
   -8.1079   -8.7127    7.1641 C   0  0  0  0  0  0  0  0  0  0  0  0
   -8.9445   -9.7794    7.7504 C   0  0  0  0  0  0  0  0  0  0  0  0
   -8.1492   -7.4524    7.7565 C   0  0  0  0  0  0  0  0  0  0  0  0
   -7.3601   -6.4856    7.1890 C   0  0  0  0  0  0  0  0  0  0  0  0
   -8.9755   -7.2554    8.8612 N   0  0  0  0  0  0  0  0  0  0  0  0
   -8.5184   -7.3903    9.8389 H   0  0  0  0  0  0  0  0  0  0  0  0
  -10.3334   -6.9054    8.9382 C   0  0  0  0  0  0  0  0  0  0  0  0
  -10.9091   -6.1656    9.8936 N   0  0  0  0  0  0  0  0  0  0  0  0
  -12.2136   -5.8677    9.9073 C   0  0  0  0  0  0  0  0  0  0  0  0
  -13.0534   -6.3354    8.8864 C   0  0  0  0  0  0  0  0  0  0  0  0
  -12.4765   -7.0959    7.8988 C   0  0  0  0  0  0  0  0  0  0  0  0
  -11.1625   -7.3419    7.9697 N   0  0  0  0  0  0  0  0  0  0  0  0
  -13.2724   -7.6390    6.7728 C   0  0  0  0  0  0  0  0  0  0  0  0
  -13.0663   -8.9063    6.3147 C   0  0  0  0  0  0  0  0  0  0  0  0
  -13.8421   -9.3782    5.2495 C   0  0  0  0  0  0  0  0  0  0  0  0
  -14.8009   -8.5858    4.6651 C   0  0  0  0  0  0  0  0  0  0  0  0
  -14.9706   -7.3443    5.1475 N   0  0  0  0  0  0  0  0  0  0  0  0
  -14.2416   -6.8633    6.1686 C   0  0  0  0  0  0  0  0  0  0  0  0
   -2.4243   -2.2187    3.5858 C   0  0  0  0  0  0  0  0  0  0  0  0
   -1.9419   -3.5028    3.5387 C   0  0  0  0  0  0  0  0  0  0  0  0
   -2.5727   -4.5469    4.2103 C   0  0  0  0  0  0  0  0  0  0  0  0
   -3.7052   -4.3348    4.9506 C   0  0  0  0  0  0  0  0  0  0  0  0
   -4.1730   -3.0390    4.9864 C   0  0  0  0  0  0  0  0  0  0  0  0
   -3.5747   -1.9880    4.3348 C   0  0  0  0  0  0  0  0  0  0  0  0
   -4.1116   -0.6066    4.3960 C   0  0  0  0  0  0  0  0  0  0  0  0
   -4.5100   -0.1239    3.1726 F   0  0  0  0  0  0  0  0  0  0  0  0
   -5.2303   -0.6387    5.2209 F   0  0  0  0  0  0  0  0  0  0  0  0
   -3.2168    0.2599    5.0126 F   0  0  0  0  0  0  0  0  0  0  0  0
   -1.7058   -1.1358    2.9188 C   0  0  0  0  0  0  0  0  0  0  0  0
   -1.8459    0.2823   -1.9058 C   0  0  0  0  0  0  0  0  0  0  0  0
   -2.7263    0.1017   -0.7678 N   0  0  0  0  0  0  0  0  0  0  0  0
   -2.0352    0.6692    0.3951 C   0  0  0  0  0  0  0  0  0  0  0  0
   -0.9623   -0.2865    0.8225 C   0  0  0  0  0  0  0  0  0  0  0  0
   -1.5170   -1.4906    1.4890 N   0  0  0  0  0  0  0  0  0  0  0  0
   -2.8729   -1.6628    0.9133 C   0  0  0  0  0  0  0  0  0  0  0  0
   -2.8692   -1.3426   -0.5685 C   0  0  0  0  0  0  0  0  0  0  0  0
 37 38  1  0  0  0
 38 39  1  0  0  0
 39 40  1  0  0  0
 40 41  1  0  0  0
 41 36  1  0  0  0
 36 26  1  0  0  0
 26 27  2  0  0  0
 27 28  1  0  0  0
 28 29  2  0  0  0
 29 30  1  0  0  0
 30 31  2  0  0  0
 31 32  1  0  0  0
 32 33  1  0  0  0
 32 34  1  0  0  0
 32 35  1  0  0  0
 29  1  1  0  0  0
  1  2  2  0  0  0
  1  3  1  0  0  0
  3  5  1  0  0  0
  5  6  2  0  0  0
  6  7  1  0  0  0
  7  8  2  0  0  0
  8  9  1  0  0  0
  8 10  1  0  0  0
 10 12  1  0  0  0
 12 14  1  0  0  0
 14 15  2  0  0  0
 15 16  1  0  0  0
 16 17  2  0  0  0
 17 18  1  0  0  0
 18 19  2  0  0  0
 18 20  1  0  0  0
 20 21  2  0  0  0
 21 22  1  0  0  0
 22 23  2  0  0  0
 23 24  1  0  0  0
 24 25  2  0  0  0
 10 11  2  0  0  0
 41 42  1  0  0  0
 42 43  1  0  0  0
 43 38  1  0  0  0
 31 26  1  0  0  0
 11  5  1  0  0  0
 19 14  1  0  0  0
 25 20  1  0  0  0
  3  4  1  0  0  0
 12 13  1  0  0  0
M  END
> <minimizedAffinity>
-8.44427

> <CNNscore>
0.3664531410

> <CNNaffinity>
6.9385328293

> <CNN_VS>
2.5426471233

> <CNNaffinity_variance>
0.0203432627

$$$$
[H]c1nc(N([H])c2c([H])c(N([H])C(=O)c3c([H])c([H])c(C([H])([H])N4C([H])([H])C([H])([H])N(C([H])([H])[H])C([H])([H])C4([H])[H])c(C(F)(F)F)c3[H])c([H])c([H])c2C([H])([H])[H])nc(-c2c([H])nc([H])c([H])c2[H])c1[H]


 43 47  0  0  0  0  0  0  0  0999 V2000
   -8.6989  -10.5557    5.1129 C   0  0  0  0  0  0  0  0  0  0  0  0
   -8.0517   -9.5641    4.7218 O   0  0  0  0  0  0  0  0  0  0  0  0
   -9.5368  -10.4993    6.2251 N   0  0  0  0  0  0  0  0  0  0  0  0
  -10.0568  -11.4136    6.4893 H   0  0  0  0  0  0  0  0  0  0  0  0
   -9.8274   -9.4204    7.0779 C   0  0  0  0  0  0  0  0  0  0  0  0
  -11.1481   -9.2660    7.5196 C   0  0  0  0  0  0  0  0  0  0  0  0
  -11.4829   -8.2186    8.3403 C   0  0  0  0  0  0  0  0  0  0  0  0
  -10.5305   -7.3067    8.7411 C   0  0  0  0  0  0  0  0  0  0  0  0
  -10.8954   -6.1820    9.6260 C   0  0  0  0  0  0  0  0  0  0  0  0
   -9.2025   -7.4104    8.3328 C   0  0  0  0  0  0  0  0  0  0  0  0
   -8.8970   -8.4661    7.5133 C   0  0  0  0  0  0  0  0  0  0  0  0
   -8.2885   -6.4531    8.7685 N   0  0  0  0  0  0  0  0  0  0  0  0
   -8.6316   -5.7728    9.5447 H   0  0  0  0  0  0  0  0  0  0  0  0
   -6.9653   -6.2024    8.3703 C   0  0  0  0  0  0  0  0  0  0  0  0
   -6.5008   -6.2025    7.1150 N   0  0  0  0  0  0  0  0  0  0  0  0
   -5.2234   -5.9544    6.8033 C   0  0  0  0  0  0  0  0  0  0  0  0
   -4.2932   -5.6757    7.8148 C   0  0  0  0  0  0  0  0  0  0  0  0
   -4.7553   -5.6721    9.1083 C   0  0  0  0  0  0  0  0  0  0  0  0
   -6.0510   -5.9318    9.3227 N   0  0  0  0  0  0  0  0  0  0  0  0
   -3.8572   -5.3883   10.2525 C   0  0  0  0  0  0  0  0  0  0  0  0
   -4.3589   -4.9956   11.4577 C   0  0  0  0  0  0  0  0  0  0  0  0
   -3.4734   -4.7393   12.5111 C   0  0  0  0  0  0  0  0  0  0  0  0
   -2.1162   -4.8778   12.3460 C   0  0  0  0  0  0  0  0  0  0  0  0
   -1.6652   -5.2665   11.1426 N   0  0  0  0  0  0  0  0  0  0  0  0
   -2.4901   -5.5198   10.1126 C   0  0  0  0  0  0  0  0  0  0  0  0
   -8.1463  -14.1005    2.7603 C   0  0  0  0  0  0  0  0  0  0  0  0
   -8.4452  -14.1736    4.0979 C   0  0  0  0  0  0  0  0  0  0  0  0
   -8.6291  -13.0298    4.8705 C   0  0  0  0  0  0  0  0  0  0  0  0
   -8.5175  -11.7782    4.3258 C   0  0  0  0  0  0  0  0  0  0  0  0
   -8.2159  -11.7259    2.9821 C   0  0  0  0  0  0  0  0  0  0  0  0
   -8.0293  -12.8348    2.1929 C   0  0  0  0  0  0  0  0  0  0  0  0
   -7.7083  -12.7361    0.7481 C   0  0  0  0  0  0  0  0  0  0  0  0
   -6.3750  -12.9247    0.4737 F   0  0  0  0  0  0  0  0  0  0  0  0
   -8.4179  -13.7419    0.1018 F   0  0  0  0  0  0  0  0  0  0  0  0
   -8.1709  -11.5435    0.2047 F   0  0  0  0  0  0  0  0  0  0  0  0
   -7.9012  -15.3181    1.9915 C   0  0  0  0  0  0  0  0  0  0  0  0
   -7.2260  -17.9007    6.2553 C   0  0  0  0  0  0  0  0  0  0  0  0
   -6.4978  -17.4882    5.0711 N   0  0  0  0  0  0  0  0  0  0  0  0
   -6.8490  -16.0850    4.8269 C   0  0  0  0  0  0  0  0  0  0  0  0
   -8.2266  -16.0360    4.2380 C   0  0  0  0  0  0  0  0  0  0  0  0
   -8.2499  -16.4952    2.8273 N   0  0  0  0  0  0  0  0  0  0  0  0
   -7.1186  -17.4471    2.7102 C   0  0  0  0  0  0  0  0  0  0  0  0
   -7.0041  -18.2976    3.9599 C   0  0  0  0  0  0  0  0  0  0  0  0
 37 38  1  0  0  0
 38 39  1  0  0  0
 39 40  1  0  0  0
 40 41  1  0  0  0
 41 36  1  0  0  0
 36 26  1  0  0  0
 26 27  2  0  0  0
 27 28  1  0  0  0
 28 29  2  0  0  0
 29 30  1  0  0  0
 30 31  2  0  0  0
 31 32  1  0  0  0
 32 33  1  0  0  0
 32 34  1  0  0  0
 32 35  1  0  0  0
 29  1  1  0  0  0
  1  2  2  0  0  0
  1  3  1  0  0  0
  3  5  1  0  0  0
  5  6  2  0  0  0
  6  7  1  0  0  0
  7  8  2  0  0  0
  8  9  1  0  0  0
  8 10  1  0  0  0
 10 12  1  0  0  0
 12 14  1  0  0  0
 14 15  2  0  0  0
 15 16  1  0  0  0
 16 17  2  0  0  0
 17 18  1  0  0  0
 18 19  2  0  0  0
 18 20  1  0  0  0
 20 21  2  0  0  0
 21 22  1  0  0  0
 22 23  2  0  0  0
 23 24  1  0  0  0
 24 25  2  0  0  0
 10 11  2  0  0  0
 41 42  1  0  0  0
 42 43  1  0  0  0
 43 38  1  0  0  0
 31 26  1  0  0  0
 11  5  1  0  0  0
 19 14  1  0  0  0
 25 20  1  0  0  0
  3  4  1  0  0  0
 12 13  1  0  0  0
M  END
> <minimizedAffinity>
17.33846

> <CNNscore>
0.3640159965

> <CNNaffinity>
6.6531181335

> <CNN_VS>
2.4218413830

> <CNNaffinity_variance>
0.5463528633

$$$$
[H]c1nc(N([H])c2c([H])c(N([H])C(=O)c3c([H])c([H])c(C([H])([H])N4C([H])([H])C([H])([H])N(C([H])([H])[H])C([H])([H])C4([H])[H])c(C(F)(F)F)c3[H])c([H])c([H])c2C([H])([H])[H])nc(-c2c([H])nc([H])c([H])c2[H])c1[H]


 43 47  0  0  0  0  0  0  0  0999 V2000
  -13.8310   -7.1216    6.7255 C   0  0  0  0  0  0  0  0  0  0  0  0
  -13.4295   -6.0191    6.3034 O   0  0  0  0  0  0  0  0  0  0  0  0
  -13.0317   -7.9458    7.5157 N   0  0  0  0  0  0  0  0  0  0  0  0
  -13.4677   -8.8867    7.8334 H   0  0  0  0  0  0  0  0  0  0  0  0
  -11.7209   -7.7470    7.9826 C   0  0  0  0  0  0  0  0  0  0  0  0
  -11.4866   -6.6746    8.8533 C   0  0  0  0  0  0  0  0  0  0  0  0
  -10.2204   -6.4313    9.3226 C   0  0  0  0  0  0  0  0  0  0  0  0
   -9.1647   -7.2335    8.9470 C   0  0  0  0  0  0  0  0  0  0  0  0
   -7.8039   -6.9686    9.4563 C   0  0  0  0  0  0  0  0  0  0  0  0
   -9.3388   -8.3131    8.0838 C   0  0  0  0  0  0  0  0  0  0  0  0
  -10.6140   -8.5323    7.6307 C   0  0  0  0  0  0  0  0  0  0  0  0
   -8.2301   -9.0831    7.7380 N   0  0  0  0  0  0  0  0  0  0  0  0
   -8.2075  -10.1007    8.1215 H   0  0  0  0  0  0  0  0  0  0  0  0
   -7.1030   -8.7685    6.9613 C   0  0  0  0  0  0  0  0  0  0  0  0
   -6.9397   -9.0281    5.6584 N   0  0  0  0  0  0  0  0  0  0  0  0
   -5.8366   -8.7000    4.9757 C   0  0  0  0  0  0  0  0  0  0  0  0
   -4.7756   -8.0501    5.6223 C   0  0  0  0  0  0  0  0  0  0  0  0
   -4.9290   -7.7770    6.9596 C   0  0  0  0  0  0  0  0  0  0  0  0
   -6.0690   -8.1436    7.5581 N   0  0  0  0  0  0  0  0  0  0  0  0
   -3.8700   -7.0925    7.7384 C   0  0  0  0  0  0  0  0  0  0  0  0
   -2.7218   -7.7416    8.0831 C   0  0  0  0  0  0  0  0  0  0  0  0
   -1.7481   -7.0555    8.8181 C   0  0  0  0  0  0  0  0  0  0  0  0
   -1.9344   -5.7465    9.1931 C   0  0  0  0  0  0  0  0  0  0  0  0
   -3.0797   -5.1457    8.8327 N   0  0  0  0  0  0  0  0  0  0  0  0
   -4.0327   -5.7779    8.1273 C   0  0  0  0  0  0  0  0  0  0  0  0
  -17.8112   -8.1771    5.5218 C   0  0  0  0  0  0  0  0  0  0  0  0
  -17.3217   -8.5353    6.7530 C   0  0  0  0  0  0  0  0  0  0  0  0
  -16.0324   -8.1960    7.1551 C   0  0  0  0  0  0  0  0  0  0  0  0
  -15.1946   -7.4886    6.3345 C   0  0  0  0  0  0  0  0  0  0  0  0
  -15.7041   -7.1395    5.1025 C   0  0  0  0  0  0  0  0  0  0  0  0
  -16.9707   -7.4581    4.6767 C   0  0  0  0  0  0  0  0  0  0  0  0
  -17.4833   -7.0609    3.3427 C   0  0  0  0  0  0  0  0  0  0  0  0
  -17.7132   -5.7107    3.2289 F   0  0  0  0  0  0  0  0  0  0  0  0
  -16.5087   -7.4021    2.4118 F   0  0  0  0  0  0  0  0  0  0  0  0
  -18.6097   -7.7952    2.9914 F   0  0  0  0  0  0  0  0  0  0  0  0
  -19.1468   -8.5997    5.1075 C   0  0  0  0  0  0  0  0  0  0  0  0
  -21.4885  -12.1526    7.7907 C   0  0  0  0  0  0  0  0  0  0  0  0
  -21.5688  -11.4888    6.5040 N   0  0  0  0  0  0  0  0  0  0  0  0
  -20.1986  -11.4023    5.9872 C   0  0  0  0  0  0  0  0  0  0  0  0
  -19.4805  -10.3136    6.7260 C   0  0  0  0  0  0  0  0  0  0  0  0
  -19.9342   -8.9624    6.3134 N   0  0  0  0  0  0  0  0  0  0  0  0
  -21.3359   -9.1441    5.8644 C   0  0  0  0  0  0  0  0  0  0  0  0
  -22.0597  -10.1321    6.7579 C   0  0  0  0  0  0  0  0  0  0  0  0
 37 38  1  0  0  0
 38 39  1  0  0  0
 39 40  1  0  0  0
 40 41  1  0  0  0
 41 36  1  0  0  0
 36 26  1  0  0  0
 26 27  2  0  0  0
 27 28  1  0  0  0
 28 29  2  0  0  0
 29 30  1  0  0  0
 30 31  2  0  0  0
 31 32  1  0  0  0
 32 33  1  0  0  0
 32 34  1  0  0  0
 32 35  1  0  0  0
 29  1  1  0  0  0
  1  2  2  0  0  0
  1  3  1  0  0  0
  3  5  1  0  0  0
  5  6  2  0  0  0
  6  7  1  0  0  0
  7  8  2  0  0  0
  8  9  1  0  0  0
  8 10  1  0  0  0
 10 12  1  0  0  0
 12 14  1  0  0  0
 14 15  2  0  0  0
 15 16  1  0  0  0
 16 17  2  0  0  0
 17 18  1  0  0  0
 18 19  2  0  0  0
 18 20  1  0  0  0
 20 21  2  0  0  0
 21 22  1  0  0  0
 22 23  2  0  0  0
 23 24  1  0  0  0
 24 25  2  0  0  0
 10 11  2  0  0  0
 41 42  1  0  0  0
 42 43  1  0  0  0
 43 38  1  0  0  0
 31 26  1  0  0  0
 11  5  1  0  0  0
 19 14  1  0  0  0
 25 20  1  0  0  0
  3  4  1  0  0  0
 12 13  1  0  0  0
M  END
> <minimizedAffinity>
1.77344

> <CNNscore>
0.3623367250

> <CNNaffinity>
7.1484894753

> <CNN_VS>
2.5901603699

> <CNNaffinity_variance>
1.3978006840

$$$$
[H]c1nc(N([H])c2c([H])c(N([H])C(=O)c3c([H])c([H])c(C([H])([H])N4C([H])([H])C([H])([H])N(C([H])([H])[H])C([H])([H])C4([H])[H])c(C(F)(F)F)c3[H])c([H])c([H])c2C([H])([H])[H])nc(-c2c([H])nc([H])c([H])c2[H])c1[H]


 43 47  0  0  0  0  0  0  0  0999 V2000
   -8.0967   -7.2672    7.9622 C   0  0  0  0  0  0  0  0  0  0  0  0
   -8.1706   -8.4900    8.1955 O   0  0  0  0  0  0  0  0  0  0  0  0
   -9.1667   -6.4048    8.1942 N   0  0  0  0  0  0  0  0  0  0  0  0
   -9.0078   -5.3581    7.9587 H   0  0  0  0  0  0  0  0  0  0  0  0
  -10.4488   -6.6791    8.7010 C   0  0  0  0  0  0  0  0  0  0  0  0
  -10.8096   -6.1055    9.9274 C   0  0  0  0  0  0  0  0  0  0  0  0
  -12.0445   -6.3574   10.4698 C   0  0  0  0  0  0  0  0  0  0  0  0
  -12.9447   -7.1741    9.8205 C   0  0  0  0  0  0  0  0  0  0  0  0
  -14.2735   -7.4408   10.4075 C   0  0  0  0  0  0  0  0  0  0  0  0
  -12.6400   -7.7715    8.5992 C   0  0  0  0  0  0  0  0  0  0  0  0
  -11.3995   -7.5023    8.0813 C   0  0  0  0  0  0  0  0  0  0  0  0
  -13.5915   -8.5913    7.9958 N   0  0  0  0  0  0  0  0  0  0  0  0
  -14.1076   -9.2948    8.6452 H   0  0  0  0  0  0  0  0  0  0  0  0
  -14.0132   -8.6741    6.6587 C   0  0  0  0  0  0  0  0  0  0  0  0
  -13.4829   -9.4505    5.7061 N   0  0  0  0  0  0  0  0  0  0  0  0
  -13.9345   -9.4818    4.4468 C   0  0  0  0  0  0  0  0  0  0  0  0
  -15.0165   -8.6752    4.0665 C   0  0  0  0  0  0  0  0  0  0  0  0
  -15.5712   -7.8730    5.0337 C   0  0  0  0  0  0  0  0  0  0  0  0
  -15.0513   -7.9093    6.2668 N   0  0  0  0  0  0  0  0  0  0  0  0
  -16.7190   -6.9829    4.7393 C   0  0  0  0  0  0  0  0  0  0  0  0
  -16.7068   -5.6735    5.1183 C   0  0  0  0  0  0  0  0  0  0  0  0
  -17.8124   -4.8692    4.8183 C   0  0  0  0  0  0  0  0  0  0  0  0
  -18.9006   -5.3796    4.1519 C   0  0  0  0  0  0  0  0  0  0  0  0
  -18.8707   -6.6743    3.7973 N   0  0  0  0  0  0  0  0  0  0  0  0
  -17.8241   -7.4712    4.0712 C   0  0  0  0  0  0  0  0  0  0  0  0
   -4.3150   -5.9071    6.4608 C   0  0  0  0  0  0  0  0  0  0  0  0
   -5.3104   -6.3215    5.6115 C   0  0  0  0  0  0  0  0  0  0  0  0
   -6.5424   -6.7626    6.0875 C   0  0  0  0  0  0  0  0  0  0  0  0
   -6.8132   -6.8027    7.4295 C   0  0  0  0  0  0  0  0  0  0  0  0
   -5.8010   -6.3838    8.2656 C   0  0  0  0  0  0  0  0  0  0  0  0
   -4.5759   -5.9428    7.8277 C   0  0  0  0  0  0  0  0  0  0  0  0
   -3.5125   -5.4971    8.7608 C   0  0  0  0  0  0  0  0  0  0  0  0
   -3.0914   -4.2095    8.5296 F   0  0  0  0  0  0  0  0  0  0  0  0
   -4.0483   -5.5412   10.0429 F   0  0  0  0  0  0  0  0  0  0  0  0
   -2.4417   -6.3830    8.7721 F   0  0  0  0  0  0  0  0  0  0  0  0
   -3.0135   -5.5065    5.9322 C   0  0  0  0  0  0  0  0  0  0  0  0
   -1.2578   -1.7790    3.0460 C   0  0  0  0  0  0  0  0  0  0  0  0
   -1.6615   -2.0377    4.4145 N   0  0  0  0  0  0  0  0  0  0  0  0
   -1.0877   -3.3358    4.7859 C   0  0  0  0  0  0  0  0  0  0  0  0
   -1.8968   -4.4163    4.1342 C   0  0  0  0  0  0  0  0  0  0  0  0
   -3.2209   -4.5922    4.7803 N   0  0  0  0  0  0  0  0  0  0  0  0
   -3.5546   -3.2639    5.3493 C   0  0  0  0  0  0  0  0  0  0  0  0
   -3.1217   -2.1557    4.4097 C   0  0  0  0  0  0  0  0  0  0  0  0
 37 38  1  0  0  0
 38 39  1  0  0  0
 39 40  1  0  0  0
 40 41  1  0  0  0
 41 36  1  0  0  0
 36 26  1  0  0  0
 26 27  2  0  0  0
 27 28  1  0  0  0
 28 29  2  0  0  0
 29 30  1  0  0  0
 30 31  2  0  0  0
 31 32  1  0  0  0
 32 33  1  0  0  0
 32 34  1  0  0  0
 32 35  1  0  0  0
 29  1  1  0  0  0
  1  2  2  0  0  0
  1  3  1  0  0  0
  3  5  1  0  0  0
  5  6  2  0  0  0
  6  7  1  0  0  0
  7  8  2  0  0  0
  8  9  1  0  0  0
  8 10  1  0  0  0
 10 12  1  0  0  0
 12 14  1  0  0  0
 14 15  2  0  0  0
 15 16  1  0  0  0
 16 17  2  0  0  0
 17 18  1  0  0  0
 18 19  2  0  0  0
 18 20  1  0  0  0
 20 21  2  0  0  0
 21 22  1  0  0  0
 22 23  2  0  0  0
 23 24  1  0  0  0
 24 25  2  0  0  0
 10 11  2  0  0  0
 41 42  1  0  0  0
 42 43  1  0  0  0
 43 38  1  0  0  0
 31 26  1  0  0  0
 11  5  1  0  0  0
 19 14  1  0  0  0
 25 20  1  0  0  0
  3  4  1  0  0  0
 12 13  1  0  0  0
M  END
> <minimizedAffinity>
-9.22582

> <CNNscore>
0.3557881415

> <CNNaffinity>
7.4343276024

> <CNN_VS>
2.6450455189

> <CNNaffinity_variance>
0.0192696750

$$$$
[H]c1nc(N([H])c2c([H])c(N([H])C(=O)c3c([H])c([H])c(C([H])([H])N4C([H])([H])C([H])([H])N(C([H])([H])[H])C([H])([H])C4([H])[H])c(C(F)(F)F)c3[H])c([H])c([H])c2C([H])([H])[H])nc(-c2c([H])nc([H])c([H])c2[H])c1[H]


 43 47  0  0  0  0  0  0  0  0999 V2000
   -7.7305   -8.4726    8.0887 C   0  0  0  0  0  0  0  0  0  0  0  0
   -7.1966   -9.4213    8.6972 O   0  0  0  0  0  0  0  0  0  0  0  0
   -6.9867   -7.4107    7.5775 N   0  0  0  0  0  0  0  0  0  0  0  0
   -7.5401   -6.6313    7.0652 H   0  0  0  0  0  0  0  0  0  0  0  0
   -5.6000   -7.1838    7.6158 C   0  0  0  0  0  0  0  0  0  0  0  0
   -5.1092   -6.2546    8.5426 C   0  0  0  0  0  0  0  0  0  0  0  0
   -3.7648   -5.9880    8.6059 C   0  0  0  0  0  0  0  0  0  0  0  0
   -2.8806   -6.6266    7.7636 C   0  0  0  0  0  0  0  0  0  0  0  0
   -1.4340   -6.3376    7.8369 C   0  0  0  0  0  0  0  0  0  0  0  0
   -3.3119   -7.5591    6.8227 C   0  0  0  0  0  0  0  0  0  0  0  0
   -4.6600   -7.8053    6.7817 C   0  0  0  0  0  0  0  0  0  0  0  0
   -2.3685   -8.1664    5.9964 N   0  0  0  0  0  0  0  0  0  0  0  0
   -1.9603   -7.5547    5.1949 H   0  0  0  0  0  0  0  0  0  0  0  0
   -1.8372   -9.4663    6.0142 C   0  0  0  0  0  0  0  0  0  0  0  0
   -1.2718  -10.1066    4.9837 N   0  0  0  0  0  0  0  0  0  0  0  0
   -0.7833  -11.3494    5.0686 C   0  0  0  0  0  0  0  0  0  0  0  0
   -0.8480  -12.0501    6.2814 C   0  0  0  0  0  0  0  0  0  0  0  0
   -1.4256  -11.4056    7.3480 C   0  0  0  0  0  0  0  0  0  0  0  0
   -1.8865  -10.1618    7.1674 N   0  0  0  0  0  0  0  0  0  0  0  0
   -1.5436  -12.0541    8.6754 C   0  0  0  0  0  0  0  0  0  0  0  0
   -2.2172  -13.2299    8.8245 C   0  0  0  0  0  0  0  0  0  0  0  0
   -2.3024  -13.8073   10.0968 C   0  0  0  0  0  0  0  0  0  0  0  0
   -1.7201  -13.2080   11.1878 C   0  0  0  0  0  0  0  0  0  0  0  0
   -1.0666  -12.0508   10.9959 N   0  0  0  0  0  0  0  0  0  0  0  0
   -0.9677  -11.4725    9.7871 C   0  0  0  0  0  0  0  0  0  0  0  0
  -12.0007   -8.6509    7.7155 C   0  0  0  0  0  0  0  0  0  0  0  0
  -11.1881   -9.4954    7.0012 C   0  0  0  0  0  0  0  0  0  0  0  0
   -9.8012   -9.4481    7.1163 C   0  0  0  0  0  0  0  0  0  0  0  0
   -9.1870   -8.5517    7.9499 C   0  0  0  0  0  0  0  0  0  0  0  0
  -10.0198   -7.7119    8.6574 C   0  0  0  0  0  0  0  0  0  0  0  0
  -11.3904   -7.7340    8.5667 C   0  0  0  0  0  0  0  0  0  0  0  0
  -12.2527   -6.8141    9.3480 C   0  0  0  0  0  0  0  0  0  0  0  0
  -13.0792   -7.4643   10.2328 F   0  0  0  0  0  0  0  0  0  0  0  0
  -11.4097   -5.9910   10.0861 F   0  0  0  0  0  0  0  0  0  0  0  0
  -12.9728   -5.9637    8.5174 F   0  0  0  0  0  0  0  0  0  0  0  0
  -13.4489   -8.6862    7.5274 C   0  0  0  0  0  0  0  0  0  0  0  0
  -16.9919   -6.9777    4.3914 C   0  0  0  0  0  0  0  0  0  0  0  0
  -16.4791   -8.2242    4.9260 N   0  0  0  0  0  0  0  0  0  0  0  0
  -16.2630   -8.0112    6.3612 C   0  0  0  0  0  0  0  0  0  0  0  0
  -15.0185   -7.1945    6.5377 C   0  0  0  0  0  0  0  0  0  0  0  0
  -13.7892   -7.9799    6.2660 N   0  0  0  0  0  0  0  0  0  0  0  0
  -14.2016   -9.0227    5.2955 C   0  0  0  0  0  0  0  0  0  0  0  0
  -15.1816   -8.4567    4.2867 C   0  0  0  0  0  0  0  0  0  0  0  0
 37 38  1  0  0  0
 38 39  1  0  0  0
 39 40  1  0  0  0
 40 41  1  0  0  0
 41 36  1  0  0  0
 36 26  1  0  0  0
 26 27  2  0  0  0
 27 28  1  0  0  0
 28 29  2  0  0  0
 29 30  1  0  0  0
 30 31  2  0  0  0
 31 32  1  0  0  0
 32 33  1  0  0  0
 32 34  1  0  0  0
 32 35  1  0  0  0
 29  1  1  0  0  0
  1  2  2  0  0  0
  1  3  1  0  0  0
  3  5  1  0  0  0
  5  6  2  0  0  0
  6  7  1  0  0  0
  7  8  2  0  0  0
  8  9  1  0  0  0
  8 10  1  0  0  0
 10 12  1  0  0  0
 12 14  1  0  0  0
 14 15  2  0  0  0
 15 16  1  0  0  0
 16 17  2  0  0  0
 17 18  1  0  0  0
 18 19  2  0  0  0
 18 20  1  0  0  0
 20 21  2  0  0  0
 21 22  1  0  0  0
 22 23  2  0  0  0
 23 24  1  0  0  0
 24 25  2  0  0  0
 10 11  2  0  0  0
 41 42  1  0  0  0
 42 43  1  0  0  0
 43 38  1  0  0  0
 31 26  1  0  0  0
 11  5  1  0  0  0
 19 14  1  0  0  0
 25 20  1  0  0  0
  3  4  1  0  0  0
 12 13  1  0  0  0
M  END
> <minimizedAffinity>
-9.55721

> <CNNscore>
0.3077536821

> <CNNaffinity>
7.3647041321

> <CNN_VS>
2.2665147781

> <CNNaffinity_variance>
0.1270540655

$$$$
[H]c1c([H])c([H])c(C([H])([H])OC(=O)N2C([H])([H])C([H])([H])C([H])(c3c([H])n([H])c4c([H])c([N+](=O)[O-])c([H])c([H])c34)C([H])([H])C2([H])[H])c([H])c1[H]


 29 32  0  0  0  0  0  0  0  0999 V2000
  -13.1563   -8.2196    8.9218 C   0  0  0  0  0  0  0  0  0  0  0  0
  -12.4368   -9.4105    8.4056 C   0  0  0  0  0  0  0  0  0  0  0  0
  -11.4200   -9.2058    7.3056 C   0  0  0  0  0  0  0  0  0  0  0  0
  -10.3964   -8.3246    7.8551 N   0  0  0  0  0  0  0  0  0  0  0  0
  -10.9017   -7.1617    8.5643 C   0  0  0  0  0  0  0  0  0  0  0  0
  -12.3873   -7.0211    8.3137 C   0  0  0  0  0  0  0  0  0  0  0  0
   -9.0268   -8.5578    7.7690 C   0  0  0  0  0  0  0  0  0  0  0  0
   -8.6719   -9.6471    7.2060 O   0  0  0  0  0  0  0  0  0  0  0  0
  -16.2887   -6.5919    5.0121 C   0  0  0  0  0  0  0  0  0  0  0  0
  -14.8881   -6.4780    5.1289 C   0  0  0  0  0  0  0  0  0  0  0  0
  -14.2021   -6.9681    6.2044 C   0  0  0  0  0  0  0  0  0  0  0  0
  -14.9585   -7.5880    7.1879 C   0  0  0  0  0  0  0  0  0  0  0  0
  -14.5281   -8.0742    8.4145 C   0  0  0  0  0  0  0  0  0  0  0  0
  -15.6441   -8.5254    9.0979 C   0  0  0  0  0  0  0  0  0  0  0  0
  -16.7101   -8.3054    8.2984 N   0  0  0  0  0  0  0  0  0  0  0  0
  -16.3088   -7.7280    7.1284 C   0  0  0  0  0  0  0  0  0  0  0  0
  -16.9811   -7.2200    6.0122 C   0  0  0  0  0  0  0  0  0  0  0  0
  -17.6854   -8.5542    8.5396 H   0  0  0  0  0  0  0  0  0  0  0  0
  -17.8414   -6.7885    3.1794 O   0  0  0  0  0  0  0  0  0  0  0  0
  -16.9793   -6.0017    3.8964 N   0  0  0  0  0  0  0  0  0  0  0  0
  -16.7687   -4.8262    3.6199 O   0  0  0  0  0  0  0  0  0  0  0  0
   -8.0585   -7.7050    8.2325 O   0  0  0  0  0  0  0  0  0  0  0  0
   -7.4728   -6.7131    7.4007 C   0  0  0  0  0  0  0  0  0  0  0  0
   -6.0205   -6.9930    7.3878 C   0  0  0  0  0  0  0  0  0  0  0  0
   -5.4575   -8.0055    6.6523 C   0  0  0  0  0  0  0  0  0  0  0  0
   -4.1085   -8.2326    6.6884 C   0  0  0  0  0  0  0  0  0  0  0  0
   -3.2609   -7.4743    7.4545 C   0  0  0  0  0  0  0  0  0  0  0  0
   -3.8062   -6.4401    8.2183 C   0  0  0  0  0  0  0  0  0  0  0  0
   -5.1649   -6.2238    8.1675 C   0  0  0  0  0  0  0  0  0  0  0  0
 19 20  1  0  0  0
 20 21  2  0  0  0
 20  9  1  0  0  0
  9 10  2  0  0  0
 10 11  1  0  0  0
 11 12  2  0  0  0
 12 13  1  0  0  0
 13 14  2  0  0  0
 14 15  1  0  0  0
 15 16  1  0  0  0
 16 17  2  0  0  0
 13  1  1  0  0  0
  1  2  1  0  0  0
  2  3  1  0  0  0
  3  4  1  0  0  0
  4  5  1  0  0  0
  5  6  1  0  0  0
  4  7  1  0  0  0
  7  8  2  0  0  0
  7 22  1  0  0  0
 22 23  1  0  0  0
 23 24  1  0  0  0
 24 25  2  0  0  0
 25 26  1  0  0  0
 26 27  2  0  0  0
 27 28  1  0  0  0
 28 29  2  0  0  0
 17  9  1  0  0  0
  6  1  1  0  0  0
 29 24  1  0  0  0
 16 12  1  0  0  0
 15 18  1  0  0  0
M  CHG 1  19  -1
M  CHG 1  20   1
M  END
> <minimizedAffinity>
-9.89477

> <CNNscore>
0.6871662736

> <CNNaffinity>
7.0680580139

> <CNN_VS>
4.8569312096

> <CNNaffinity_variance>
0.0557611361

$$$$
[H]c1c([H])c([H])c(C([H])([H])OC(=O)N2C([H])([H])C([H])([H])C([H])(c3c([H])n([H])c4c([H])c([N+](=O)[O-])c([H])c([H])c34)C([H])([H])C2([H])[H])c([H])c1[H]


 29 32  0  0  0  0  0  0  0  0999 V2000
  -13.1536   -8.1237    8.9718 C   0  0  0  0  0  0  0  0  0  0  0  0
  -12.3789   -9.2712    8.4373 C   0  0  0  0  0  0  0  0  0  0  0  0
  -11.3529   -8.9973    7.3612 C   0  0  0  0  0  0  0  0  0  0  0  0
  -10.3743   -8.0919    7.9518 N   0  0  0  0  0  0  0  0  0  0  0  0
  -10.9369   -6.9692    8.6824 C   0  0  0  0  0  0  0  0  0  0  0  0
  -12.4226   -6.8801    8.4092 C   0  0  0  0  0  0  0  0  0  0  0  0
   -8.9952   -8.2689    7.8838 C   0  0  0  0  0  0  0  0  0  0  0  0
   -8.5882   -9.3279    7.2987 O   0  0  0  0  0  0  0  0  0  0  0  0
  -16.2761   -6.5706    5.0241 C   0  0  0  0  0  0  0  0  0  0  0  0
  -14.8817   -6.4133    5.1632 C   0  0  0  0  0  0  0  0  0  0  0  0
  -14.1970   -6.8884    6.2461 C   0  0  0  0  0  0  0  0  0  0  0  0
  -14.9482   -7.5382    7.2142 C   0  0  0  0  0  0  0  0  0  0  0  0
  -14.5213   -8.0185    8.4443 C   0  0  0  0  0  0  0  0  0  0  0  0
  -15.6328   -8.5090    9.1077 C   0  0  0  0  0  0  0  0  0  0  0  0
  -16.6929   -8.3177    8.2932 N   0  0  0  0  0  0  0  0  0  0  0  0
  -16.2923   -7.7203    7.1330 C   0  0  0  0  0  0  0  0  0  0  0  0
  -16.9634   -7.2267    6.0097 C   0  0  0  0  0  0  0  0  0  0  0  0
  -17.6634   -8.5987    8.5179 H   0  0  0  0  0  0  0  0  0  0  0  0
  -17.8645   -6.7782    3.2236 O   0  0  0  0  0  0  0  0  0  0  0  0
  -16.9679   -5.9953    3.9014 N   0  0  0  0  0  0  0  0  0  0  0  0
  -16.7279   -4.8357    3.5845 O   0  0  0  0  0  0  0  0  0  0  0  0
   -8.0693   -7.3917    8.3868 O   0  0  0  0  0  0  0  0  0  0  0  0
   -6.7506   -7.8032    8.7194 C   0  0  0  0  0  0  0  0  0  0  0  0
   -5.8406   -6.9293    7.9476 C   0  0  0  0  0  0  0  0  0  0  0  0
   -4.8919   -6.1292    8.5332 C   0  0  0  0  0  0  0  0  0  0  0  0
   -4.0852   -5.3262    7.7735 C   0  0  0  0  0  0  0  0  0  0  0  0
   -4.1844   -5.2756    6.4068 C   0  0  0  0  0  0  0  0  0  0  0  0
   -5.1450   -6.0748    5.7831 C   0  0  0  0  0  0  0  0  0  0  0  0
   -5.9458   -6.8790    6.5626 C   0  0  0  0  0  0  0  0  0  0  0  0
 19 20  1  0  0  0
 20 21  2  0  0  0
 20  9  1  0  0  0
  9 10  2  0  0  0
 10 11  1  0  0  0
 11 12  2  0  0  0
 12 13  1  0  0  0
 13 14  2  0  0  0
 14 15  1  0  0  0
 15 16  1  0  0  0
 16 17  2  0  0  0
 13  1  1  0  0  0
  1  2  1  0  0  0
  2  3  1  0  0  0
  3  4  1  0  0  0
  4  5  1  0  0  0
  5  6  1  0  0  0
  4  7  1  0  0  0
  7  8  2  0  0  0
  7 22  1  0  0  0
 22 23  1  0  0  0
 23 24  1  0  0  0
 24 25  2  0  0  0
 25 26  1  0  0  0
 26 27  2  0  0  0
 27 28  1  0  0  0
 28 29  2  0  0  0
 17  9  1  0  0  0
  6  1  1  0  0  0
 29 24  1  0  0  0
 16 12  1  0  0  0
 15 18  1  0  0  0
M  CHG 1  19  -1
M  CHG 1  20   1
M  END
> <minimizedAffinity>
-9.75108

> <CNNscore>
0.5874666572

> <CNNaffinity>
6.9951796532

> <CNN_VS>
4.1094346046

> <CNNaffinity_variance>
0.1242035776

$$$$
[H]c1c([H])c([H])c(C([H])([H])OC(=O)N2C([H])([H])C([H])([H])C([H])(c3c([H])n([H])c4c([H])c([N+](=O)[O-])c([H])c([H])c34)C([H])([H])C2([H])[H])c([H])c1[H]


 29 32  0  0  0  0  0  0  0  0999 V2000
   -7.3659   -8.8102    7.3576 C   0  0  0  0  0  0  0  0  0  0  0  0
   -6.9293   -8.2403    6.0587 C   0  0  0  0  0  0  0  0  0  0  0  0
   -6.7157   -6.7461    5.9733 C   0  0  0  0  0  0  0  0  0  0  0  0
   -5.6585   -6.4301    6.9265 N   0  0  0  0  0  0  0  0  0  0  0  0
   -5.8082   -7.0405    8.2364 C   0  0  0  0  0  0  0  0  0  0  0  0
   -7.1908   -7.6429    8.3598 C   0  0  0  0  0  0  0  0  0  0  0  0
   -4.5477   -5.6419    6.6388 C   0  0  0  0  0  0  0  0  0  0  0  0
   -4.4496   -5.2177    5.4388 O   0  0  0  0  0  0  0  0  0  0  0  0
  -12.2238   -7.2514    8.6681 C   0  0  0  0  0  0  0  0  0  0  0  0
  -10.9999   -6.5736    8.8439 C   0  0  0  0  0  0  0  0  0  0  0  0
   -9.8074   -7.1001    8.4341 C   0  0  0  0  0  0  0  0  0  0  0  0
   -9.8588   -8.3485    7.8320 C   0  0  0  0  0  0  0  0  0  0  0  0
   -8.7962   -9.1420    7.4230 C   0  0  0  0  0  0  0  0  0  0  0  0
   -9.3225  -10.3358    6.9604 C   0  0  0  0  0  0  0  0  0  0  0  0
  -10.6634  -10.2539    7.0986 N   0  0  0  0  0  0  0  0  0  0  0  0
  -11.0077   -9.0468    7.6350 C   0  0  0  0  0  0  0  0  0  0  0  0
  -12.2124   -8.4785    8.0612 C   0  0  0  0  0  0  0  0  0  0  0  0
  -11.3280  -10.9979    6.8224 H   0  0  0  0  0  0  0  0  0  0  0  0
  -14.6312   -7.2586    8.7804 O   0  0  0  0  0  0  0  0  0  0  0  0
  -13.4483   -6.6921    9.1758 N   0  0  0  0  0  0  0  0  0  0  0  0
  -13.3945   -5.7289    9.9320 O   0  0  0  0  0  0  0  0  0  0  0  0
   -3.5806   -5.2939    7.5462 O   0  0  0  0  0  0  0  0  0  0  0  0
   -2.4971   -4.4435    7.1974 C   0  0  0  0  0  0  0  0  0  0  0  0
   -2.8517   -3.0989    7.7011 C   0  0  0  0  0  0  0  0  0  0  0  0
   -2.9020   -2.7865    9.0364 C   0  0  0  0  0  0  0  0  0  0  0  0
   -3.2520   -1.5299    9.4504 C   0  0  0  0  0  0  0  0  0  0  0  0
   -3.5713   -0.5324    8.5654 C   0  0  0  0  0  0  0  0  0  0  0  0
   -3.5343   -0.8226    7.1998 C   0  0  0  0  0  0  0  0  0  0  0  0
   -3.1770   -2.0910    6.8011 C   0  0  0  0  0  0  0  0  0  0  0  0
 19 20  1  0  0  0
 20 21  2  0  0  0
 20  9  1  0  0  0
  9 10  2  0  0  0
 10 11  1  0  0  0
 11 12  2  0  0  0
 12 13  1  0  0  0
 13 14  2  0  0  0
 14 15  1  0  0  0
 15 16  1  0  0  0
 16 17  2  0  0  0
 13  1  1  0  0  0
  1  2  1  0  0  0
  2  3  1  0  0  0
  3  4  1  0  0  0
  4  5  1  0  0  0
  5  6  1  0  0  0
  4  7  1  0  0  0
  7  8  2  0  0  0
  7 22  1  0  0  0
 22 23  1  0  0  0
 23 24  1  0  0  0
 24 25  2  0  0  0
 25 26  1  0  0  0
 26 27  2  0  0  0
 27 28  1  0  0  0
 28 29  2  0  0  0
 17  9  1  0  0  0
  6  1  1  0  0  0
 29 24  1  0  0  0
 16 12  1  0  0  0
 15 18  1  0  0  0
M  CHG 1  19  -1
M  CHG 1  20   1
M  END
> <minimizedAffinity>
-8.61241

> <CNNscore>
0.5251430273

> <CNNaffinity>
6.1238636971

> <CNN_VS>
3.2159042358

> <CNNaffinity_variance>
0.0247087292

$$$$
[H]c1c([H])c([H])c(C([H])([H])OC(=O)N2C([H])([H])C([H])([H])C([H])(c3c([H])n([H])c4c([H])c([N+](=O)[O-])c([H])c([H])c34)C([H])([H])C2([H])[H])c([H])c1[H]


 29 32  0  0  0  0  0  0  0  0999 V2000
   -7.2311   -8.8509    7.1028 C   0  0  0  0  0  0  0  0  0  0  0  0
   -6.9242   -8.1265    5.8445 C   0  0  0  0  0  0  0  0  0  0  0  0
   -6.6242   -6.6472    5.9303 C   0  0  0  0  0  0  0  0  0  0  0  0
   -5.4369   -6.5197    6.7673 N   0  0  0  0  0  0  0  0  0  0  0  0
   -5.4613   -7.2997    7.9928 C   0  0  0  0  0  0  0  0  0  0  0  0
   -6.8545   -7.8455    8.2186 C   0  0  0  0  0  0  0  0  0  0  0  0
   -4.3212   -5.7539    6.4411 C   0  0  0  0  0  0  0  0  0  0  0  0
   -4.3465   -5.1710    5.3057 O   0  0  0  0  0  0  0  0  0  0  0  0
  -11.8808   -7.0360    8.7860 C   0  0  0  0  0  0  0  0  0  0  0  0
  -10.6205   -6.4045    8.8188 C   0  0  0  0  0  0  0  0  0  0  0  0
   -9.4929   -6.9971    8.3242 C   0  0  0  0  0  0  0  0  0  0  0  0
   -9.6488   -8.2650    7.7842 C   0  0  0  0  0  0  0  0  0  0  0  0
   -8.6607   -9.1186    7.3139 C   0  0  0  0  0  0  0  0  0  0  0  0
   -9.2739  -10.3063    6.9540 C   0  0  0  0  0  0  0  0  0  0  0  0
  -10.5918  -10.1620    7.2113 N   0  0  0  0  0  0  0  0  0  0  0  0
  -10.8373   -8.9211    7.7242 C   0  0  0  0  0  0  0  0  0  0  0  0
  -11.9738   -8.2856    8.2344 C   0  0  0  0  0  0  0  0  0  0  0  0
  -11.3076  -10.8874    7.0300 H   0  0  0  0  0  0  0  0  0  0  0  0
  -12.8245   -5.5169   10.4015 O   0  0  0  0  0  0  0  0  0  0  0  0
  -13.0298   -6.4054    9.3794 N   0  0  0  0  0  0  0  0  0  0  0  0
  -14.1468   -6.6882    8.9610 O   0  0  0  0  0  0  0  0  0  0  0  0
   -3.2269   -5.5840    7.2493 O   0  0  0  0  0  0  0  0  0  0  0  0
   -1.9128   -5.8939    6.8063 C   0  0  0  0  0  0  0  0  0  0  0  0
   -1.7429   -7.3488    7.0108 C   0  0  0  0  0  0  0  0  0  0  0  0
   -1.7979   -8.2622    5.9882 C   0  0  0  0  0  0  0  0  0  0  0  0
   -1.6503   -9.6004    6.2339 C   0  0  0  0  0  0  0  0  0  0  0  0
   -1.4476  -10.0924    7.4977 C   0  0  0  0  0  0  0  0  0  0  0  0
   -1.3927   -9.1868    8.5594 C   0  0  0  0  0  0  0  0  0  0  0  0
   -1.5399   -7.8440    8.2935 C   0  0  0  0  0  0  0  0  0  0  0  0
 19 20  1  0  0  0
 20 21  2  0  0  0
 20  9  1  0  0  0
  9 10  2  0  0  0
 10 11  1  0  0  0
 11 12  2  0  0  0
 12 13  1  0  0  0
 13 14  2  0  0  0
 14 15  1  0  0  0
 15 16  1  0  0  0
 16 17  2  0  0  0
 13  1  1  0  0  0
  1  2  1  0  0  0
  2  3  1  0  0  0
  3  4  1  0  0  0
  4  5  1  0  0  0
  5  6  1  0  0  0
  4  7  1  0  0  0
  7  8  2  0  0  0
  7 22  1  0  0  0
 22 23  1  0  0  0
 23 24  1  0  0  0
 24 25  2  0  0  0
 25 26  1  0  0  0
 26 27  2  0  0  0
 27 28  1  0  0  0
 28 29  2  0  0  0
 17  9  1  0  0  0
  6  1  1  0  0  0
 29 24  1  0  0  0
 16 12  1  0  0  0
 15 18  1  0  0  0
M  CHG 1  19  -1
M  CHG 1  20   1
M  END
> <minimizedAffinity>
-8.72764

> <CNNscore>
0.4769575000

> <CNNaffinity>
6.2046127319

> <CNN_VS>
2.9593365192

> <CNNaffinity_variance>
0.0115998555

$$$$
[H]c1c([H])c([H])c(C([H])([H])OC(=O)N2C([H])([H])C([H])([H])C([H])(c3c([H])n([H])c4c([H])c([N+](=O)[O-])c([H])c([H])c34)C([H])([H])C2([H])[H])c([H])c1[H]


 29 32  0  0  0  0  0  0  0  0999 V2000
  -14.5137   -8.5235    7.5272 C   0  0  0  0  0  0  0  0  0  0  0  0
  -13.2560   -8.4658    8.3128 C   0  0  0  0  0  0  0  0  0  0  0  0
  -13.1952   -7.5186    9.4895 C   0  0  0  0  0  0  0  0  0  0  0  0
  -14.2300   -7.9560   10.4192 N   0  0  0  0  0  0  0  0  0  0  0  0
  -15.5210   -8.2373    9.8150 C   0  0  0  0  0  0  0  0  0  0  0  0
  -15.5324   -7.7360    8.3873 C   0  0  0  0  0  0  0  0  0  0  0  0
  -14.0343   -8.1447   11.7844 C   0  0  0  0  0  0  0  0  0  0  0  0
  -12.8479   -7.9597   12.2175 O   0  0  0  0  0  0  0  0  0  0  0  0
  -17.1559   -6.7522    3.3286 C   0  0  0  0  0  0  0  0  0  0  0  0
  -17.6242   -7.5389    4.4010 C   0  0  0  0  0  0  0  0  0  0  0  0
  -16.8191   -7.9115    5.4404 C   0  0  0  0  0  0  0  0  0  0  0  0
  -15.5035   -7.4756    5.3883 C   0  0  0  0  0  0  0  0  0  0  0  0
  -14.4650   -7.7944    6.2521 C   0  0  0  0  0  0  0  0  0  0  0  0
  -13.3159   -7.2016    5.7577 C   0  0  0  0  0  0  0  0  0  0  0  0
  -13.6641   -6.5535    4.6252 N   0  0  0  0  0  0  0  0  0  0  0  0
  -14.9976   -6.7151    4.3822 C   0  0  0  0  0  0  0  0  0  0  0  0
  -15.8484   -6.3463    3.3354 C   0  0  0  0  0  0  0  0  0  0  0  0
  -13.0110   -6.0043    4.0393 H   0  0  0  0  0  0  0  0  0  0  0  0
  -18.3078   -5.1233    1.9766 O   0  0  0  0  0  0  0  0  0  0  0  0
  -18.0184   -6.4398    2.2203 N   0  0  0  0  0  0  0  0  0  0  0  0
  -18.4704   -7.3548    1.5411 O   0  0  0  0  0  0  0  0  0  0  0  0
  -15.0165   -8.4999   12.6726 O   0  0  0  0  0  0  0  0  0  0  0  0
  -15.2209   -9.8506   13.0632 C   0  0  0  0  0  0  0  0  0  0  0  0
  -13.9588  -10.2905   13.6964 C   0  0  0  0  0  0  0  0  0  0  0  0
  -13.1524  -11.2657   13.1654 C   0  0  0  0  0  0  0  0  0  0  0  0
  -12.0019  -11.6475   13.8005 C   0  0  0  0  0  0  0  0  0  0  0  0
  -11.6025  -11.0875   14.9867 C   0  0  0  0  0  0  0  0  0  0  0  0
  -12.4063  -10.0963   15.5541 C   0  0  0  0  0  0  0  0  0  0  0  0
  -13.5585   -9.7221   14.8999 C   0  0  0  0  0  0  0  0  0  0  0  0
 19 20  1  0  0  0
 20 21  2  0  0  0
 20  9  1  0  0  0
  9 10  2  0  0  0
 10 11  1  0  0  0
 11 12  2  0  0  0
 12 13  1  0  0  0
 13 14  2  0  0  0
 14 15  1  0  0  0
 15 16  1  0  0  0
 16 17  2  0  0  0
 13  1  1  0  0  0
  1  2  1  0  0  0
  2  3  1  0  0  0
  3  4  1  0  0  0
  4  5  1  0  0  0
  5  6  1  0  0  0
  4  7  1  0  0  0
  7  8  2  0  0  0
  7 22  1  0  0  0
 22 23  1  0  0  0
 23 24  1  0  0  0
 24 25  2  0  0  0
 25 26  1  0  0  0
 26 27  2  0  0  0
 27 28  1  0  0  0
 28 29  2  0  0  0
 17  9  1  0  0  0
  6  1  1  0  0  0
 29 24  1  0  0  0
 16 12  1  0  0  0
 15 18  1  0  0  0
M  CHG 1  19  -1
M  CHG 1  20   1
M  END
> <minimizedAffinity>
24.13346

> <CNNscore>
0.4552766979

> <CNNaffinity>
6.3345465660

> <CNN_VS>
2.8839714527

> <CNNaffinity_variance>
0.8237301707

$$$$
[H]c1c([H])c([H])c(C([H])([H])OC(=O)N2C([H])([H])C([H])([H])C([H])(c3c([H])n([H])c4c([H])c([N+](=O)[O-])c([H])c([H])c34)C([H])([H])C2([H])[H])c([H])c1[H]


 29 32  0  0  0  0  0  0  0  0999 V2000
   -7.2792   -8.8688    7.2659 C   0  0  0  0  0  0  0  0  0  0  0  0
   -6.8855   -8.2259    5.9876 C   0  0  0  0  0  0  0  0  0  0  0  0
   -6.6227   -6.7371    5.9914 C   0  0  0  0  0  0  0  0  0  0  0  0
   -5.5101   -6.5216    6.9090 N   0  0  0  0  0  0  0  0  0  0  0  0
   -5.6185   -7.2150    8.1811 C   0  0  0  0  0  0  0  0  0  0  0  0
   -7.0143   -7.7791    8.3336 C   0  0  0  0  0  0  0  0  0  0  0  0
   -4.3869   -5.7522    6.6189 C   0  0  0  0  0  0  0  0  0  0  0  0
   -4.3314   -5.2504    5.4465 O   0  0  0  0  0  0  0  0  0  0  0  0
  -12.0432   -7.1567    8.7220 C   0  0  0  0  0  0  0  0  0  0  0  0
  -10.7947   -6.5142    8.8517 C   0  0  0  0  0  0  0  0  0  0  0  0
   -9.6324   -7.0789    8.4074 C   0  0  0  0  0  0  0  0  0  0  0  0
   -9.7404   -8.3298    7.8180 C   0  0  0  0  0  0  0  0  0  0  0  0
   -8.7157   -9.1575    7.3810 C   0  0  0  0  0  0  0  0  0  0  0  0
   -9.2919  -10.3386    6.9462 C   0  0  0  0  0  0  0  0  0  0  0  0
  -10.6245  -10.2159    7.1276 N   0  0  0  0  0  0  0  0  0  0  0  0
  -10.9152   -8.9951    7.6647 C   0  0  0  0  0  0  0  0  0  0  0  0
  -12.0879   -8.3882    8.1255 C   0  0  0  0  0  0  0  0  0  0  0  0
  -11.3194  -10.9419    6.8797 H   0  0  0  0  0  0  0  0  0  0  0  0
  -14.4455   -7.0793    8.8980 O   0  0  0  0  0  0  0  0  0  0  0  0
  -13.2333   -6.5576    9.2648 N   0  0  0  0  0  0  0  0  0  0  0  0
  -13.1254   -5.6014   10.0243 O   0  0  0  0  0  0  0  0  0  0  0  0
   -3.3654   -5.4988    7.4975 O   0  0  0  0  0  0  0  0  0  0  0  0
   -3.2804   -4.2755    8.2153 C   0  0  0  0  0  0  0  0  0  0  0  0
   -3.2213   -4.6425    9.6468 C   0  0  0  0  0  0  0  0  0  0  0  0
   -4.2445   -4.3972   10.5277 C   0  0  0  0  0  0  0  0  0  0  0  0
   -4.1324   -4.7426   11.8472 C   0  0  0  0  0  0  0  0  0  0  0  0
   -3.0057   -5.3388   12.3525 C   0  0  0  0  0  0  0  0  0  0  0  0
   -1.9454   -5.5957   11.4806 C   0  0  0  0  0  0  0  0  0  0  0  0
   -2.0766   -5.2446   10.1557 C   0  0  0  0  0  0  0  0  0  0  0  0
 19 20  1  0  0  0
 20 21  2  0  0  0
 20  9  1  0  0  0
  9 10  2  0  0  0
 10 11  1  0  0  0
 11 12  2  0  0  0
 12 13  1  0  0  0
 13 14  2  0  0  0
 14 15  1  0  0  0
 15 16  1  0  0  0
 16 17  2  0  0  0
 13  1  1  0  0  0
  1  2  1  0  0  0
  2  3  1  0  0  0
  3  4  1  0  0  0
  4  5  1  0  0  0
  5  6  1  0  0  0
  4  7  1  0  0  0
  7  8  2  0  0  0
  7 22  1  0  0  0
 22 23  1  0  0  0
 23 24  1  0  0  0
 24 25  2  0  0  0
 25 26  1  0  0  0
 26 27  2  0  0  0
 27 28  1  0  0  0
 28 29  2  0  0  0
 17  9  1  0  0  0
  6  1  1  0  0  0
 29 24  1  0  0  0
 16 12  1  0  0  0
 15 18  1  0  0  0
M  CHG 1  19  -1
M  CHG 1  20   1
M  END
> <minimizedAffinity>
-8.70953

> <CNNscore>
0.4528571069

> <CNNaffinity>
6.0172700882

> <CNN_VS>
2.7249634266

> <CNNaffinity_variance>
0.0699945241

$$$$
[H]c1c([H])c([H])c(C([H])([H])OC(=O)N2C([H])([H])C([H])([H])C([H])(c3c([H])n([H])c4c([H])c([N+](=O)[O-])c([H])c([H])c34)C([H])([H])C2([H])[H])c([H])c1[H]


 29 32  0  0  0  0  0  0  0  0999 V2000
   -7.4184   -7.0799    7.4701 C   0  0  0  0  0  0  0  0  0  0  0  0
   -6.1832   -7.5187    8.1658 C   0  0  0  0  0  0  0  0  0  0  0  0
   -5.0354   -8.0281    7.3239 C   0  0  0  0  0  0  0  0  0  0  0  0
   -4.6393   -6.9210    6.4616 N   0  0  0  0  0  0  0  0  0  0  0  0
   -5.7354   -6.2306    5.8038 C   0  0  0  0  0  0  0  0  0  0  0  0
   -7.0115   -7.0251    5.9771 C   0  0  0  0  0  0  0  0  0  0  0  0
   -3.3271   -6.4927    6.2816 C   0  0  0  0  0  0  0  0  0  0  0  0
   -2.4348   -7.0981    6.9649 O   0  0  0  0  0  0  0  0  0  0  0  0
  -12.4546   -8.0233    8.6922 C   0  0  0  0  0  0  0  0  0  0  0  0
  -11.7052   -6.8435    8.8790 C   0  0  0  0  0  0  0  0  0  0  0  0
  -10.3988   -6.7385    8.4923 C   0  0  0  0  0  0  0  0  0  0  0  0
   -9.8380   -7.8617    7.9028 C   0  0  0  0  0  0  0  0  0  0  0  0
   -8.5184   -8.0534    7.5178 C   0  0  0  0  0  0  0  0  0  0  0  0
   -8.4036   -9.3547    7.0601 C   0  0  0  0  0  0  0  0  0  0  0  0
   -9.6236   -9.9219    7.1776 N   0  0  0  0  0  0  0  0  0  0  0  0
  -10.5113   -9.0238    7.6961 C   0  0  0  0  0  0  0  0  0  0  0  0
  -11.8486   -9.0978    8.0985 C   0  0  0  0  0  0  0  0  0  0  0  0
   -9.8480  -10.8933    6.8995 H   0  0  0  0  0  0  0  0  0  0  0  0
  -14.7428   -8.7084    8.3714 O   0  0  0  0  0  0  0  0  0  0  0  0
  -13.8065   -8.1145    9.1758 N   0  0  0  0  0  0  0  0  0  0  0  0
  -14.0768   -7.6532   10.2789 O   0  0  0  0  0  0  0  0  0  0  0  0
   -2.9424   -5.4906    5.4286 O   0  0  0  0  0  0  0  0  0  0  0  0
   -1.8126   -5.6236    4.5773 C   0  0  0  0  0  0  0  0  0  0  0  0
   -2.0824   -4.7695    3.4003 C   0  0  0  0  0  0  0  0  0  0  0  0
   -2.8556   -3.6372    3.4557 C   0  0  0  0  0  0  0  0  0  0  0  0
   -3.0877   -2.8904    2.3327 C   0  0  0  0  0  0  0  0  0  0  0  0
   -2.5714   -3.2322    1.1092 C   0  0  0  0  0  0  0  0  0  0  0  0
   -1.7851   -4.3830    1.0210 C   0  0  0  0  0  0  0  0  0  0  0  0
   -1.5593   -5.1205    2.1615 C   0  0  0  0  0  0  0  0  0  0  0  0
 19 20  1  0  0  0
 20 21  2  0  0  0
 20  9  1  0  0  0
  9 10  2  0  0  0
 10 11  1  0  0  0
 11 12  2  0  0  0
 12 13  1  0  0  0
 13 14  2  0  0  0
 14 15  1  0  0  0
 15 16  1  0  0  0
 16 17  2  0  0  0
 13  1  1  0  0  0
  1  2  1  0  0  0
  2  3  1  0  0  0
  3  4  1  0  0  0
  4  5  1  0  0  0
  5  6  1  0  0  0
  4  7  1  0  0  0
  7  8  2  0  0  0
  7 22  1  0  0  0
 22 23  1  0  0  0
 23 24  1  0  0  0
 24 25  2  0  0  0
 25 26  1  0  0  0
 26 27  2  0  0  0
 27 28  1  0  0  0
 28 29  2  0  0  0
 17  9  1  0  0  0
  6  1  1  0  0  0
 29 24  1  0  0  0
 16 12  1  0  0  0
 15 18  1  0  0  0
M  CHG 1  19  -1
M  CHG 1  20   1
M  END
> <minimizedAffinity>
-8.11780

> <CNNscore>
0.4457181692

> <CNNaffinity>
5.9555044174

> <CNN_VS>
2.6544766426

> <CNNaffinity_variance>
0.0710360482

$$$$
[H]c1c([H])c([H])c(C([H])([H])OC(=O)N2C([H])([H])C([H])([H])C([H])(c3c([H])n([H])c4c([H])c([N+](=O)[O-])c([H])c([H])c34)C([H])([H])C2([H])[H])c([H])c1[H]


 29 32  0  0  0  0  0  0  0  0999 V2000
  -16.0575   -7.6276    4.3904 C   0  0  0  0  0  0  0  0  0  0  0  0
  -14.7298   -7.4783    3.7445 C   0  0  0  0  0  0  0  0  0  0  0  0
  -14.0124   -8.7310    3.2954 C   0  0  0  0  0  0  0  0  0  0  0  0
  -14.8742   -9.3606    2.3018 N   0  0  0  0  0  0  0  0  0  0  0  0
  -16.2757   -9.4534    2.6731 C   0  0  0  0  0  0  0  0  0  0  0  0
  -16.4361   -9.1075    4.1375 C   0  0  0  0  0  0  0  0  0  0  0  0
  -14.4422   -9.8170    1.0597 C   0  0  0  0  0  0  0  0  0  0  0  0
  -13.2132   -9.6169    0.7788 O   0  0  0  0  0  0  0  0  0  0  0  0
  -13.1636   -6.9766    8.7434 C   0  0  0  0  0  0  0  0  0  0  0  0
  -12.7330   -7.1216    7.4085 C   0  0  0  0  0  0  0  0  0  0  0  0
  -13.6088   -7.2664    6.3696 C   0  0  0  0  0  0  0  0  0  0  0  0
  -14.9570   -7.2661    6.6950 C   0  0  0  0  0  0  0  0  0  0  0  0
  -16.0368   -7.4964    5.8541 C   0  0  0  0  0  0  0  0  0  0  0  0
  -17.1808   -7.4845    6.6335 C   0  0  0  0  0  0  0  0  0  0  0  0
  -16.7873   -7.2596    7.9057 N   0  0  0  0  0  0  0  0  0  0  0  0
  -15.4297   -7.1287    7.9615 C   0  0  0  0  0  0  0  0  0  0  0  0
  -14.5079   -6.9775    9.0023 C   0  0  0  0  0  0  0  0  0  0  0  0
  -17.4298   -7.1848    8.7138 H   0  0  0  0  0  0  0  0  0  0  0  0
  -12.2316   -7.8684   10.7791 O   0  0  0  0  0  0  0  0  0  0  0  0
  -12.2071   -6.8956    9.8151 N   0  0  0  0  0  0  0  0  0  0  0  0
  -11.4138   -5.9613    9.8359 O   0  0  0  0  0  0  0  0  0  0  0  0
  -15.2349  -10.4613    0.1453 O   0  0  0  0  0  0  0  0  0  0  0  0
  -14.7640  -10.7910   -1.1541 C   0  0  0  0  0  0  0  0  0  0  0  0
  -13.4057  -10.2149   -1.2572 C   0  0  0  0  0  0  0  0  0  0  0  0
  -12.2646  -10.9770   -1.2537 C   0  0  0  0  0  0  0  0  0  0  0  0
  -11.0300  -10.3922   -1.3352 C   0  0  0  0  0  0  0  0  0  0  0  0
  -10.8703   -9.0329   -1.4185 C   0  0  0  0  0  0  0  0  0  0  0  0
  -12.0138   -8.2311   -1.4184 C   0  0  0  0  0  0  0  0  0  0  0  0
  -13.2478   -8.8365   -1.3390 C   0  0  0  0  0  0  0  0  0  0  0  0
 19 20  1  0  0  0
 20 21  2  0  0  0
 20  9  1  0  0  0
  9 10  2  0  0  0
 10 11  1  0  0  0
 11 12  2  0  0  0
 12 13  1  0  0  0
 13 14  2  0  0  0
 14 15  1  0  0  0
 15 16  1  0  0  0
 16 17  2  0  0  0
 13  1  1  0  0  0
  1  2  1  0  0  0
  2  3  1  0  0  0
  3  4  1  0  0  0
  4  5  1  0  0  0
  5  6  1  0  0  0
  4  7  1  0  0  0
  7  8  2  0  0  0
  7 22  1  0  0  0
 22 23  1  0  0  0
 23 24  1  0  0  0
 24 25  2  0  0  0
 25 26  1  0  0  0
 26 27  2  0  0  0
 27 28  1  0  0  0
 28 29  2  0  0  0
 17  9  1  0  0  0
  6  1  1  0  0  0
 29 24  1  0  0  0
 16 12  1  0  0  0
 15 18  1  0  0  0
M  CHG 1  19  -1
M  CHG 1  20   1
M  END
> <minimizedAffinity>
35.08458

> <CNNscore>
0.4373566508

> <CNNaffinity>
6.2516598701

> <CNN_VS>
2.7342050076

> <CNNaffinity_variance>
0.5745733976

$$$$
[H]c1c([H])c([H])c(C([H])([H])OC(=O)N2C([H])([H])C([H])([H])C([H])(c3c([H])n([H])c4c([H])c([N+](=O)[O-])c([H])c([H])c34)C([H])([H])C2([H])[H])c([H])c1[H]


 29 32  0  0  0  0  0  0  0  0999 V2000
  -12.5480   -8.1260    8.9917 C   0  0  0  0  0  0  0  0  0  0  0  0
  -11.8447   -9.2860    8.3900 C   0  0  0  0  0  0  0  0  0  0  0  0
  -10.9443   -9.0338    7.2019 C   0  0  0  0  0  0  0  0  0  0  0  0
   -9.9006   -8.1276    7.6662 N   0  0  0  0  0  0  0  0  0  0  0  0
  -10.3715   -6.9912    8.4393 C   0  0  0  0  0  0  0  0  0  0  0  0
  -11.8779   -6.8952    8.3332 C   0  0  0  0  0  0  0  0  0  0  0  0
   -8.5389   -8.3152    7.4466 C   0  0  0  0  0  0  0  0  0  0  0  0
   -8.2060   -9.3848    6.8345 O   0  0  0  0  0  0  0  0  0  0  0  0
  -16.0860   -6.5853    5.4061 C   0  0  0  0  0  0  0  0  0  0  0  0
  -14.6842   -6.4333    5.3876 C   0  0  0  0  0  0  0  0  0  0  0  0
  -13.8846   -6.9043    6.3907 C   0  0  0  0  0  0  0  0  0  0  0  0
  -14.5255   -7.5442    7.4412 C   0  0  0  0  0  0  0  0  0  0  0  0
  -13.9658   -8.0181    8.6194 C   0  0  0  0  0  0  0  0  0  0  0  0
  -14.9981   -8.4992    9.4062 C   0  0  0  0  0  0  0  0  0  0  0  0
  -16.1418   -8.3085    8.7138 N   0  0  0  0  0  0  0  0  0  0  0  0
  -15.8710   -7.7208    7.5118 C   0  0  0  0  0  0  0  0  0  0  0  0
  -16.6614   -7.2317    6.4669 C   0  0  0  0  0  0  0  0  0  0  0  0
  -17.0822   -8.5837    9.0474 H   0  0  0  0  0  0  0  0  0  0  0  0
  -16.5073   -4.8175    3.8232 O   0  0  0  0  0  0  0  0  0  0  0  0
  -16.8967   -6.0144    4.3636 N   0  0  0  0  0  0  0  0  0  0  0  0
  -17.9064   -6.6080    4.0020 O   0  0  0  0  0  0  0  0  0  0  0  0
   -7.5575   -7.4380    7.8301 O   0  0  0  0  0  0  0  0  0  0  0  0
   -7.0780   -6.4226    6.9596 C   0  0  0  0  0  0  0  0  0  0  0  0
   -5.6530   -6.7324    6.7128 C   0  0  0  0  0  0  0  0  0  0  0  0
   -5.0941   -7.9574    6.9776 C   0  0  0  0  0  0  0  0  0  0  0  0
   -3.7651   -8.1871    6.7459 C   0  0  0  0  0  0  0  0  0  0  0  0
   -2.9325   -7.2175    6.2489 C   0  0  0  0  0  0  0  0  0  0  0  0
   -3.4721   -5.9588    5.9752 C   0  0  0  0  0  0  0  0  0  0  0  0
   -4.8117   -5.7463    6.2112 C   0  0  0  0  0  0  0  0  0  0  0  0
 19 20  1  0  0  0
 20 21  2  0  0  0
 20  9  1  0  0  0
  9 10  2  0  0  0
 10 11  1  0  0  0
 11 12  2  0  0  0
 12 13  1  0  0  0
 13 14  2  0  0  0
 14 15  1  0  0  0
 15 16  1  0  0  0
 16 17  2  0  0  0
 13  1  1  0  0  0
  1  2  1  0  0  0
  2  3  1  0  0  0
  3  4  1  0  0  0
  4  5  1  0  0  0
  5  6  1  0  0  0
  4  7  1  0  0  0
  7  8  2  0  0  0
  7 22  1  0  0  0
 22 23  1  0  0  0
 23 24  1  0  0  0
 24 25  2  0  0  0
 25 26  1  0  0  0
 26 27  2  0  0  0
 27 28  1  0  0  0
 28 29  2  0  0  0
 17  9  1  0  0  0
  6  1  1  0  0  0
 29 24  1  0  0  0
 16 12  1  0  0  0
 15 18  1  0  0  0
M  CHG 1  19  -1
M  CHG 1  20   1
M  END
> <minimizedAffinity>
-9.05447

> <CNNscore>
0.4130931497

> <CNNaffinity>
6.7345962524

> <CNN_VS>
2.7820155621

> <CNNaffinity_variance>
0.0014351237

$$$$
