[H]O[C@@]1([H])C([H])([H])C([H])([H])[C@]2([H])[C@]1(C([H])([H])[H])C([H])([H])C([H])([H])[C@]1([H])[C@]3(C([H])([H])[H])C(=C([H])C(=O)C([H])([H])C3([H])[H])C([H])([H])C([H])([H])[C@@]21[H]


 22 25  0  0  0  0  0  0  0  0999 V2000
  -13.8629   -4.7383    3.0664 C   0  0  0  0  0  0  0  0  0  0  0  0
  -14.6003   -4.3264    4.3124 C   0  0  0  0  0  0  0  0  0  0  0  0
  -14.4674   -5.3188    5.4162 C   0  0  0  0  0  0  0  0  0  0  0  0
  -15.1322   -6.6014    4.9820 C   0  0  0  0  0  0  0  0  0  0  0  0
  -16.6099   -6.3554    4.7617 C   0  0  0  0  0  0  0  0  0  0  0  0
  -16.8472   -5.2875    3.6960 C   0  0  0  0  0  0  0  0  0  0  0  0
  -18.3139   -4.8877    3.7790 C   0  0  0  0  0  0  0  0  0  0  0  0
  -19.2443   -6.0408    3.6561 C   0  0  0  0  0  0  0  0  0  0  0  0
  -18.8066   -7.2583    4.3551 C   0  0  0  0  0  0  0  0  0  0  0  0
  -19.7344   -8.0181    4.9132 C   0  0  0  0  0  0  0  0  0  0  0  0
  -19.4160   -9.2382    5.6260 C   0  0  0  0  0  0  0  0  0  0  0  0
  -20.2020   -9.7842    6.4275 O   0  0  0  0  0  0  0  0  0  0  0  0
  -18.0583   -9.8280    5.3450 C   0  0  0  0  0  0  0  0  0  0  0  0
  -17.0809   -8.6732    5.4296 C   0  0  0  0  0  0  0  0  0  0  0  0
  -17.3535   -7.6027    4.4180 C   0  0  0  0  0  0  0  0  0  0  0  0
  -16.9540   -8.1317    3.0554 C   0  0  0  0  0  0  0  0  0  0  0  0
  -16.0732   -4.0892    4.0630 C   0  0  0  0  0  0  0  0  0  0  0  0
  -16.0313   -2.9911    3.0663 C   0  0  0  0  0  0  0  0  0  0  0  0
  -14.9022   -2.1104    3.6072 C   0  0  0  0  0  0  0  0  0  0  0  0
  -14.2568   -2.9097    4.7224 C   0  0  0  0  0  0  0  0  0  0  0  0
  -12.9347   -2.6713    4.8851 O   0  0  0  0  0  0  0  0  0  0  0  0
  -12.3239   -3.1039    4.2658 H   0  0  0  0  0  0  0  0  0  0  0  0
  2  1  1  0  0  0
  2  3  1  0  0  0
  3  4  1  0  0  0
  4  5  1  0  0  0
  5  6  1  0  0  0
  6  7  1  0  0  0
  7  8  1  0  0  0
  8  9  1  0  0  0
  9 10  2  0  0  0
 10 11  1  0  0  0
 11 12  2  0  0  0
 11 13  1  0  0  0
 13 14  1  0  0  0
 14 15  1  0  0  0
 15 16  1  0  0  0
  6 17  1  0  0  0
 17 18  1  0  0  0
 18 19  1  0  0  0
 19 20  1  0  0  0
 20 21  1  0  0  0
 17  2  1  0  0  0
 20  2  1  0  0  0
 15  5  1  0  0  0
 15  9  1  0  0  0
 21 22  1  0  0  0
M  END
> <minimizedAffinity>
14.00872

> <CNNscore>
0.5589177608

> <CNNaffinity>
6.5442442894

> <CNN_VS>
3.6576943398

> <CNNaffinity_variance>
1.4154474735

$$$$
[H]O[C@@]1([H])C([H])([H])C([H])([H])[C@]2([H])[C@]1(C([H])([H])[H])C([H])([H])C([H])([H])[C@]1([H])[C@]3(C([H])([H])[H])C(=C([H])C(=O)C([H])([H])C3([H])[H])C([H])([H])C([H])([H])[C@@]21[H]


 22 25  0  0  0  0  0  0  0  0999 V2000
  -12.8580  -10.0729    9.0889 C   0  0  0  0  0  0  0  0  0  0  0  0
  -12.9537   -9.0190    8.0184 C   0  0  0  0  0  0  0  0  0  0  0  0
  -12.3368   -9.4465    6.7310 C   0  0  0  0  0  0  0  0  0  0  0  0
  -10.8568   -9.6342    6.9548 C   0  0  0  0  0  0  0  0  0  0  0  0
  -10.2328   -8.3111    7.3454 C   0  0  0  0  0  0  0  0  0  0  0  0
  -10.8606   -7.7503    8.6197 C   0  0  0  0  0  0  0  0  0  0  0  0
  -10.4077   -6.3021    8.7443 C   0  0  0  0  0  0  0  0  0  0  0  0
   -8.9297   -6.1447    8.7129 C   0  0  0  0  0  0  0  0  0  0  0  0
   -8.2411   -7.0165    7.7494 C   0  0  0  0  0  0  0  0  0  0  0  0
   -7.1752   -6.5348    7.1319 C   0  0  0  0  0  0  0  0  0  0  0  0
   -6.4214   -7.3058    6.1646 C   0  0  0  0  0  0  0  0  0  0  0  0
   -5.6400   -6.7880    5.3402 O   0  0  0  0  0  0  0  0  0  0  0  0
   -6.6329   -8.7970    6.2046 C   0  0  0  0  0  0  0  0  0  0  0  0
   -8.1332   -8.9997    6.2697 C   0  0  0  0  0  0  0  0  0  0  0  0
   -8.7507   -8.3984    7.4947 C   0  0  0  0  0  0  0  0  0  0  0  0
   -8.3599   -9.2515    8.6845 C   0  0  0  0  0  0  0  0  0  0  0  0
  -12.3215   -7.7097    8.4354 C   0  0  0  0  0  0  0  0  0  0  0  0
  -13.1342   -7.3541    9.6245 C   0  0  0  0  0  0  0  0  0  0  0  0
  -14.5450   -7.7438    9.1763 C   0  0  0  0  0  0  0  0  0  0  0  0
  -14.3679   -8.4975    7.8726 C   0  0  0  0  0  0  0  0  0  0  0  0
  -15.3030   -9.4496    7.6485 O   0  0  0  0  0  0  0  0  0  0  0  0
  -15.1985  -10.2958    8.1140 H   0  0  0  0  0  0  0  0  0  0  0  0
  2  1  1  0  0  0
  2  3  1  0  0  0
  3  4  1  0  0  0
  4  5  1  0  0  0
  5  6  1  0  0  0
  6  7  1  0  0  0
  7  8  1  0  0  0
  8  9  1  0  0  0
  9 10  2  0  0  0
 10 11  1  0  0  0
 11 12  2  0  0  0
 11 13  1  0  0  0
 13 14  1  0  0  0
 14 15  1  0  0  0
 15 16  1  0  0  0
  6 17  1  0  0  0
 17 18  1  0  0  0
 18 19  1  0  0  0
 19 20  1  0  0  0
 20 21  1  0  0  0
 17  2  1  0  0  0
 20  2  1  0  0  0
 15  5  1  0  0  0
 15  9  1  0  0  0
 21 22  1  0  0  0
M  END
> <minimizedAffinity>
-7.61216

> <CNNscore>
0.4514156282

> <CNNaffinity>
6.1020331383

> <CNN_VS>
2.7545530796

> <CNNaffinity_variance>
0.2179150581

$$$$
[H]O[C@@]1([H])C([H])([H])C([H])([H])[C@]2([H])[C@]1(C([H])([H])[H])C([H])([H])C([H])([H])[C@]1([H])[C@]3(C([H])([H])[H])C(=C([H])C(=O)C([H])([H])C3([H])[H])C([H])([H])C([H])([H])[C@@]21[H]


 22 25  0  0  0  0  0  0  0  0999 V2000
  -12.5828   -7.3090    9.6875 C   0  0  0  0  0  0  0  0  0  0  0  0
  -13.3965   -8.5731    9.6101 C   0  0  0  0  0  0  0  0  0  0  0  0
  -12.8928   -9.5212    8.5765 C   0  0  0  0  0  0  0  0  0  0  0  0
  -13.0554   -8.8755    7.2229 C   0  0  0  0  0  0  0  0  0  0  0  0
  -14.5255   -8.6375    6.9496 C   0  0  0  0  0  0  0  0  0  0  0  0
  -15.1531   -7.7344    8.0092 C   0  0  0  0  0  0  0  0  0  0  0  0
  -16.6633   -7.8193    7.8351 C   0  0  0  0  0  0  0  0  0  0  0  0
  -17.1145   -7.4903    6.4572 C   0  0  0  0  0  0  0  0  0  0  0  0
  -16.2526   -8.0167    5.3883 C   0  0  0  0  0  0  0  0  0  0  0  0
  -16.8316   -8.4193    4.2692 C   0  0  0  0  0  0  0  0  0  0  0  0
  -16.0796   -8.9542    3.1527 C   0  0  0  0  0  0  0  0  0  0  0  0
  -16.5996   -9.6346    2.2444 O   0  0  0  0  0  0  0  0  0  0  0  0
  -14.6059   -8.6410    3.1429 C   0  0  0  0  0  0  0  0  0  0  0  0
  -14.1121   -8.9343    4.5452 C   0  0  0  0  0  0  0  0  0  0  0  0
  -14.7726   -8.0835    5.5862 C   0  0  0  0  0  0  0  0  0  0  0  0
  -14.2336   -6.6738    5.4517 C   0  0  0  0  0  0  0  0  0  0  0  0
  -14.8596   -8.3052    9.3350 C   0  0  0  0  0  0  0  0  0  0  0  0
  -15.2368   -7.4854   10.5126 C   0  0  0  0  0  0  0  0  0  0  0  0
  -14.4939   -8.1945   11.6476 C   0  0  0  0  0  0  0  0  0  0  0  0
  -13.5824   -9.2023   10.9749 C   0  0  0  0  0  0  0  0  0  0  0  0
  -12.4339   -9.4496   11.6465 O   0  0  0  0  0  0  0  0  0  0  0  0
  -11.7193   -8.7968   11.5635 H   0  0  0  0  0  0  0  0  0  0  0  0
  2  1  1  0  0  0
  2  3  1  0  0  0
  3  4  1  0  0  0
  4  5  1  0  0  0
  5  6  1  0  0  0
  6  7  1  0  0  0
  7  8  1  0  0  0
  8  9  1  0  0  0
  9 10  2  0  0  0
 10 11  1  0  0  0
 11 12  2  0  0  0
 11 13  1  0  0  0
 13 14  1  0  0  0
 14 15  1  0  0  0
 15 16  1  0  0  0
  6 17  1  0  0  0
 17 18  1  0  0  0
 18 19  1  0  0  0
 19 20  1  0  0  0
 20 21  1  0  0  0
 17  2  1  0  0  0
 20  2  1  0  0  0
 15  5  1  0  0  0
 15  9  1  0  0  0
 21 22  1  0  0  0
M  END
> <minimizedAffinity>
2.60927

> <CNNscore>
0.4444781244

> <CNNaffinity>
6.0778260231

> <CNN_VS>
2.7014605999

> <CNNaffinity_variance>
0.3142729700

$$$$
[H]O[C@@]1([H])C([H])([H])C([H])([H])[C@]2([H])[C@]1(C([H])([H])[H])C([H])([H])C([H])([H])[C@]1([H])[C@]3(C([H])([H])[H])C(=C([H])C(=O)C([H])([H])C3([H])[H])C([H])([H])C([H])([H])[C@@]21[H]


 22 25  0  0  0  0  0  0  0  0999 V2000
   -4.9007   -6.3069    5.9440 C   0  0  0  0  0  0  0  0  0  0  0  0
   -5.0049   -7.3336    7.0398 C   0  0  0  0  0  0  0  0  0  0  0  0
   -5.8643   -6.8846    8.1715 C   0  0  0  0  0  0  0  0  0  0  0  0
   -5.2058   -5.6934    8.8219 C   0  0  0  0  0  0  0  0  0  0  0  0
   -3.8680   -6.1071    9.3978 C   0  0  0  0  0  0  0  0  0  0  0  0
   -2.9400   -6.6594    8.3179 C   0  0  0  0  0  0  0  0  0  0  0  0
   -1.7745   -7.3337    9.0285 C   0  0  0  0  0  0  0  0  0  0  0  0
   -1.0743   -6.4383    9.9869 C   0  0  0  0  0  0  0  0  0  0  0  0
   -1.9613   -5.5619   10.7665 C   0  0  0  0  0  0  0  0  0  0  0  0
   -1.6256   -5.2987   12.0185 C   0  0  0  0  0  0  0  0  0  0  0  0
   -2.4255   -4.4487   12.8764 C   0  0  0  0  0  0  0  0  0  0  0  0
   -2.3255   -4.4491   14.1208 O   0  0  0  0  0  0  0  0  0  0  0  0
   -3.4060   -3.5445   12.1757 C   0  0  0  0  0  0  0  0  0  0  0  0
   -4.1210   -4.4163   11.1634 C   0  0  0  0  0  0  0  0  0  0  0  0
   -3.1964   -5.0002   10.1397 C   0  0  0  0  0  0  0  0  0  0  0  0
   -2.7647   -3.8864    9.2074 C   0  0  0  0  0  0  0  0  0  0  0  0
   -3.6546   -7.7266    7.5967 C   0  0  0  0  0  0  0  0  0  0  0  0
   -2.9877   -8.2802    6.3927 C   0  0  0  0  0  0  0  0  0  0  0  0
   -4.1215   -9.0685    5.7324 C   0  0  0  0  0  0  0  0  0  0  0  0
   -5.3782   -8.6963    6.4950 C   0  0  0  0  0  0  0  0  0  0  0  0
   -6.5083   -8.7194    5.7509 O   0  0  0  0  0  0  0  0  0  0  0  0
   -6.6751   -7.9591    5.1696 H   0  0  0  0  0  0  0  0  0  0  0  0
  2  1  1  0  0  0
  2  3  1  0  0  0
  3  4  1  0  0  0
  4  5  1  0  0  0
  5  6  1  0  0  0
  6  7  1  0  0  0
  7  8  1  0  0  0
  8  9  1  0  0  0
  9 10  2  0  0  0
 10 11  1  0  0  0
 11 12  2  0  0  0
 11 13  1  0  0  0
 13 14  1  0  0  0
 14 15  1  0  0  0
 15 16  1  0  0  0
  6 17  1  0  0  0
 17 18  1  0  0  0
 18 19  1  0  0  0
 19 20  1  0  0  0
 20 21  1  0  0  0
 17  2  1  0  0  0
 20  2  1  0  0  0
 15  5  1  0  0  0
 15  9  1  0  0  0
 21 22  1  0  0  0
M  END
> <minimizedAffinity>
-2.88957

> <CNNscore>
0.3914722800

> <CNNaffinity>
4.6557931900

> <CNN_VS>
1.8226139545

> <CNNaffinity_variance>
0.5201585889

$$$$
[H]O[C@@]1([H])C([H])([H])C([H])([H])[C@]2([H])[C@]1(C([H])([H])[H])C([H])([H])C([H])([H])[C@]1([H])[C@]3(C([H])([H])[H])C(=C([H])C(=O)C([H])([H])C3([H])[H])C([H])([H])C([H])([H])[C@@]21[H]


 22 25  0  0  0  0  0  0  0  0999 V2000
  -12.4650   -8.4850    9.7828 C   0  0  0  0  0  0  0  0  0  0  0  0
  -12.6862   -7.0775    9.2971 C   0  0  0  0  0  0  0  0  0  0  0  0
  -14.0654   -6.5831    9.5697 C   0  0  0  0  0  0  0  0  0  0  0  0
  -15.0345   -7.4215    8.7739 C   0  0  0  0  0  0  0  0  0  0  0  0
  -14.7655   -7.2384    7.2951 C   0  0  0  0  0  0  0  0  0  0  0  0
  -13.3398   -7.6467    6.9304 C   0  0  0  0  0  0  0  0  0  0  0  0
  -13.0704   -7.1311    5.5234 C   0  0  0  0  0  0  0  0  0  0  0  0
  -14.0739   -7.5913    4.5277 C   0  0  0  0  0  0  0  0  0  0  0  0
  -15.4604   -7.6069    5.0175 C   0  0  0  0  0  0  0  0  0  0  0  0
  -16.4212   -7.2948    4.1637 C   0  0  0  0  0  0  0  0  0  0  0  0
  -17.8203   -7.2782    4.5386 C   0  0  0  0  0  0  0  0  0  0  0  0
  -18.6959   -6.6822    3.8778 O   0  0  0  0  0  0  0  0  0  0  0  0
  -18.1731   -8.0331    5.7938 C   0  0  0  0  0  0  0  0  0  0  0  0
  -17.1492   -7.6140    6.8292 C   0  0  0  0  0  0  0  0  0  0  0  0
  -15.7468   -7.9676    6.4395 C   0  0  0  0  0  0  0  0  0  0  0  0
  -15.5886   -9.4692    6.5665 C   0  0  0  0  0  0  0  0  0  0  0  0
  -12.4116   -6.9247    7.8174 C   0  0  0  0  0  0  0  0  0  0  0  0
  -10.9808   -7.3091    7.7408 C   0  0  0  0  0  0  0  0  0  0  0  0
  -10.4024   -6.6417    8.9911 C   0  0  0  0  0  0  0  0  0  0  0  0
  -11.5974   -6.1422    9.7796 C   0  0  0  0  0  0  0  0  0  0  0  0
  -11.4138   -6.1296   11.1203 O   0  0  0  0  0  0  0  0  0  0  0  0
  -11.4988   -6.9756   11.5901 H   0  0  0  0  0  0  0  0  0  0  0  0
  2  1  1  0  0  0
  2  3  1  0  0  0
  3  4  1  0  0  0
  4  5  1  0  0  0
  5  6  1  0  0  0
  6  7  1  0  0  0
  7  8  1  0  0  0
  8  9  1  0  0  0
  9 10  2  0  0  0
 10 11  1  0  0  0
 11 12  2  0  0  0
 11 13  1  0  0  0
 13 14  1  0  0  0
 14 15  1  0  0  0
 15 16  1  0  0  0
  6 17  1  0  0  0
 17 18  1  0  0  0
 18 19  1  0  0  0
 19 20  1  0  0  0
 20 21  1  0  0  0
 17  2  1  0  0  0
 20  2  1  0  0  0
 15  5  1  0  0  0
 15  9  1  0  0  0
 21 22  1  0  0  0
M  END
> <minimizedAffinity>
-3.05394

> <CNNscore>
0.2936340570

> <CNNaffinity>
5.8779778481

> <CNN_VS>
1.7259744406

> <CNNaffinity_variance>
0.0463211462

$$$$
[H]O[C@@]1([H])C([H])([H])C([H])([H])[C@]2([H])[C@]1(C([H])([H])[H])C([H])([H])C([H])([H])[C@]1([H])[C@]3(C([H])([H])[H])C(=C([H])C(=O)C([H])([H])C3([H])[H])C([H])([H])C([H])([H])[C@@]21[H]


 22 25  0  0  0  0  0  0  0  0999 V2000
  -14.5580   -6.2214    6.2782 C   0  0  0  0  0  0  0  0  0  0  0  0
  -14.5710   -7.3688    7.2524 C   0  0  0  0  0  0  0  0  0  0  0  0
  -13.9258   -7.0295    8.5522 C   0  0  0  0  0  0  0  0  0  0  0  0
  -12.4640   -6.7573    8.2980 C   0  0  0  0  0  0  0  0  0  0  0  0
  -11.8005   -8.0118    7.7701 C   0  0  0  0  0  0  0  0  0  0  0  0
  -12.4506   -8.4854    6.4719 C   0  0  0  0  0  0  0  0  0  0  0  0
  -11.9431   -9.8955    6.2032 C   0  0  0  0  0  0  0  0  0  0  0  0
  -10.4597   -9.9892    6.1722 C   0  0  0  0  0  0  0  0  0  0  0  0
   -9.7731   -9.1760    7.1870 C   0  0  0  0  0  0  0  0  0  0  0  0
   -8.6663   -9.6625    7.7237 C   0  0  0  0  0  0  0  0  0  0  0  0
   -7.9103   -8.9470    8.7311 C   0  0  0  0  0  0  0  0  0  0  0  0
   -7.0787   -9.5003    9.4799 O   0  0  0  0  0  0  0  0  0  0  0  0
   -8.1846   -7.4690    8.8319 C   0  0  0  0  0  0  0  0  0  0  0  0
   -9.6933   -7.3282    8.8343 C   0  0  0  0  0  0  0  0  0  0  0  0
  -10.3296   -7.8460    7.5810 C   0  0  0  0  0  0  0  0  0  0  0  0
  -10.0181   -6.8748    6.4604 C   0  0  0  0  0  0  0  0  0  0  0  0
  -13.9009   -8.6070    6.6993 C   0  0  0  0  0  0  0  0  0  0  0  0
  -14.7410   -8.8920    5.5103 C   0  0  0  0  0  0  0  0  0  0  0  0
  -16.1495   -8.6064    6.0374 C   0  0  0  0  0  0  0  0  0  0  0  0
  -15.9562   -7.9635    7.3969 C   0  0  0  0  0  0  0  0  0  0  0  0
  -16.9211   -7.0773    7.7359 O   0  0  0  0  0  0  0  0  0  0  0  0
  -16.8687   -6.1895    7.3449 H   0  0  0  0  0  0  0  0  0  0  0  0
  2  1  1  0  0  0
  2  3  1  0  0  0
  3  4  1  0  0  0
  4  5  1  0  0  0
  5  6  1  0  0  0
  6  7  1  0  0  0
  7  8  1  0  0  0
  8  9  1  0  0  0
  9 10  2  0  0  0
 10 11  1  0  0  0
 11 12  2  0  0  0
 11 13  1  0  0  0
 13 14  1  0  0  0
 14 15  1  0  0  0
 15 16  1  0  0  0
  6 17  1  0  0  0
 17 18  1  0  0  0
 18 19  1  0  0  0
 19 20  1  0  0  0
 20 21  1  0  0  0
 17  2  1  0  0  0
 20  2  1  0  0  0
 15  5  1  0  0  0
 15  9  1  0  0  0
 21 22  1  0  0  0
M  END
> <minimizedAffinity>
-3.22373

> <CNNscore>
0.2778313160

> <CNNaffinity>
5.8950829506

> <CNN_VS>
1.6378386021

> <CNNaffinity_variance>
0.1460802257

$$$$
[H]O[C@@]1([H])C([H])([H])C([H])([H])[C@]2([H])[C@]1(C([H])([H])[H])C([H])([H])C([H])([H])[C@]1([H])[C@]3(C([H])([H])[H])C(=C([H])C(=O)C([H])([H])C3([H])[H])C([H])([H])C([H])([H])[C@@]21[H]


 22 25  0  0  0  0  0  0  0  0999 V2000
   -8.3668   -6.9481    6.5535 C   0  0  0  0  0  0  0  0  0  0  0  0
   -7.7732   -8.0597    7.3769 C   0  0  0  0  0  0  0  0  0  0  0  0
   -7.6829   -7.7201    8.8252 C   0  0  0  0  0  0  0  0  0  0  0  0
   -6.7206   -6.5691    8.9821 C   0  0  0  0  0  0  0  0  0  0  0  0
   -5.3421   -6.9966    8.5243 C   0  0  0  0  0  0  0  0  0  0  0  0
   -5.3501   -7.4416    7.0634 C   0  0  0  0  0  0  0  0  0  0  0  0
   -4.0248   -8.1432    6.7999 C   0  0  0  0  0  0  0  0  0  0  0  0
   -2.8417   -7.3103    7.1419 C   0  0  0  0  0  0  0  0  0  0  0  0
   -2.9855   -6.5178    8.3723 C   0  0  0  0  0  0  0  0  0  0  0  0
   -1.9121   -6.3460    9.1259 C   0  0  0  0  0  0  0  0  0  0  0  0
   -1.9397   -5.5841   10.3575 C   0  0  0  0  0  0  0  0  0  0  0  0
   -1.0599   -5.6797   11.2380 O   0  0  0  0  0  0  0  0  0  0  0  0
   -3.1097   -4.6499   10.5260 C   0  0  0  0  0  0  0  0  0  0  0  0
   -4.3382   -5.4554   10.1544 C   0  0  0  0  0  0  0  0  0  0  0  0
   -4.3135   -5.9364    8.7360 C   0  0  0  0  0  0  0  0  0  0  0  0
   -4.5488   -4.7436    7.8317 C   0  0  0  0  0  0  0  0  0  0  0  0
   -6.3967   -8.4647    6.8981 C   0  0  0  0  0  0  0  0  0  0  0  0
   -6.6841   -8.9072    5.5116 C   0  0  0  0  0  0  0  0  0  0  0  0
   -8.0019   -9.6665    5.6842 C   0  0  0  0  0  0  0  0  0  0  0  0
   -8.4556   -9.3835    7.1031 C   0  0  0  0  0  0  0  0  0  0  0  0
   -9.7989   -9.3735    7.2665 O   0  0  0  0  0  0  0  0  0  0  0  0
  -10.2760   -8.5739    6.9892 H   0  0  0  0  0  0  0  0  0  0  0  0
  2  1  1  0  0  0
  2  3  1  0  0  0
  3  4  1  0  0  0
  4  5  1  0  0  0
  5  6  1  0  0  0
  6  7  1  0  0  0
  7  8  1  0  0  0
  8  9  1  0  0  0
  9 10  2  0  0  0
 10 11  1  0  0  0
 11 12  2  0  0  0
 11 13  1  0  0  0
 13 14  1  0  0  0
 14 15  1  0  0  0
 15 16  1  0  0  0
  6 17  1  0  0  0
 17 18  1  0  0  0
 18 19  1  0  0  0
 19 20  1  0  0  0
 20 21  1  0  0  0
 17  2  1  0  0  0
 20  2  1  0  0  0
 15  5  1  0  0  0
 15  9  1  0  0  0
 21 22  1  0  0  0
M  END
> <minimizedAffinity>
-3.68310

> <CNNscore>
0.2733127773

> <CNNaffinity>
4.7887039185

> <CNN_VS>
1.3088139296

> <CNNaffinity_variance>
0.3198738694

$$$$
[H]O[C@@]1([H])C([H])([H])C([H])([H])[C@]2([H])[C@]1(C([H])([H])[H])C([H])([H])C([H])([H])[C@]1([H])[C@]3(C([H])([H])[H])C(=C([H])C(=O)C([H])([H])C3([H])[H])C([H])([H])C([H])([H])[C@@]21[H]


 22 25  0  0  0  0  0  0  0  0999 V2000
  -12.6670   -6.9115    7.6170 C   0  0  0  0  0  0  0  0  0  0  0  0
  -11.9899   -7.7059    8.7015 C   0  0  0  0  0  0  0  0  0  0  0  0
  -11.0483   -6.8860    9.5152 C   0  0  0  0  0  0  0  0  0  0  0  0
   -9.9263   -6.4248    8.6186 C   0  0  0  0  0  0  0  0  0  0  0  0
   -9.1622   -7.6272    8.1058 C   0  0  0  0  0  0  0  0  0  0  0  0
  -10.0681   -8.5735    7.3209 C   0  0  0  0  0  0  0  0  0  0  0  0
   -9.3027   -9.8762    7.1332 C   0  0  0  0  0  0  0  0  0  0  0  0
   -7.9736   -9.6890    6.4940 C   0  0  0  0  0  0  0  0  0  0  0  0
   -7.2373   -8.4999    6.9484 C   0  0  0  0  0  0  0  0  0  0  0  0
   -5.9211   -8.5876    7.0459 C   0  0  0  0  0  0  0  0  0  0  0  0
   -5.0975   -7.4790    7.4827 C   0  0  0  0  0  0  0  0  0  0  0  0
   -3.9285   -7.6204    7.8973 O   0  0  0  0  0  0  0  0  0  0  0  0
   -5.7371   -6.1168    7.4099 C   0  0  0  0  0  0  0  0  0  0  0  0
   -7.1128   -6.2731    8.0256 C   0  0  0  0  0  0  0  0  0  0  0  0
   -7.9773   -7.2451    7.2830 C   0  0  0  0  0  0  0  0  0  0  0  0
   -8.3915   -6.6012    5.9754 C   0  0  0  0  0  0  0  0  0  0  0  0
  -11.2338   -8.8991    8.1605 C   0  0  0  0  0  0  0  0  0  0  0  0
  -12.3237   -9.6733    7.5174 C   0  0  0  0  0  0  0  0  0  0  0  0
  -13.4635   -9.5219    8.5280 C   0  0  0  0  0  0  0  0  0  0  0  0
  -12.9893   -8.4865    9.5292 C   0  0  0  0  0  0  0  0  0  0  0  0
  -13.9805   -7.7421   10.0719 O   0  0  0  0  0  0  0  0  0  0  0  0
  -14.3357   -7.0137    9.5361 H   0  0  0  0  0  0  0  0  0  0  0  0
  2  1  1  0  0  0
  2  3  1  0  0  0
  3  4  1  0  0  0
  4  5  1  0  0  0
  5  6  1  0  0  0
  6  7  1  0  0  0
  7  8  1  0  0  0
  8  9  1  0  0  0
  9 10  2  0  0  0
 10 11  1  0  0  0
 11 12  2  0  0  0
 11 13  1  0  0  0
 13 14  1  0  0  0
 14 15  1  0  0  0
 15 16  1  0  0  0
  6 17  1  0  0  0
 17 18  1  0  0  0
 18 19  1  0  0  0
 19 20  1  0  0  0
 20 21  1  0  0  0
 17  2  1  0  0  0
 20  2  1  0  0  0
 15  5  1  0  0  0
 15  9  1  0  0  0
 21 22  1  0  0  0
M  END
> <minimizedAffinity>
-8.11403

> <CNNscore>
0.2139657885

> <CNNaffinity>
5.6149263382

> <CNN_VS>
1.2014021873

> <CNNaffinity_variance>
0.1110141501

$$$$
[H]O[C@@]1([H])C([H])([H])C([H])([H])[C@]2([H])[C@]1(C([H])([H])[H])C([H])([H])C([H])([H])[C@]1([H])[C@]3(C([H])([H])[H])C(=C([H])C(=O)C([H])([H])C3([H])[H])C([H])([H])C([H])([H])[C@@]21[H]


 22 25  0  0  0  0  0  0  0  0999 V2000
   -7.6562   -7.6179    9.1997 C   0  0  0  0  0  0  0  0  0  0  0  0
   -8.0195   -7.3643    7.7610 C   0  0  0  0  0  0  0  0  0  0  0  0
   -8.9396   -6.2040    7.5941 C   0  0  0  0  0  0  0  0  0  0  0  0
  -10.2475   -6.5365    8.2682 C   0  0  0  0  0  0  0  0  0  0  0  0
  -10.8818   -7.7276    7.5814 C   0  0  0  0  0  0  0  0  0  0  0  0
   -9.9717   -8.9530    7.6312 C   0  0  0  0  0  0  0  0  0  0  0  0
  -10.5402   -9.9752    6.6565 C   0  0  0  0  0  0  0  0  0  0  0  0
  -11.9660  -10.3055    6.9180 C   0  0  0  0  0  0  0  0  0  0  0  0
  -12.8012   -9.1566    7.2989 C   0  0  0  0  0  0  0  0  0  0  0  0
  -14.0548   -9.1370    6.8774 C   0  0  0  0  0  0  0  0  0  0  0  0
  -14.9651   -8.0554    7.1931 C   0  0  0  0  0  0  0  0  0  0  0  0
  -16.0169   -7.8418    6.5554 O   0  0  0  0  0  0  0  0  0  0  0  0
  -14.5696   -7.1820    8.3553 C   0  0  0  0  0  0  0  0  0  0  0  0
  -13.1071   -6.8480    8.1420 C   0  0  0  0  0  0  0  0  0  0  0  0
  -12.2267   -8.0598    8.1360 C   0  0  0  0  0  0  0  0  0  0  0  0
  -12.1309   -8.5774    9.5569 C   0  0  0  0  0  0  0  0  0  0  0  0
   -8.6519   -8.5697    7.1014 C   0  0  0  0  0  0  0  0  0  0  0  0
   -7.5675   -9.5752    7.2207 C   0  0  0  0  0  0  0  0  0  0  0  0
   -6.3219   -8.7411    6.9113 C   0  0  0  0  0  0  0  0  0  0  0  0
   -6.7912   -7.2997    6.8777 C   0  0  0  0  0  0  0  0  0  0  0  0
   -5.8581   -6.4011    7.2689 O   0  0  0  0  0  0  0  0  0  0  0  0
   -5.7118   -6.2969    8.2236 H   0  0  0  0  0  0  0  0  0  0  0  0
  2  1  1  0  0  0
  2  3  1  0  0  0
  3  4  1  0  0  0
  4  5  1  0  0  0
  5  6  1  0  0  0
  6  7  1  0  0  0
  7  8  1  0  0  0
  8  9  1  0  0  0
  9 10  2  0  0  0
 10 11  1  0  0  0
 11 12  2  0  0  0
 11 13  1  0  0  0
 13 14  1  0  0  0
 14 15  1  0  0  0
 15 16  1  0  0  0
  6 17  1  0  0  0
 17 18  1  0  0  0
 18 19  1  0  0  0
 19 20  1  0  0  0
 20 21  1  0  0  0
 17  2  1  0  0  0
 20  2  1  0  0  0
 15  5  1  0  0  0
 15  9  1  0  0  0
 21 22  1  0  0  0
M  END
> <minimizedAffinity>
-8.85606

> <CNNscore>
0.2109203935

> <CNNaffinity>
5.7804279327

> <CNN_VS>
1.2192101479

> <CNNaffinity_variance>
0.0578450337

$$$$
[H]O[C@@]1([H])C([H])([H])C([H])([H])[C@]2([H])[C@]1(C([H])([H])[H])C([H])([H])C([H])([H])[C@]1([H])[C@@]3(C([H])([H])[H])C(=C([H])C(=O)C([H])([H])C3([H])[H])C([H])([H])C([H])([H])[C@]12[H]


 22 25  0  0  0  0  0  0  0  0999 V2000
   -5.1089   -6.6957    4.0099 C   0  0  0  0  0  0  0  0  0  0  0  0
   -4.5463   -7.2336    5.2784 C   0  0  0  0  0  0  0  0  0  0  0  0
   -4.6216   -8.7259    5.4084 C   0  0  0  0  0  0  0  0  0  0  0  0
   -6.0830   -9.0854    5.5765 C   0  0  0  0  0  0  0  0  0  0  0  0
   -6.6577   -8.4688    6.8132 C   0  0  0  0  0  0  0  0  0  0  0  0
   -6.6193   -6.9491    6.6626 C   0  0  0  0  0  0  0  0  0  0  0  0
   -7.0935   -6.2717    7.9497 C   0  0  0  0  0  0  0  0  0  0  0  0
   -8.4207   -6.7334    8.4222 C   0  0  0  0  0  0  0  0  0  0  0  0
   -8.8718   -8.0104    7.8358 C   0  0  0  0  0  0  0  0  0  0  0  0
  -10.1772   -8.2988    7.9462 C   0  0  0  0  0  0  0  0  0  0  0  0
  -10.7259   -9.5304    7.4030 C   0  0  0  0  0  0  0  0  0  0  0  0
  -11.7805   -9.9982    7.8646 O   0  0  0  0  0  0  0  0  0  0  0  0
  -10.0206  -10.2060    6.3104 C   0  0  0  0  0  0  0  0  0  0  0  0
   -8.7377   -9.4924    5.9321 C   0  0  0  0  0  0  0  0  0  0  0  0
   -8.0199   -8.9784    7.1547 C   0  0  0  0  0  0  0  0  0  0  0  0
   -7.8143  -10.1547    8.1190 C   0  0  0  0  0  0  0  0  0  0  0  0
   -5.1787   -6.6077    6.5173 C   0  0  0  0  0  0  0  0  0  0  0  0
   -4.8481   -5.1858    6.3217 C   0  0  0  0  0  0  0  0  0  0  0  0
   -3.4261   -5.2285    5.7658 C   0  0  0  0  0  0  0  0  0  0  0  0
   -3.1447   -6.6863    5.4487 C   0  0  0  0  0  0  0  0  0  0  0  0
   -2.3569   -6.8559    4.3368 O   0  0  0  0  0  0  0  0  0  0  0  0
   -2.0511   -6.0045    3.9230 H   0  0  0  0  0  0  0  0  0  0  0  0
  2  1  1  0  0  0
  2  3  1  0  0  0
  3  4  1  0  0  0
  4  5  1  0  0  0
  5  6  1  0  0  0
  6  7  1  0  0  0
  7  8  1  0  0  0
  8  9  1  0  0  0
  9 10  2  0  0  0
 10 11  1  0  0  0
 11 12  2  0  0  0
 11 13  1  0  0  0
 13 14  1  0  0  0
 14 15  1  0  0  0
 15 16  1  0  0  0
  6 17  1  0  0  0
 17 18  1  0  0  0
 18 19  1  0  0  0
 19 20  1  0  0  0
 20 21  1  0  0  0
 17  2  1  0  0  0
 20  2  1  0  0  0
 15  5  1  0  0  0
 15  9  1  0  0  0
 21 22  1  0  0  0
M  END
> <minimizedAffinity>
5.49949

> <CNNscore>
0.5007579327

> <CNNaffinity>
5.3258357048

> <CNN_VS>
2.6669545174

> <CNNaffinity_variance>
0.7800211906

$$$$
[H]O[C@@]1([H])C([H])([H])C([H])([H])[C@]2([H])[C@]1(C([H])([H])[H])C([H])([H])C([H])([H])[C@]1([H])[C@@]3(C([H])([H])[H])C(=C([H])C(=O)C([H])([H])C3([H])[H])C([H])([H])C([H])([H])[C@]12[H]


 22 25  0  0  0  0  0  0  0  0999 V2000
   -9.2363   -9.2713    7.8913 C   0  0  0  0  0  0  0  0  0  0  0  0
   -9.2100   -7.8774    7.3707 C   0  0  0  0  0  0  0  0  0  0  0  0
   -8.6773   -7.7450    5.9749 C   0  0  0  0  0  0  0  0  0  0  0  0
   -7.1951   -8.0495    6.0329 C   0  0  0  0  0  0  0  0  0  0  0  0
   -6.4727   -7.0786    6.9136 C   0  0  0  0  0  0  0  0  0  0  0  0
   -6.9858   -7.2432    8.3431 C   0  0  0  0  0  0  0  0  0  0  0  0
   -6.3570   -6.1936    9.2614 C   0  0  0  0  0  0  0  0  0  0  0  0
   -4.8753   -6.1644    9.2204 C   0  0  0  0  0  0  0  0  0  0  0  0
   -4.2795   -6.8361    8.0490 C   0  0  0  0  0  0  0  0  0  0  0  0
   -2.9769   -7.1464    8.1276 C   0  0  0  0  0  0  0  0  0  0  0  0
   -2.2922   -7.8097    7.0303 C   0  0  0  0  0  0  0  0  0  0  0  0
   -1.0599   -7.7027    6.9106 O   0  0  0  0  0  0  0  0  0  0  0  0
   -3.0728   -8.6006    6.0749 C   0  0  0  0  0  0  0  0  0  0  0  0
   -4.5572   -8.5606    6.3795 C   0  0  0  0  0  0  0  0  0  0  0  0
   -4.9853   -7.1837    6.8212 C   0  0  0  0  0  0  0  0  0  0  0  0
   -4.5449   -6.1784    5.7483 C   0  0  0  0  0  0  0  0  0  0  0  0
   -8.4371   -6.9234    8.2758 C   0  0  0  0  0  0  0  0  0  0  0  0
   -9.2018   -7.0338    9.5297 C   0  0  0  0  0  0  0  0  0  0  0  0
  -10.6515   -7.0999    9.0531 C   0  0  0  0  0  0  0  0  0  0  0  0
  -10.5886   -7.2762    7.5465 C   0  0  0  0  0  0  0  0  0  0  0  0
  -11.5941   -8.0702    7.0522 O   0  0  0  0  0  0  0  0  0  0  0  0
  -12.2401   -8.3823    7.7414 H   0  0  0  0  0  0  0  0  0  0  0  0
  2  1  1  0  0  0
  2  3  1  0  0  0
  3  4  1  0  0  0
  4  5  1  0  0  0
  5  6  1  0  0  0
  6  7  1  0  0  0
  7  8  1  0  0  0
  8  9  1  0  0  0
  9 10  2  0  0  0
 10 11  1  0  0  0
 11 12  2  0  0  0
 11 13  1  0  0  0
 13 14  1  0  0  0
 14 15  1  0  0  0
 15 16  1  0  0  0
  6 17  1  0  0  0
 17 18  1  0  0  0
 18 19  1  0  0  0
 19 20  1  0  0  0
 20 21  1  0  0  0
 17  2  1  0  0  0
 20  2  1  0  0  0
 15  5  1  0  0  0
 15  9  1  0  0  0
 21 22  1  0  0  0
M  END
> <minimizedAffinity>
-1.20159

> <CNNscore>
0.4910652637

> <CNNaffinity>
5.3370728493

> <CNN_VS>
2.6208510399

> <CNNaffinity_variance>
0.5466226339

$$$$
[H]O[C@@]1([H])C([H])([H])C([H])([H])[C@]2([H])[C@]1(C([H])([H])[H])C([H])([H])C([H])([H])[C@]1([H])[C@@]3(C([H])([H])[H])C(=C([H])C(=O)C([H])([H])C3([H])[H])C([H])([H])C([H])([H])[C@]12[H]


 22 25  0  0  0  0  0  0  0  0999 V2000
  -12.5995   -9.4296    9.3939 C   0  0  0  0  0  0  0  0  0  0  0  0
  -12.6120   -8.9628    7.9808 C   0  0  0  0  0  0  0  0  0  0  0  0
  -11.9152   -9.8775    7.0178 C   0  0  0  0  0  0  0  0  0  0  0  0
  -10.4341   -9.8020    7.3237 C   0  0  0  0  0  0  0  0  0  0  0  0
   -9.9071   -8.4145    7.1307 C   0  0  0  0  0  0  0  0  0  0  0  0
  -10.5865   -7.4909    8.1402 C   0  0  0  0  0  0  0  0  0  0  0  0
  -10.1628   -6.0395    7.9071 C   0  0  0  0  0  0  0  0  0  0  0  0
   -8.6948   -5.8336    7.8907 C   0  0  0  0  0  0  0  0  0  0  0  0
   -7.9036   -7.0643    7.6971 C   0  0  0  0  0  0  0  0  0  0  0  0
   -6.6023   -7.0031    8.0167 C   0  0  0  0  0  0  0  0  0  0  0  0
   -5.7333   -8.1585    7.8647 C   0  0  0  0  0  0  0  0  0  0  0  0
   -4.5076   -8.0018    7.7330 O   0  0  0  0  0  0  0  0  0  0  0  0
   -6.3218   -9.5006    7.8694 C   0  0  0  0  0  0  0  0  0  0  0  0
   -7.8319   -9.4609    7.9962 C   0  0  0  0  0  0  0  0  0  0  0  0
   -8.4166   -8.3306    7.1872 C   0  0  0  0  0  0  0  0  0  0  0  0
   -7.9189   -8.4690    5.7419 C   0  0  0  0  0  0  0  0  0  0  0  0
  -12.0370   -7.5596    7.8171 C   0  0  0  0  0  0  0  0  0  0  0  0
  -12.9466   -6.7749    8.6694 C   0  0  0  0  0  0  0  0  0  0  0  0
  -14.3133   -7.3980    8.3924 C   0  0  0  0  0  0  0  0  0  0  0  0
  -14.0434   -8.6589    7.5912 C   0  0  0  0  0  0  0  0  0  0  0  0
  -14.9135   -9.6809    7.8812 O   0  0  0  0  0  0  0  0  0  0  0  0
  -15.6175   -9.4390    8.5411 H   0  0  0  0  0  0  0  0  0  0  0  0
  2  1  1  0  0  0
  2  3  1  0  0  0
  3  4  1  0  0  0
  4  5  1  0  0  0
  5  6  1  0  0  0
  6  7  1  0  0  0
  7  8  1  0  0  0
  8  9  1  0  0  0
  9 10  2  0  0  0
 10 11  1  0  0  0
 11 12  2  0  0  0
 11 13  1  0  0  0
 13 14  1  0  0  0
 14 15  1  0  0  0
 15 16  1  0  0  0
  6 17  1  0  0  0
 17 18  1  0  0  0
 18 19  1  0  0  0
 19 20  1  0  0  0
 20 21  1  0  0  0
 17  2  1  0  0  0
 20  2  1  0  0  0
 15  5  1  0  0  0
 15  9  1  0  0  0
 21 22  1  0  0  0
M  END
> <minimizedAffinity>
-6.11274

> <CNNscore>
0.4367267787

> <CNNaffinity>
6.0061907768

> <CNN_VS>
2.6230642796

> <CNNaffinity_variance>
0.2263057232

$$$$
[H]O[C@@]1([H])C([H])([H])C([H])([H])[C@]2([H])[C@]1(C([H])([H])[H])C([H])([H])C([H])([H])[C@]1([H])[C@@]3(C([H])([H])[H])C(=C([H])C(=O)C([H])([H])C3([H])[H])C([H])([H])C([H])([H])[C@]12[H]


 22 25  0  0  0  0  0  0  0  0999 V2000
  -13.5893   -9.5667    3.8751 C   0  0  0  0  0  0  0  0  0  0  0  0
  -14.3994   -8.6419    3.0364 C   0  0  0  0  0  0  0  0  0  0  0  0
  -14.3787   -7.2123    3.4897 C   0  0  0  0  0  0  0  0  0  0  0  0
  -15.1433   -7.1475    4.7951 C   0  0  0  0  0  0  0  0  0  0  0  0
  -16.5676   -7.5706    4.6148 C   0  0  0  0  0  0  0  0  0  0  0  0
  -16.5897   -9.0389    4.1939 C   0  0  0  0  0  0  0  0  0  0  0  0
  -18.0203   -9.4863    3.8882 C   0  0  0  0  0  0  0  0  0  0  0  0
  -18.9828   -9.2253    4.9852 C   0  0  0  0  0  0  0  0  0  0  0  0
  -18.5205   -8.2466    5.9885 C   0  0  0  0  0  0  0  0  0  0  0  0
  -19.1720   -8.2289    7.1609 C   0  0  0  0  0  0  0  0  0  0  0  0
  -18.7970   -7.3043    8.2180 C   0  0  0  0  0  0  0  0  0  0  0  0
  -19.6266   -6.9812    9.0849 O   0  0  0  0  0  0  0  0  0  0  0  0
  -17.4351   -6.7638    8.2447 C   0  0  0  0  0  0  0  0  0  0  0  0
  -16.6048   -7.2515    7.0739 C   0  0  0  0  0  0  0  0  0  0  0  0
  -17.4241   -7.3019    5.8090 C   0  0  0  0  0  0  0  0  0  0  0  0
  -18.0524   -5.9188    5.5902 C   0  0  0  0  0  0  0  0  0  0  0  0
  -15.8526   -9.0857    2.9026 C   0  0  0  0  0  0  0  0  0  0  0  0
  -15.6926  -10.4086    2.2751 C   0  0  0  0  0  0  0  0  0  0  0  0
  -14.5562  -10.1900    1.2782 C   0  0  0  0  0  0  0  0  0  0  0  0
  -13.9830   -8.8195    1.5915 C   0  0  0  0  0  0  0  0  0  0  0  0
  -12.6245   -8.7458    1.4051 O   0  0  0  0  0  0  0  0  0  0  0  0
  -12.2173   -9.5832    1.0551 H   0  0  0  0  0  0  0  0  0  0  0  0
  2  1  1  0  0  0
  2  3  1  0  0  0
  3  4  1  0  0  0
  4  5  1  0  0  0
  5  6  1  0  0  0
  6  7  1  0  0  0
  7  8  1  0  0  0
  8  9  1  0  0  0
  9 10  2  0  0  0
 10 11  1  0  0  0
 11 12  2  0  0  0
 11 13  1  0  0  0
 13 14  1  0  0  0
 14 15  1  0  0  0
 15 16  1  0  0  0
  6 17  1  0  0  0
 17 18  1  0  0  0
 18 19  1  0  0  0
 19 20  1  0  0  0
 20 21  1  0  0  0
 17  2  1  0  0  0
 20  2  1  0  0  0
 15  5  1  0  0  0
 15  9  1  0  0  0
 21 22  1  0  0  0
M  END
> <minimizedAffinity>
32.75921

> <CNNscore>
0.3985073268

> <CNNaffinity>
5.9881811142

> <CNN_VS>
2.3863339424

> <CNNaffinity_variance>
0.7590672374

$$$$
[H]O[C@@]1([H])C([H])([H])C([H])([H])[C@]2([H])[C@]1(C([H])([H])[H])C([H])([H])C([H])([H])[C@]1([H])[C@@]3(C([H])([H])[H])C(=C([H])C(=O)C([H])([H])C3([H])[H])C([H])([H])C([H])([H])[C@]12[H]


 22 25  0  0  0  0  0  0  0  0999 V2000
   -9.6507   -7.0474    9.2818 C   0  0  0  0  0  0  0  0  0  0  0  0
   -9.3790   -8.1150    8.2811 C   0  0  0  0  0  0  0  0  0  0  0  0
   -8.2954   -9.0744    8.6745 C   0  0  0  0  0  0  0  0  0  0  0  0
   -6.9878   -8.3120    8.6316 C   0  0  0  0  0  0  0  0  0  0  0  0
   -6.6980   -7.8031    7.2542 C   0  0  0  0  0  0  0  0  0  0  0  0
   -7.7789   -6.7941    6.8705 C   0  0  0  0  0  0  0  0  0  0  0  0
   -7.5883   -6.3294    5.4255 C   0  0  0  0  0  0  0  0  0  0  0  0
   -6.2328   -5.8048    5.1331 C   0  0  0  0  0  0  0  0  0  0  0  0
   -5.2027   -6.1783    6.1219 C   0  0  0  0  0  0  0  0  0  0  0  0
   -4.0662   -5.4659    6.1095 C   0  0  0  0  0  0  0  0  0  0  0  0
   -2.9876   -5.7507    7.0414 C   0  0  0  0  0  0  0  0  0  0  0  0
   -1.8221   -5.4215    6.7631 O   0  0  0  0  0  0  0  0  0  0  0  0
   -3.2947   -6.4269    8.3048 C   0  0  0  0  0  0  0  0  0  0  0  0
   -4.7649   -6.7776    8.4213 C   0  0  0  0  0  0  0  0  0  0  0  0
   -5.3175   -7.2527    7.1011 C   0  0  0  0  0  0  0  0  0  0  0  0
   -4.4411   -8.4107    6.6043 C   0  0  0  0  0  0  0  0  0  0  0  0
   -9.0543   -7.5594    6.8982 C   0  0  0  0  0  0  0  0  0  0  0  0
  -10.2859   -6.8117    6.5923 C   0  0  0  0  0  0  0  0  0  0  0  0
  -11.3903   -7.7147    7.1379 C   0  0  0  0  0  0  0  0  0  0  0  0
  -10.6885   -8.7950    7.9412 C   0  0  0  0  0  0  0  0  0  0  0  0
  -11.3971   -9.1925    9.0483 O   0  0  0  0  0  0  0  0  0  0  0  0
  -12.2820   -8.7483    9.1443 H   0  0  0  0  0  0  0  0  0  0  0  0
  2  1  1  0  0  0
  2  3  1  0  0  0
  3  4  1  0  0  0
  4  5  1  0  0  0
  5  6  1  0  0  0
  6  7  1  0  0  0
  7  8  1  0  0  0
  8  9  1  0  0  0
  9 10  2  0  0  0
 10 11  1  0  0  0
 11 12  2  0  0  0
 11 13  1  0  0  0
 13 14  1  0  0  0
 14 15  1  0  0  0
 15 16  1  0  0  0
  6 17  1  0  0  0
 17 18  1  0  0  0
 18 19  1  0  0  0
 19 20  1  0  0  0
 20 21  1  0  0  0
 17  2  1  0  0  0
 20  2  1  0  0  0
 15  5  1  0  0  0
 15  9  1  0  0  0
 21 22  1  0  0  0
M  END
> <minimizedAffinity>
-2.63755

> <CNNscore>
0.3204346597

> <CNNaffinity>
5.1984901428

> <CNN_VS>
1.6657763720

> <CNNaffinity_variance>
0.2307763100

$$$$
[H]O[C@@]1([H])C([H])([H])C([H])([H])[C@]2([H])[C@]1(C([H])([H])[H])C([H])([H])C([H])([H])[C@]1([H])[C@@]3(C([H])([H])[H])C(=C([H])C(=O)C([H])([H])C3([H])[H])C([H])([H])C([H])([H])[C@]12[H]


 22 25  0  0  0  0  0  0  0  0999 V2000
   -7.7335   -8.6730    5.6295 C   0  0  0  0  0  0  0  0  0  0  0  0
   -7.5439   -8.0144    6.9505 C   0  0  0  0  0  0  0  0  0  0  0  0
   -7.7532   -6.5292    6.9404 C   0  0  0  0  0  0  0  0  0  0  0  0
   -6.6068   -5.9229    6.1589 C   0  0  0  0  0  0  0  0  0  0  0  0
   -5.2897   -6.2149    6.8072 C   0  0  0  0  0  0  0  0  0  0  0  0
   -5.0577   -7.7246    6.7794 C   0  0  0  0  0  0  0  0  0  0  0  0
   -3.7747   -8.0825    7.5319 C   0  0  0  0  0  0  0  0  0  0  0  0
   -2.5758   -7.3441    7.0680 C   0  0  0  0  0  0  0  0  0  0  0  0
   -2.8679   -6.1359    6.2722 C   0  0  0  0  0  0  0  0  0  0  0  0
   -1.8596   -5.6330    5.5443 C   0  0  0  0  0  0  0  0  0  0  0  0
   -2.0402   -4.4462    4.7246 C   0  0  0  0  0  0  0  0  0  0  0  0
   -1.0600   -3.7461    4.4193 O   0  0  0  0  0  0  0  0  0  0  0  0
   -3.3868   -4.0917    4.2674 C   0  0  0  0  0  0  0  0  0  0  0  0
   -4.4375   -5.0515    4.7895 C   0  0  0  0  0  0  0  0  0  0  0  0
   -4.1522   -5.4475    6.2163 C   0  0  0  0  0  0  0  0  0  0  0  0
   -4.0134   -4.1663    7.0500 C   0  0  0  0  0  0  0  0  0  0  0  0
   -6.1788   -8.3061    7.5654 C   0  0  0  0  0  0  0  0  0  0  0  0
   -6.2218   -9.7741    7.6777 C   0  0  0  0  0  0  0  0  0  0  0  0
   -7.6597  -10.0517    8.1117 C   0  0  0  0  0  0  0  0  0  0  0  0
   -8.4010   -8.7344    7.9703 C   0  0  0  0  0  0  0  0  0  0  0  0
   -9.7059   -8.8879    7.5711 O   0  0  0  0  0  0  0  0  0  0  0  0
   -9.9902   -9.8359    7.4709 H   0  0  0  0  0  0  0  0  0  0  0  0
  2  1  1  0  0  0
  2  3  1  0  0  0
  3  4  1  0  0  0
  4  5  1  0  0  0
  5  6  1  0  0  0
  6  7  1  0  0  0
  7  8  1  0  0  0
  8  9  1  0  0  0
  9 10  2  0  0  0
 10 11  1  0  0  0
 11 12  2  0  0  0
 11 13  1  0  0  0
 13 14  1  0  0  0
 14 15  1  0  0  0
 15 16  1  0  0  0
  6 17  1  0  0  0
 17 18  1  0  0  0
 18 19  1  0  0  0
 19 20  1  0  0  0
 20 21  1  0  0  0
 17  2  1  0  0  0
 20  2  1  0  0  0
 15  5  1  0  0  0
 15  9  1  0  0  0
 21 22  1  0  0  0
M  END
> <minimizedAffinity>
-3.12993

> <CNNscore>
0.3110246956

> <CNNaffinity>
4.8425111771

> <CNN_VS>
1.5061405897

> <CNNaffinity_variance>
0.4567038119

$$$$
[H]O[C@@]1([H])C([H])([H])C([H])([H])[C@]2([H])[C@]1(C([H])([H])[H])C([H])([H])C([H])([H])[C@]1([H])[C@@]3(C([H])([H])[H])C(=C([H])C(=O)C([H])([H])C3([H])[H])C([H])([H])C([H])([H])[C@]12[H]


 22 25  0  0  0  0  0  0  0  0999 V2000
  -18.2227   -8.0499    4.6373 C   0  0  0  0  0  0  0  0  0  0  0  0
  -17.0174   -7.5591    3.9155 C   0  0  0  0  0  0  0  0  0  0  0  0
  -16.0345   -8.6303    3.5467 C   0  0  0  0  0  0  0  0  0  0  0  0
  -15.4077   -9.1224    4.8343 C   0  0  0  0  0  0  0  0  0  0  0  0
  -14.6748   -8.0241    5.5390 C   0  0  0  0  0  0  0  0  0  0  0  0
  -15.6827   -6.9529    5.9516 C   0  0  0  0  0  0  0  0  0  0  0  0
  -14.9649   -5.7554    6.5770 C   0  0  0  0  0  0  0  0  0  0  0  0
  -14.0643   -6.1096    7.7001 C   0  0  0  0  0  0  0  0  0  0  0  0
  -13.6995   -7.5380    7.7685 C   0  0  0  0  0  0  0  0  0  0  0  0
  -13.1900   -7.9771    8.9291 C   0  0  0  0  0  0  0  0  0  0  0  0
  -12.7984   -9.3661    9.1032 C   0  0  0  0  0  0  0  0  0  0  0  0
  -11.9561   -9.6716    9.9642 O   0  0  0  0  0  0  0  0  0  0  0  0
  -13.4086  -10.3924    8.2533 C   0  0  0  0  0  0  0  0  0  0  0  0
  -14.3720   -9.7989    7.2446 C   0  0  0  0  0  0  0  0  0  0  0  0
  -13.8433   -8.5026    6.6843 C   0  0  0  0  0  0  0  0  0  0  0  0
  -12.4386   -8.7616    6.1225 C   0  0  0  0  0  0  0  0  0  0  0  0
  -16.2769   -6.4651    4.6780 C   0  0  0  0  0  0  0  0  0  0  0  0
  -17.3206   -5.4312    4.7835 C   0  0  0  0  0  0  0  0  0  0  0  0
  -18.0133   -5.4905    3.4235 C   0  0  0  0  0  0  0  0  0  0  0  0
  -17.4736   -6.7303    2.7331 C   0  0  0  0  0  0  0  0  0  0  0  0
  -18.4086   -7.3657    1.9535 O   0  0  0  0  0  0  0  0  0  0  0  0
  -19.2893   -6.9044    1.9197 H   0  0  0  0  0  0  0  0  0  0  0  0
  2  1  1  0  0  0
  2  3  1  0  0  0
  3  4  1  0  0  0
  4  5  1  0  0  0
  5  6  1  0  0  0
  6  7  1  0  0  0
  7  8  1  0  0  0
  8  9  1  0  0  0
  9 10  2  0  0  0
 10 11  1  0  0  0
 11 12  2  0  0  0
 11 13  1  0  0  0
 13 14  1  0  0  0
 14 15  1  0  0  0
 15 16  1  0  0  0
  6 17  1  0  0  0
 17 18  1  0  0  0
 18 19  1  0  0  0
 19 20  1  0  0  0
 20 21  1  0  0  0
 17  2  1  0  0  0
 20  2  1  0  0  0
 15  5  1  0  0  0
 15  9  1  0  0  0
 21 22  1  0  0  0
M  END
> <minimizedAffinity>
-4.18544

> <CNNscore>
0.2840043306

> <CNNaffinity>
6.0143265724

> <CNN_VS>
1.7080948353

> <CNNaffinity_variance>
0.1202481836

$$$$
[H]O[C@@]1([H])C([H])([H])C([H])([H])[C@]2([H])[C@]1(C([H])([H])[H])C([H])([H])C([H])([H])[C@]1([H])[C@@]3(C([H])([H])[H])C(=C([H])C(=O)C([H])([H])C3([H])[H])C([H])([H])C([H])([H])[C@]12[H]


 22 25  0  0  0  0  0  0  0  0999 V2000
  -15.2261   -9.9153    2.1397 C   0  0  0  0  0  0  0  0  0  0  0  0
  -14.2034   -8.9789    2.6802 C   0  0  0  0  0  0  0  0  0  0  0  0
  -13.7030   -9.3284    4.0503 C   0  0  0  0  0  0  0  0  0  0  0  0
  -14.8431   -9.0850    5.0166 C   0  0  0  0  0  0  0  0  0  0  0  0
  -15.2633   -7.6485    5.0139 C   0  0  0  0  0  0  0  0  0  0  0  0
  -15.8121   -7.3044    3.6304 C   0  0  0  0  0  0  0  0  0  0  0  0
  -16.1509   -5.8151    3.5445 C   0  0  0  0  0  0  0  0  0  0  0  0
  -17.0560   -5.3381    4.6174 C   0  0  0  0  0  0  0  0  0  0  0  0
  -17.1535   -6.2370    5.7839 C   0  0  0  0  0  0  0  0  0  0  0  0
  -18.1938   -6.0462    6.6090 C   0  0  0  0  0  0  0  0  0  0  0  0
  -18.3841   -6.8764    7.7869 C   0  0  0  0  0  0  0  0  0  0  0  0
  -19.0451   -6.4494    8.7487 O   0  0  0  0  0  0  0  0  0  0  0  0
  -17.7886   -8.2151    7.8213 C   0  0  0  0  0  0  0  0  0  0  0  0
  -16.9895   -8.5163    6.5689 C   0  0  0  0  0  0  0  0  0  0  0  0
  -16.2162   -7.3049    6.1120 C   0  0  0  0  0  0  0  0  0  0  0  0
  -15.3632   -6.8101    7.2881 C   0  0  0  0  0  0  0  0  0  0  0  0
  -14.6783   -7.5295    2.6940 C   0  0  0  0  0  0  0  0  0  0  0  0
  -14.9411   -7.2994    1.2631 C   0  0  0  0  0  0  0  0  0  0  0  0
  -13.7915   -8.0303    0.5723 C   0  0  0  0  0  0  0  0  0  0  0  0
  -13.0977   -8.8366    1.6556 C   0  0  0  0  0  0  0  0  0  0  0  0
  -12.6144  -10.0413    1.2076 O   0  0  0  0  0  0  0  0  0  0  0  0
  -12.7509  -10.1963    0.2345 H   0  0  0  0  0  0  0  0  0  0  0  0
  2  1  1  0  0  0
  2  3  1  0  0  0
  3  4  1  0  0  0
  4  5  1  0  0  0
  5  6  1  0  0  0
  6  7  1  0  0  0
  7  8  1  0  0  0
  8  9  1  0  0  0
  9 10  2  0  0  0
 10 11  1  0  0  0
 11 12  2  0  0  0
 11 13  1  0  0  0
 13 14  1  0  0  0
 14 15  1  0  0  0
 15 16  1  0  0  0
  6 17  1  0  0  0
 17 18  1  0  0  0
 18 19  1  0  0  0
 19 20  1  0  0  0
 20 21  1  0  0  0
 17  2  1  0  0  0
 20  2  1  0  0  0
 15  5  1  0  0  0
 15  9  1  0  0  0
 21 22  1  0  0  0
M  END
> <minimizedAffinity>
30.48752

> <CNNscore>
0.2636531293

> <CNNaffinity>
5.8140416145

> <CNN_VS>
1.5328903198

> <CNNaffinity_variance>
0.6458708048

$$$$
[H]O[C@@]1([H])C([H])([H])C([H])([H])[C@]2([H])[C@]1(C([H])([H])[H])C([H])([H])C([H])([H])[C@]1([H])[C@@]3(C([H])([H])[H])C(=C([H])C(=O)C([H])([H])C3([H])[H])C([H])([H])C([H])([H])[C@]12[H]


 22 25  0  0  0  0  0  0  0  0999 V2000
  -16.6294   -9.0333    5.3167 C   0  0  0  0  0  0  0  0  0  0  0  0
  -15.3744   -8.5402    4.6869 C   0  0  0  0  0  0  0  0  0  0  0  0
  -14.1508   -9.3351    5.0339 C   0  0  0  0  0  0  0  0  0  0  0  0
  -13.8505   -9.0758    6.4952 C   0  0  0  0  0  0  0  0  0  0  0  0
  -13.5658   -7.6278    6.7451 C   0  0  0  0  0  0  0  0  0  0  0  0
  -14.8258   -6.8229    6.4317 C   0  0  0  0  0  0  0  0  0  0  0  0
  -14.5499   -5.3240    6.5647 C   0  0  0  0  0  0  0  0  0  0  0  0
  -13.9691   -4.9297    7.8704 C   0  0  0  0  0  0  0  0  0  0  0  0
  -13.3896   -6.0433    8.6467 C   0  0  0  0  0  0  0  0  0  0  0  0
  -13.1718   -5.8216    9.9516 C   0  0  0  0  0  0  0  0  0  0  0  0
  -12.6052   -6.8513   10.8070 C   0  0  0  0  0  0  0  0  0  0  0  0
  -12.0111   -6.5347   11.8515 O   0  0  0  0  0  0  0  0  0  0  0  0
  -12.7450   -8.2580   10.4205 C   0  0  0  0  0  0  0  0  0  0  0  0
  -13.4614   -8.4166    9.0940 C   0  0  0  0  0  0  0  0  0  0  0  0
  -13.0340   -7.3533    8.1139 C   0  0  0  0  0  0  0  0  0  0  0  0
  -11.5038   -7.3935    8.0013 C   0  0  0  0  0  0  0  0  0  0  0  0
  -15.0988   -7.0710    4.9906 C   0  0  0  0  0  0  0  0  0  0  0  0
  -16.2959   -6.4300    4.4200 C   0  0  0  0  0  0  0  0  0  0  0  0
  -16.5378   -7.2180    3.1341 C   0  0  0  0  0  0  0  0  0  0  0  0
  -15.6060   -8.4150    3.1957 C   0  0  0  0  0  0  0  0  0  0  0  0
  -16.1417   -9.5472    2.6327 O   0  0  0  0  0  0  0  0  0  0  0  0
  -17.0419   -9.4133    2.2311 H   0  0  0  0  0  0  0  0  0  0  0  0
  2  1  1  0  0  0
  2  3  1  0  0  0
  3  4  1  0  0  0
  4  5  1  0  0  0
  5  6  1  0  0  0
  6  7  1  0  0  0
  7  8  1  0  0  0
  8  9  1  0  0  0
  9 10  2  0  0  0
 10 11  1  0  0  0
 11 12  2  0  0  0
 11 13  1  0  0  0
 13 14  1  0  0  0
 14 15  1  0  0  0
 15 16  1  0  0  0
  6 17  1  0  0  0
 17 18  1  0  0  0
 18 19  1  0  0  0
 19 20  1  0  0  0
 20 21  1  0  0  0
 17  2  1  0  0  0
 20  2  1  0  0  0
 15  5  1  0  0  0
 15  9  1  0  0  0
 21 22  1  0  0  0
M  END
> <minimizedAffinity>
0.75088

> <CNNscore>
0.2506655157

> <CNNaffinity>
5.9563493729

> <CNN_VS>
1.4930514097

> <CNNaffinity_variance>
0.1525423825

$$$$
[H]C1=C2C([H])([H])C([H])([H])[C@@]3([H])[C@]4([H])C([H])([H])C([H])([H])C(=O)[C@@]4(C([H])([H])[H])C([H])([H])C([H])([H])[C@]3([H])[C@@]2(C([H])([H])[H])C([H])([H])C([H])([H])C1=O


 21 24  0  0  0  0  0  0  0  0999 V2000
  -12.0413  -10.2114    8.7969 C   0  0  0  0  0  0  0  0  0  0  0  0
  -12.7772   -9.3843    7.7747 C   0  0  0  0  0  0  0  0  0  0  0  0
  -11.8804   -8.3788    7.1396 C   0  0  0  0  0  0  0  0  0  0  0  0
  -11.8150   -7.0536    7.7727 C   0  0  0  0  0  0  0  0  0  0  0  0
  -12.7414   -6.7176    8.8646 C   0  0  0  0  0  0  0  0  0  0  0  0
  -13.4496   -7.8884    9.5165 C   0  0  0  0  0  0  0  0  0  0  0  0
  -14.6200   -7.4269   10.3390 C   0  0  0  0  0  0  0  0  0  0  0  0
  -14.3356   -6.2921   11.2577 C   0  0  0  0  0  0  0  0  0  0  0  0
  -13.2778   -5.3670   10.7740 C   0  0  0  0  0  0  0  0  0  0  0  0
  -13.4280   -4.0874   11.1456 C   0  0  0  0  0  0  0  0  0  0  0  0
  -12.4868   -3.0654   10.7579 C   0  0  0  0  0  0  0  0  0  0  0  0
  -12.7117   -1.8500   10.8621 O   0  0  0  0  0  0  0  0  0  0  0  0
  -11.1859   -3.5069   10.2075 C   0  0  0  0  0  0  0  0  0  0  0  0
  -11.4835   -4.6570    9.2657 C   0  0  0  0  0  0  0  0  0  0  0  0
  -12.1371   -5.8231    9.9413 C   0  0  0  0  0  0  0  0  0  0  0  0
  -11.1016   -6.5530   10.7552 C   0  0  0  0  0  0  0  0  0  0  0  0
  -13.9835   -8.6788    8.3569 C   0  0  0  0  0  0  0  0  0  0  0  0
  -14.8755   -9.8111    8.7049 C   0  0  0  0  0  0  0  0  0  0  0  0
  -14.6837  -10.7521    7.5077 C   0  0  0  0  0  0  0  0  0  0  0  0
  -13.4471  -10.2981    6.8346 C   0  0  0  0  0  0  0  0  0  0  0  0
  -13.0566  -10.6071    5.7389 O   0  0  0  0  0  0  0  0  0  0  0  0
  2  1  1  0  0  0
  2  3  1  0  0  0
  3  4  1  0  0  0
  4  5  1  0  0  0
  5  6  1  0  0  0
  6  7  1  0  0  0
  7  8  1  0  0  0
  8  9  1  0  0  0
  9 10  2  0  0  0
 10 11  1  0  0  0
 11 12  2  0  0  0
 11 13  1  0  0  0
 13 14  1  0  0  0
 14 15  1  0  0  0
 15 16  1  0  0  0
  6 17  1  0  0  0
 17 18  1  0  0  0
 18 19  1  0  0  0
 19 20  1  0  0  0
 20 21  2  0  0  0
 17  2  1  0  0  0
 20  2  1  0  0  0
 15  5  1  0  0  0
 15  9  1  0  0  0
M  END
> <minimizedAffinity>
13.34320

> <CNNscore>
0.5448788404

> <CNNaffinity>
6.0221838951

> <CNN_VS>
3.2813606262

> <CNNaffinity_variance>
0.9058478475

$$$$
[H]C1=C2C([H])([H])C([H])([H])[C@@]3([H])[C@]4([H])C([H])([H])C([H])([H])C(=O)[C@@]4(C([H])([H])[H])C([H])([H])C([H])([H])[C@]3([H])[C@@]2(C([H])([H])[H])C([H])([H])C([H])([H])C1=O


 21 24  0  0  0  0  0  0  0  0999 V2000
  -11.7135   -4.4490    9.5280 C   0  0  0  0  0  0  0  0  0  0  0  0
  -11.6675   -5.5955   10.5048 C   0  0  0  0  0  0  0  0  0  0  0  0
  -10.2771   -6.0951   10.6931 C   0  0  0  0  0  0  0  0  0  0  0  0
   -9.8362   -7.1821    9.8069 C   0  0  0  0  0  0  0  0  0  0  0  0
  -10.8059   -7.8412    8.9189 C   0  0  0  0  0  0  0  0  0  0  0  0
  -12.1137   -7.1057    8.7036 C   0  0  0  0  0  0  0  0  0  0  0  0
  -13.1539   -8.0096    8.1035 C   0  0  0  0  0  0  0  0  0  0  0  0
  -12.6968   -8.8056    6.9330 C   0  0  0  0  0  0  0  0  0  0  0  0
  -11.2508   -9.1476    6.9560 C   0  0  0  0  0  0  0  0  0  0  0  0
  -10.9334  -10.3153    6.3782 C   0  0  0  0  0  0  0  0  0  0  0  0
   -9.5730  -10.7910    6.3178 C   0  0  0  0  0  0  0  0  0  0  0  0
   -9.2659  -11.9566    6.0248 O   0  0  0  0  0  0  0  0  0  0  0  0
   -8.4958   -9.8237    6.6244 C   0  0  0  0  0  0  0  0  0  0  0  0
   -8.9637   -9.0222    7.8231 C   0  0  0  0  0  0  0  0  0  0  0  0
  -10.2303   -8.2633    7.5716 C   0  0  0  0  0  0  0  0  0  0  0  0
   -9.9168   -7.0741    6.7026 C   0  0  0  0  0  0  0  0  0  0  0  0
  -12.5591   -6.7472   10.0920 C   0  0  0  0  0  0  0  0  0  0  0  0
  -13.9138   -6.1541   10.2010 C   0  0  0  0  0  0  0  0  0  0  0  0
  -13.7985   -5.3210   11.4849 C   0  0  0  0  0  0  0  0  0  0  0  0
  -12.3486   -5.1781   11.7415 C   0  0  0  0  0  0  0  0  0  0  0  0
  -11.8202   -4.7978   12.7538 O   0  0  0  0  0  0  0  0  0  0  0  0
  2  1  1  0  0  0
  2  3  1  0  0  0
  3  4  1  0  0  0
  4  5  1  0  0  0
  5  6  1  0  0  0
  6  7  1  0  0  0
  7  8  1  0  0  0
  8  9  1  0  0  0
  9 10  2  0  0  0
 10 11  1  0  0  0
 11 12  2  0  0  0
 11 13  1  0  0  0
 13 14  1  0  0  0
 14 15  1  0  0  0
 15 16  1  0  0  0
  6 17  1  0  0  0
 17 18  1  0  0  0
 18 19  1  0  0  0
 19 20  1  0  0  0
 20 21  2  0  0  0
 17  2  1  0  0  0
 20  2  1  0  0  0
 15  5  1  0  0  0
 15  9  1  0  0  0
M  END
> <minimizedAffinity>
3.93711

> <CNNscore>
0.4620513618

> <CNNaffinity>
5.6707696915

> <CNN_VS>
2.6201868057

> <CNNaffinity_variance>
0.3739676476

$$$$
[H]C1=C2C([H])([H])C([H])([H])[C@@]3([H])[C@]4([H])C([H])([H])C([H])([H])C(=O)[C@@]4(C([H])([H])[H])C([H])([H])C([H])([H])[C@]3([H])[C@@]2(C([H])([H])[H])C([H])([H])C([H])([H])C1=O


 21 24  0  0  0  0  0  0  0  0999 V2000
  -11.9539  -10.7702    7.9290 C   0  0  0  0  0  0  0  0  0  0  0  0
  -11.1542   -9.7470    7.1647 C   0  0  0  0  0  0  0  0  0  0  0  0
  -10.0727   -9.1621    8.0054 C   0  0  0  0  0  0  0  0  0  0  0  0
  -10.4039   -7.9462    8.7623 C   0  0  0  0  0  0  0  0  0  0  0  0
  -11.6884   -7.2676    8.5315 C   0  0  0  0  0  0  0  0  0  0  0  0
  -12.7432   -8.0760    7.8026 C   0  0  0  0  0  0  0  0  0  0  0  0
  -13.8509   -7.1948    7.2969 C   0  0  0  0  0  0  0  0  0  0  0  0
  -14.3938   -6.2320    8.2923 C   0  0  0  0  0  0  0  0  0  0  0  0
  -13.4043   -5.7791    9.3044 C   0  0  0  0  0  0  0  0  0  0  0  0
  -13.5844   -4.5296    9.7565 C   0  0  0  0  0  0  0  0  0  0  0  0
  -12.7095   -3.9415   10.7410 C   0  0  0  0  0  0  0  0  0  0  0  0
  -12.6839   -2.7285   10.9993 O   0  0  0  0  0  0  0  0  0  0  0  0
  -11.7986   -4.8479   11.4750 C   0  0  0  0  0  0  0  0  0  0  0  0
  -11.2420   -5.8204   10.4539 C   0  0  0  0  0  0  0  0  0  0  0  0
  -12.2974   -6.6444    9.7826 C   0  0  0  0  0  0  0  0  0  0  0  0
  -12.7794   -7.6935   10.7494 C   0  0  0  0  0  0  0  0  0  0  0  0
  -12.0148   -8.6306    6.6125 C   0  0  0  0  0  0  0  0  0  0  0  0
  -12.8537   -9.3401    5.6167 C   0  0  0  0  0  0  0  0  0  0  0  0
  -11.8472  -10.3067    4.9776 C   0  0  0  0  0  0  0  0  0  0  0  0
  -10.6976  -10.3610    5.9069 C   0  0  0  0  0  0  0  0  0  0  0  0
   -9.6039  -10.8140    5.6898 O   0  0  0  0  0  0  0  0  0  0  0  0
  2  1  1  0  0  0
  2  3  1  0  0  0
  3  4  1  0  0  0
  4  5  1  0  0  0
  5  6  1  0  0  0
  6  7  1  0  0  0
  7  8  1  0  0  0
  8  9  1  0  0  0
  9 10  2  0  0  0
 10 11  1  0  0  0
 11 12  2  0  0  0
 11 13  1  0  0  0
 13 14  1  0  0  0
 14 15  1  0  0  0
 15 16  1  0  0  0
  6 17  1  0  0  0
 17 18  1  0  0  0
 18 19  1  0  0  0
 19 20  1  0  0  0
 20 21  2  0  0  0
 17  2  1  0  0  0
 20  2  1  0  0  0
 15  5  1  0  0  0
 15  9  1  0  0  0
M  END
> <minimizedAffinity>
5.47758

> <CNNscore>
0.4215911031

> <CNNaffinity>
5.9725193977

> <CNN_VS>
2.5179610252

> <CNNaffinity_variance>
0.7047961950

$$$$
[H]C1=C2C([H])([H])C([H])([H])[C@@]3([H])[C@]4([H])C([H])([H])C([H])([H])C(=O)[C@@]4(C([H])([H])[H])C([H])([H])C([H])([H])[C@]3([H])[C@@]2(C([H])([H])[H])C([H])([H])C([H])([H])C1=O


 21 24  0  0  0  0  0  0  0  0999 V2000
   -6.3854   -6.0443    6.3830 C   0  0  0  0  0  0  0  0  0  0  0  0
   -6.3083   -7.2304    7.3092 C   0  0  0  0  0  0  0  0  0  0  0  0
   -6.8557   -6.9063    8.6560 C   0  0  0  0  0  0  0  0  0  0  0  0
   -5.9037   -6.4014    9.6559 C   0  0  0  0  0  0  0  0  0  0  0  0
   -4.4626   -6.4054    9.3619 C   0  0  0  0  0  0  0  0  0  0  0  0
   -4.0842   -6.5799    7.9045 C   0  0  0  0  0  0  0  0  0  0  0  0
   -2.6319   -6.9385    7.7585 C   0  0  0  0  0  0  0  0  0  0  0  0
   -1.6923   -6.0904    8.5399 C   0  0  0  0  0  0  0  0  0  0  0  0
   -2.2643   -5.5491    9.8002 C   0  0  0  0  0  0  0  0  0  0  0  0
   -1.3839   -5.3786   10.7972 C   0  0  0  0  0  0  0  0  0  0  0  0
   -1.7804   -4.8621   12.0843 C   0  0  0  0  0  0  0  0  0  0  0  0
   -1.0670   -4.9219   13.0972 O   0  0  0  0  0  0  0  0  0  0  0  0
   -3.1141   -4.2288   12.1859 C   0  0  0  0  0  0  0  0  0  0  0  0
   -4.0682   -5.1023   11.3955 C   0  0  0  0  0  0  0  0  0  0  0  0
   -3.7039   -5.2196    9.9474 C   0  0  0  0  0  0  0  0  0  0  0  0
   -4.0612   -3.9320    9.2532 C   0  0  0  0  0  0  0  0  0  0  0  0
   -4.8982   -7.7604    7.4589 C   0  0  0  0  0  0  0  0  0  0  0  0
   -4.6043   -8.2686    6.0972 C   0  0  0  0  0  0  0  0  0  0  0  0
   -5.9366   -8.9204    5.7021 C   0  0  0  0  0  0  0  0  0  0  0  0
   -6.9420   -8.3803    6.6431 C   0  0  0  0  0  0  0  0  0  0  0  0
   -8.0574   -8.7901    6.8344 O   0  0  0  0  0  0  0  0  0  0  0  0
  2  1  1  0  0  0
  2  3  1  0  0  0
  3  4  1  0  0  0
  4  5  1  0  0  0
  5  6  1  0  0  0
  6  7  1  0  0  0
  7  8  1  0  0  0
  8  9  1  0  0  0
  9 10  2  0  0  0
 10 11  1  0  0  0
 11 12  2  0  0  0
 11 13  1  0  0  0
 13 14  1  0  0  0
 14 15  1  0  0  0
 15 16  1  0  0  0
  6 17  1  0  0  0
 17 18  1  0  0  0
 18 19  1  0  0  0
 19 20  1  0  0  0
 20 21  2  0  0  0
 17  2  1  0  0  0
 20  2  1  0  0  0
 15  5  1  0  0  0
 15  9  1  0  0  0
M  END
> <minimizedAffinity>
-2.12412

> <CNNscore>
0.4061414599

> <CNNaffinity>
4.8086400032

> <CNN_VS>
1.9529880285

> <CNNaffinity_variance>
0.4845168591

$$$$
[H]C1=C2C([H])([H])C([H])([H])[C@@]3([H])[C@]4([H])C([H])([H])C([H])([H])C(=O)[C@@]4(C([H])([H])[H])C([H])([H])C([H])([H])[C@]3([H])[C@@]2(C([H])([H])[H])C([H])([H])C([H])([H])C1=O


 21 24  0  0  0  0  0  0  0  0999 V2000
   -3.4551   -9.0472    5.3907 C   0  0  0  0  0  0  0  0  0  0  0  0
   -3.3981   -8.0949    6.5571 C   0  0  0  0  0  0  0  0  0  0  0  0
   -3.9180   -8.7266    7.8018 C   0  0  0  0  0  0  0  0  0  0  0  0
   -5.3519   -8.5622    8.0812 C   0  0  0  0  0  0  0  0  0  0  0  0
   -6.1607   -7.6586    7.2489 C   0  0  0  0  0  0  0  0  0  0  0  0
   -5.5443   -7.2457    5.9271 C   0  0  0  0  0  0  0  0  0  0  0  0
   -6.2590   -6.0611    5.3398 C   0  0  0  0  0  0  0  0  0  0  0  0
   -7.7426   -6.1675    5.3192 C   0  0  0  0  0  0  0  0  0  0  0  0
   -8.3104   -6.9825    6.4246 C   0  0  0  0  0  0  0  0  0  0  0  0
   -9.5239   -6.5998    6.8480 C   0  0  0  0  0  0  0  0  0  0  0  0
  -10.2114   -7.2874    7.9134 C   0  0  0  0  0  0  0  0  0  0  0  0
  -11.2037   -6.8278    8.4989 O   0  0  0  0  0  0  0  0  0  0  0  0
   -9.6928   -8.6130    8.3187 C   0  0  0  0  0  0  0  0  0  0  0  0
   -8.1817   -8.4953    8.3465 C   0  0  0  0  0  0  0  0  0  0  0  0
   -7.5901   -8.1364    7.0181 C   0  0  0  0  0  0  0  0  0  0  0  0
   -7.6349   -9.3483    6.1255 C   0  0  0  0  0  0  0  0  0  0  0  0
   -4.1556   -6.8104    6.2965 C   0  0  0  0  0  0  0  0  0  0  0  0
   -3.3633   -6.1907    5.2070 C   0  0  0  0  0  0  0  0  0  0  0  0
   -1.9232   -6.4925    5.6440 C   0  0  0  0  0  0  0  0  0  0  0  0
   -2.0279   -7.5657    6.6567 C   0  0  0  0  0  0  0  0  0  0  0  0
   -1.1716   -7.9399    7.4152 O   0  0  0  0  0  0  0  0  0  0  0  0
  2  1  1  0  0  0
  2  3  1  0  0  0
  3  4  1  0  0  0
  4  5  1  0  0  0
  5  6  1  0  0  0
  6  7  1  0  0  0
  7  8  1  0  0  0
  8  9  1  0  0  0
  9 10  2  0  0  0
 10 11  1  0  0  0
 11 12  2  0  0  0
 11 13  1  0  0  0
 13 14  1  0  0  0
 14 15  1  0  0  0
 15 16  1  0  0  0
  6 17  1  0  0  0
 17 18  1  0  0  0
 18 19  1  0  0  0
 19 20  1  0  0  0
 20 21  2  0  0  0
 17  2  1  0  0  0
 20  2  1  0  0  0
 15  5  1  0  0  0
 15  9  1  0  0  0
M  END
> <minimizedAffinity>
-1.18919

> <CNNscore>
0.3757567406

> <CNNaffinity>
5.1504735947

> <CNN_VS>
1.9353251457

> <CNNaffinity_variance>
0.4075489938

$$$$
[H]C1=C2C([H])([H])C([H])([H])[C@@]3([H])[C@]4([H])C([H])([H])C([H])([H])C(=O)[C@@]4(C([H])([H])[H])C([H])([H])C([H])([H])[C@]3([H])[C@@]2(C([H])([H])[H])C([H])([H])C([H])([H])C1=O


 21 24  0  0  0  0  0  0  0  0999 V2000
   -8.6173   -6.9225    6.2634 C   0  0  0  0  0  0  0  0  0  0  0  0
   -8.4673   -7.8227    7.4625 C   0  0  0  0  0  0  0  0  0  0  0  0
   -8.3805   -7.0377    8.7254 C   0  0  0  0  0  0  0  0  0  0  0  0
   -7.0352   -6.6553    9.1785 C   0  0  0  0  0  0  0  0  0  0  0  0
   -5.8511   -7.1963    8.4938 C   0  0  0  0  0  0  0  0  0  0  0  0
   -6.0978   -7.8144    7.1320 C   0  0  0  0  0  0  0  0  0  0  0  0
   -4.9279   -8.6501    6.6937 C   0  0  0  0  0  0  0  0  0  0  0  0
   -3.5986   -7.9991    6.8413 C   0  0  0  0  0  0  0  0  0  0  0  0
   -3.5174   -7.0268    7.9622 C   0  0  0  0  0  0  0  0  0  0  0  0
   -2.3130   -6.9283    8.5435 C   0  0  0  0  0  0  0  0  0  0  0  0
   -2.0694   -6.0298    9.6453 C   0  0  0  0  0  0  0  0  0  0  0  0
   -1.0610   -6.0845   10.3656 O   0  0  0  0  0  0  0  0  0  0  0  0
   -3.0874   -4.9910    9.9187 C   0  0  0  0  0  0  0  0  0  0  0  0
   -4.4389   -5.6627    9.7757 C   0  0  0  0  0  0  0  0  0  0  0  0
   -4.6818   -6.2216    8.4074 C   0  0  0  0  0  0  0  0  0  0  0  0
   -4.9737   -5.0837    7.4652 C   0  0  0  0  0  0  0  0  0  0  0  0
   -7.2630   -8.7339    7.3585 C   0  0  0  0  0  0  0  0  0  0  0  0
   -7.6250   -9.6086    6.2170 C   0  0  0  0  0  0  0  0  0  0  0  0
   -9.1179   -9.8628    6.4667 C   0  0  0  0  0  0  0  0  0  0  0  0
   -9.5464   -8.8237    7.4283 C   0  0  0  0  0  0  0  0  0  0  0  0
  -10.5696   -8.7920    8.0613 O   0  0  0  0  0  0  0  0  0  0  0  0
  2  1  1  0  0  0
  2  3  1  0  0  0
  3  4  1  0  0  0
  4  5  1  0  0  0
  5  6  1  0  0  0
  6  7  1  0  0  0
  7  8  1  0  0  0
  8  9  1  0  0  0
  9 10  2  0  0  0
 10 11  1  0  0  0
 11 12  2  0  0  0
 11 13  1  0  0  0
 13 14  1  0  0  0
 14 15  1  0  0  0
 15 16  1  0  0  0
  6 17  1  0  0  0
 17 18  1  0  0  0
 18 19  1  0  0  0
 19 20  1  0  0  0
 20 21  2  0  0  0
 17  2  1  0  0  0
 20  2  1  0  0  0
 15  5  1  0  0  0
 15  9  1  0  0  0
M  END
> <minimizedAffinity>
-2.61218

> <CNNscore>
0.3537170291

> <CNNaffinity>
5.0080599785

> <CNN_VS>
1.7714360952

> <CNNaffinity_variance>
0.4159731269

$$$$
[H]C1=C2C([H])([H])C([H])([H])[C@@]3([H])[C@]4([H])C([H])([H])C([H])([H])C(=O)[C@@]4(C([H])([H])[H])C([H])([H])C([H])([H])[C@]3([H])[C@@]2(C([H])([H])[H])C([H])([H])C([H])([H])C1=O


 21 24  0  0  0  0  0  0  0  0999 V2000
  -15.6624   -8.8511    7.3817 C   0  0  0  0  0  0  0  0  0  0  0  0
  -14.9996   -8.3505    6.1244 C   0  0  0  0  0  0  0  0  0  0  0  0
  -14.1738   -9.4120    5.4843 C   0  0  0  0  0  0  0  0  0  0  0  0
  -12.7603   -9.4841    5.8820 C   0  0  0  0  0  0  0  0  0  0  0  0
  -12.1840   -8.4295    6.7301 C   0  0  0  0  0  0  0  0  0  0  0  0
  -13.1786   -7.5379    7.4464 C   0  0  0  0  0  0  0  0  0  0  0  0
  -12.5160   -6.2949    7.9708 C   0  0  0  0  0  0  0  0  0  0  0  0
  -11.2484   -6.5232    8.7149 C   0  0  0  0  0  0  0  0  0  0  0  0
  -10.4820   -7.7133    8.2624 C   0  0  0  0  0  0  0  0  0  0  0  0
   -9.1501   -7.6099    8.3782 C   0  0  0  0  0  0  0  0  0  0  0  0
   -8.2653   -8.6781    7.9827 C   0  0  0  0  0  0  0  0  0  0  0  0
   -7.0414   -8.5374    7.8375 O   0  0  0  0  0  0  0  0  0  0  0  0
   -8.8652  -10.0092    7.7409 C   0  0  0  0  0  0  0  0  0  0  0  0
  -10.1513   -9.7703    6.9747 C   0  0  0  0  0  0  0  0  0  0  0  0
  -11.1398   -8.9292    7.7223 C   0  0  0  0  0  0  0  0  0  0  0  0
  -11.7604   -9.7648    8.8105 C   0  0  0  0  0  0  0  0  0  0  0  0
  -14.1394   -7.1288    6.3675 C   0  0  0  0  0  0  0  0  0  0  0  0
  -15.1423   -6.1063    6.7515 C   0  0  0  0  0  0  0  0  0  0  0  0
  -16.2947   -6.4055    5.7829 C   0  0  0  0  0  0  0  0  0  0  0  0
  -16.0345   -7.7636    5.2573 C   0  0  0  0  0  0  0  0  0  0  0  0
  -16.5578   -8.2932    4.3116 O   0  0  0  0  0  0  0  0  0  0  0  0
  2  1  1  0  0  0
  2  3  1  0  0  0
  3  4  1  0  0  0
  4  5  1  0  0  0
  5  6  1  0  0  0
  6  7  1  0  0  0
  7  8  1  0  0  0
  8  9  1  0  0  0
  9 10  2  0  0  0
 10 11  1  0  0  0
 11 12  2  0  0  0
 11 13  1  0  0  0
 13 14  1  0  0  0
 14 15  1  0  0  0
 15 16  1  0  0  0
  6 17  1  0  0  0
 17 18  1  0  0  0
 18 19  1  0  0  0
 19 20  1  0  0  0
 20 21  2  0  0  0
 17  2  1  0  0  0
 20  2  1  0  0  0
 15  5  1  0  0  0
 15  9  1  0  0  0
M  END
> <minimizedAffinity>
-6.06916

> <CNNscore>
0.2556941509

> <CNNaffinity>
5.9222283363

> <CNN_VS>
1.5142791271

> <CNNaffinity_variance>
0.0456318632

$$$$
[H]C1=C2C([H])([H])C([H])([H])[C@@]3([H])[C@]4([H])C([H])([H])C([H])([H])C(=O)[C@@]4(C([H])([H])[H])C([H])([H])C([H])([H])[C@]3([H])[C@@]2(C([H])([H])[H])C([H])([H])C([H])([H])C1=O


 21 24  0  0  0  0  0  0  0  0999 V2000
   -4.3338   -5.0030   11.7369 C   0  0  0  0  0  0  0  0  0  0  0  0
   -3.1111   -4.1859   11.4084 C   0  0  0  0  0  0  0  0  0  0  0  0
   -3.4348   -3.0734   10.4724 C   0  0  0  0  0  0  0  0  0  0  0  0
   -3.3047   -3.3553    9.0354 C   0  0  0  0  0  0  0  0  0  0  0  0
   -2.7056   -4.6225    8.5896 C   0  0  0  0  0  0  0  0  0  0  0  0
   -2.6059   -5.7131    9.6374 C   0  0  0  0  0  0  0  0  0  0  0  0
   -1.6661   -6.8022    9.2016 C   0  0  0  0  0  0  0  0  0  0  0  0
   -1.8779   -7.2993    7.8157 C   0  0  0  0  0  0  0  0  0  0  0  0
   -2.4175   -6.2799    6.8786 C   0  0  0  0  0  0  0  0  0  0  0  0
   -2.0246   -6.4149    5.6036 C   0  0  0  0  0  0  0  0  0  0  0  0
   -2.4602   -5.5064    4.5714 C   0  0  0  0  0  0  0  0  0  0  0  0
   -1.9356   -5.4401    3.4493 O   0  0  0  0  0  0  0  0  0  0  0  0
   -3.5965   -4.6109    4.8832 C   0  0  0  0  0  0  0  0  0  0  0  0
   -3.3700   -4.1009    6.2927 C   0  0  0  0  0  0  0  0  0  0  0  0
   -3.3257   -5.1916    7.3183 C   0  0  0  0  0  0  0  0  0  0  0  0
   -4.7271   -5.6886    7.5564 C   0  0  0  0  0  0  0  0  0  0  0  0
   -1.9937   -5.0217   10.8213 C   0  0  0  0  0  0  0  0  0  0  0  0
   -1.6224   -5.8980   11.9585 C   0  0  0  0  0  0  0  0  0  0  0  0
   -1.6995   -4.9318   13.1485 C   0  0  0  0  0  0  0  0  0  0  0  0
   -2.4794   -3.7689   12.6712 C   0  0  0  0  0  0  0  0  0  0  0  0
   -2.5842   -2.6931   13.2005 O   0  0  0  0  0  0  0  0  0  0  0  0
  2  1  1  0  0  0
  2  3  1  0  0  0
  3  4  1  0  0  0
  4  5  1  0  0  0
  5  6  1  0  0  0
  6  7  1  0  0  0
  7  8  1  0  0  0
  8  9  1  0  0  0
  9 10  2  0  0  0
 10 11  1  0  0  0
 11 12  2  0  0  0
 11 13  1  0  0  0
 13 14  1  0  0  0
 14 15  1  0  0  0
 15 16  1  0  0  0
  6 17  1  0  0  0
 17 18  1  0  0  0
 18 19  1  0  0  0
 19 20  1  0  0  0
 20 21  2  0  0  0
 17  2  1  0  0  0
 20  2  1  0  0  0
 15  5  1  0  0  0
 15  9  1  0  0  0
M  END
> <minimizedAffinity>
-3.79176

> <CNNscore>
0.2506123483

> <CNNaffinity>
4.3665122986

> <CNN_VS>
1.0943019390

> <CNNaffinity_variance>
0.1967312545

$$$$
[H]C1=C2C([H])([H])C([H])([H])[C@@]3([H])[C@]4([H])C([H])([H])C([H])([H])C(=O)[C@@]4(C([H])([H])[H])C([H])([H])C([H])([H])[C@]3([H])[C@@]2(C([H])([H])[H])C([H])([H])C([H])([H])C1=O


 21 24  0  0  0  0  0  0  0  0999 V2000
   -7.4565   -7.9509    9.2210 C   0  0  0  0  0  0  0  0  0  0  0  0
   -7.6501   -7.3391    7.8576 C   0  0  0  0  0  0  0  0  0  0  0  0
   -8.5318   -6.1402    7.9188 C   0  0  0  0  0  0  0  0  0  0  0  0
   -9.9722   -6.3647    7.7286 C   0  0  0  0  0  0  0  0  0  0  0  0
  -10.4581   -7.6906    7.3173 C   0  0  0  0  0  0  0  0  0  0  0  0
   -9.4784   -8.8355    7.4812 C   0  0  0  0  0  0  0  0  0  0  0  0
   -9.9204  -10.0451    6.7061 C   0  0  0  0  0  0  0  0  0  0  0  0
  -11.3464  -10.4254    6.8917 C   0  0  0  0  0  0  0  0  0  0  0  0
  -12.2496   -9.2811    7.1806 C   0  0  0  0  0  0  0  0  0  0  0  0
  -13.5018   -9.4145    6.7198 C   0  0  0  0  0  0  0  0  0  0  0  0
  -14.4999   -8.3921    6.9177 C   0  0  0  0  0  0  0  0  0  0  0  0
  -15.5782   -8.3580    6.3056 O   0  0  0  0  0  0  0  0  0  0  0  0
  -14.2069   -7.3329    7.9089 C   0  0  0  0  0  0  0  0  0  0  0  0
  -12.7556   -6.9436    7.7085 C   0  0  0  0  0  0  0  0  0  0  0  0
  -11.8017   -8.0779    7.9251 C   0  0  0  0  0  0  0  0  0  0  0  0
  -11.6894   -8.3394    9.4038 C   0  0  0  0  0  0  0  0  0  0  0  0
   -8.2145   -8.3219    6.8541 C   0  0  0  0  0  0  0  0  0  0  0  0
   -7.1142   -9.3072    6.7220 C   0  0  0  0  0  0  0  0  0  0  0  0
   -5.8720   -8.4056    6.7270 C   0  0  0  0  0  0  0  0  0  0  0  0
   -6.3240   -7.1030    7.2632 C   0  0  0  0  0  0  0  0  0  0  0  0
   -5.7346   -6.0543    7.2268 O   0  0  0  0  0  0  0  0  0  0  0  0
  2  1  1  0  0  0
  2  3  1  0  0  0
  3  4  1  0  0  0
  4  5  1  0  0  0
  5  6  1  0  0  0
  6  7  1  0  0  0
  7  8  1  0  0  0
  8  9  1  0  0  0
  9 10  2  0  0  0
 10 11  1  0  0  0
 11 12  2  0  0  0
 11 13  1  0  0  0
 13 14  1  0  0  0
 14 15  1  0  0  0
 15 16  1  0  0  0
  6 17  1  0  0  0
 17 18  1  0  0  0
 18 19  1  0  0  0
 19 20  1  0  0  0
 20 21  2  0  0  0
 17  2  1  0  0  0
 20  2  1  0  0  0
 15  5  1  0  0  0
 15  9  1  0  0  0
M  END
> <minimizedAffinity>
-7.82006

> <CNNscore>
0.2188825160

> <CNNaffinity>
5.7935681343

> <CNN_VS>
1.2681107521

> <CNNaffinity_variance>
0.0496555455

$$$$
[H]OC1([H])C([H])([H])C([H])([H])[C@]2([H])[C@]1(C([H])([H])[H])C([H])([H])C([H])([H])[C@]1([H])[C@]3(C([H])([H])[H])C(=C([H])C(=O)C([H])([H])C3([H])[H])C([H])([H])C([H])([H])[C@@]21[H]


 22 25  0  0  0  0  0  0  0  0999 V2000
   -5.4907   -4.7137    7.5266 C   0  0  0  0  0  0  0  0  0  0  0  0
   -4.7856   -5.9804    7.9310 C   0  0  0  0  0  0  0  0  0  0  0  0
   -4.4779   -6.8431    6.7617 C   0  0  0  0  0  0  0  0  0  0  0  0
   -5.7908   -7.1988    6.0867 C   0  0  0  0  0  0  0  0  0  0  0  0
   -6.6507   -7.9845    7.0458 C   0  0  0  0  0  0  0  0  0  0  0  0
   -6.9338   -7.2110    8.3284 C   0  0  0  0  0  0  0  0  0  0  0  0
   -7.5434   -8.2376    9.2923 C   0  0  0  0  0  0  0  0  0  0  0  0
   -8.8166   -8.8159    8.7301 C   0  0  0  0  0  0  0  0  0  0  0  0
   -8.6406   -9.3199    7.3628 C   0  0  0  0  0  0  0  0  0  0  0  0
   -9.1559  -10.5104    7.0386 C   0  0  0  0  0  0  0  0  0  0  0  0
   -8.9960  -11.0268    5.7013 C   0  0  0  0  0  0  0  0  0  0  0  0
   -9.1160  -12.2524    5.4595 O   0  0  0  0  0  0  0  0  0  0  0  0
   -8.6822  -10.0384    4.6221 C   0  0  0  0  0  0  0  0  0  0  0  0
   -7.5269   -9.2047    5.1354 C   0  0  0  0  0  0  0  0  0  0  0  0
   -7.8981   -8.4905    6.3916 C   0  0  0  0  0  0  0  0  0  0  0  0
   -8.7855   -7.3191    6.0279 C   0  0  0  0  0  0  0  0  0  0  0  0
   -5.6259   -6.8130    8.9022 C   0  0  0  0  0  0  0  0  0  0  0  0
   -5.6755   -5.9109   10.0812 C   0  0  0  0  0  0  0  0  0  0  0  0
   -4.2701   -5.3406   10.1338 C   0  0  0  0  0  0  0  0  0  0  0  0
   -3.6072   -5.6872    8.8212 C   0  0  0  0  0  0  0  0  0  0  0  0
   -2.7975   -4.6862    8.3410 O   0  0  0  0  0  0  0  0  0  0  0  0
   -3.0878   -4.2720    7.5068 H   0  0  0  0  0  0  0  0  0  0  0  0
  2  1  1  0  0  0
  2  3  1  0  0  0
  3  4  1  0  0  0
  4  5  1  0  0  0
  5  6  1  0  0  0
  6  7  1  0  0  0
  7  8  1  0  0  0
  8  9  1  0  0  0
  9 10  2  0  0  0
 10 11  1  0  0  0
 11 12  2  0  0  0
 11 13  1  0  0  0
 13 14  1  0  0  0
 14 15  1  0  0  0
 15 16  1  0  0  0
  6 17  1  0  0  0
 17 18  1  0  0  0
 18 19  1  0  0  0
 19 20  1  0  0  0
 20 21  1  0  0  0
 17  2  1  0  0  0
 20  2  1  0  0  0
 15  5  1  0  0  0
 15  9  1  0  0  0
 21 22  1  0  0  0
M  END
> <minimizedAffinity>
9.93489

> <CNNscore>
0.5211323500

> <CNNaffinity>
5.1355237961

> <CNN_VS>
2.6762876511

> <CNNaffinity_variance>
0.6507633328

$$$$
[H]OC1([H])C([H])([H])C([H])([H])[C@]2([H])[C@]1(C([H])([H])[H])C([H])([H])C([H])([H])[C@]1([H])[C@]3(C([H])([H])[H])C(=C([H])C(=O)C([H])([H])C3([H])[H])C([H])([H])C([H])([H])[C@@]21[H]


 22 25  0  0  0  0  0  0  0  0999 V2000
  -12.7324  -10.0106    9.0534 C   0  0  0  0  0  0  0  0  0  0  0  0
  -12.9089   -8.9846    7.9664 C   0  0  0  0  0  0  0  0  0  0  0  0
  -12.2798   -9.4122    6.6907 C   0  0  0  0  0  0  0  0  0  0  0  0
  -10.7968   -9.6145    6.9473 C   0  0  0  0  0  0  0  0  0  0  0  0
  -10.1779   -8.3045    7.3685 C   0  0  0  0  0  0  0  0  0  0  0  0
  -10.8355   -7.7354    8.6203 C   0  0  0  0  0  0  0  0  0  0  0  0
  -10.3117   -6.2975    8.7330 C   0  0  0  0  0  0  0  0  0  0  0  0
   -8.8107   -6.2791    8.8677 C   0  0  0  0  0  0  0  0  0  0  0  0
   -8.1501   -7.0692    7.8218 C   0  0  0  0  0  0  0  0  0  0  0  0
   -7.0832   -6.5580    7.1987 C   0  0  0  0  0  0  0  0  0  0  0  0
   -6.4172   -7.3154    6.1675 C   0  0  0  0  0  0  0  0  0  0  0  0
   -5.6834   -6.7525    5.3193 O   0  0  0  0  0  0  0  0  0  0  0  0
   -6.6408   -8.7952    6.1569 C   0  0  0  0  0  0  0  0  0  0  0  0
   -8.1393   -8.9969    6.2411 C   0  0  0  0  0  0  0  0  0  0  0  0
   -8.6900   -8.4049    7.4950 C   0  0  0  0  0  0  0  0  0  0  0  0
   -8.3444   -9.3250    8.6466 C   0  0  0  0  0  0  0  0  0  0  0  0
  -12.2901   -7.6384    8.3501 C   0  0  0  0  0  0  0  0  0  0  0  0
  -13.1452   -7.2496    9.5007 C   0  0  0  0  0  0  0  0  0  0  0  0
  -14.5315   -7.6775    9.0554 C   0  0  0  0  0  0  0  0  0  0  0  0
  -14.3491   -8.5626    7.8448 C   0  0  0  0  0  0  0  0  0  0  0  0
  -15.2255   -9.6204    7.8087 O   0  0  0  0  0  0  0  0  0  0  0  0
  -14.8227  -10.5052    7.8894 H   0  0  0  0  0  0  0  0  0  0  0  0
  2  1  1  0  0  0
  2  3  1  0  0  0
  3  4  1  0  0  0
  4  5  1  0  0  0
  5  6  1  0  0  0
  6  7  1  0  0  0
  7  8  1  0  0  0
  8  9  1  0  0  0
  9 10  2  0  0  0
 10 11  1  0  0  0
 11 12  2  0  0  0
 11 13  1  0  0  0
 13 14  1  0  0  0
 14 15  1  0  0  0
 15 16  1  0  0  0
  6 17  1  0  0  0
 17 18  1  0  0  0
 18 19  1  0  0  0
 19 20  1  0  0  0
 20 21  1  0  0  0
 17  2  1  0  0  0
 20  2  1  0  0  0
 15  5  1  0  0  0
 15  9  1  0  0  0
 21 22  1  0  0  0
M  END
> <minimizedAffinity>
-7.46772

> <CNNscore>
0.4547117352

> <CNNaffinity>
6.1190633774

> <CNN_VS>
2.7824099064

> <CNNaffinity_variance>
0.2222030163

$$$$
[H]OC1([H])C([H])([H])C([H])([H])[C@]2([H])[C@]1(C([H])([H])[H])C([H])([H])C([H])([H])[C@]1([H])[C@]3(C([H])([H])[H])C(=C([H])C(=O)C([H])([H])C3([H])[H])C([H])([H])C([H])([H])[C@@]21[H]


 22 25  0  0  0  0  0  0  0  0999 V2000
  -18.0314   -6.3708    6.0323 C   0  0  0  0  0  0  0  0  0  0  0  0
  -17.4489   -7.5894    5.3681 C   0  0  0  0  0  0  0  0  0  0  0  0
  -17.1907   -8.6824    6.3400 C   0  0  0  0  0  0  0  0  0  0  0  0
  -16.2084   -8.1633    7.3751 C   0  0  0  0  0  0  0  0  0  0  0  0
  -14.9071   -7.8098    6.6982 C   0  0  0  0  0  0  0  0  0  0  0  0
  -15.0939   -6.7621    5.6070 C   0  0  0  0  0  0  0  0  0  0  0  0
  -13.7676   -6.7420    4.8357 C   0  0  0  0  0  0  0  0  0  0  0  0
  -12.6227   -6.3661    5.7410 C   0  0  0  0  0  0  0  0  0  0  0  0
  -12.5866   -7.1846    6.9588 C   0  0  0  0  0  0  0  0  0  0  0  0
  -11.4162   -7.6822    7.3719 C   0  0  0  0  0  0  0  0  0  0  0  0
  -11.3554   -8.4894    8.5657 C   0  0  0  0  0  0  0  0  0  0  0  0
  -10.3940   -9.2683    8.7750 O   0  0  0  0  0  0  0  0  0  0  0  0
  -12.4860   -8.3553    9.5373 C   0  0  0  0  0  0  0  0  0  0  0  0
  -13.7580   -8.4941    8.7274 C   0  0  0  0  0  0  0  0  0  0  0  0
  -13.8489   -7.4296    7.6860 C   0  0  0  0  0  0  0  0  0  0  0  0
  -14.2373   -6.1330    8.3644 C   0  0  0  0  0  0  0  0  0  0  0  0
  -16.1224   -7.2771    4.6714 C   0  0  0  0  0  0  0  0  0  0  0  0
  -16.5716   -6.3388    3.6112 C   0  0  0  0  0  0  0  0  0  0  0  0
  -17.8811   -6.9497    3.1474 C   0  0  0  0  0  0  0  0  0  0  0  0
  -18.2621   -7.9964    4.1680 C   0  0  0  0  0  0  0  0  0  0  0  0
  -19.6127   -8.0460    4.4167 O   0  0  0  0  0  0  0  0  0  0  0  0
  -19.8855   -7.7926    5.3183 H   0  0  0  0  0  0  0  0  0  0  0  0
  2  1  1  0  0  0
  2  3  1  0  0  0
  3  4  1  0  0  0
  4  5  1  0  0  0
  5  6  1  0  0  0
  6  7  1  0  0  0
  7  8  1  0  0  0
  8  9  1  0  0  0
  9 10  2  0  0  0
 10 11  1  0  0  0
 11 12  2  0  0  0
 11 13  1  0  0  0
 13 14  1  0  0  0
 14 15  1  0  0  0
 15 16  1  0  0  0
  6 17  1  0  0  0
 17 18  1  0  0  0
 18 19  1  0  0  0
 19 20  1  0  0  0
 20 21  1  0  0  0
 17  2  1  0  0  0
 20  2  1  0  0  0
 15  5  1  0  0  0
 15  9  1  0  0  0
 21 22  1  0  0  0
M  END
> <minimizedAffinity>
0.47426

> <CNNscore>
0.4497424960

> <CNNaffinity>
6.2283759117

> <CNN_VS>
2.8011653423

> <CNNaffinity_variance>
0.3538555503

$$$$
[H]OC1([H])C([H])([H])C([H])([H])[C@]2([H])[C@]1(C([H])([H])[H])C([H])([H])C([H])([H])[C@]1([H])[C@]3(C([H])([H])[H])C(=C([H])C(=O)C([H])([H])C3([H])[H])C([H])([H])C([H])([H])[C@@]21[H]


 22 25  0  0  0  0  0  0  0  0999 V2000
  -15.4369   -8.5473    6.9601 C   0  0  0  0  0  0  0  0  0  0  0  0
  -14.6426   -7.9940    5.8076 C   0  0  0  0  0  0  0  0  0  0  0  0
  -13.8209   -9.0395    5.1459 C   0  0  0  0  0  0  0  0  0  0  0  0
  -12.8656   -9.6060    6.1814 C   0  0  0  0  0  0  0  0  0  0  0  0
  -11.9458   -8.5124    6.6660 C   0  0  0  0  0  0  0  0  0  0  0  0
  -12.7137   -7.3431    7.2714 C   0  0  0  0  0  0  0  0  0  0  0  0
  -11.6800   -6.2202    7.4292 C   0  0  0  0  0  0  0  0  0  0  0  0
  -10.5567   -6.6450    8.3398 C   0  0  0  0  0  0  0  0  0  0  0  0
   -9.9755   -7.9323    7.9406 C   0  0  0  0  0  0  0  0  0  0  0  0
   -8.6450   -8.0636    7.9149 C   0  0  0  0  0  0  0  0  0  0  0  0
   -8.0505   -9.3189    7.5259 C   0  0  0  0  0  0  0  0  0  0  0  0
   -6.8620   -9.3789    7.1273 O   0  0  0  0  0  0  0  0  0  0  0  0
   -8.9121  -10.5391    7.6195 C   0  0  0  0  0  0  0  0  0  0  0  0
  -10.2102  -10.1945    6.9198 C   0  0  0  0  0  0  0  0  0  0  0  0
  -10.8848   -9.0395    7.5806 C   0  0  0  0  0  0  0  0  0  0  0  0
  -11.5246   -9.5319    8.8614 C   0  0  0  0  0  0  0  0  0  0  0  0
  -13.6904   -6.8826    6.2554 C   0  0  0  0  0  0  0  0  0  0  0  0
  -14.6546   -5.8430    6.6982 C   0  0  0  0  0  0  0  0  0  0  0  0
  -15.7505   -5.9262    5.6517 C   0  0  0  0  0  0  0  0  0  0  0  0
  -15.5181   -7.2005    4.8742 C   0  0  0  0  0  0  0  0  0  0  0  0
  -16.6810   -7.8492    4.5349 O   0  0  0  0  0  0  0  0  0  0  0  0
  -16.8141   -8.7221    4.9497 H   0  0  0  0  0  0  0  0  0  0  0  0
  2  1  1  0  0  0
  2  3  1  0  0  0
  3  4  1  0  0  0
  4  5  1  0  0  0
  5  6  1  0  0  0
  6  7  1  0  0  0
  7  8  1  0  0  0
  8  9  1  0  0  0
  9 10  2  0  0  0
 10 11  1  0  0  0
 11 12  2  0  0  0
 11 13  1  0  0  0
 13 14  1  0  0  0
 14 15  1  0  0  0
 15 16  1  0  0  0
  6 17  1  0  0  0
 17 18  1  0  0  0
 18 19  1  0  0  0
 19 20  1  0  0  0
 20 21  1  0  0  0
 17  2  1  0  0  0
 20  2  1  0  0  0
 15  5  1  0  0  0
 15  9  1  0  0  0
 21 22  1  0  0  0
M  END
> <minimizedAffinity>
-4.63243

> <CNNscore>
0.3416096866

> <CNNaffinity>
5.9972677231

> <CNN_VS>
2.0487246513

> <CNNaffinity_variance>
0.1406948268

$$$$
[H]OC1([H])C([H])([H])C([H])([H])[C@]2([H])[C@]1(C([H])([H])[H])C([H])([H])C([H])([H])[C@]1([H])[C@]3(C([H])([H])[H])C(=C([H])C(=O)C([H])([H])C3([H])[H])C([H])([H])C([H])([H])[C@@]21[H]


 22 25  0  0  0  0  0  0  0  0999 V2000
   -9.4055   -7.1076    6.7953 C   0  0  0  0  0  0  0  0  0  0  0  0
   -8.9402   -8.0921    7.8343 C   0  0  0  0  0  0  0  0  0  0  0  0
   -8.4386   -7.4145    9.0572 C   0  0  0  0  0  0  0  0  0  0  0  0
   -7.2728   -6.5289    8.6542 C   0  0  0  0  0  0  0  0  0  0  0  0
   -6.1634   -7.3847    8.0942 C   0  0  0  0  0  0  0  0  0  0  0  0
   -6.6199   -8.2002    6.8901 C   0  0  0  0  0  0  0  0  0  0  0  0
   -5.4953   -9.2135    6.6393 C   0  0  0  0  0  0  0  0  0  0  0  0
   -4.1942   -8.5130    6.3427 C   0  0  0  0  0  0  0  0  0  0  0  0
   -3.8650   -7.5022    7.3548 C   0  0  0  0  0  0  0  0  0  0  0  0
   -2.6162   -7.4412    7.8289 C   0  0  0  0  0  0  0  0  0  0  0  0
   -2.2686   -6.4565    8.8239 C   0  0  0  0  0  0  0  0  0  0  0  0
   -1.2583   -6.5997    9.5544 O   0  0  0  0  0  0  0  0  0  0  0  0
   -3.1639   -5.2631    8.9435 C   0  0  0  0  0  0  0  0  0  0  0  0
   -4.5764   -5.8016    9.0331 C   0  0  0  0  0  0  0  0  0  0  0  0
   -4.9291   -6.5861    7.8140 C   0  0  0  0  0  0  0  0  0  0  0  0
   -5.2046   -5.6140    6.6865 C   0  0  0  0  0  0  0  0  0  0  0  0
   -7.8093   -8.9798    7.3095 C   0  0  0  0  0  0  0  0  0  0  0  0
   -8.5111   -9.7311    6.2375 C   0  0  0  0  0  0  0  0  0  0  0  0
   -9.8684  -10.0167    6.8535 C   0  0  0  0  0  0  0  0  0  0  0  0
   -9.9811   -9.1506    8.0861 C   0  0  0  0  0  0  0  0  0  0  0  0
  -11.2424   -8.6397    8.2772 O   0  0  0  0  0  0  0  0  0  0  0  0
  -11.3206   -7.6700    8.2044 H   0  0  0  0  0  0  0  0  0  0  0  0
  2  1  1  0  0  0
  2  3  1  0  0  0
  3  4  1  0  0  0
  4  5  1  0  0  0
  5  6  1  0  0  0
  6  7  1  0  0  0
  7  8  1  0  0  0
  8  9  1  0  0  0
  9 10  2  0  0  0
 10 11  1  0  0  0
 11 12  2  0  0  0
 11 13  1  0  0  0
 13 14  1  0  0  0
 14 15  1  0  0  0
 15 16  1  0  0  0
  6 17  1  0  0  0
 17 18  1  0  0  0
 18 19  1  0  0  0
 19 20  1  0  0  0
 20 21  1  0  0  0
 17  2  1  0  0  0
 20  2  1  0  0  0
 15  5  1  0  0  0
 15  9  1  0  0  0
 21 22  1  0  0  0
M  END
> <minimizedAffinity>
-3.23160

> <CNNscore>
0.2968819439

> <CNNaffinity>
4.9969344139

> <CNN_VS>
1.4834996462

> <CNNaffinity_variance>
0.3280567229

$$$$
[H]OC1([H])C([H])([H])C([H])([H])[C@]2([H])[C@]1(C([H])([H])[H])C([H])([H])C([H])([H])[C@]1([H])[C@]3(C([H])([H])[H])C(=C([H])C(=O)C([H])([H])C3([H])[H])C([H])([H])C([H])([H])[C@@]21[H]


 22 25  0  0  0  0  0  0  0  0999 V2000
  -12.3614   -6.9582    7.4646 C   0  0  0  0  0  0  0  0  0  0  0  0
  -11.7650   -7.6813    8.6422 C   0  0  0  0  0  0  0  0  0  0  0  0
  -10.8360   -6.8164    9.4135 C   0  0  0  0  0  0  0  0  0  0  0  0
   -9.7201   -6.3820    8.4798 C   0  0  0  0  0  0  0  0  0  0  0  0
   -8.9597   -7.5970    8.0083 C   0  0  0  0  0  0  0  0  0  0  0  0
   -9.8609   -8.5952    7.2907 C   0  0  0  0  0  0  0  0  0  0  0  0
   -9.0194   -9.8707    7.1516 C   0  0  0  0  0  0  0  0  0  0  0  0
   -7.7720   -9.6092    6.3472 C   0  0  0  0  0  0  0  0  0  0  0  0
   -7.0182   -8.4553    6.8519 C   0  0  0  0  0  0  0  0  0  0  0  0
   -5.6908   -8.5531    6.9803 C   0  0  0  0  0  0  0  0  0  0  0  0
   -4.9284   -7.4327    7.4742 C   0  0  0  0  0  0  0  0  0  0  0  0
   -3.7822   -7.5906    7.9602 O   0  0  0  0  0  0  0  0  0  0  0  0
   -5.5644   -6.0812    7.3803 C   0  0  0  0  0  0  0  0  0  0  0  0
   -6.9534   -6.2261    7.9659 C   0  0  0  0  0  0  0  0  0  0  0  0
   -7.7562   -7.2240    7.2006 C   0  0  0  0  0  0  0  0  0  0  0  0
   -8.2006   -6.5822    5.9034 C   0  0  0  0  0  0  0  0  0  0  0  0
  -10.9786   -8.9208    8.2088 C   0  0  0  0  0  0  0  0  0  0  0  0
  -12.0640   -9.7640    7.6456 C   0  0  0  0  0  0  0  0  0  0  0  0
  -13.2107   -9.5351    8.6129 C   0  0  0  0  0  0  0  0  0  0  0  0
  -12.8321   -8.3490    9.4685 C   0  0  0  0  0  0  0  0  0  0  0  0
  -13.8940   -7.5253    9.7552 O   0  0  0  0  0  0  0  0  0  0  0  0
  -13.8462   -6.6275    9.3765 H   0  0  0  0  0  0  0  0  0  0  0  0
  2  1  1  0  0  0
  2  3  1  0  0  0
  3  4  1  0  0  0
  4  5  1  0  0  0
  5  6  1  0  0  0
  6  7  1  0  0  0
  7  8  1  0  0  0
  8  9  1  0  0  0
  9 10  2  0  0  0
 10 11  1  0  0  0
 11 12  2  0  0  0
 11 13  1  0  0  0
 13 14  1  0  0  0
 14 15  1  0  0  0
 15 16  1  0  0  0
  6 17  1  0  0  0
 17 18  1  0  0  0
 18 19  1  0  0  0
 19 20  1  0  0  0
 20 21  1  0  0  0
 17  2  1  0  0  0
 20  2  1  0  0  0
 15  5  1  0  0  0
 15  9  1  0  0  0
 21 22  1  0  0  0
M  END
> <minimizedAffinity>
-7.76976

> <CNNscore>
0.2374778688

> <CNNaffinity>
5.5768361092

> <CNN_VS>
1.3243751526

> <CNNaffinity_variance>
0.1371287555

$$$$
[H]OC1([H])C([H])([H])C([H])([H])[C@]2([H])[C@]1(C([H])([H])[H])C([H])([H])C([H])([H])[C@]1([H])[C@]3(C([H])([H])[H])C(=C([H])C(=O)C([H])([H])C3([H])[H])C([H])([H])C([H])([H])[C@@]21[H]


 22 25  0  0  0  0  0  0  0  0999 V2000
   -3.8368   -3.5617    5.6840 C   0  0  0  0  0  0  0  0  0  0  0  0
   -2.9772   -4.6948    6.1766 C   0  0  0  0  0  0  0  0  0  0  0  0
   -3.1730   -5.9301    5.3755 C   0  0  0  0  0  0  0  0  0  0  0  0
   -4.6337   -6.3302    5.4855 C   0  0  0  0  0  0  0  0  0  0  0  0
   -4.9617   -6.6388    6.9256 C   0  0  0  0  0  0  0  0  0  0  0  0
   -4.6912   -5.4517    7.8428 C   0  0  0  0  0  0  0  0  0  0  0  0
   -4.7824   -6.0139    9.2676 C   0  0  0  0  0  0  0  0  0  0  0  0
   -6.1498   -6.5890    9.5343 C   0  0  0  0  0  0  0  0  0  0  0  0
   -6.5640   -7.5397    8.4955 C   0  0  0  0  0  0  0  0  0  0  0  0
   -7.1219   -8.6985    8.8616 C   0  0  0  0  0  0  0  0  0  0  0  0
   -7.5370   -9.6488    7.8590 C   0  0  0  0  0  0  0  0  0  0  0  0
   -7.7018  -10.8604    8.1412 O   0  0  0  0  0  0  0  0  0  0  0  0
   -7.7607   -9.1252    6.4749 C   0  0  0  0  0  0  0  0  0  0  0  0
   -6.5306   -8.3137    6.1260 C   0  0  0  0  0  0  0  0  0  0  0  0
   -6.3485   -7.1803    7.0789 C   0  0  0  0  0  0  0  0  0  0  0  0
   -7.3510   -6.1006    6.7304 C   0  0  0  0  0  0  0  0  0  0  0  0
   -3.2806   -5.0454    7.6352 C   0  0  0  0  0  0  0  0  0  0  0  0
   -2.8497   -3.8011    8.3225 C   0  0  0  0  0  0  0  0  0  0  0  0
   -1.5837   -3.4204    7.5771 C   0  0  0  0  0  0  0  0  0  0  0  0
   -1.5419   -4.2645    6.3249 C   0  0  0  0  0  0  0  0  0  0  0  0
   -1.0600   -3.5882    5.2301 O   0  0  0  0  0  0  0  0  0  0  0  0
   -1.6991   -3.4460    4.5068 H   0  0  0  0  0  0  0  0  0  0  0  0
  2  1  1  0  0  0
  2  3  1  0  0  0
  3  4  1  0  0  0
  4  5  1  0  0  0
  5  6  1  0  0  0
  6  7  1  0  0  0
  7  8  1  0  0  0
  8  9  1  0  0  0
  9 10  2  0  0  0
 10 11  1  0  0  0
 11 12  2  0  0  0
 11 13  1  0  0  0
 13 14  1  0  0  0
 14 15  1  0  0  0
 15 16  1  0  0  0
  6 17  1  0  0  0
 17 18  1  0  0  0
 18 19  1  0  0  0
 19 20  1  0  0  0
 20 21  1  0  0  0
 17  2  1  0  0  0
 20  2  1  0  0  0
 15  5  1  0  0  0
 15  9  1  0  0  0
 21 22  1  0  0  0
M  END
> <minimizedAffinity>
-4.34452

> <CNNscore>
0.2258874327

> <CNNaffinity>
4.7278380394

> <CNN_VS>
1.0679591894

> <CNNaffinity_variance>
0.2805894911

$$$$
[H]OC1([H])C([H])([H])C([H])([H])[C@]2([H])[C@]1(C([H])([H])[H])C([H])([H])C([H])([H])[C@]1([H])[C@]3(C([H])([H])[H])C(=C([H])C(=O)C([H])([H])C3([H])[H])C([H])([H])C([H])([H])[C@@]21[H]


 22 25  0  0  0  0  0  0  0  0999 V2000
   -7.7609   -7.6704    9.1902 C   0  0  0  0  0  0  0  0  0  0  0  0
   -8.0358   -7.3524    7.7449 C   0  0  0  0  0  0  0  0  0  0  0  0
   -8.9586   -6.1982    7.5953 C   0  0  0  0  0  0  0  0  0  0  0  0
  -10.2648   -6.5538    8.2832 C   0  0  0  0  0  0  0  0  0  0  0  0
  -10.8818   -7.7492    7.5999 C   0  0  0  0  0  0  0  0  0  0  0  0
   -9.9558   -8.9599    7.6146 C   0  0  0  0  0  0  0  0  0  0  0  0
  -10.5888   -9.9638    6.6420 C   0  0  0  0  0  0  0  0  0  0  0  0
  -11.9742  -10.3507    7.0919 C   0  0  0  0  0  0  0  0  0  0  0  0
  -12.8162   -9.1797    7.3647 C   0  0  0  0  0  0  0  0  0  0  0  0
  -14.0721   -9.1624    6.9060 C   0  0  0  0  0  0  0  0  0  0  0  0
  -14.9187   -8.0229    7.1612 C   0  0  0  0  0  0  0  0  0  0  0  0
  -15.9313   -7.7950    6.4559 O   0  0  0  0  0  0  0  0  0  0  0  0
  -14.5352   -7.1304    8.2999 C   0  0  0  0  0  0  0  0  0  0  0  0
  -13.0659   -6.8150    8.1133 C   0  0  0  0  0  0  0  0  0  0  0  0
  -12.2432   -8.0595    8.1386 C   0  0  0  0  0  0  0  0  0  0  0  0
  -12.1221   -8.5199    9.5758 C   0  0  0  0  0  0  0  0  0  0  0  0
   -8.6680   -8.5384    7.0127 C   0  0  0  0  0  0  0  0  0  0  0  0
   -7.5633   -9.5297    7.0694 C   0  0  0  0  0  0  0  0  0  0  0  0
   -6.3300   -8.6808    6.8212 C   0  0  0  0  0  0  0  0  0  0  0  0
   -6.7561   -7.2380    6.9598 C   0  0  0  0  0  0  0  0  0  0  0  0
   -5.8111   -6.4491    7.5704 O   0  0  0  0  0  0  0  0  0  0  0  0
   -6.0646   -6.0813    8.4376 H   0  0  0  0  0  0  0  0  0  0  0  0
  2  1  1  0  0  0
  2  3  1  0  0  0
  3  4  1  0  0  0
  4  5  1  0  0  0
  5  6  1  0  0  0
  6  7  1  0  0  0
  7  8  1  0  0  0
  8  9  1  0  0  0
  9 10  2  0  0  0
 10 11  1  0  0  0
 11 12  2  0  0  0
 11 13  1  0  0  0
 13 14  1  0  0  0
 14 15  1  0  0  0
 15 16  1  0  0  0
  6 17  1  0  0  0
 17 18  1  0  0  0
 18 19  1  0  0  0
 19 20  1  0  0  0
 20 21  1  0  0  0
 17  2  1  0  0  0
 20  2  1  0  0  0
 15  5  1  0  0  0
 15  9  1  0  0  0
 21 22  1  0  0  0
M  END
> <minimizedAffinity>
-8.61342

> <CNNscore>
0.2092834115

> <CNNaffinity>
5.7713003159

> <CNN_VS>
1.2078374624

> <CNNaffinity_variance>
0.0635629743

$$$$
[H]OC1([H])C([H])([H])C([H])([H])[C@]2([H])[C@]1(C([H])([H])[H])C([H])([H])C([H])([H])[C@]1([H])[C@]3(C([H])([H])[H])C(=C([H])C(=O)C([H])([H])C3([H])[H])C([H])([H])C([H])([H])[C@@]21[H]


 22 25  0  0  0  0  0  0  0  0999 V2000
  -12.9926   -9.7170    6.9722 C   0  0  0  0  0  0  0  0  0  0  0  0
  -13.5788   -8.6840    7.8967 C   0  0  0  0  0  0  0  0  0  0  0  0
  -15.0365   -8.8834    8.1003 C   0  0  0  0  0  0  0  0  0  0  0  0
  -15.7147   -8.7799    6.7456 C   0  0  0  0  0  0  0  0  0  0  0  0
  -15.4968   -7.3980    6.1803 C   0  0  0  0  0  0  0  0  0  0  0  0
  -14.0166   -7.0654    6.0325 C   0  0  0  0  0  0  0  0  0  0  0  0
  -13.9686   -5.5592    5.7434 C   0  0  0  0  0  0  0  0  0  0  0  0
  -14.7152   -5.2289    4.4766 C   0  0  0  0  0  0  0  0  0  0  0  0
  -16.0716   -5.7897    4.4697 C   0  0  0  0  0  0  0  0  0  0  0  0
  -17.0890   -5.0226    4.0640 C   0  0  0  0  0  0  0  0  0  0  0  0
  -18.4309   -5.5514    4.0485 C   0  0  0  0  0  0  0  0  0  0  0  0
  -19.4289   -4.7906    4.0477 O   0  0  0  0  0  0  0  0  0  0  0  0
  -18.5762   -7.0409    4.0334 C   0  0  0  0  0  0  0  0  0  0  0  0
  -17.6885   -7.5635    5.1434 C   0  0  0  0  0  0  0  0  0  0  0  0
  -16.2637   -7.1858    4.9127 C   0  0  0  0  0  0  0  0  0  0  0  0
  -15.7034   -8.0835    3.8299 C   0  0  0  0  0  0  0  0  0  0  0  0
  -13.3844   -7.2644    7.3587 C   0  0  0  0  0  0  0  0  0  0  0  0
  -11.9047   -7.1432    7.4035 C   0  0  0  0  0  0  0  0  0  0  0  0
  -11.5456   -7.8279    8.7094 C   0  0  0  0  0  0  0  0  0  0  0  0
  -12.7777   -8.5729    9.1668 C   0  0  0  0  0  0  0  0  0  0  0  0
  -12.4950   -9.7891    9.7406 O   0  0  0  0  0  0  0  0  0  0  0  0
  -12.8187  -10.5706    9.2548 H   0  0  0  0  0  0  0  0  0  0  0  0
  2  1  1  0  0  0
  2  3  1  0  0  0
  3  4  1  0  0  0
  4  5  1  0  0  0
  5  6  1  0  0  0
  6  7  1  0  0  0
  7  8  1  0  0  0
  8  9  1  0  0  0
  9 10  2  0  0  0
 10 11  1  0  0  0
 11 12  2  0  0  0
 11 13  1  0  0  0
 13 14  1  0  0  0
 14 15  1  0  0  0
 15 16  1  0  0  0
  6 17  1  0  0  0
 17 18  1  0  0  0
 18 19  1  0  0  0
 19 20  1  0  0  0
 20 21  1  0  0  0
 17  2  1  0  0  0
 20  2  1  0  0  0
 15  5  1  0  0  0
 15  9  1  0  0  0
 21 22  1  0  0  0
M  END
> <minimizedAffinity>
-8.21402

> <CNNscore>
0.1824882478

> <CNNaffinity>
5.8551611900

> <CNN_VS>
1.0684981346

> <CNNaffinity_variance>
0.0103758639

$$$$
[H]C#C[C@]1(O[H])C([H])([H])C([H])([H])[C@]2([H])[C@]1(C([H])([H])[H])C([H])([H])C([H])([H])[C@]1([H])c3c([H])c([H])c(O[H])c([H])c3C([H])([H])C([H])([H])[C@]12[H]


 24 27  0  0  0  0  0  0  0  0999 V2000
   -3.9171   -7.3525    6.3241 C   0  0  0  0  0  0  0  0  0  0  0  0
   -5.2455   -6.6804    6.2710 C   0  0  0  0  0  0  0  0  0  0  0  0
   -5.1383   -5.2304    5.9430 C   0  0  0  0  0  0  0  0  0  0  0  0
   -4.3740   -4.5180    7.0166 C   0  0  0  0  0  0  0  0  0  0  0  0
   -4.8576   -4.7948    8.4037 C   0  0  0  0  0  0  0  0  0  0  0  0
   -5.0624   -6.2898    8.6538 C   0  0  0  0  0  0  0  0  0  0  0  0
   -5.5163   -6.5349   10.0448 C   0  0  0  0  0  0  0  0  0  0  0  0
   -5.0952   -5.5581   11.0763 C   0  0  0  0  0  0  0  0  0  0  0  0
   -4.0333   -4.6255   10.6862 C   0  0  0  0  0  0  0  0  0  0  0  0
   -3.1699   -4.1388   11.6354 C   0  0  0  0  0  0  0  0  0  0  0  0
   -2.1481   -3.2446   11.2848 C   0  0  0  0  0  0  0  0  0  0  0  0
   -1.2566   -2.7309   12.2133 O   0  0  0  0  0  0  0  0  0  0  0  0
   -2.0131   -2.8505    9.9613 C   0  0  0  0  0  0  0  0  0  0  0  0
   -2.8844   -3.3438    9.0131 C   0  0  0  0  0  0  0  0  0  0  0  0
   -3.8992   -4.2360    9.3798 C   0  0  0  0  0  0  0  0  0  0  0  0
   -6.0001   -6.7545    7.5995 C   0  0  0  0  0  0  0  0  0  0  0  0
   -6.4188   -8.1667    7.6609 C   0  0  0  0  0  0  0  0  0  0  0  0
   -6.9508   -8.3989    6.2524 C   0  0  0  0  0  0  0  0  0  0  0  0
   -6.1670   -7.4508    5.3687 C   0  0  0  0  0  0  0  0  0  0  0  0
   -5.4002   -8.2612    4.5006 O   0  0  0  0  0  0  0  0  0  0  0  0
   -1.3849   -1.8919   12.7358 H   0  0  0  0  0  0  0  0  0  0  0  0
   -5.7757   -9.1818    4.4450 H   0  0  0  0  0  0  0  0  0  0  0  0
   -7.0031   -6.6037    4.5547 C   0  0  0  0  0  0  0  0  0  0  0  0
   -7.6971   -5.8972    3.8716 C   0  0  0  0  0  0  0  0  0  0  0  0
  2  1  1  0  0  0
  2  3  1  0  0  0
  3  4  1  0  0  0
  4  5  1  0  0  0
  5  6  1  0  0  0
  6  7  1  0  0  0
  7  8  1  0  0  0
  8  9  1  0  0  0
  9 10  2  0  0  0
 10 11  1  0  0  0
 11 12  1  0  0  0
 11 13  2  0  0  0
 13 14  1  0  0  0
 14 15  2  0  0  0
  6 16  1  0  0  0
 16 17  1  0  0  0
 17 18  1  0  0  0
 18 19  1  0  0  0
 19 20  1  0  0  0
 19 23  1  0  0  0
 23 24  3  0  0  0
 16  2  1  0  0  0
 19  2  1  0  0  0
 15  5  1  0  0  0
 15  9  1  0  0  0
 12 21  1  0  0  0
 20 22  1  0  0  0
M  END
> <minimizedAffinity>
3.14844

> <CNNscore>
0.4410950840

> <CNNaffinity>
4.8740611076

> <CNN_VS>
2.1499242783

> <CNNaffinity_variance>
0.9477647543

$$$$
[H]C#C[C@]1(O[H])C([H])([H])C([H])([H])[C@]2([H])[C@]1(C([H])([H])[H])C([H])([H])C([H])([H])[C@]1([H])c3c([H])c([H])c(O[H])c([H])c3C([H])([H])C([H])([H])[C@]12[H]


 24 27  0  0  0  0  0  0  0  0999 V2000
   -1.6573   -5.4789    7.0802 C   0  0  0  0  0  0  0  0  0  0  0  0
   -2.9162   -6.1417    7.5219 C   0  0  0  0  0  0  0  0  0  0  0  0
   -4.0276   -5.1714    7.7337 C   0  0  0  0  0  0  0  0  0  0  0  0
   -3.6721   -4.2180    8.8333 C   0  0  0  0  0  0  0  0  0  0  0  0
   -3.1904   -4.8755   10.0863 C   0  0  0  0  0  0  0  0  0  0  0  0
   -2.1335   -5.9448    9.8051 C   0  0  0  0  0  0  0  0  0  0  0  0
   -1.6561   -6.5600   11.0678 C   0  0  0  0  0  0  0  0  0  0  0  0
   -1.7023   -5.7220   12.2889 C   0  0  0  0  0  0  0  0  0  0  0  0
   -1.9247   -4.2881   12.0791 C   0  0  0  0  0  0  0  0  0  0  0  0
   -1.4011   -3.3796   12.9644 C   0  0  0  0  0  0  0  0  0  0  0  0
   -1.6027   -2.0037   12.7839 C   0  0  0  0  0  0  0  0  0  0  0  0
   -1.0908   -1.0551   13.6551 O   0  0  0  0  0  0  0  0  0  0  0  0
   -2.3413   -1.5610   11.6959 C   0  0  0  0  0  0  0  0  0  0  0  0
   -2.8644   -2.4798   10.8105 C   0  0  0  0  0  0  0  0  0  0  0  0
   -2.6536   -3.8502   11.0051 C   0  0  0  0  0  0  0  0  0  0  0  0
   -2.7575   -6.8918    8.8456 C   0  0  0  0  0  0  0  0  0  0  0  0
   -1.9576   -8.0692    8.4617 C   0  0  0  0  0  0  0  0  0  0  0  0
   -2.6602   -8.5262    7.1897 C   0  0  0  0  0  0  0  0  0  0  0  0
   -3.2505   -7.2685    6.5863 C   0  0  0  0  0  0  0  0  0  0  0  0
   -2.5823   -7.0678    5.3568 O   0  0  0  0  0  0  0  0  0  0  0  0
   -1.5555   -0.7005   14.4623 H   0  0  0  0  0  0  0  0  0  0  0  0
   -2.1577   -7.9103    5.0382 H   0  0  0  0  0  0  0  0  0  0  0  0
   -4.6612   -7.3748    6.3074 C   0  0  0  0  0  0  0  0  0  0  0  0
   -5.8375   -7.4684    6.0727 C   0  0  0  0  0  0  0  0  0  0  0  0
  2  1  1  0  0  0
  2  3  1  0  0  0
  3  4  1  0  0  0
  4  5  1  0  0  0
  5  6  1  0  0  0
  6  7  1  0  0  0
  7  8  1  0  0  0
  8  9  1  0  0  0
  9 10  2  0  0  0
 10 11  1  0  0  0
 11 12  1  0  0  0
 11 13  2  0  0  0
 13 14  1  0  0  0
 14 15  2  0  0  0
  6 16  1  0  0  0
 16 17  1  0  0  0
 17 18  1  0  0  0
 18 19  1  0  0  0
 19 20  1  0  0  0
 19 23  1  0  0  0
 23 24  3  0  0  0
 16  2  1  0  0  0
 19  2  1  0  0  0
 15  5  1  0  0  0
 15  9  1  0  0  0
 12 21  1  0  0  0
 20 22  1  0  0  0
M  END
> <minimizedAffinity>
-2.85730

> <CNNscore>
0.4260163307

> <CNNaffinity>
4.5352673531

> <CNN_VS>
1.9320979118

> <CNNaffinity_variance>
0.4891137183

$$$$
[H]C#C[C@]1(O[H])C([H])([H])C([H])([H])[C@]2([H])[C@]1(C([H])([H])[H])C([H])([H])C([H])([H])[C@]1([H])c3c([H])c([H])c(O[H])c([H])c3C([H])([H])C([H])([H])[C@]12[H]


 24 27  0  0  0  0  0  0  0  0999 V2000
  -14.8419   -9.1278    6.0441 C   0  0  0  0  0  0  0  0  0  0  0  0
  -15.3463   -7.7495    6.2997 C   0  0  0  0  0  0  0  0  0  0  0  0
  -14.5779   -6.7134    5.5529 C   0  0  0  0  0  0  0  0  0  0  0  0
  -13.1509   -6.7066    6.0091 C   0  0  0  0  0  0  0  0  0  0  0  0
  -12.9791   -6.6412    7.4925 C   0  0  0  0  0  0  0  0  0  0  0  0
  -13.8747   -7.6451    8.2201 C   0  0  0  0  0  0  0  0  0  0  0  0
  -13.6630   -7.5752    9.6868 C   0  0  0  0  0  0  0  0  0  0  0  0
  -12.3263   -7.1429   10.1579 C   0  0  0  0  0  0  0  0  0  0  0  0
  -11.2629   -7.1203    9.1488 C   0  0  0  0  0  0  0  0  0  0  0  0
   -9.9620   -7.3451    9.5232 C   0  0  0  0  0  0  0  0  0  0  0  0
   -8.9290   -7.3265    8.5750 C   0  0  0  0  0  0  0  0  0  0  0  0
   -7.6034   -7.5488    8.9130 O   0  0  0  0  0  0  0  0  0  0  0  0
   -9.2313   -7.0773    7.2440 C   0  0  0  0  0  0  0  0  0  0  0  0
  -10.5410   -6.8522    6.8752 C   0  0  0  0  0  0  0  0  0  0  0  0
  -11.5606   -6.8744    7.8345 C   0  0  0  0  0  0  0  0  0  0  0  0
  -15.2612   -7.3520    7.7743 C   0  0  0  0  0  0  0  0  0  0  0  0
  -16.3378   -8.1478    8.3915 C   0  0  0  0  0  0  0  0  0  0  0  0
  -17.4872   -7.9335    7.4150 C   0  0  0  0  0  0  0  0  0  0  0  0
  -16.8301   -7.7026    6.0700 C   0  0  0  0  0  0  0  0  0  0  0  0
  -17.2102   -8.7907    5.2515 O   0  0  0  0  0  0  0  0  0  0  0  0
   -6.9489   -6.8461    9.1800 H   0  0  0  0  0  0  0  0  0  0  0  0
  -18.0245   -9.2396    5.6078 H   0  0  0  0  0  0  0  0  0  0  0  0
  -17.2656   -6.4912    5.4204 C   0  0  0  0  0  0  0  0  0  0  0  0
  -17.6242   -5.4798    4.8763 C   0  0  0  0  0  0  0  0  0  0  0  0
  2  1  1  0  0  0
  2  3  1  0  0  0
  3  4  1  0  0  0
  4  5  1  0  0  0
  5  6  1  0  0  0
  6  7  1  0  0  0
  7  8  1  0  0  0
  8  9  1  0  0  0
  9 10  2  0  0  0
 10 11  1  0  0  0
 11 12  1  0  0  0
 11 13  2  0  0  0
 13 14  1  0  0  0
 14 15  2  0  0  0
  6 16  1  0  0  0
 16 17  1  0  0  0
 17 18  1  0  0  0
 18 19  1  0  0  0
 19 20  1  0  0  0
 19 23  1  0  0  0
 23 24  3  0  0  0
 16  2  1  0  0  0
 19  2  1  0  0  0
 15  5  1  0  0  0
 15  9  1  0  0  0
 12 21  1  0  0  0
 20 22  1  0  0  0
M  END
> <minimizedAffinity>
-5.20579

> <CNNscore>
0.3835084736

> <CNNaffinity>
6.2914848328

> <CNN_VS>
2.4128377438

> <CNNaffinity_variance>
0.2423841059

$$$$
[H]C#C[C@]1(O[H])C([H])([H])C([H])([H])[C@]2([H])[C@]1(C([H])([H])[H])C([H])([H])C([H])([H])[C@]1([H])c3c([H])c([H])c(O[H])c([H])c3C([H])([H])C([H])([H])[C@]12[H]


 24 27  0  0  0  0  0  0  0  0999 V2000
   -9.2421   -9.4316    8.9484 C   0  0  0  0  0  0  0  0  0  0  0  0
   -9.8345   -8.8970    7.6904 C   0  0  0  0  0  0  0  0  0  0  0  0
   -9.3762   -9.6411    6.4830 C   0  0  0  0  0  0  0  0  0  0  0  0
   -7.8944   -9.4908    6.3211 C   0  0  0  0  0  0  0  0  0  0  0  0
   -7.4079   -8.0791    6.3878 C   0  0  0  0  0  0  0  0  0  0  0  0
   -7.9974   -7.3231    7.5796 C   0  0  0  0  0  0  0  0  0  0  0  0
   -7.4764   -5.9352    7.6344 C   0  0  0  0  0  0  0  0  0  0  0  0
   -6.1283   -5.6953    7.0681 C   0  0  0  0  0  0  0  0  0  0  0  0
   -5.3243   -6.8891    6.7888 C   0  0  0  0  0  0  0  0  0  0  0  0
   -3.9557   -6.8230    6.8642 C   0  0  0  0  0  0  0  0  0  0  0  0
   -3.1671   -7.9520    6.5996 C   0  0  0  0  0  0  0  0  0  0  0  0
   -1.7829   -7.9260    6.6651 O   0  0  0  0  0  0  0  0  0  0  0  0
   -3.7830   -9.1474    6.2577 C   0  0  0  0  0  0  0  0  0  0  0  0
   -5.1588   -9.2062    6.1839 C   0  0  0  0  0  0  0  0  0  0  0  0
   -5.9316   -8.0697    6.4513 C   0  0  0  0  0  0  0  0  0  0  0  0
   -9.4725   -7.4318    7.4416 C   0  0  0  0  0  0  0  0  0  0  0  0
  -10.2859   -6.7181    8.4428 C   0  0  0  0  0  0  0  0  0  0  0  0
  -11.6397   -7.4004    8.2930 C   0  0  0  0  0  0  0  0  0  0  0  0
  -11.3275   -8.8088    7.8313 C   0  0  0  0  0  0  0  0  0  0  0  0
  -11.7497   -9.6691    8.8706 O   0  0  0  0  0  0  0  0  0  0  0  0
   -1.1720   -7.7080    5.9084 H   0  0  0  0  0  0  0  0  0  0  0  0
  -12.4072   -9.2161    9.4656 H   0  0  0  0  0  0  0  0  0  0  0  0
  -12.0339   -9.1882    6.6328 C   0  0  0  0  0  0  0  0  0  0  0  0
  -12.6186   -9.5059    5.6305 C   0  0  0  0  0  0  0  0  0  0  0  0
  2  1  1  0  0  0
  2  3  1  0  0  0
  3  4  1  0  0  0
  4  5  1  0  0  0
  5  6  1  0  0  0
  6  7  1  0  0  0
  7  8  1  0  0  0
  8  9  1  0  0  0
  9 10  2  0  0  0
 10 11  1  0  0  0
 11 12  1  0  0  0
 11 13  2  0  0  0
 13 14  1  0  0  0
 14 15  2  0  0  0
  6 16  1  0  0  0
 16 17  1  0  0  0
 17 18  1  0  0  0
 18 19  1  0  0  0
 19 20  1  0  0  0
 19 23  1  0  0  0
 23 24  3  0  0  0
 16  2  1  0  0  0
 19  2  1  0  0  0
 15  5  1  0  0  0
 15  9  1  0  0  0
 12 21  1  0  0  0
 20 22  1  0  0  0
M  END
> <minimizedAffinity>
-0.95084

> <CNNscore>
0.3774863780

> <CNNaffinity>
5.6728105545

> <CNN_VS>
2.1414086819

> <CNNaffinity_variance>
0.5829162598

$$$$
[H]C#C[C@]1(O[H])C([H])([H])C([H])([H])[C@]2([H])[C@]1(C([H])([H])[H])C([H])([H])C([H])([H])[C@]1([H])c3c([H])c([H])c(O[H])c([H])c3C([H])([H])C([H])([H])[C@]12[H]


 24 27  0  0  0  0  0  0  0  0999 V2000
   -9.0659   -6.9668    5.7656 C   0  0  0  0  0  0  0  0  0  0  0  0
   -8.3852   -7.6977    6.8709 C   0  0  0  0  0  0  0  0  0  0  0  0
   -8.7583   -9.1401    6.9154 C   0  0  0  0  0  0  0  0  0  0  0  0
  -10.2246   -9.2813    7.1879 C   0  0  0  0  0  0  0  0  0  0  0  0
  -10.7124   -8.4895    8.3581 C   0  0  0  0  0  0  0  0  0  0  0  0
  -10.2074   -7.0461    8.3267 C   0  0  0  0  0  0  0  0  0  0  0  0
  -10.7287   -6.2792    9.4847 C   0  0  0  0  0  0  0  0  0  0  0  0
  -12.0330   -6.7032   10.0455 C   0  0  0  0  0  0  0  0  0  0  0  0
  -12.8172   -7.6309    9.2245 C   0  0  0  0  0  0  0  0  0  0  0  0
  -14.1876   -7.6120    9.2936 C   0  0  0  0  0  0  0  0  0  0  0  0
  -14.9573   -8.4914    8.5186 C   0  0  0  0  0  0  0  0  0  0  0  0
  -16.3426   -8.5034    8.5599 O   0  0  0  0  0  0  0  0  0  0  0  0
  -14.3207   -9.3893    7.6737 C   0  0  0  0  0  0  0  0  0  0  0  0
  -12.9432   -9.4024    7.6097 C   0  0  0  0  0  0  0  0  0  0  0  0
  -12.1895   -8.5176    8.3901 C   0  0  0  0  0  0  0  0  0  0  0  0
   -8.7263   -7.1343    8.2515 C   0  0  0  0  0  0  0  0  0  0  0  0
   -7.9846   -5.8606    8.2786 C   0  0  0  0  0  0  0  0  0  0  0  0
   -6.6247   -6.2763    7.7322 C   0  0  0  0  0  0  0  0  0  0  0  0
   -6.9058   -7.4444    6.8098 C   0  0  0  0  0  0  0  0  0  0  0  0
   -6.5594   -7.0138    5.5086 O   0  0  0  0  0  0  0  0  0  0  0  0
  -16.8982   -9.0558    9.1759 H   0  0  0  0  0  0  0  0  0  0  0  0
   -5.9449   -6.2310    5.5421 H   0  0  0  0  0  0  0  0  0  0  0  0
   -6.1171   -8.6137    7.1100 C   0  0  0  0  0  0  0  0  0  0  0  0
   -5.4605   -9.5914    7.3558 C   0  0  0  0  0  0  0  0  0  0  0  0
  2  1  1  0  0  0
  2  3  1  0  0  0
  3  4  1  0  0  0
  4  5  1  0  0  0
  5  6  1  0  0  0
  6  7  1  0  0  0
  7  8  1  0  0  0
  8  9  1  0  0  0
  9 10  2  0  0  0
 10 11  1  0  0  0
 11 12  1  0  0  0
 11 13  2  0  0  0
 13 14  1  0  0  0
 14 15  2  0  0  0
  6 16  1  0  0  0
 16 17  1  0  0  0
 17 18  1  0  0  0
 18 19  1  0  0  0
 19 20  1  0  0  0
 19 23  1  0  0  0
 23 24  3  0  0  0
 16  2  1  0  0  0
 19  2  1  0  0  0
 15  5  1  0  0  0
 15  9  1  0  0  0
 12 21  1  0  0  0
 20 22  1  0  0  0
M  END
> <minimizedAffinity>
-3.78856

> <CNNscore>
0.3572825193

> <CNNaffinity>
6.1138200760

> <CNN_VS>
2.1843609810

> <CNNaffinity_variance>
0.4308443069

$$$$
[H]C#C[C@]1(O[H])C([H])([H])C([H])([H])[C@]2([H])[C@]1(C([H])([H])[H])C([H])([H])C([H])([H])[C@]1([H])c3c([H])c([H])c(O[H])c([H])c3C([H])([H])C([H])([H])[C@]12[H]


 24 27  0  0  0  0  0  0  0  0999 V2000
  -12.9401   -9.7888    8.9434 C   0  0  0  0  0  0  0  0  0  0  0  0
  -13.3376   -8.8075    7.8954 C   0  0  0  0  0  0  0  0  0  0  0  0
  -12.7920   -9.1550    6.5525 C   0  0  0  0  0  0  0  0  0  0  0  0
  -11.2946   -9.1201    6.5837 C   0  0  0  0  0  0  0  0  0  0  0  0
  -10.7200   -7.8711    7.1702 C   0  0  0  0  0  0  0  0  0  0  0  0
  -11.3927   -7.4932    8.4908 C   0  0  0  0  0  0  0  0  0  0  0  0
  -10.7842   -6.2663    9.0611 C   0  0  0  0  0  0  0  0  0  0  0  0
   -9.3643   -5.9993    8.7325 C   0  0  0  0  0  0  0  0  0  0  0  0
   -8.6199   -7.1126    8.1359 C   0  0  0  0  0  0  0  0  0  0  0  0
   -7.2690   -7.2230    8.3506 C   0  0  0  0  0  0  0  0  0  0  0  0
   -6.5371   -8.2788    7.7884 C   0  0  0  0  0  0  0  0  0  0  0  0
   -5.1725   -8.4253    7.9815 O   0  0  0  0  0  0  0  0  0  0  0  0
   -7.1913   -9.2201    7.0066 C   0  0  0  0  0  0  0  0  0  0  0  0
   -8.5490   -9.1025    6.7953 C   0  0  0  0  0  0  0  0  0  0  0  0
   -9.2651   -8.0424    7.3640 C   0  0  0  0  0  0  0  0  0  0  0  0
  -12.8446   -7.3905    8.1936 C   0  0  0  0  0  0  0  0  0  0  0  0
  -13.7192   -6.9652    9.3015 C   0  0  0  0  0  0  0  0  0  0  0  0
  -15.0905   -7.4094    8.8087 C   0  0  0  0  0  0  0  0  0  0  0  0
  -14.8265   -8.6107    7.9246 C   0  0  0  0  0  0  0  0  0  0  0  0
  -15.4308   -9.7156    8.5669 O   0  0  0  0  0  0  0  0  0  0  0  0
   -4.4612   -8.0364    7.4018 H   0  0  0  0  0  0  0  0  0  0  0  0
  -16.1209   -9.4169    9.2197 H   0  0  0  0  0  0  0  0  0  0  0  0
  -15.4093   -8.4937    6.6108 C   0  0  0  0  0  0  0  0  0  0  0  0
  -15.8939   -8.3911    5.5144 C   0  0  0  0  0  0  0  0  0  0  0  0
  2  1  1  0  0  0
  2  3  1  0  0  0
  3  4  1  0  0  0
  4  5  1  0  0  0
  5  6  1  0  0  0
  6  7  1  0  0  0
  7  8  1  0  0  0
  8  9  1  0  0  0
  9 10  2  0  0  0
 10 11  1  0  0  0
 11 12  1  0  0  0
 11 13  2  0  0  0
 13 14  1  0  0  0
 14 15  2  0  0  0
  6 16  1  0  0  0
 16 17  1  0  0  0
 17 18  1  0  0  0
 18 19  1  0  0  0
 19 20  1  0  0  0
 19 23  1  0  0  0
 23 24  3  0  0  0
 16  2  1  0  0  0
 19  2  1  0  0  0
 15  5  1  0  0  0
 15  9  1  0  0  0
 12 21  1  0  0  0
 20 22  1  0  0  0
M  END
> <minimizedAffinity>
-6.22613

> <CNNscore>
0.3518183231

> <CNNaffinity>
6.1518406868

> <CNN_VS>
2.1643302441

> <CNNaffinity_variance>
0.3494135737

$$$$
[H]C#C[C@]1(O[H])C([H])([H])C([H])([H])[C@]2([H])[C@]1(C([H])([H])[H])C([H])([H])C([H])([H])[C@]1([H])c3c([H])c([H])c(O[H])c([H])c3C([H])([H])C([H])([H])[C@]12[H]


 24 27  0  0  0  0  0  0  0  0999 V2000
   -7.0532   -5.0049    7.0405 C   0  0  0  0  0  0  0  0  0  0  0  0
   -6.9527   -6.4875    7.1460 C   0  0  0  0  0  0  0  0  0  0  0  0
   -7.2901   -6.9864    8.5094 C   0  0  0  0  0  0  0  0  0  0  0  0
   -6.3114   -6.4485    9.5080 C   0  0  0  0  0  0  0  0  0  0  0  0
   -4.8780   -6.6365    9.1279 C   0  0  0  0  0  0  0  0  0  0  0  0
   -4.6066   -6.2178    7.6820 C   0  0  0  0  0  0  0  0  0  0  0  0
   -3.1727   -6.3906    7.3428 C   0  0  0  0  0  0  0  0  0  0  0  0
   -2.1961   -6.2739    8.4510 C   0  0  0  0  0  0  0  0  0  0  0  0
   -2.7055   -5.7047    9.7024 C   0  0  0  0  0  0  0  0  0  0  0  0
   -1.8619   -5.0019   10.5255 C   0  0  0  0  0  0  0  0  0  0  0  0
   -2.3273   -4.4503   11.7278 C   0  0  0  0  0  0  0  0  0  0  0  0
   -1.5074   -3.7343   12.5858 O   0  0  0  0  0  0  0  0  0  0  0  0
   -3.6574   -4.6201   12.0846 C   0  0  0  0  0  0  0  0  0  0  0  0
   -4.4992   -5.3276   11.2524 C   0  0  0  0  0  0  0  0  0  0  0  0
   -4.0185   -5.8718   10.0553 C   0  0  0  0  0  0  0  0  0  0  0  0
   -5.5461   -7.0084    6.8459 C   0  0  0  0  0  0  0  0  0  0  0  0
   -5.4376   -6.8377    5.3856 C   0  0  0  0  0  0  0  0  0  0  0  0
   -6.7755   -7.3846    4.9043 C   0  0  0  0  0  0  0  0  0  0  0  0
   -7.7432   -7.1285    6.0410 C   0  0  0  0  0  0  0  0  0  0  0  0
   -8.6942   -6.2045    5.5510 O   0  0  0  0  0  0  0  0  0  0  0  0
   -0.9733   -4.1215   13.3329 H   0  0  0  0  0  0  0  0  0  0  0  0
   -8.7066   -6.1974    4.5553 H   0  0  0  0  0  0  0  0  0  0  0  0
   -8.4551   -8.3090    6.4638 C   0  0  0  0  0  0  0  0  0  0  0  0
   -9.0534   -9.2910    6.8177 C   0  0  0  0  0  0  0  0  0  0  0  0
  2  1  1  0  0  0
  2  3  1  0  0  0
  3  4  1  0  0  0
  4  5  1  0  0  0
  5  6  1  0  0  0
  6  7  1  0  0  0
  7  8  1  0  0  0
  8  9  1  0  0  0
  9 10  2  0  0  0
 10 11  1  0  0  0
 11 12  1  0  0  0
 11 13  2  0  0  0
 13 14  1  0  0  0
 14 15  2  0  0  0
  6 16  1  0  0  0
 16 17  1  0  0  0
 17 18  1  0  0  0
 18 19  1  0  0  0
 19 20  1  0  0  0
 19 23  1  0  0  0
 23 24  3  0  0  0
 16  2  1  0  0  0
 19  2  1  0  0  0
 15  5  1  0  0  0
 15  9  1  0  0  0
 12 21  1  0  0  0
 20 22  1  0  0  0
M  END
> <minimizedAffinity>
3.99963

> <CNNscore>
0.3434725404

> <CNNaffinity>
4.9853143692

> <CNN_VS>
1.7123185396

> <CNNaffinity_variance>
0.8938401937

$$$$
[H]C#C[C@]1(O[H])C([H])([H])C([H])([H])[C@]2([H])[C@]1(C([H])([H])[H])C([H])([H])C([H])([H])[C@]1([H])c3c([H])c([H])c(O[H])c([H])c3C([H])([H])C([H])([H])[C@]12[H]


 24 27  0  0  0  0  0  0  0  0999 V2000
   -6.6428   -6.9824    5.2417 C   0  0  0  0  0  0  0  0  0  0  0  0
   -6.0297   -7.5461    6.4769 C   0  0  0  0  0  0  0  0  0  0  0  0
   -6.1538   -9.0296    6.5493 C   0  0  0  0  0  0  0  0  0  0  0  0
   -7.5990   -9.4200    6.6078 C   0  0  0  0  0  0  0  0  0  0  0  0
   -8.3922   -8.6910    7.6441 C   0  0  0  0  0  0  0  0  0  0  0  0
   -8.1418   -7.1827    7.6043 C   0  0  0  0  0  0  0  0  0  0  0  0
   -8.9615   -6.4844    8.6248 C   0  0  0  0  0  0  0  0  0  0  0  0
  -10.2461   -7.1153    9.0087 C   0  0  0  0  0  0  0  0  0  0  0  0
  -10.7220   -8.1925    8.1354 C   0  0  0  0  0  0  0  0  0  0  0  0
  -12.0692   -8.4148    7.9981 C   0  0  0  0  0  0  0  0  0  0  0  0
  -12.5465   -9.4405    7.1696 C   0  0  0  0  0  0  0  0  0  0  0  0
  -13.8985   -9.6967    7.0045 O   0  0  0  0  0  0  0  0  0  0  0  0
  -11.6416  -10.2373    6.4829 C   0  0  0  0  0  0  0  0  0  0  0  0
  -10.2892  -10.0080    6.6258 C   0  0  0  0  0  0  0  0  0  0  0  0
   -9.8293   -8.9795    7.4570 C   0  0  0  0  0  0  0  0  0  0  0  0
   -6.6743   -7.0092    7.7560 C   0  0  0  0  0  0  0  0  0  0  0  0
   -6.1739   -5.6239    7.8191 C   0  0  0  0  0  0  0  0  0  0  0  0
   -4.6944   -5.8088    7.5068 C   0  0  0  0  0  0  0  0  0  0  0  0
   -4.6240   -7.0365    6.6224 C   0  0  0  0  0  0  0  0  0  0  0  0
   -4.1562   -6.5923    5.3646 O   0  0  0  0  0  0  0  0  0  0  0  0
  -14.4416  -10.3193    7.5619 H   0  0  0  0  0  0  0  0  0  0  0  0
   -3.6970   -5.7122    5.4437 H   0  0  0  0  0  0  0  0  0  0  0  0
   -3.7047   -8.0374    7.1045 C   0  0  0  0  0  0  0  0  0  0  0  0
   -2.9337   -8.8694    7.5054 C   0  0  0  0  0  0  0  0  0  0  0  0
  2  1  1  0  0  0
  2  3  1  0  0  0
  3  4  1  0  0  0
  4  5  1  0  0  0
  5  6  1  0  0  0
  6  7  1  0  0  0
  7  8  1  0  0  0
  8  9  1  0  0  0
  9 10  2  0  0  0
 10 11  1  0  0  0
 11 12  1  0  0  0
 11 13  2  0  0  0
 13 14  1  0  0  0
 14 15  2  0  0  0
  6 16  1  0  0  0
 16 17  1  0  0  0
 17 18  1  0  0  0
 18 19  1  0  0  0
 19 20  1  0  0  0
 19 23  1  0  0  0
 23 24  3  0  0  0
 16  2  1  0  0  0
 19  2  1  0  0  0
 15  5  1  0  0  0
 15  9  1  0  0  0
 12 21  1  0  0  0
 20 22  1  0  0  0
M  END
> <minimizedAffinity>
-6.18213

> <CNNscore>
0.2923482060

> <CNNaffinity>
5.6687350273

> <CNN_VS>
1.6572445631

> <CNNaffinity_variance>
0.2248254269

$$$$
[H]C#C[C@]1(O[H])C([H])([H])C([H])([H])[C@]2([H])[C@]1(C([H])([H])[H])C([H])([H])C([H])([H])[C@]1([H])c3c([H])c([H])c(O[H])c([H])c3C([H])([H])C([H])([H])[C@]12[H]


 24 27  0  0  0  0  0  0  0  0999 V2000
  -10.1050   -7.1530    9.6295 C   0  0  0  0  0  0  0  0  0  0  0  0
  -10.6383   -8.0013    8.5271 C   0  0  0  0  0  0  0  0  0  0  0  0
   -9.9225   -9.3036    8.4123 C   0  0  0  0  0  0  0  0  0  0  0  0
   -8.4825   -9.0681    8.0729 C   0  0  0  0  0  0  0  0  0  0  0  0
   -8.2654   -8.1494    6.9139 C   0  0  0  0  0  0  0  0  0  0  0  0
   -9.1098   -6.8786    7.0212 C   0  0  0  0  0  0  0  0  0  0  0  0
   -8.8535   -5.9760    5.8721 C   0  0  0  0  0  0  0  0  0  0  0  0
   -7.5148   -6.0470    5.2409 C   0  0  0  0  0  0  0  0  0  0  0  0
   -6.4851   -6.7713    5.9923 C   0  0  0  0  0  0  0  0  0  0  0  0
   -5.1673   -6.4099    5.8662 C   0  0  0  0  0  0  0  0  0  0  0  0
   -4.1658   -7.0898    6.5742 C   0  0  0  0  0  0  0  0  0  0  0  0
   -2.8245   -6.7553    6.4739 O   0  0  0  0  0  0  0  0  0  0  0  0
   -4.5170   -8.1397    7.4106 C   0  0  0  0  0  0  0  0  0  0  0  0
   -5.8433   -8.4972    7.5323 C   0  0  0  0  0  0  0  0  0  0  0  0
   -6.8309   -7.8079    6.8184 C   0  0  0  0  0  0  0  0  0  0  0  0
  -10.5172   -7.3348    7.1556 C   0  0  0  0  0  0  0  0  0  0  0  0
  -11.5516   -6.2857    7.2080 C   0  0  0  0  0  0  0  0  0  0  0  0
  -12.7369   -7.0412    7.7953 C   0  0  0  0  0  0  0  0  0  0  0  0
  -12.1294   -8.1261    8.6602 C   0  0  0  0  0  0  0  0  0  0  0  0
  -12.5055   -7.8295    9.9902 O   0  0  0  0  0  0  0  0  0  0  0  0
   -2.1813   -7.1357    5.8145 H   0  0  0  0  0  0  0  0  0  0  0  0
  -13.2956   -7.2238   10.0123 H   0  0  0  0  0  0  0  0  0  0  0  0
  -12.6181   -9.4467    8.3496 C   0  0  0  0  0  0  0  0  0  0  0  0
  -13.0210  -10.5504    8.0907 C   0  0  0  0  0  0  0  0  0  0  0  0
  2  1  1  0  0  0
  2  3  1  0  0  0
  3  4  1  0  0  0
  4  5  1  0  0  0
  5  6  1  0  0  0
  6  7  1  0  0  0
  7  8  1  0  0  0
  8  9  1  0  0  0
  9 10  2  0  0  0
 10 11  1  0  0  0
 11 12  1  0  0  0
 11 13  2  0  0  0
 13 14  1  0  0  0
 14 15  2  0  0  0
  6 16  1  0  0  0
 16 17  1  0  0  0
 17 18  1  0  0  0
 18 19  1  0  0  0
 19 20  1  0  0  0
 19 23  1  0  0  0
 23 24  3  0  0  0
 16  2  1  0  0  0
 19  2  1  0  0  0
 15  5  1  0  0  0
 15  9  1  0  0  0
 12 21  1  0  0  0
 20 22  1  0  0  0
M  END
> <minimizedAffinity>
-1.94827

> <CNNscore>
0.2752603590

> <CNNaffinity>
5.4885368347

> <CNN_VS>
1.5107766390

> <CNNaffinity_variance>
0.2256545573

$$$$
[H]Oc1c([H])c([H])c2c(c1[H])C([H])([H])C([H])([H])[C@]1([H])[C@]2([H])C([H])([H])C([H])([H])[C@]2(C([H])([H])[H])[C@@]([H])(O[H])C([H])([H])C([H])([H])[C@]21[H]


 22 25  0  0  0  0  0  0  0  0999 V2000
   -3.6132   -5.5765    5.7425 C   0  0  0  0  0  0  0  0  0  0  0  0
   -2.2354   -4.9637    5.8151 C   0  0  0  0  0  0  0  0  0  0  0  0
   -1.2750   -5.9723    6.3457 C   0  0  0  0  0  0  0  0  0  0  0  0
   -1.4869   -6.2566    7.7976 C   0  0  0  0  0  0  0  0  0  0  0  0
   -1.6650   -5.0212    8.6196 C   0  0  0  0  0  0  0  0  0  0  0  0
   -2.7679   -4.1327    8.0240 C   0  0  0  0  0  0  0  0  0  0  0  0
   -3.1037   -3.0499    8.9849 C   0  0  0  0  0  0  0  0  0  0  0  0
   -3.8415   -3.7094   10.1597 C   0  0  0  0  0  0  0  0  0  0  0  0
   -2.8935   -4.7021   10.7724 C   0  0  0  0  0  0  0  0  0  0  0  0
   -3.0363   -5.0206   12.1069 C   0  0  0  0  0  0  0  0  0  0  0  0
   -2.2061   -5.9256   12.7556 C   0  0  0  0  0  0  0  0  0  0  0  0
   -2.3769   -6.2281   14.1130 O   0  0  0  0  0  0  0  0  0  0  0  0
   -1.2084   -6.5129   12.0086 C   0  0  0  0  0  0  0  0  0  0  0  0
   -1.0600   -6.1981   10.6704 C   0  0  0  0  0  0  0  0  0  0  0  0
   -1.8866   -5.2992   10.0312 C   0  0  0  0  0  0  0  0  0  0  0  0
   -2.2558   -3.7080    6.7029 C   0  0  0  0  0  0  0  0  0  0  0  0
   -3.0933   -2.7918    5.9124 C   0  0  0  0  0  0  0  0  0  0  0  0
   -2.6676   -3.0777    4.4780 C   0  0  0  0  0  0  0  0  0  0  0  0
   -1.8649   -4.3572    4.5075 C   0  0  0  0  0  0  0  0  0  0  0  0
   -2.1977   -5.2157    3.4717 O   0  0  0  0  0  0  0  0  0  0  0  0
   -3.1246   -5.7647   14.6017 H   0  0  0  0  0  0  0  0  0  0  0  0
   -1.9851   -6.1599    3.7259 H   0  0  0  0  0  0  0  0  0  0  0  0
  2  1  1  0  0  0
  2  3  1  0  0  0
  3  4  1  0  0  0
  4  5  1  0  0  0
  5  6  1  0  0  0
  6  7  1  0  0  0
  7  8  1  0  0  0
  8  9  1  0  0  0
  9 10  2  0  0  0
 10 11  1  0  0  0
 11 12  1  0  0  0
 11 13  2  0  0  0
 13 14  1  0  0  0
 14 15  2  0  0  0
  6 16  1  0  0  0
 16 17  1  0  0  0
 17 18  1  0  0  0
 18 19  1  0  0  0
 19 20  1  0  0  0
 16  2  1  0  0  0
 19  2  1  0  0  0
 15  5  1  0  0  0
 15  9  1  0  0  0
 12 21  1  0  0  0
 20 22  1  0  0  0
M  END
> <minimizedAffinity>
-3.01803

> <CNNscore>
0.3928277194

> <CNNaffinity>
4.1578159332

> <CNN_VS>
1.6333053112

> <CNNaffinity_variance>
0.1890236139

$$$$
[H]Oc1c([H])c([H])c2c(c1[H])C([H])([H])C([H])([H])[C@]1([H])[C@]2([H])C([H])([H])C([H])([H])[C@]2(C([H])([H])[H])[C@@]([H])(O[H])C([H])([H])C([H])([H])[C@]21[H]


 22 25  0  0  0  0  0  0  0  0999 V2000
   -6.0366   -6.8770    6.1863 C   0  0  0  0  0  0  0  0  0  0  0  0
   -5.8655   -7.9251    7.2593 C   0  0  0  0  0  0  0  0  0  0  0  0
   -6.3640   -9.2349    6.7526 C   0  0  0  0  0  0  0  0  0  0  0  0
   -7.8523   -9.2690    6.6205 C   0  0  0  0  0  0  0  0  0  0  0  0
   -8.5621   -8.7107    7.8114 C   0  0  0  0  0  0  0  0  0  0  0  0
   -8.0302   -7.3088    8.1468 C   0  0  0  0  0  0  0  0  0  0  0  0
   -8.9130   -6.6740    9.1597 C   0  0  0  0  0  0  0  0  0  0  0  0
  -10.2349   -6.3400    8.4524 C   0  0  0  0  0  0  0  0  0  0  0  0
  -10.8145   -7.6394    7.9676 C   0  0  0  0  0  0  0  0  0  0  0  0
  -12.1814   -7.7401    7.8123 C   0  0  0  0  0  0  0  0  0  0  0  0
  -12.8031   -8.9010    7.3707 C   0  0  0  0  0  0  0  0  0  0  0  0
  -14.1947   -8.9718    7.2233 O   0  0  0  0  0  0  0  0  0  0  0  0
  -11.9944   -9.9790    7.0840 C   0  0  0  0  0  0  0  0  0  0  0  0
  -10.6236   -9.8845    7.2374 C   0  0  0  0  0  0  0  0  0  0  0  0
  -10.0113   -8.7301    7.6760 C   0  0  0  0  0  0  0  0  0  0  0  0
   -6.6173   -7.5103    8.5354 C   0  0  0  0  0  0  0  0  0  0  0  0
   -5.8555   -6.3265    8.9644 C   0  0  0  0  0  0  0  0  0  0  0  0
   -4.4137   -6.7053    8.6508 C   0  0  0  0  0  0  0  0  0  0  0  0
   -4.4661   -7.9288    7.7661 C   0  0  0  0  0  0  0  0  0  0  0  0
   -3.5747   -7.8559    6.7074 O   0  0  0  0  0  0  0  0  0  0  0  0
  -14.7282   -8.1491    7.4496 H   0  0  0  0  0  0  0  0  0  0  0  0
   -3.8926   -8.4280    5.9505 H   0  0  0  0  0  0  0  0  0  0  0  0
  2  1  1  0  0  0
  2  3  1  0  0  0
  3  4  1  0  0  0
  4  5  1  0  0  0
  5  6  1  0  0  0
  6  7  1  0  0  0
  7  8  1  0  0  0
  8  9  1  0  0  0
  9 10  2  0  0  0
 10 11  1  0  0  0
 11 12  1  0  0  0
 11 13  2  0  0  0
 13 14  1  0  0  0
 14 15  2  0  0  0
  6 16  1  0  0  0
 16 17  1  0  0  0
 17 18  1  0  0  0
 18 19  1  0  0  0
 19 20  1  0  0  0
 16  2  1  0  0  0
 19  2  1  0  0  0
 15  5  1  0  0  0
 15  9  1  0  0  0
 12 21  1  0  0  0
 20 22  1  0  0  0
M  END
> <minimizedAffinity>
-6.12596

> <CNNscore>
0.3569467962

> <CNNaffinity>
5.4100198746

> <CNN_VS>
1.9310892820

> <CNNaffinity_variance>
0.1373759955

$$$$
[H]Oc1c([H])c([H])c2c(c1[H])C([H])([H])C([H])([H])[C@]1([H])[C@]2([H])C([H])([H])C([H])([H])[C@]2(C([H])([H])[H])[C@@]([H])(O[H])C([H])([H])C([H])([H])[C@]21[H]


 22 25  0  0  0  0  0  0  0  0999 V2000
   -7.8716   -7.3943    6.0239 C   0  0  0  0  0  0  0  0  0  0  0  0
   -7.6555   -8.4215    7.1088 C   0  0  0  0  0  0  0  0  0  0  0  0
   -8.3348   -9.6918    6.7270 C   0  0  0  0  0  0  0  0  0  0  0  0
   -9.8243   -9.5864    6.7910 C   0  0  0  0  0  0  0  0  0  0  0  0
  -10.3148   -8.9272    8.0394 C   0  0  0  0  0  0  0  0  0  0  0  0
   -9.6170   -7.5737    8.2433 C   0  0  0  0  0  0  0  0  0  0  0  0
  -10.2950   -6.8270    9.3347 C   0  0  0  0  0  0  0  0  0  0  0  0
  -11.6633   -6.3885    8.7917 C   0  0  0  0  0  0  0  0  0  0  0  0
  -12.4187   -7.6400    8.4415 C   0  0  0  0  0  0  0  0  0  0  0  0
  -13.7976   -7.6133    8.4696 C   0  0  0  0  0  0  0  0  0  0  0  0
  -14.5762   -8.7216    8.1620 C   0  0  0  0  0  0  0  0  0  0  0  0
  -15.9756   -8.6626    8.1998 O   0  0  0  0  0  0  0  0  0  0  0  0
  -13.9150   -9.8805    7.8184 C   0  0  0  0  0  0  0  0  0  0  0  0
  -12.5330   -9.9138    7.7882 C   0  0  0  0  0  0  0  0  0  0  0  0
  -11.7648   -8.8111    8.0944 C   0  0  0  0  0  0  0  0  0  0  0  0
   -8.1893   -7.8985    8.4531 C   0  0  0  0  0  0  0  0  0  0  0  0
   -7.2721   -6.7812    8.7291 C   0  0  0  0  0  0  0  0  0  0  0  0
   -5.9257   -7.3061    8.2471 C   0  0  0  0  0  0  0  0  0  0  0  0
   -6.2073   -8.5447    7.4292 C   0  0  0  0  0  0  0  0  0  0  0  0
   -5.4621   -8.5895    6.2615 O   0  0  0  0  0  0  0  0  0  0  0  0
  -16.3967   -7.7860    8.4586 H   0  0  0  0  0  0  0  0  0  0  0  0
   -5.9291   -9.1506    5.5771 H   0  0  0  0  0  0  0  0  0  0  0  0
  2  1  1  0  0  0
  2  3  1  0  0  0
  3  4  1  0  0  0
  4  5  1  0  0  0
  5  6  1  0  0  0
  6  7  1  0  0  0
  7  8  1  0  0  0
  8  9  1  0  0  0
  9 10  2  0  0  0
 10 11  1  0  0  0
 11 12  1  0  0  0
 11 13  2  0  0  0
 13 14  1  0  0  0
 14 15  2  0  0  0
  6 16  1  0  0  0
 16 17  1  0  0  0
 17 18  1  0  0  0
 18 19  1  0  0  0
 19 20  1  0  0  0
 16  2  1  0  0  0
 19  2  1  0  0  0
 15  5  1  0  0  0
 15  9  1  0  0  0
 12 21  1  0  0  0
 20 22  1  0  0  0
M  END
> <minimizedAffinity>
-7.90108

> <CNNscore>
0.3527343869

> <CNNaffinity>
5.8005366325

> <CNN_VS>
2.0460486412

> <CNNaffinity_variance>
0.1421109885

$$$$
[H]Oc1c([H])c([H])c2c(c1[H])C([H])([H])C([H])([H])[C@]1([H])[C@]2([H])C([H])([H])C([H])([H])[C@]2(C([H])([H])[H])[C@@]([H])(O[H])C([H])([H])C([H])([H])[C@]21[H]


 22 25  0  0  0  0  0  0  0  0999 V2000
   -9.1532   -9.3897    8.8432 C   0  0  0  0  0  0  0  0  0  0  0  0
   -9.3515   -8.8214    7.4587 C   0  0  0  0  0  0  0  0  0  0  0  0
   -8.6067   -9.6545    6.4728 C   0  0  0  0  0  0  0  0  0  0  0  0
   -7.1255   -9.4915    6.5882 C   0  0  0  0  0  0  0  0  0  0  0  0
   -6.6973   -8.0639    6.7002 C   0  0  0  0  0  0  0  0  0  0  0  0
   -7.4597   -7.3606    7.8337 C   0  0  0  0  0  0  0  0  0  0  0  0
   -6.8440   -6.0335    8.0949 C   0  0  0  0  0  0  0  0  0  0  0  0
   -5.4830   -6.2960    8.7567 C   0  0  0  0  0  0  0  0  0  0  0  0
   -4.6638   -7.0894    7.7775 C   0  0  0  0  0  0  0  0  0  0  0  0
   -3.2887   -6.9955    7.8321 C   0  0  0  0  0  0  0  0  0  0  0  0
   -2.4539   -7.6913    6.9672 C   0  0  0  0  0  0  0  0  0  0  0  0
   -1.0600   -7.5746    7.0482 O   0  0  0  0  0  0  0  0  0  0  0  0
   -3.0538   -8.5004    6.0272 C   0  0  0  0  0  0  0  0  0  0  0  0
   -4.4316   -8.5991    5.9673 C   0  0  0  0  0  0  0  0  0  0  0  0
   -5.2559   -7.9064    6.8279 C   0  0  0  0  0  0  0  0  0  0  0  0
   -8.8765   -7.3594    7.4087 C   0  0  0  0  0  0  0  0  0  0  0  0
   -9.8493   -6.6945    8.2905 C   0  0  0  0  0  0  0  0  0  0  0  0
  -11.1581   -7.4030    7.9652 C   0  0  0  0  0  0  0  0  0  0  0  0
  -10.8006   -8.6386    7.1727 C   0  0  0  0  0  0  0  0  0  0  0  0
  -11.5125   -9.7550    7.5819 O   0  0  0  0  0  0  0  0  0  0  0  0
   -0.6851   -6.9669    7.7572 H   0  0  0  0  0  0  0  0  0  0  0  0
  -11.0035  -10.5875    7.3602 H   0  0  0  0  0  0  0  0  0  0  0  0
  2  1  1  0  0  0
  2  3  1  0  0  0
  3  4  1  0  0  0
  4  5  1  0  0  0
  5  6  1  0  0  0
  6  7  1  0  0  0
  7  8  1  0  0  0
  8  9  1  0  0  0
  9 10  2  0  0  0
 10 11  1  0  0  0
 11 12  1  0  0  0
 11 13  2  0  0  0
 13 14  1  0  0  0
 14 15  2  0  0  0
  6 16  1  0  0  0
 16 17  1  0  0  0
 17 18  1  0  0  0
 18 19  1  0  0  0
 19 20  1  0  0  0
 16  2  1  0  0  0
 19  2  1  0  0  0
 15  5  1  0  0  0
 15  9  1  0  0  0
 12 21  1  0  0  0
 20 22  1  0  0  0
M  END
> <minimizedAffinity>
-3.03655

> <CNNscore>
0.3226998746

> <CNNaffinity>
5.0872240067

> <CNN_VS>
1.6416465044

> <CNNaffinity_variance>
0.4020280242

$$$$
[H]Oc1c([H])c([H])c2c(c1[H])C([H])([H])C([H])([H])[C@]1([H])[C@]2([H])C([H])([H])C([H])([H])[C@]2(C([H])([H])[H])[C@@]([H])(O[H])C([H])([H])C([H])([H])[C@]21[H]


 22 25  0  0  0  0  0  0  0  0999 V2000
  -10.3694   -9.5407    6.9365 C   0  0  0  0  0  0  0  0  0  0  0  0
  -10.4241   -8.5623    8.0849 C   0  0  0  0  0  0  0  0  0  0  0  0
  -11.2455   -9.1404    9.1859 C   0  0  0  0  0  0  0  0  0  0  0  0
  -12.7004   -9.1937    8.8478 C   0  0  0  0  0  0  0  0  0  0  0  0
  -13.2107   -7.9266    8.2415 C   0  0  0  0  0  0  0  0  0  0  0  0
  -12.3403   -7.5138    7.0446 C   0  0  0  0  0  0  0  0  0  0  0  0
  -13.0056   -6.4085    6.3069 C   0  0  0  0  0  0  0  0  0  0  0  0
  -14.2285   -7.0152    5.6027 C   0  0  0  0  0  0  0  0  0  0  0  0
  -15.1250   -7.5663    6.6759 C   0  0  0  0  0  0  0  0  0  0  0  0
  -16.4794   -7.6544    6.4296 C   0  0  0  0  0  0  0  0  0  0  0  0
  -17.3814   -8.1495    7.3626 C   0  0  0  0  0  0  0  0  0  0  0  0
  -18.7520   -8.2261    7.0820 O   0  0  0  0  0  0  0  0  0  0  0  0
  -16.8719   -8.5618    8.5744 C   0  0  0  0  0  0  0  0  0  0  0  0
  -15.5153   -8.4763    8.8276 C   0  0  0  0  0  0  0  0  0  0  0  0
  -14.6242   -7.9842    7.8984 C   0  0  0  0  0  0  0  0  0  0  0  0
  -11.0075   -7.2192    7.6147 C   0  0  0  0  0  0  0  0  0  0  0  0
   -9.9647   -6.7424    6.6922 C   0  0  0  0  0  0  0  0  0  0  0  0
   -8.6713   -7.1620    7.3789 C   0  0  0  0  0  0  0  0  0  0  0  0
   -9.0520   -8.1341    8.4710 C   0  0  0  0  0  0  0  0  0  0  0  0
   -8.2064   -9.2309    8.5228 O   0  0  0  0  0  0  0  0  0  0  0  0
  -19.0596   -7.9086    6.1780 H   0  0  0  0  0  0  0  0  0  0  0  0
   -8.6804  -10.0112    8.9324 H   0  0  0  0  0  0  0  0  0  0  0  0
  2  1  1  0  0  0
  2  3  1  0  0  0
  3  4  1  0  0  0
  4  5  1  0  0  0
  5  6  1  0  0  0
  6  7  1  0  0  0
  7  8  1  0  0  0
  8  9  1  0  0  0
  9 10  2  0  0  0
 10 11  1  0  0  0
 11 12  1  0  0  0
 11 13  2  0  0  0
 13 14  1  0  0  0
 14 15  2  0  0  0
  6 16  1  0  0  0
 16 17  1  0  0  0
 17 18  1  0  0  0
 18 19  1  0  0  0
 19 20  1  0  0  0
 16  2  1  0  0  0
 19  2  1  0  0  0
 15  5  1  0  0  0
 15  9  1  0  0  0
 12 21  1  0  0  0
 20 22  1  0  0  0
M  END
> <minimizedAffinity>
-1.21238

> <CNNscore>
0.3148540854

> <CNNaffinity>
5.8378496170

> <CNN_VS>
1.8380707502

> <CNNaffinity_variance>
0.4667563438

$$$$
[H]Oc1c([H])c([H])c2c(c1[H])C([H])([H])C([H])([H])[C@]1([H])[C@]2([H])C([H])([H])C([H])([H])[C@]2(C([H])([H])[H])[C@@]([H])(O[H])C([H])([H])C([H])([H])[C@]21[H]


 22 25  0  0  0  0  0  0  0  0999 V2000
  -12.7191   -9.5857    9.2873 C   0  0  0  0  0  0  0  0  0  0  0  0
  -12.8844   -8.9792    7.9148 C   0  0  0  0  0  0  0  0  0  0  0  0
  -12.1561   -9.8126    6.9168 C   0  0  0  0  0  0  0  0  0  0  0  0
  -10.6718   -9.7000    7.0506 C   0  0  0  0  0  0  0  0  0  0  0  0
  -10.1994   -8.2900    7.2007 C   0  0  0  0  0  0  0  0  0  0  0  0
  -10.9510   -7.5892    8.3429 C   0  0  0  0  0  0  0  0  0  0  0  0
  -10.2961   -6.2891    8.6415 C   0  0  0  0  0  0  0  0  0  0  0  0
   -8.9512   -6.6105    9.3103 C   0  0  0  0  0  0  0  0  0  0  0  0
   -8.1474   -7.4068    8.3207 C   0  0  0  0  0  0  0  0  0  0  0  0
   -6.7707   -7.3585    8.3911 C   0  0  0  0  0  0  0  0  0  0  0  0
   -5.9493   -8.0605    7.5183 C   0  0  0  0  0  0  0  0  0  0  0  0
   -4.5534   -7.9906    7.6158 O   0  0  0  0  0  0  0  0  0  0  0  0
   -6.5648   -8.8277    6.5535 C   0  0  0  0  0  0  0  0  0  0  0  0
   -7.9443   -8.8805    6.4777 C   0  0  0  0  0  0  0  0  0  0  0  0
   -8.7551   -8.1820    7.3463 C   0  0  0  0  0  0  0  0  0  0  0  0
  -12.3624   -7.5324    7.9041 C   0  0  0  0  0  0  0  0  0  0  0  0
  -13.3228   -6.8574    8.7917 C   0  0  0  0  0  0  0  0  0  0  0  0
  -14.6500   -7.5156    8.4368 C   0  0  0  0  0  0  0  0  0  0  0  0
  -14.3238   -8.7432    7.6189 C   0  0  0  0  0  0  0  0  0  0  0  0
  -15.0753   -9.8454    7.9944 O   0  0  0  0  0  0  0  0  0  0  0  0
   -4.1668   -7.4120    8.3427 H   0  0  0  0  0  0  0  0  0  0  0  0
  -14.5907  -10.6885    7.7581 H   0  0  0  0  0  0  0  0  0  0  0  0
  2  1  1  0  0  0
  2  3  1  0  0  0
  3  4  1  0  0  0
  4  5  1  0  0  0
  5  6  1  0  0  0
  6  7  1  0  0  0
  7  8  1  0  0  0
  8  9  1  0  0  0
  9 10  2  0  0  0
 10 11  1  0  0  0
 11 12  1  0  0  0
 11 13  2  0  0  0
 13 14  1  0  0  0
 14 15  2  0  0  0
  6 16  1  0  0  0
 16 17  1  0  0  0
 17 18  1  0  0  0
 18 19  1  0  0  0
 19 20  1  0  0  0
 16  2  1  0  0  0
 19  2  1  0  0  0
 15  5  1  0  0  0
 15  9  1  0  0  0
 12 21  1  0  0  0
 20 22  1  0  0  0
M  END
> <minimizedAffinity>
-7.98925

> <CNNscore>
0.3008843064

> <CNNaffinity>
5.7377567291

> <CNN_VS>
1.7264009714

> <CNNaffinity_variance>
0.0825482458

$$$$
[H]Oc1c([H])c([H])c2c(c1[H])C([H])([H])C([H])([H])[C@]1([H])[C@]2([H])C([H])([H])C([H])([H])[C@]2(C([H])([H])[H])[C@@]([H])(O[H])C([H])([H])C([H])([H])[C@]21[H]


 22 25  0  0  0  0  0  0  0  0999 V2000
  -15.2794   -8.7217    7.9032 C   0  0  0  0  0  0  0  0  0  0  0  0
  -14.8836   -8.4900    6.4649 C   0  0  0  0  0  0  0  0  0  0  0  0
  -14.2914   -9.7397    5.9094 C   0  0  0  0  0  0  0  0  0  0  0  0
  -12.9441  -10.0391    6.4827 C   0  0  0  0  0  0  0  0  0  0  0  0
  -12.0441   -8.8467    6.5253 C   0  0  0  0  0  0  0  0  0  0  0  0
  -12.7394   -7.6724    7.2312 C   0  0  0  0  0  0  0  0  0  0  0  0
  -11.7497   -6.5942    7.4891 C   0  0  0  0  0  0  0  0  0  0  0  0
  -10.8119   -7.1048    8.5934 C   0  0  0  0  0  0  0  0  0  0  0  0
  -10.1403   -8.3404    8.0630 C   0  0  0  0  0  0  0  0  0  0  0  0
   -8.8981   -8.6842    8.5545 C   0  0  0  0  0  0  0  0  0  0  0  0
   -8.2042   -9.8070    8.1221 C   0  0  0  0  0  0  0  0  0  0  0  0
   -6.9433  -10.1294    8.6411 O   0  0  0  0  0  0  0  0  0  0  0  0
   -8.8076  -10.5897    7.1622 C   0  0  0  0  0  0  0  0  0  0  0  0
  -10.0526  -10.2508    6.6655 C   0  0  0  0  0  0  0  0  0  0  0  0
  -10.7373   -9.1353    7.0978 C   0  0  0  0  0  0  0  0  0  0  0  0
  -13.8875   -7.3222    6.3668 C   0  0  0  0  0  0  0  0  0  0  0  0
  -14.7200   -6.1790    6.7738 C   0  0  0  0  0  0  0  0  0  0  0  0
  -16.0705   -6.4857    6.1391 C   0  0  0  0  0  0  0  0  0  0  0  0
  -16.0260   -7.9286    5.6936 C   0  0  0  0  0  0  0  0  0  0  0  0
  -17.1912   -8.6138    5.9994 O   0  0  0  0  0  0  0  0  0  0  0  0
   -6.5581   -9.5164    9.3400 H   0  0  0  0  0  0  0  0  0  0  0  0
  -17.0030   -9.5934    6.0791 H   0  0  0  0  0  0  0  0  0  0  0  0
  2  1  1  0  0  0
  2  3  1  0  0  0
  3  4  1  0  0  0
  4  5  1  0  0  0
  5  6  1  0  0  0
  6  7  1  0  0  0
  7  8  1  0  0  0
  8  9  1  0  0  0
  9 10  2  0  0  0
 10 11  1  0  0  0
 11 12  1  0  0  0
 11 13  2  0  0  0
 13 14  1  0  0  0
 14 15  2  0  0  0
  6 16  1  0  0  0
 16 17  1  0  0  0
 17 18  1  0  0  0
 18 19  1  0  0  0
 19 20  1  0  0  0
 16  2  1  0  0  0
 19  2  1  0  0  0
 15  5  1  0  0  0
 15  9  1  0  0  0
 12 21  1  0  0  0
 20 22  1  0  0  0
M  END
> <minimizedAffinity>
-5.67293

> <CNNscore>
0.2675577104

> <CNNaffinity>
5.7014980316

> <CNN_VS>
1.5254797935

> <CNNaffinity_variance>
0.3785580099

$$$$
[H]Oc1c([H])c([H])c2c(c1[H])C([H])([H])C([H])([H])[C@]1([H])[C@]2([H])C([H])([H])C([H])([H])[C@]2(C([H])([H])[H])[C@@]([H])(O[H])C([H])([H])C([H])([H])[C@]21[H]


 22 25  0  0  0  0  0  0  0  0999 V2000
   -5.3270   -5.9093    6.5573 C   0  0  0  0  0  0  0  0  0  0  0  0
   -4.9533   -6.9858    7.5476 C   0  0  0  0  0  0  0  0  0  0  0  0
   -5.5583   -6.6683    8.8720 C   0  0  0  0  0  0  0  0  0  0  0  0
   -4.9060   -5.4978    9.5339 C   0  0  0  0  0  0  0  0  0  0  0  0
   -3.4131   -5.5522    9.4883 C   0  0  0  0  0  0  0  0  0  0  0  0
   -2.9259   -5.7634    8.0466 C   0  0  0  0  0  0  0  0  0  0  0  0
   -1.4552   -5.5595    7.9865 C   0  0  0  0  0  0  0  0  0  0  0  0
   -1.2054   -4.0560    8.1781 C   0  0  0  0  0  0  0  0  0  0  0  0
   -1.7479   -3.6893    9.5310 C   0  0  0  0  0  0  0  0  0  0  0  0
   -1.1999   -2.6126   10.1968 C   0  0  0  0  0  0  0  0  0  0  0  0
   -1.6375   -2.2031   11.4498 C   0  0  0  0  0  0  0  0  0  0  0  0
   -1.0601   -1.1047   12.1005 O   0  0  0  0  0  0  0  0  0  0  0  0
   -2.6625   -2.9218   12.0252 C   0  0  0  0  0  0  0  0  0  0  0  0
   -3.2162   -4.0019   11.3631 C   0  0  0  0  0  0  0  0  0  0  0  0
   -2.7783   -4.4045   10.1197 C   0  0  0  0  0  0  0  0  0  0  0  0
   -3.4237   -7.1013    7.6586 C   0  0  0  0  0  0  0  0  0  0  0  0
   -3.0598   -7.6001    6.3228 C   0  0  0  0  0  0  0  0  0  0  0  0
   -4.1826   -8.5762    5.9957 C   0  0  0  0  0  0  0  0  0  0  0  0
   -5.2814   -8.3316    7.0033 C   0  0  0  0  0  0  0  0  0  0  0  0
   -6.5397   -8.3180    6.4227 O   0  0  0  0  0  0  0  0  0  0  0  0
   -0.3152   -0.6226   11.6259 H   0  0  0  0  0  0  0  0  0  0  0  0
   -7.1696   -7.7758    6.9800 H   0  0  0  0  0  0  0  0  0  0  0  0
  2  1  1  0  0  0
  2  3  1  0  0  0
  3  4  1  0  0  0
  4  5  1  0  0  0
  5  6  1  0  0  0
  6  7  1  0  0  0
  7  8  1  0  0  0
  8  9  1  0  0  0
  9 10  2  0  0  0
 10 11  1  0  0  0
 11 12  1  0  0  0
 11 13  2  0  0  0
 13 14  1  0  0  0
 14 15  2  0  0  0
  6 16  1  0  0  0
 16 17  1  0  0  0
 17 18  1  0  0  0
 18 19  1  0  0  0
 19 20  1  0  0  0
 16  2  1  0  0  0
 19  2  1  0  0  0
 15  5  1  0  0  0
 15  9  1  0  0  0
 12 21  1  0  0  0
 20 22  1  0  0  0
M  END
> <minimizedAffinity>
-2.93806

> <CNNscore>
0.2619524896

> <CNNaffinity>
4.1340336800

> <CNN_VS>
1.0829204321

> <CNNaffinity_variance>
0.3766921163

$$$$
[H]Oc1c([H])c([H])c2c(c1[H])C([H])([H])C([H])([H])[C@]1([H])[C@]2([H])C([H])([H])C([H])([H])[C@]2(C([H])([H])[H])[C@@]([H])(O[H])C([H])([H])C([H])([H])[C@]21[H]


 22 25  0  0  0  0  0  0  0  0999 V2000
  -10.0190   -8.4600    9.4803 C   0  0  0  0  0  0  0  0  0  0  0  0
   -9.6180   -7.9472    8.1182 C   0  0  0  0  0  0  0  0  0  0  0  0
  -10.1695   -6.5761    7.9259 C   0  0  0  0  0  0  0  0  0  0  0  0
  -11.6542   -6.5748    7.7541 C   0  0  0  0  0  0  0  0  0  0  0  0
  -12.1374   -7.6185    6.7997 C   0  0  0  0  0  0  0  0  0  0  0  0
  -11.5884   -8.9996    7.1890 C   0  0  0  0  0  0  0  0  0  0  0  0
  -12.2775  -10.0483    6.3928 C   0  0  0  0  0  0  0  0  0  0  0  0
  -13.7187  -10.1314    6.9176 C   0  0  0  0  0  0  0  0  0  0  0  0
  -14.3458   -8.7836    6.6953 C   0  0  0  0  0  0  0  0  0  0  0  0
  -15.7140   -8.7052    6.5386 C   0  0  0  0  0  0  0  0  0  0  0  0
  -16.3779   -7.5034    6.3283 C   0  0  0  0  0  0  0  0  0  0  0  0
  -17.7695   -7.4569    6.1726 O   0  0  0  0  0  0  0  0  0  0  0  0
  -15.6108   -6.3600    6.2793 C   0  0  0  0  0  0  0  0  0  0  0  0
  -14.2389   -6.4317    6.4359 C   0  0  0  0  0  0  0  0  0  0  0  0
  -13.5847   -7.6269    6.6443 C   0  0  0  0  0  0  0  0  0  0  0  0
  -10.1224   -8.8986    7.0200 C   0  0  0  0  0  0  0  0  0  0  0  0
   -9.3242  -10.1080    7.2769 C   0  0  0  0  0  0  0  0  0  0  0  0
   -7.9596   -9.5516    7.6625 C   0  0  0  0  0  0  0  0  0  0  0  0
   -8.1479   -8.0757    7.9247 C   0  0  0  0  0  0  0  0  0  0  0  0
   -7.4779   -7.6494    9.0604 O   0  0  0  0  0  0  0  0  0  0  0  0
  -18.2715   -8.3278    6.2188 H   0  0  0  0  0  0  0  0  0  0  0  0
   -7.9195   -6.8328    9.4339 H   0  0  0  0  0  0  0  0  0  0  0  0
  2  1  1  0  0  0
  2  3  1  0  0  0
  3  4  1  0  0  0
  4  5  1  0  0  0
  5  6  1  0  0  0
  6  7  1  0  0  0
  7  8  1  0  0  0
  8  9  1  0  0  0
  9 10  2  0  0  0
 10 11  1  0  0  0
 11 12  1  0  0  0
 11 13  2  0  0  0
 13 14  1  0  0  0
 14 15  2  0  0  0
  6 16  1  0  0  0
 16 17  1  0  0  0
 17 18  1  0  0  0
 18 19  1  0  0  0
 19 20  1  0  0  0
 16  2  1  0  0  0
 19  2  1  0  0  0
 15  5  1  0  0  0
 15  9  1  0  0  0
 12 21  1  0  0  0
 20 22  1  0  0  0
M  END
> <minimizedAffinity>
-2.55850

> <CNNscore>
0.2519474030

> <CNNaffinity>
5.6492047310

> <CNN_VS>
1.4233024120

> <CNNaffinity_variance>
0.3074485660

$$$$
[H]O[C@@]1([H])C([H])([H])C([H])([H])[C@]2([H])[C@]1(C([H])([H])[H])C([H])([H])C([H])([H])[C@]1([H])[C@]3([H])C(=C([H])C(=O)C([H])([H])C3([H])[H])C([H])([H])C([H])([H])[C@@]21[H]


 21 24  0  0  0  0  0  0  0  0999 V2000
   -8.4626   -9.1770    6.3732 C   0  0  0  0  0  0  0  0  0  0  0  0
   -8.0375   -8.2157    7.4573 C   0  0  0  0  0  0  0  0  0  0  0  0
   -8.0829   -6.8175    6.9834 C   0  0  0  0  0  0  0  0  0  0  0  0
   -6.8612   -6.3714    6.2310 C   0  0  0  0  0  0  0  0  0  0  0  0
   -5.5744   -6.8674    6.7824 C   0  0  0  0  0  0  0  0  0  0  0  0
   -5.5697   -8.3556    7.0734 C   0  0  0  0  0  0  0  0  0  0  0  0
   -4.2603   -8.6696    7.7922 C   0  0  0  0  0  0  0  0  0  0  0  0
   -3.1045   -8.4088    6.8573 C   0  0  0  0  0  0  0  0  0  0  0  0
   -3.2094   -6.9959    6.4018 C   0  0  0  0  0  0  0  0  0  0  0  0
   -2.1769   -6.2082    6.5718 C   0  0  0  0  0  0  0  0  0  0  0  0
   -2.2720   -4.8251    6.1286 C   0  0  0  0  0  0  0  0  0  0  0  0
   -1.6505   -3.8994    6.7034 O   0  0  0  0  0  0  0  0  0  0  0  0
   -3.1627   -4.5794    4.9378 C   0  0  0  0  0  0  0  0  0  0  0  0
   -4.5066   -5.1487    5.3377 C   0  0  0  0  0  0  0  0  0  0  0  0
   -4.4712   -6.5638    5.7855 C   0  0  0  0  0  0  0  0  0  0  0  0
   -6.6762   -8.5830    8.0267 C   0  0  0  0  0  0  0  0  0  0  0  0
   -6.9136   -9.9543    8.4996 C   0  0  0  0  0  0  0  0  0  0  0  0
   -8.3229   -9.8670    9.0898 C   0  0  0  0  0  0  0  0  0  0  0  0
   -8.8548   -8.5028    8.6850 C   0  0  0  0  0  0  0  0  0  0  0  0
  -10.2129   -8.5052    8.4563 O   0  0  0  0  0  0  0  0  0  0  0  0
  -10.6869   -8.9116    9.2006 H   0  0  0  0  0  0  0  0  0  0  0  0
  2  1  1  0  0  0
  2  3  1  0  0  0
  3  4  1  0  0  0
  4  5  1  0  0  0
  5  6  1  0  0  0
  6  7  1  0  0  0
  7  8  1  0  0  0
  8  9  1  0  0  0
  9 10  2  0  0  0
 10 11  1  0  0  0
 11 12  2  0  0  0
 11 13  1  0  0  0
 13 14  1  0  0  0
 14 15  1  0  0  0
  6 16  1  0  0  0
 16 17  1  0  0  0
 17 18  1  0  0  0
 18 19  1  0  0  0
 19 20  1  0  0  0
 16  2  1  0  0  0
 19  2  1  0  0  0
 15  5  1  0  0  0
 15  9  1  0  0  0
 20 21  1  0  0  0
M  END
> <minimizedAffinity>
-0.80983

> <CNNscore>
0.4450497031

> <CNNaffinity>
4.7523198128

> <CNN_VS>
2.1150186062

> <CNNaffinity_variance>
0.3287459016

$$$$
[H]O[C@@]1([H])C([H])([H])C([H])([H])[C@]2([H])[C@]1(C([H])([H])[H])C([H])([H])C([H])([H])[C@]1([H])[C@]3([H])C(=C([H])C(=O)C([H])([H])C3([H])[H])C([H])([H])C([H])([H])[C@@]21[H]


 21 24  0  0  0  0  0  0  0  0999 V2000
  -10.3574   -7.6785    6.5888 C   0  0  0  0  0  0  0  0  0  0  0  0
  -11.3859   -8.4381    7.3919 C   0  0  0  0  0  0  0  0  0  0  0  0
  -11.8677   -9.6272    6.6600 C   0  0  0  0  0  0  0  0  0  0  0  0
  -12.9685   -9.3526    5.6748 C   0  0  0  0  0  0  0  0  0  0  0  0
  -13.9846   -8.3712    6.1335 C   0  0  0  0  0  0  0  0  0  0  0  0
  -13.3884   -7.1023    6.7113 C   0  0  0  0  0  0  0  0  0  0  0  0
  -14.5407   -6.2879    7.2933 C   0  0  0  0  0  0  0  0  0  0  0  0
  -15.4629   -5.8623    6.1768 C   0  0  0  0  0  0  0  0  0  0  0  0
  -15.9033   -7.0945    5.4679 C   0  0  0  0  0  0  0  0  0  0  0  0
  -17.1881   -7.3117    5.3358 C   0  0  0  0  0  0  0  0  0  0  0  0
  -17.6265   -8.5146    4.6435 C   0  0  0  0  0  0  0  0  0  0  0  0
  -18.7015   -9.0928    4.9327 O   0  0  0  0  0  0  0  0  0  0  0  0
  -16.7073   -9.0177    3.5602 C   0  0  0  0  0  0  0  0  0  0  0  0
  -15.3703   -9.2030    4.2444 C   0  0  0  0  0  0  0  0  0  0  0  0
  -14.8667   -8.0010    4.9556 C   0  0  0  0  0  0  0  0  0  0  0  0
  -12.5280   -7.5357    7.8323 C   0  0  0  0  0  0  0  0  0  0  0  0
  -11.8120   -6.5041    8.5963 C   0  0  0  0  0  0  0  0  0  0  0  0
  -10.7509   -7.3152    9.3435 C   0  0  0  0  0  0  0  0  0  0  0  0
  -10.8090   -8.7131    8.7517 C   0  0  0  0  0  0  0  0  0  0  0  0
   -9.5780   -9.3295    8.7150 O   0  0  0  0  0  0  0  0  0  0  0  0
   -9.1434   -9.2831    9.5826 H   0  0  0  0  0  0  0  0  0  0  0  0
  2  1  1  0  0  0
  2  3  1  0  0  0
  3  4  1  0  0  0
  4  5  1  0  0  0
  5  6  1  0  0  0
  6  7  1  0  0  0
  7  8  1  0  0  0
  8  9  1  0  0  0
  9 10  2  0  0  0
 10 11  1  0  0  0
 11 12  2  0  0  0
 11 13  1  0  0  0
 13 14  1  0  0  0
 14 15  1  0  0  0
  6 16  1  0  0  0
 16 17  1  0  0  0
 17 18  1  0  0  0
 18 19  1  0  0  0
 19 20  1  0  0  0
 16  2  1  0  0  0
 19  2  1  0  0  0
 15  5  1  0  0  0
 15  9  1  0  0  0
 20 21  1  0  0  0
M  END
> <minimizedAffinity>
-4.80019

> <CNNscore>
0.4343008101

> <CNNaffinity>
6.2079920769

> <CNN_VS>
2.6961359978

> <CNNaffinity_variance>
0.5109310150

$$$$
[H]O[C@@]1([H])C([H])([H])C([H])([H])[C@]2([H])[C@]1(C([H])([H])[H])C([H])([H])C([H])([H])[C@]1([H])[C@]3([H])C(=C([H])C(=O)C([H])([H])C3([H])[H])C([H])([H])C([H])([H])[C@@]21[H]


 21 24  0  0  0  0  0  0  0  0999 V2000
   -4.6156   -3.5470   11.1202 C   0  0  0  0  0  0  0  0  0  0  0  0
   -3.9226   -4.8812   11.2595 C   0  0  0  0  0  0  0  0  0  0  0  0
   -2.5044   -4.7947   10.8558 C   0  0  0  0  0  0  0  0  0  0  0  0
   -2.2650   -4.9238    9.3780 C   0  0  0  0  0  0  0  0  0  0  0  0
   -3.1119   -5.9355    8.6959 C   0  0  0  0  0  0  0  0  0  0  0  0
   -4.5846   -5.8301    9.0417 C   0  0  0  0  0  0  0  0  0  0  0  0
   -5.2820   -7.0330    8.4121 C   0  0  0  0  0  0  0  0  0  0  0  0
   -5.1833   -6.9351    6.9092 C   0  0  0  0  0  0  0  0  0  0  0  0
   -3.7393   -6.8357    6.5627 C   0  0  0  0  0  0  0  0  0  0  0  0
   -3.2414   -7.7001    5.7141 C   0  0  0  0  0  0  0  0  0  0  0  0
   -1.8301   -7.6090    5.3701 C   0  0  0  0  0  0  0  0  0  0  0  0
   -1.1536   -8.6212    5.0677 O   0  0  0  0  0  0  0  0  0  0  0  0
   -1.2372   -6.2237    5.4010 C   0  0  0  0  0  0  0  0  0  0  0  0
   -1.5230   -5.7131    6.7966 C   0  0  0  0  0  0  0  0  0  0  0  0
   -2.9519   -5.7692    7.1960 C   0  0  0  0  0  0  0  0  0  0  0  0
   -4.6649   -5.9767   10.5103 C   0  0  0  0  0  0  0  0  0  0  0  0
   -5.9911   -5.9203   11.1415 C   0  0  0  0  0  0  0  0  0  0  0  0
   -5.6521   -5.6840   12.6151 C   0  0  0  0  0  0  0  0  0  0  0  0
   -4.1621   -5.3906   12.6526 C   0  0  0  0  0  0  0  0  0  0  0  0
   -3.8194   -4.4897   13.6365 O   0  0  0  0  0  0  0  0  0  0  0  0
   -4.1938   -4.7557   14.4926 H   0  0  0  0  0  0  0  0  0  0  0  0
  2  1  1  0  0  0
  2  3  1  0  0  0
  3  4  1  0  0  0
  4  5  1  0  0  0
  5  6  1  0  0  0
  6  7  1  0  0  0
  7  8  1  0  0  0
  8  9  1  0  0  0
  9 10  2  0  0  0
 10 11  1  0  0  0
 11 12  2  0  0  0
 11 13  1  0  0  0
 13 14  1  0  0  0
 14 15  1  0  0  0
  6 16  1  0  0  0
 16 17  1  0  0  0
 17 18  1  0  0  0
 18 19  1  0  0  0
 19 20  1  0  0  0
 16  2  1  0  0  0
 19  2  1  0  0  0
 15  5  1  0  0  0
 15  9  1  0  0  0
 20 21  1  0  0  0
M  END
> <minimizedAffinity>
-0.89797

> <CNNscore>
0.4295539558

> <CNNaffinity>
4.5081224442

> <CNN_VS>
1.9364818335

> <CNNaffinity_variance>
0.5282855630

$$$$
[H]O[C@@]1([H])C([H])([H])C([H])([H])[C@]2([H])[C@]1(C([H])([H])[H])C([H])([H])C([H])([H])[C@]1([H])[C@]3([H])C(=C([H])C(=O)C([H])([H])C3([H])[H])C([H])([H])C([H])([H])[C@@]21[H]


 21 24  0  0  0  0  0  0  0  0999 V2000
   -5.4282   -6.0837    5.5928 C   0  0  0  0  0  0  0  0  0  0  0  0
   -5.7420   -6.8477    6.8568 C   0  0  0  0  0  0  0  0  0  0  0  0
   -6.1495   -5.9383    7.9470 C   0  0  0  0  0  0  0  0  0  0  0  0
   -5.0093   -5.3221    8.7074 C   0  0  0  0  0  0  0  0  0  0  0  0
   -3.8676   -6.2359    8.9669 C   0  0  0  0  0  0  0  0  0  0  0  0
   -3.4065   -6.9983    7.7398 C   0  0  0  0  0  0  0  0  0  0  0  0
   -2.3634   -8.0110    8.2048 C   0  0  0  0  0  0  0  0  0  0  0  0
   -1.1568   -7.2750    8.7345 C   0  0  0  0  0  0  0  0  0  0  0  0
   -1.6275   -6.3666    9.8153 C   0  0  0  0  0  0  0  0  0  0  0  0
   -1.0630   -6.4555   10.9937 C   0  0  0  0  0  0  0  0  0  0  0  0
   -1.5179   -5.5702   12.0556 C   0  0  0  0  0  0  0  0  0  0  0  0
   -1.4895   -5.9115   13.2624 O   0  0  0  0  0  0  0  0  0  0  0  0
   -2.0232   -4.2215   11.6115 C   0  0  0  0  0  0  0  0  0  0  0  0
   -3.1168   -4.5296   10.6119 C   0  0  0  0  0  0  0  0  0  0  0  0
   -2.7039   -5.4186    9.4967 C   0  0  0  0  0  0  0  0  0  0  0  0
   -4.5877   -7.7495    7.2651 C   0  0  0  0  0  0  0  0  0  0  0  0
   -4.4380   -8.5964    6.0732 C   0  0  0  0  0  0  0  0  0  0  0  0
   -5.8887   -8.8512    5.6577 C   0  0  0  0  0  0  0  0  0  0  0  0
   -6.7319   -7.9264    6.5188 C   0  0  0  0  0  0  0  0  0  0  0  0
   -7.8526   -7.4627    5.8662 O   0  0  0  0  0  0  0  0  0  0  0  0
   -8.3485   -8.1975    5.4687 H   0  0  0  0  0  0  0  0  0  0  0  0
  2  1  1  0  0  0
  2  3  1  0  0  0
  3  4  1  0  0  0
  4  5  1  0  0  0
  5  6  1  0  0  0
  6  7  1  0  0  0
  7  8  1  0  0  0
  8  9  1  0  0  0
  9 10  2  0  0  0
 10 11  1  0  0  0
 11 12  2  0  0  0
 11 13  1  0  0  0
 13 14  1  0  0  0
 14 15  1  0  0  0
  6 16  1  0  0  0
 16 17  1  0  0  0
 17 18  1  0  0  0
 18 19  1  0  0  0
 19 20  1  0  0  0
 16  2  1  0  0  0
 19  2  1  0  0  0
 15  5  1  0  0  0
 15  9  1  0  0  0
 20 21  1  0  0  0
M  END
> <minimizedAffinity>
-2.46586

> <CNNscore>
0.3825554252

> <CNNaffinity>
4.5088157654

> <CNN_VS>
1.7248718739

> <CNNaffinity_variance>
0.3519645631

$$$$
[H]O[C@@]1([H])C([H])([H])C([H])([H])[C@]2([H])[C@]1(C([H])([H])[H])C([H])([H])C([H])([H])[C@]1([H])[C@]3([H])C(=C([H])C(=O)C([H])([H])C3([H])[H])C([H])([H])C([H])([H])[C@@]21[H]


 21 24  0  0  0  0  0  0  0  0999 V2000
  -14.7173   -9.2973    7.9958 C   0  0  0  0  0  0  0  0  0  0  0  0
  -14.0012   -8.6961    6.8102 C   0  0  0  0  0  0  0  0  0  0  0  0
  -13.1528   -9.6965    6.1312 C   0  0  0  0  0  0  0  0  0  0  0  0
  -11.7941   -9.8850    6.7445 C   0  0  0  0  0  0  0  0  0  0  0  0
  -11.1416   -8.6345    7.2095 C   0  0  0  0  0  0  0  0  0  0  0  0
  -12.0443   -7.7527    8.0503 C   0  0  0  0  0  0  0  0  0  0  0  0
  -11.2963   -6.4446    8.2934 C   0  0  0  0  0  0  0  0  0  0  0  0
  -10.0671   -6.7212    9.1245 C   0  0  0  0  0  0  0  0  0  0  0  0
   -9.2609   -7.7425    8.4021 C   0  0  0  0  0  0  0  0  0  0  0  0
   -8.0085   -7.4708    8.1322 C   0  0  0  0  0  0  0  0  0  0  0  0
   -7.2136   -8.4648    7.4261 C   0  0  0  0  0  0  0  0  0  0  0  0
   -6.2771   -8.1417    6.6567 O   0  0  0  0  0  0  0  0  0  0  0  0
   -7.5884   -9.9024    7.6795 C   0  0  0  0  0  0  0  0  0  0  0  0
   -9.0579   -9.9856    7.3275 C   0  0  0  0  0  0  0  0  0  0  0  0
   -9.9197   -9.0023    8.0309 C   0  0  0  0  0  0  0  0  0  0  0  0
  -13.2177   -7.4533    7.2028 C   0  0  0  0  0  0  0  0  0  0  0  0
  -14.2766   -6.6000    7.7605 C   0  0  0  0  0  0  0  0  0  0  0  0
  -15.4509   -6.8599    6.8141 C   0  0  0  0  0  0  0  0  0  0  0  0
  -15.0228   -8.0240    5.9371 C   0  0  0  0  0  0  0  0  0  0  0  0
  -16.0730   -8.8427    5.5855 O   0  0  0  0  0  0  0  0  0  0  0  0
  -16.8093   -8.3223    5.2237 H   0  0  0  0  0  0  0  0  0  0  0  0
  2  1  1  0  0  0
  2  3  1  0  0  0
  3  4  1  0  0  0
  4  5  1  0  0  0
  5  6  1  0  0  0
  6  7  1  0  0  0
  7  8  1  0  0  0
  8  9  1  0  0  0
  9 10  2  0  0  0
 10 11  1  0  0  0
 11 12  2  0  0  0
 11 13  1  0  0  0
 13 14  1  0  0  0
 14 15  1  0  0  0
  6 16  1  0  0  0
 16 17  1  0  0  0
 17 18  1  0  0  0
 18 19  1  0  0  0
 19 20  1  0  0  0
 16  2  1  0  0  0
 19  2  1  0  0  0
 15  5  1  0  0  0
 15  9  1  0  0  0
 20 21  1  0  0  0
M  END
> <minimizedAffinity>
-9.19849

> <CNNscore>
0.3174777925

> <CNNaffinity>
5.8812932968

> <CNN_VS>
1.8671799898

> <CNNaffinity_variance>
0.1064106449

$$$$
[H]O[C@@]1([H])C([H])([H])C([H])([H])[C@]2([H])[C@]1(C([H])([H])[H])C([H])([H])C([H])([H])[C@]1([H])[C@]3([H])C(=C([H])C(=O)C([H])([H])C3([H])[H])C([H])([H])C([H])([H])[C@@]21[H]


 21 24  0  0  0  0  0  0  0  0999 V2000
   -6.8291   -7.8184    8.9542 C   0  0  0  0  0  0  0  0  0  0  0  0
   -6.8339   -8.3193    7.5298 C   0  0  0  0  0  0  0  0  0  0  0  0
   -5.6506   -9.1584    7.2515 C   0  0  0  0  0  0  0  0  0  0  0  0
   -4.4115   -8.3916    6.8846 C   0  0  0  0  0  0  0  0  0  0  0  0
   -4.6429   -7.2183    6.0039 C   0  0  0  0  0  0  0  0  0  0  0  0
   -5.7694   -6.3178    6.4724 C   0  0  0  0  0  0  0  0  0  0  0  0
   -5.9961   -5.2755    5.3806 C   0  0  0  0  0  0  0  0  0  0  0  0
   -4.7688   -4.4051    5.2610 C   0  0  0  0  0  0  0  0  0  0  0  0
   -3.6105   -5.3014    4.9968 C   0  0  0  0  0  0  0  0  0  0  0  0
   -2.8692   -5.0671    3.9428 C   0  0  0  0  0  0  0  0  0  0  0  0
   -1.7345   -5.9393    3.6781 C   0  0  0  0  0  0  0  0  0  0  0  0
   -1.3364   -6.1757    2.5122 O   0  0  0  0  0  0  0  0  0  0  0  0
   -1.0716   -6.5373    4.8924 C   0  0  0  0  0  0  0  0  0  0  0  0
   -2.1856   -7.2504    5.6278 C   0  0  0  0  0  0  0  0  0  0  0  0
   -3.3648   -6.4030    5.9374 C   0  0  0  0  0  0  0  0  0  0  0  0
   -6.9710   -7.1761    6.5364 C   0  0  0  0  0  0  0  0  0  0  0  0
   -8.2382   -6.5649    6.9621 C   0  0  0  0  0  0  0  0  0  0  0  0
   -9.0998   -7.7822    7.3055 C   0  0  0  0  0  0  0  0  0  0  0  0
   -8.1601   -8.9752    7.2681 C   0  0  0  0  0  0  0  0  0  0  0  0
   -8.4888   -9.9435    8.1907 O   0  0  0  0  0  0  0  0  0  0  0  0
   -9.4297  -10.1766    8.1252 H   0  0  0  0  0  0  0  0  0  0  0  0
  2  1  1  0  0  0
  2  3  1  0  0  0
  3  4  1  0  0  0
  4  5  1  0  0  0
  5  6  1  0  0  0
  6  7  1  0  0  0
  7  8  1  0  0  0
  8  9  1  0  0  0
  9 10  2  0  0  0
 10 11  1  0  0  0
 11 12  2  0  0  0
 11 13  1  0  0  0
 13 14  1  0  0  0
 14 15  1  0  0  0
  6 16  1  0  0  0
 16 17  1  0  0  0
 17 18  1  0  0  0
 18 19  1  0  0  0
 19 20  1  0  0  0
 16  2  1  0  0  0
 19  2  1  0  0  0
 15  5  1  0  0  0
 15  9  1  0  0  0
 20 21  1  0  0  0
M  END
> <minimizedAffinity>
-3.50104

> <CNNscore>
0.3130222857

> <CNNaffinity>
4.6883721352

> <CNN_VS>
1.4675649405

> <CNNaffinity_variance>
0.2972559929

$$$$
[H]O[C@@]1([H])C([H])([H])C([H])([H])[C@]2([H])[C@]1(C([H])([H])[H])C([H])([H])C([H])([H])[C@]1([H])[C@]3([H])C(=C([H])C(=O)C([H])([H])C3([H])[H])C([H])([H])C([H])([H])[C@@]21[H]


 21 24  0  0  0  0  0  0  0  0999 V2000
  -14.4716   -7.7598    6.3789 C   0  0  0  0  0  0  0  0  0  0  0  0
  -13.9485   -7.9785    7.7784 C   0  0  0  0  0  0  0  0  0  0  0  0
  -13.2987   -6.7612    8.3053 C   0  0  0  0  0  0  0  0  0  0  0  0
  -11.8648   -6.5877    7.8911 C   0  0  0  0  0  0  0  0  0  0  0  0
  -11.0655   -7.8393    7.8740 C   0  0  0  0  0  0  0  0  0  0  0  0
  -11.7463   -8.9870    7.1538 C   0  0  0  0  0  0  0  0  0  0  0  0
  -10.8901  -10.2305    7.3784 C   0  0  0  0  0  0  0  0  0  0  0  0
   -9.5490  -10.0382    6.7132 C   0  0  0  0  0  0  0  0  0  0  0  0
   -8.9497   -8.7946    7.2693 C   0  0  0  0  0  0  0  0  0  0  0  0
   -7.7533   -8.8620    7.7979 C   0  0  0  0  0  0  0  0  0  0  0  0
   -7.1606   -7.6498    8.3435 C   0  0  0  0  0  0  0  0  0  0  0  0
   -6.3620   -7.6783    9.3105 O   0  0  0  0  0  0  0  0  0  0  0  0
   -7.5678   -6.3631    7.6726 C   0  0  0  0  0  0  0  0  0  0  0  0
   -9.0790   -6.3494    7.7502 C   0  0  0  0  0  0  0  0  0  0  0  0
   -9.7387   -7.5574    7.1936 C   0  0  0  0  0  0  0  0  0  0  0  0
  -13.0343   -9.1916    7.8495 C   0  0  0  0  0  0  0  0  0  0  0  0
  -13.9215  -10.2593    7.3666 C   0  0  0  0  0  0  0  0  0  0  0  0
  -15.2617   -9.9005    8.0127 C   0  0  0  0  0  0  0  0  0  0  0  0
  -15.0701   -8.5207    8.6186 C   0  0  0  0  0  0  0  0  0  0  0  0
  -16.2135   -7.7541    8.5744 O   0  0  0  0  0  0  0  0  0  0  0  0
  -16.9711   -8.2444    8.9343 H   0  0  0  0  0  0  0  0  0  0  0  0
  2  1  1  0  0  0
  2  3  1  0  0  0
  3  4  1  0  0  0
  4  5  1  0  0  0
  5  6  1  0  0  0
  6  7  1  0  0  0
  7  8  1  0  0  0
  8  9  1  0  0  0
  9 10  2  0  0  0
 10 11  1  0  0  0
 11 12  2  0  0  0
 11 13  1  0  0  0
 13 14  1  0  0  0
 14 15  1  0  0  0
  6 16  1  0  0  0
 16 17  1  0  0  0
 17 18  1  0  0  0
 18 19  1  0  0  0
 19 20  1  0  0  0
 16  2  1  0  0  0
 19  2  1  0  0  0
 15  5  1  0  0  0
 15  9  1  0  0  0
 20 21  1  0  0  0
M  END
> <minimizedAffinity>
-5.22814

> <CNNscore>
0.2876110971

> <CNNaffinity>
5.8015756607

> <CNN_VS>
1.6685975790

> <CNNaffinity_variance>
0.2004120350

$$$$
[H]O[C@@]1([H])C([H])([H])C([H])([H])[C@]2([H])[C@]1(C([H])([H])[H])C([H])([H])C([H])([H])[C@]1([H])[C@]3([H])C(=C([H])C(=O)C([H])([H])C3([H])[H])C([H])([H])C([H])([H])[C@@]21[H]


 21 24  0  0  0  0  0  0  0  0999 V2000
   -7.2998   -7.7569    8.7898 C   0  0  0  0  0  0  0  0  0  0  0  0
   -8.0937   -7.2080    7.6286 C   0  0  0  0  0  0  0  0  0  0  0  0
   -8.9737   -6.1010    8.0551 C   0  0  0  0  0  0  0  0  0  0  0  0
  -10.2899   -6.5354    8.6354 C   0  0  0  0  0  0  0  0  0  0  0  0
  -10.9233   -7.6894    7.9478 C   0  0  0  0  0  0  0  0  0  0  0  0
   -9.9779   -8.8511    7.7109 C   0  0  0  0  0  0  0  0  0  0  0  0
  -10.7211   -9.8675    6.8480 C   0  0  0  0  0  0  0  0  0  0  0  0
  -11.8936  -10.4163    7.6240 C   0  0  0  0  0  0  0  0  0  0  0  0
  -12.7340   -9.2603    8.0390 C   0  0  0  0  0  0  0  0  0  0  0  0
  -14.0032   -9.2649    7.7158 C   0  0  0  0  0  0  0  0  0  0  0  0
  -14.8316   -8.1380    8.1185 C   0  0  0  0  0  0  0  0  0  0  0  0
  -15.8170   -7.7621    7.4395 O   0  0  0  0  0  0  0  0  0  0  0  0
  -14.4289   -7.4551    9.4003 C   0  0  0  0  0  0  0  0  0  0  0  0
  -12.9835   -7.0597    9.1889 C   0  0  0  0  0  0  0  0  0  0  0  0
  -12.0884   -8.1751    8.7902 C   0  0  0  0  0  0  0  0  0  0  0  0
   -8.8623   -8.3054    6.9094 C   0  0  0  0  0  0  0  0  0  0  0  0
   -7.7784   -9.2177    6.5178 C   0  0  0  0  0  0  0  0  0  0  0  0
   -6.6630   -8.2556    6.1026 C   0  0  0  0  0  0  0  0  0  0  0  0
   -7.1344   -6.8736    6.5215 C   0  0  0  0  0  0  0  0  0  0  0  0
   -6.1009   -6.0530    6.9154 O   0  0  0  0  0  0  0  0  0  0  0  0
   -5.3932   -6.0466    6.2498 H   0  0  0  0  0  0  0  0  0  0  0  0
  2  1  1  0  0  0
  2  3  1  0  0  0
  3  4  1  0  0  0
  4  5  1  0  0  0
  5  6  1  0  0  0
  6  7  1  0  0  0
  7  8  1  0  0  0
  8  9  1  0  0  0
  9 10  2  0  0  0
 10 11  1  0  0  0
 11 12  2  0  0  0
 11 13  1  0  0  0
 13 14  1  0  0  0
 14 15  1  0  0  0
  6 16  1  0  0  0
 16 17  1  0  0  0
 17 18  1  0  0  0
 18 19  1  0  0  0
 19 20  1  0  0  0
 16  2  1  0  0  0
 19  2  1  0  0  0
 15  5  1  0  0  0
 15  9  1  0  0  0
 20 21  1  0  0  0
M  END
> <minimizedAffinity>
-9.08279

> <CNNscore>
0.2365274876

> <CNNaffinity>
5.7013692856

> <CNN_VS>
1.3485305309

> <CNNaffinity_variance>
0.0641010106

$$$$
[H]O[C@@]1([H])C([H])([H])C([H])([H])[C@]2([H])[C@]1(C([H])([H])[H])C([H])([H])C([H])([H])[C@]1([H])[C@]3([H])C(=C([H])C(=O)C([H])([H])C3([H])[H])C([H])([H])C([H])([H])[C@@]21[H]


 21 24  0  0  0  0  0  0  0  0999 V2000
  -11.9307   -9.0979    6.9718 C   0  0  0  0  0  0  0  0  0  0  0  0
  -13.2133   -8.7516    7.6896 C   0  0  0  0  0  0  0  0  0  0  0  0
  -14.3258   -9.6180    7.2497 C   0  0  0  0  0  0  0  0  0  0  0  0
  -15.0113   -9.1663    5.9913 C   0  0  0  0  0  0  0  0  0  0  0  0
  -15.1994   -7.6974    5.8772 C   0  0  0  0  0  0  0  0  0  0  0  0
  -13.9467   -6.8978    6.1789 C   0  0  0  0  0  0  0  0  0  0  0  0
  -14.3461   -5.4247    6.1951 C   0  0  0  0  0  0  0  0  0  0  0  0
  -14.7971   -5.0161    4.8139 C   0  0  0  0  0  0  0  0  0  0  0  0
  -15.9042   -5.9286    4.4181 C   0  0  0  0  0  0  0  0  0  0  0  0
  -17.0446   -5.4009    4.0489 C   0  0  0  0  0  0  0  0  0  0  0  0
  -18.1319   -6.2870    3.6602 C   0  0  0  0  0  0  0  0  0  0  0  0
  -19.3349   -5.9796    3.8382 O   0  0  0  0  0  0  0  0  0  0  0  0
  -17.7186   -7.5931    3.0319 C   0  0  0  0  0  0  0  0  0  0  0  0
  -16.7908   -8.2308    4.0431 C   0  0  0  0  0  0  0  0  0  0  0  0
  -15.6531   -7.3754    4.4654 C   0  0  0  0  0  0  0  0  0  0  0  0
  -13.5490   -7.2749    7.5515 C   0  0  0  0  0  0  0  0  0  0  0  0
  -12.3513   -6.6445    8.1246 C   0  0  0  0  0  0  0  0  0  0  0  0
  -12.0290   -7.5535    9.3129 C   0  0  0  0  0  0  0  0  0  0  0  0
  -12.9404   -8.7601    9.1671 C   0  0  0  0  0  0  0  0  0  0  0  0
  -12.3594   -9.9258    9.6147 O   0  0  0  0  0  0  0  0  0  0  0  0
  -11.9953   -9.8085   10.5078 H   0  0  0  0  0  0  0  0  0  0  0  0
  2  1  1  0  0  0
  2  3  1  0  0  0
  3  4  1  0  0  0
  4  5  1  0  0  0
  5  6  1  0  0  0
  6  7  1  0  0  0
  7  8  1  0  0  0
  8  9  1  0  0  0
  9 10  2  0  0  0
 10 11  1  0  0  0
 11 12  2  0  0  0
 11 13  1  0  0  0
 13 14  1  0  0  0
 14 15  1  0  0  0
  6 16  1  0  0  0
 16 17  1  0  0  0
 17 18  1  0  0  0
 18 19  1  0  0  0
 19 20  1  0  0  0
 16  2  1  0  0  0
 19  2  1  0  0  0
 15  5  1  0  0  0
 15  9  1  0  0  0
 20 21  1  0  0  0
M  END
> <minimizedAffinity>
-7.10903

> <CNNscore>
0.2274818718

> <CNNaffinity>
5.7791123390

> <CNN_VS>
1.3146432638

> <CNNaffinity_variance>
0.0058897818

$$$$
[H]C#C[C@]1(O[H])C([H])([H])C([H])([H])[C@]2([H])[C@]1(C([H])([H])[H])C([H])([H])C([H])([H])[C@]1([H])C3(C([H])([H])[H])C(=C([H])C(=O)C([H])([H])C3([H])[H])C([H])([H])C([H])([H])[C@]12[H]


 24 27  0  0  0  0  0  0  0  0999 V2000
  -12.2546   -5.4675    8.9243 C   0  0  0  0  0  0  0  0  0  0  0  0
  -12.0090   -6.2945   10.1584 C   0  0  0  0  0  0  0  0  0  0  0  0
  -10.5599   -6.4889   10.3902 C   0  0  0  0  0  0  0  0  0  0  0  0
   -9.9197   -7.2011    9.2443 C   0  0  0  0  0  0  0  0  0  0  0  0
  -10.6768   -8.3719    8.7153 C   0  0  0  0  0  0  0  0  0  0  0  0
  -12.1823   -8.1479    8.6576 C   0  0  0  0  0  0  0  0  0  0  0  0
  -12.7807   -9.5024    8.2551 C   0  0  0  0  0  0  0  0  0  0  0  0
  -12.4950   -9.6360    6.7729 C   0  0  0  0  0  0  0  0  0  0  0  0
  -11.0003   -9.6940    6.6220 C   0  0  0  0  0  0  0  0  0  0  0  0
  -10.4907  -10.5387    5.7392 C   0  0  0  0  0  0  0  0  0  0  0  0
   -9.0509  -10.6641    5.5238 C   0  0  0  0  0  0  0  0  0  0  0  0
   -8.5980  -11.2003    4.4938 O   0  0  0  0  0  0  0  0  0  0  0  0
   -8.1264  -10.1404    6.5558 C   0  0  0  0  0  0  0  0  0  0  0  0
   -8.8558   -9.6772    7.7802 C   0  0  0  0  0  0  0  0  0  0  0  0
  -10.0939   -8.8421    7.4241 C   0  0  0  0  0  0  0  0  0  0  0  0
   -9.6583   -7.6934    6.5365 C   0  0  0  0  0  0  0  0  0  0  0  0
  -12.5776   -7.7152   10.0031 C   0  0  0  0  0  0  0  0  0  0  0  0
  -13.9943   -7.5091   10.3051 C   0  0  0  0  0  0  0  0  0  0  0  0
  -13.8814   -6.7229   11.6242 C   0  0  0  0  0  0  0  0  0  0  0  0
  -12.7898   -5.7300   11.2813 C   0  0  0  0  0  0  0  0  0  0  0  0
  -13.4611   -4.5467   10.8979 O   0  0  0  0  0  0  0  0  0  0  0  0
  -14.3375   -4.4987   11.3585 H   0  0  0  0  0  0  0  0  0  0  0  0
  -11.9875   -5.3783   12.4449 C   0  0  0  0  0  0  0  0  0  0  0  0
  -11.3347   -5.0862   13.4131 C   0  0  0  0  0  0  0  0  0  0  0  0
  2  1  1  0  0  0
  2  3  1  0  0  0
  3  4  1  0  0  0
  4  5  1  0  0  0
  5  6  1  0  0  0
  6  7  1  0  0  0
  7  8  1  0  0  0
  8  9  1  0  0  0
  9 10  2  0  0  0
 10 11  1  0  0  0
 11 12  2  0  0  0
 11 13  1  0  0  0
 13 14  1  0  0  0
 14 15  1  0  0  0
 15 16  1  0  0  0
  6 17  1  0  0  0
 17 18  1  0  0  0
 18 19  1  0  0  0
 19 20  1  0  0  0
 20 21  1  0  0  0
 20 23  1  0  0  0
 23 24  3  0  0  0
 17  2  1  0  0  0
 20  2  1  0  0  0
 15  5  1  0  0  0
 15  9  1  0  0  0
 21 22  1  0  0  0
M  END
> <minimizedAffinity>
5.16661

> <CNNscore>
0.4911137819

> <CNNaffinity>
5.9990024567

> <CNN_VS>
2.9461927414

> <CNNaffinity_variance>
0.4705162942

$$$$
[H]C#C[C@]1(O[H])C([H])([H])C([H])([H])[C@]2([H])[C@]1(C([H])([H])[H])C([H])([H])C([H])([H])[C@]1([H])C3(C([H])([H])[H])C(=C([H])C(=O)C([H])([H])C3([H])[H])C([H])([H])C([H])([H])[C@]12[H]


 24 27  0  0  0  0  0  0  0  0999 V2000
   -7.3698   -6.2645    7.0763 C   0  0  0  0  0  0  0  0  0  0  0  0
   -6.1921   -7.0851    7.5309 C   0  0  0  0  0  0  0  0  0  0  0  0
   -5.1411   -7.1318    6.4894 C   0  0  0  0  0  0  0  0  0  0  0  0
   -5.6539   -7.7513    5.2310 C   0  0  0  0  0  0  0  0  0  0  0  0
   -6.4729   -8.9842    5.4125 C   0  0  0  0  0  0  0  0  0  0  0  0
   -7.4183   -8.9171    6.6049 C   0  0  0  0  0  0  0  0  0  0  0  0
   -8.0333  -10.3186    6.7167 C   0  0  0  0  0  0  0  0  0  0  0  0
   -9.0530  -10.3931    5.5983 C   0  0  0  0  0  0  0  0  0  0  0  0
   -8.2900  -10.2921    4.3069 C   0  0  0  0  0  0  0  0  0  0  0  0
   -8.6617  -11.0619    3.2961 C   0  0  0  0  0  0  0  0  0  0  0  0
   -7.9798  -11.0325    2.0041 C   0  0  0  0  0  0  0  0  0  0  0  0
   -8.5179  -11.4986    0.9810 O   0  0  0  0  0  0  0  0  0  0  0  0
   -6.6267  -10.4353    1.9244 C   0  0  0  0  0  0  0  0  0  0  0  0
   -6.0917  -10.0743    3.2770 C   0  0  0  0  0  0  0  0  0  0  0  0
   -7.1479   -9.3661    4.1371 C   0  0  0  0  0  0  0  0  0  0  0  0
   -7.6593   -8.1613    3.3727 C   0  0  0  0  0  0  0  0  0  0  0  0
   -6.5871   -8.5540    7.7587 C   0  0  0  0  0  0  0  0  0  0  0  0
   -7.1892   -8.5025    9.0912 C   0  0  0  0  0  0  0  0  0  0  0  0
   -6.0958   -7.7344    9.8562 C   0  0  0  0  0  0  0  0  0  0  0  0
   -5.7739   -6.6268    8.8741 C   0  0  0  0  0  0  0  0  0  0  0  0
   -6.5337   -5.5127    9.2975 O   0  0  0  0  0  0  0  0  0  0  0  0
   -6.6818   -5.5652   10.2763 H   0  0  0  0  0  0  0  0  0  0  0  0
   -4.3788   -6.2159    8.9537 C   0  0  0  0  0  0  0  0  0  0  0  0
   -3.2295   -5.8647    9.0219 C   0  0  0  0  0  0  0  0  0  0  0  0
  2  1  1  0  0  0
  2  3  1  0  0  0
  3  4  1  0  0  0
  4  5  1  0  0  0
  5  6  1  0  0  0
  6  7  1  0  0  0
  7  8  1  0  0  0
  8  9  1  0  0  0
  9 10  2  0  0  0
 10 11  1  0  0  0
 11 12  2  0  0  0
 11 13  1  0  0  0
 13 14  1  0  0  0
 14 15  1  0  0  0
 15 16  1  0  0  0
  6 17  1  0  0  0
 17 18  1  0  0  0
 18 19  1  0  0  0
 19 20  1  0  0  0
 20 21  1  0  0  0
 20 23  1  0  0  0
 23 24  3  0  0  0
 17  2  1  0  0  0
 20  2  1  0  0  0
 15  5  1  0  0  0
 15  9  1  0  0  0
 21 22  1  0  0  0
M  END
> <minimizedAffinity>
20.45149

> <CNNscore>
0.4229903221

> <CNNaffinity>
5.4882626534

> <CNN_VS>
2.3214819431

> <CNNaffinity_variance>
0.7667922378

$$$$
[H]C#C[C@]1(O[H])C([H])([H])C([H])([H])[C@]2([H])[C@]1(C([H])([H])[H])C([H])([H])C([H])([H])[C@]1([H])C3(C([H])([H])[H])C(=C([H])C(=O)C([H])([H])C3([H])[H])C([H])([H])C([H])([H])[C@]12[H]


 24 27  0  0  0  0  0  0  0  0999 V2000
  -15.4849   -9.0152    5.4887 C   0  0  0  0  0  0  0  0  0  0  0  0
  -15.7596   -7.6589    6.0822 C   0  0  0  0  0  0  0  0  0  0  0  0
  -14.8583   -6.6339    5.5092 C   0  0  0  0  0  0  0  0  0  0  0  0
  -13.4267   -6.9572    5.7855 C   0  0  0  0  0  0  0  0  0  0  0  0
  -13.1297   -7.4095    7.1751 C   0  0  0  0  0  0  0  0  0  0  0  0
  -14.1896   -8.3385    7.7526 C   0  0  0  0  0  0  0  0  0  0  0  0
  -13.7917   -8.5485    9.2198 C   0  0  0  0  0  0  0  0  0  0  0  0
  -12.6197   -9.5082    9.1781 C   0  0  0  0  0  0  0  0  0  0  0  0
  -11.5035   -8.8002    8.4619 C   0  0  0  0  0  0  0  0  0  0  0  0
  -10.2704   -8.9470    8.9207 C   0  0  0  0  0  0  0  0  0  0  0  0
   -9.1233   -8.2975    8.2901 C   0  0  0  0  0  0  0  0  0  0  0  0
   -7.9603   -8.6873    8.5118 O   0  0  0  0  0  0  0  0  0  0  0  0
   -9.3624   -7.1583    7.3742 C   0  0  0  0  0  0  0  0  0  0  0  0
  -10.8023   -6.7434    7.3581 C   0  0  0  0  0  0  0  0  0  0  0  0
  -11.7431   -7.9535    7.2718 C   0  0  0  0  0  0  0  0  0  0  0  0
  -11.3597   -8.7730    6.0558 C   0  0  0  0  0  0  0  0  0  0  0  0
  -15.4698   -7.6390    7.5926 C   0  0  0  0  0  0  0  0  0  0  0  0
  -16.6882   -8.2338    8.1426 C   0  0  0  0  0  0  0  0  0  0  0  0
  -17.7548   -7.3918    7.4185 C   0  0  0  0  0  0  0  0  0  0  0  0
  -17.2111   -7.3829    6.0046 C   0  0  0  0  0  0  0  0  0  0  0  0
  -17.8965   -8.4179    5.3288 O   0  0  0  0  0  0  0  0  0  0  0  0
  -18.7895   -8.5472    5.7393 H   0  0  0  0  0  0  0  0  0  0  0  0
  -17.5448   -6.1526    5.2998 C   0  0  0  0  0  0  0  0  0  0  0  0
  -17.8323   -5.1398    4.7163 C   0  0  0  0  0  0  0  0  0  0  0  0
  2  1  1  0  0  0
  2  3  1  0  0  0
  3  4  1  0  0  0
  4  5  1  0  0  0
  5  6  1  0  0  0
  6  7  1  0  0  0
  7  8  1  0  0  0
  8  9  1  0  0  0
  9 10  2  0  0  0
 10 11  1  0  0  0
 11 12  2  0  0  0
 11 13  1  0  0  0
 13 14  1  0  0  0
 14 15  1  0  0  0
 15 16  1  0  0  0
  6 17  1  0  0  0
 17 18  1  0  0  0
 18 19  1  0  0  0
 19 20  1  0  0  0
 20 21  1  0  0  0
 20 23  1  0  0  0
 23 24  3  0  0  0
 17  2  1  0  0  0
 20  2  1  0  0  0
 15  5  1  0  0  0
 15  9  1  0  0  0
 21 22  1  0  0  0
M  END
> <minimizedAffinity>
-3.47620

> <CNNscore>
0.4142848849

> <CNNaffinity>
6.4742727280

> <CNN_VS>
2.6821932793

> <CNNaffinity_variance>
0.2929663062

$$$$
[H]C#C[C@]1(O[H])C([H])([H])C([H])([H])[C@]2([H])[C@]1(C([H])([H])[H])C([H])([H])C([H])([H])[C@]1([H])C3(C([H])([H])[H])C(=C([H])C(=O)C([H])([H])C3([H])[H])C([H])([H])C([H])([H])[C@]12[H]


 24 27  0  0  0  0  0  0  0  0999 V2000
  -15.5948   -8.3251    7.6989 C   0  0  0  0  0  0  0  0  0  0  0  0
  -15.3584   -7.9591    6.2576 C   0  0  0  0  0  0  0  0  0  0  0  0
  -14.9335   -9.1389    5.4708 C   0  0  0  0  0  0  0  0  0  0  0  0
  -13.6583   -9.7098    5.9982 C   0  0  0  0  0  0  0  0  0  0  0  0
  -12.6018   -8.7126    6.3347 C   0  0  0  0  0  0  0  0  0  0  0  0
  -13.1425   -7.4538    7.0002 C   0  0  0  0  0  0  0  0  0  0  0  0
  -11.9433   -6.5024    7.1077 C   0  0  0  0  0  0  0  0  0  0  0  0
  -11.1090   -7.0456    8.2502 C   0  0  0  0  0  0  0  0  0  0  0  0
  -10.6233   -8.4037    7.8263 C   0  0  0  0  0  0  0  0  0  0  0  0
   -9.3810   -8.7482    8.1269 C   0  0  0  0  0  0  0  0  0  0  0  0
   -8.8223  -10.0465    7.7559 C   0  0  0  0  0  0  0  0  0  0  0  0
   -7.7964  -10.4881    8.3091 O   0  0  0  0  0  0  0  0  0  0  0  0
   -9.4978  -10.8399    6.7032 C   0  0  0  0  0  0  0  0  0  0  0  0
  -10.6140  -10.0782    6.0553 C   0  0  0  0  0  0  0  0  0  0  0  0
  -11.4865   -9.3549    7.0909 C   0  0  0  0  0  0  0  0  0  0  0  0
  -11.9840  -10.3752    8.0951 C   0  0  0  0  0  0  0  0  0  0  0  0
  -14.2027   -6.9541    6.1169 C   0  0  0  0  0  0  0  0  0  0  0  0
  -14.8633   -5.6869    6.4313 C   0  0  0  0  0  0  0  0  0  0  0  0
  -16.0919   -5.7823    5.5082 C   0  0  0  0  0  0  0  0  0  0  0  0
  -16.5306   -7.2119    5.7507 C   0  0  0  0  0  0  0  0  0  0  0  0
  -17.5522   -7.1345    6.7244 O   0  0  0  0  0  0  0  0  0  0  0  0
  -18.0118   -6.2591    6.6538 H   0  0  0  0  0  0  0  0  0  0  0  0
  -17.1451   -7.8015    4.5691 C   0  0  0  0  0  0  0  0  0  0  0  0
  -17.6616   -8.2799    3.5927 C   0  0  0  0  0  0  0  0  0  0  0  0
  2  1  1  0  0  0
  2  3  1  0  0  0
  3  4  1  0  0  0
  4  5  1  0  0  0
  5  6  1  0  0  0
  6  7  1  0  0  0
  7  8  1  0  0  0
  8  9  1  0  0  0
  9 10  2  0  0  0
 10 11  1  0  0  0
 11 12  2  0  0  0
 11 13  1  0  0  0
 13 14  1  0  0  0
 14 15  1  0  0  0
 15 16  1  0  0  0
  6 17  1  0  0  0
 17 18  1  0  0  0
 18 19  1  0  0  0
 19 20  1  0  0  0
 20 21  1  0  0  0
 20 23  1  0  0  0
 23 24  3  0  0  0
 17  2  1  0  0  0
 20  2  1  0  0  0
 15  5  1  0  0  0
 15  9  1  0  0  0
 21 22  1  0  0  0
M  END
> <minimizedAffinity>
-5.14334

> <CNNscore>
0.3634212315

> <CNNaffinity>
6.3640942574

> <CNN_VS>
2.3128468990

> <CNNaffinity_variance>
0.1748356372

$$$$
[H]C#C[C@]1(O[H])C([H])([H])C([H])([H])[C@]2([H])[C@]1(C([H])([H])[H])C([H])([H])C([H])([H])[C@]1([H])C3(C([H])([H])[H])C(=C([H])C(=O)C([H])([H])C3([H])[H])C([H])([H])C([H])([H])[C@]12[H]


 24 27  0  0  0  0  0  0  0  0999 V2000
  -15.3518   -5.1348    4.3511 C   0  0  0  0  0  0  0  0  0  0  0  0
  -16.6669   -5.8340    4.5721 C   0  0  0  0  0  0  0  0  0  0  0  0
  -17.1415   -5.6498    5.9621 C   0  0  0  0  0  0  0  0  0  0  0  0
  -16.1687   -6.2139    6.9449 C   0  0  0  0  0  0  0  0  0  0  0  0
  -15.6132   -7.5537    6.5982 C   0  0  0  0  0  0  0  0  0  0  0  0
  -15.2987   -7.7177    5.1169 C   0  0  0  0  0  0  0  0  0  0  0  0
  -14.9068   -9.1913    4.9443 C   0  0  0  0  0  0  0  0  0  0  0  0
  -13.5035   -9.2956    5.5066 C   0  0  0  0  0  0  0  0  0  0  0  0
  -13.5986   -8.9802    6.9735 C   0  0  0  0  0  0  0  0  0  0  0  0
  -12.8736   -9.6969    7.8180 C   0  0  0  0  0  0  0  0  0  0  0  0
  -12.9015   -9.4627    9.2601 C   0  0  0  0  0  0  0  0  0  0  0  0
  -11.9998   -9.8999   10.0012 O   0  0  0  0  0  0  0  0  0  0  0  0
  -14.0267   -8.6907    9.8364 C   0  0  0  0  0  0  0  0  0  0  0  0
  -15.0808   -8.3875    8.8153 C   0  0  0  0  0  0  0  0  0  0  0  0
  -14.4703   -7.9027    7.4927 C   0  0  0  0  0  0  0  0  0  0  0  0
  -13.5816   -6.7100    7.7837 C   0  0  0  0  0  0  0  0  0  0  0  0
  -16.5279   -7.3562    4.4011 C   0  0  0  0  0  0  0  0  0  0  0  0
  -16.5831   -7.5038    2.9465 C   0  0  0  0  0  0  0  0  0  0  0  0
  -17.8415   -6.6732    2.6346 C   0  0  0  0  0  0  0  0  0  0  0  0
  -17.6054   -5.4489    3.4950 C   0  0  0  0  0  0  0  0  0  0  0  0
  -17.0331   -4.4853    2.6337 O   0  0  0  0  0  0  0  0  0  0  0  0
  -17.3426   -4.6450    1.7056 H   0  0  0  0  0  0  0  0  0  0  0  0
  -18.8533   -4.8699    3.9736 C   0  0  0  0  0  0  0  0  0  0  0  0
  -19.8806   -4.3802    4.3655 C   0  0  0  0  0  0  0  0  0  0  0  0
  2  1  1  0  0  0
  2  3  1  0  0  0
  3  4  1  0  0  0
  4  5  1  0  0  0
  5  6  1  0  0  0
  6  7  1  0  0  0
  7  8  1  0  0  0
  8  9  1  0  0  0
  9 10  2  0  0  0
 10 11  1  0  0  0
 11 12  2  0  0  0
 11 13  1  0  0  0
 13 14  1  0  0  0
 14 15  1  0  0  0
 15 16  1  0  0  0
  6 17  1  0  0  0
 17 18  1  0  0  0
 18 19  1  0  0  0
 19 20  1  0  0  0
 20 21  1  0  0  0
 20 23  1  0  0  0
 23 24  3  0  0  0
 17  2  1  0  0  0
 20  2  1  0  0  0
 15  5  1  0  0  0
 15  9  1  0  0  0
 21 22  1  0  0  0
M  END
> <minimizedAffinity>
-0.80361

> <CNNscore>
0.3620899320

> <CNNaffinity>
6.2195639610

> <CNN_VS>
2.2520415783

> <CNNaffinity_variance>
0.1964072287

$$$$
[H]C#C[C@]1(O[H])C([H])([H])C([H])([H])[C@]2([H])[C@]1(C([H])([H])[H])C([H])([H])C([H])([H])[C@]1([H])C3(C([H])([H])[H])C(=C([H])C(=O)C([H])([H])C3([H])[H])C([H])([H])C([H])([H])[C@]12[H]


 24 27  0  0  0  0  0  0  0  0999 V2000
  -14.1556   -9.6020    7.7448 C   0  0  0  0  0  0  0  0  0  0  0  0
  -14.2635   -8.4286    8.6822 C   0  0  0  0  0  0  0  0  0  0  0  0
  -15.6785   -8.1163    8.9847 C   0  0  0  0  0  0  0  0  0  0  0  0
  -16.4316   -7.7636    7.7442 C   0  0  0  0  0  0  0  0  0  0  0  0
  -15.7267   -6.8408    6.8086 C   0  0  0  0  0  0  0  0  0  0  0  0
  -14.2374   -7.1304    6.6744 C   0  0  0  0  0  0  0  0  0  0  0  0
  -13.6756   -5.9880    5.8176 C   0  0  0  0  0  0  0  0  0  0  0  0
  -14.1158   -6.3023    4.4021 C   0  0  0  0  0  0  0  0  0  0  0  0
  -15.6176   -6.2348    4.3888 C   0  0  0  0  0  0  0  0  0  0  0  0
  -16.2119   -5.6808    3.3436 C   0  0  0  0  0  0  0  0  0  0  0  0
  -17.6656   -5.5710    3.2432 C   0  0  0  0  0  0  0  0  0  0  0  0
  -18.2213   -5.3577    2.1481 O   0  0  0  0  0  0  0  0  0  0  0  0
  -18.4792   -5.7180    4.4722 C   0  0  0  0  0  0  0  0  0  0  0  0
  -17.6274   -5.8133    5.7015 C   0  0  0  0  0  0  0  0  0  0  0  0
  -16.4398   -6.7649    5.4994 C   0  0  0  0  0  0  0  0  0  0  0  0
  -16.9748   -8.1119    5.0560 C   0  0  0  0  0  0  0  0  0  0  0  0
  -13.7048   -7.1466    8.0419 C   0  0  0  0  0  0  0  0  0  0  0  0
  -12.2655   -7.3059    8.2515 C   0  0  0  0  0  0  0  0  0  0  0  0
  -12.2435   -7.6466    9.7529 C   0  0  0  0  0  0  0  0  0  0  0  0
  -13.3721   -8.6533    9.8416 C   0  0  0  0  0  0  0  0  0  0  0  0
  -12.7534   -9.9225    9.7768 O   0  0  0  0  0  0  0  0  0  0  0  0
  -11.8334   -9.8617   10.1411 H   0  0  0  0  0  0  0  0  0  0  0  0
  -14.0492   -8.6013   11.1301 C   0  0  0  0  0  0  0  0  0  0  0  0
  -14.6073   -8.5460   12.1952 C   0  0  0  0  0  0  0  0  0  0  0  0
  2  1  1  0  0  0
  2  3  1  0  0  0
  3  4  1  0  0  0
  4  5  1  0  0  0
  5  6  1  0  0  0
  6  7  1  0  0  0
  7  8  1  0  0  0
  8  9  1  0  0  0
  9 10  2  0  0  0
 10 11  1  0  0  0
 11 12  2  0  0  0
 11 13  1  0  0  0
 13 14  1  0  0  0
 14 15  1  0  0  0
 15 16  1  0  0  0
  6 17  1  0  0  0
 17 18  1  0  0  0
 18 19  1  0  0  0
 19 20  1  0  0  0
 20 21  1  0  0  0
 20 23  1  0  0  0
 23 24  3  0  0  0
 17  2  1  0  0  0
 20  2  1  0  0  0
 15  5  1  0  0  0
 15  9  1  0  0  0
 21 22  1  0  0  0
M  END
> <minimizedAffinity>
-1.12404

> <CNNscore>
0.3340840340

> <CNNaffinity>
6.1765623093

> <CNN_VS>
2.0634908676

> <CNNaffinity_variance>
0.1942346543

$$$$
[H]C#C[C@]1(O[H])C([H])([H])C([H])([H])[C@]2([H])[C@]1(C([H])([H])[H])C([H])([H])C([H])([H])[C@]1([H])C3(C([H])([H])[H])C(=C([H])C(=O)C([H])([H])C3([H])[H])C([H])([H])C([H])([H])[C@]12[H]


 24 27  0  0  0  0  0  0  0  0999 V2000
   -5.3625   -5.6923    6.8660 C   0  0  0  0  0  0  0  0  0  0  0  0
   -5.2433   -7.0110    7.5829 C   0  0  0  0  0  0  0  0  0  0  0  0
   -5.8806   -6.9515    8.9177 C   0  0  0  0  0  0  0  0  0  0  0  0
   -5.2341   -5.9178    9.7801 C   0  0  0  0  0  0  0  0  0  0  0  0
   -3.7433   -5.8991    9.7477 C   0  0  0  0  0  0  0  0  0  0  0  0
   -3.1616   -6.1268    8.3586 C   0  0  0  0  0  0  0  0  0  0  0  0
   -1.6451   -6.2389    8.5652 C   0  0  0  0  0  0  0  0  0  0  0  0
   -1.1722   -4.8185    8.8001 C   0  0  0  0  0  0  0  0  0  0  0  0
   -1.8102   -4.3539   10.0796 C   0  0  0  0  0  0  0  0  0  0  0  0
   -1.0833   -3.6313   10.9174 C   0  0  0  0  0  0  0  0  0  0  0  0
   -1.6183   -3.1363   12.1839 C   0  0  0  0  0  0  0  0  0  0  0  0
   -1.0601   -2.2076   12.7999 O   0  0  0  0  0  0  0  0  0  0  0  0
   -2.8455   -3.7584   12.7323 C   0  0  0  0  0  0  0  0  0  0  0  0
   -3.2757   -4.9511   11.9333 C   0  0  0  0  0  0  0  0  0  0  0  0
   -3.2126   -4.6786   10.4238 C   0  0  0  0  0  0  0  0  0  0  0  0
   -4.0431   -3.4468   10.1239 C   0  0  0  0  0  0  0  0  0  0  0  0
   -3.7731   -7.3656    7.8633 C   0  0  0  0  0  0  0  0  0  0  0  0
   -3.3437   -7.9155    6.5772 C   0  0  0  0  0  0  0  0  0  0  0  0
   -4.4795   -8.9220    6.3169 C   0  0  0  0  0  0  0  0  0  0  0  0
   -5.6945   -8.0936    6.6809 C   0  0  0  0  0  0  0  0  0  0  0  0
   -6.1801   -7.5762    5.4584 O   0  0  0  0  0  0  0  0  0  0  0  0
   -5.9443   -8.1941    4.7200 H   0  0  0  0  0  0  0  0  0  0  0  0
   -6.7690   -8.9119    7.2263 C   0  0  0  0  0  0  0  0  0  0  0  0
   -7.6521   -9.5867    7.6883 C   0  0  0  0  0  0  0  0  0  0  0  0
  2  1  1  0  0  0
  2  3  1  0  0  0
  3  4  1  0  0  0
  4  5  1  0  0  0
  5  6  1  0  0  0
  6  7  1  0  0  0
  7  8  1  0  0  0
  8  9  1  0  0  0
  9 10  2  0  0  0
 10 11  1  0  0  0
 11 12  2  0  0  0
 11 13  1  0  0  0
 13 14  1  0  0  0
 14 15  1  0  0  0
 15 16  1  0  0  0
  6 17  1  0  0  0
 17 18  1  0  0  0
 18 19  1  0  0  0
 19 20  1  0  0  0
 20 21  1  0  0  0
 20 23  1  0  0  0
 23 24  3  0  0  0
 17  2  1  0  0  0
 20  2  1  0  0  0
 15  5  1  0  0  0
 15  9  1  0  0  0
 21 22  1  0  0  0
M  END
> <minimizedAffinity>
-3.35459

> <CNNscore>
0.2999243438

> <CNNaffinity>
4.8764257431

> <CNN_VS>
1.4625587463

> <CNNaffinity_variance>
0.4360298514

$$$$
[H]C#C[C@]1(O[H])C([H])([H])C([H])([H])[C@]2([H])[C@]1(C([H])([H])[H])C([H])([H])C([H])([H])[C@]1([H])C3(C([H])([H])[H])C(=C([H])C(=O)C([H])([H])C3([H])[H])C([H])([H])C([H])([H])[C@]12[H]


 24 27  0  0  0  0  0  0  0  0999 V2000
   -4.9789   -6.0345    6.0198 C   0  0  0  0  0  0  0  0  0  0  0  0
   -4.3882   -6.8830    7.1144 C   0  0  0  0  0  0  0  0  0  0  0  0
   -4.4070   -8.3168    6.7463 C   0  0  0  0  0  0  0  0  0  0  0  0
   -5.8019   -8.7978    6.5162 C   0  0  0  0  0  0  0  0  0  0  0  0
   -6.8069   -8.3512    7.5233 C   0  0  0  0  0  0  0  0  0  0  0  0
   -6.6208   -6.9070    7.9702 C   0  0  0  0  0  0  0  0  0  0  0  0
   -7.6277   -6.7000    9.1096 C   0  0  0  0  0  0  0  0  0  0  0  0
   -8.9754   -6.5747    8.4282 C   0  0  0  0  0  0  0  0  0  0  0  0
   -9.2500   -7.8943    7.7623 C   0  0  0  0  0  0  0  0  0  0  0  0
  -10.4817   -8.3773    7.8099 C   0  0  0  0  0  0  0  0  0  0  0  0
  -10.8422   -9.6513    7.1918 C   0  0  0  0  0  0  0  0  0  0  0  0
  -12.0318   -9.9391    6.9561 O   0  0  0  0  0  0  0  0  0  0  0  0
   -9.7647  -10.6066    6.8448 C   0  0  0  0  0  0  0  0  0  0  0  0
   -8.4274  -10.1501    7.3437 C   0  0  0  0  0  0  0  0  0  0  0  0
   -8.1932   -8.6590    7.0631 C   0  0  0  0  0  0  0  0  0  0  0  0
   -8.3743   -8.4164    5.5780 C   0  0  0  0  0  0  0  0  0  0  0  0
   -5.2229   -6.7958    8.4034 C   0  0  0  0  0  0  0  0  0  0  0  0
   -4.7484   -5.5409    8.9871 C   0  0  0  0  0  0  0  0  0  0  0  0
   -3.2265   -5.7625    8.9124 C   0  0  0  0  0  0  0  0  0  0  0  0
   -3.0795   -6.3178    7.5106 C   0  0  0  0  0  0  0  0  0  0  0  0
   -2.7293   -5.2136    6.7007 O   0  0  0  0  0  0  0  0  0  0  0  0
   -2.2457   -4.5422    7.2467 H   0  0  0  0  0  0  0  0  0  0  0  0
   -1.9715   -7.2578    7.4099 C   0  0  0  0  0  0  0  0  0  0  0  0
   -1.0618   -8.0423    7.3344 C   0  0  0  0  0  0  0  0  0  0  0  0
  2  1  1  0  0  0
  2  3  1  0  0  0
  3  4  1  0  0  0
  4  5  1  0  0  0
  5  6  1  0  0  0
  6  7  1  0  0  0
  7  8  1  0  0  0
  8  9  1  0  0  0
  9 10  2  0  0  0
 10 11  1  0  0  0
 11 12  2  0  0  0
 11 13  1  0  0  0
 13 14  1  0  0  0
 14 15  1  0  0  0
 15 16  1  0  0  0
  6 17  1  0  0  0
 17 18  1  0  0  0
 18 19  1  0  0  0
 19 20  1  0  0  0
 20 21  1  0  0  0
 20 23  1  0  0  0
 23 24  3  0  0  0
 17  2  1  0  0  0
 20  2  1  0  0  0
 15  5  1  0  0  0
 15  9  1  0  0  0
 21 22  1  0  0  0
M  END
> <minimizedAffinity>
-3.82893

> <CNNscore>
0.2992700040

> <CNNaffinity>
5.4125165939

> <CNN_VS>
1.6198039055

> <CNNaffinity_variance>
0.2809934616

$$$$
[H]C#C[C@]1(O[H])C([H])([H])C([H])([H])[C@]2([H])[C@]1(C([H])([H])[H])C([H])([H])C([H])([H])[C@]1([H])C3(C([H])([H])[H])C(=C([H])C(=O)C([H])([H])C3([H])[H])C([H])([H])C([H])([H])[C@]12[H]


 24 27  0  0  0  0  0  0  0  0999 V2000
  -12.3510   -6.9454    7.3117 C   0  0  0  0  0  0  0  0  0  0  0  0
  -12.4614   -8.4444    7.2209 C   0  0  0  0  0  0  0  0  0  0  0  0
  -12.5155   -8.8904    5.8104 C   0  0  0  0  0  0  0  0  0  0  0  0
  -13.7001   -8.3150    5.1062 C   0  0  0  0  0  0  0  0  0  0  0  0
  -14.9798   -8.3535    5.8709 C   0  0  0  0  0  0  0  0  0  0  0  0
  -14.8140   -8.0376    7.3517 C   0  0  0  0  0  0  0  0  0  0  0  0
  -16.1910   -8.2922    7.9794 C   0  0  0  0  0  0  0  0  0  0  0  0
  -17.0384   -7.1052    7.5681 C   0  0  0  0  0  0  0  0  0  0  0  0
  -17.1627   -7.1579    6.0708 C   0  0  0  0  0  0  0  0  0  0  0  0
  -18.3328   -6.8616    5.5270 C   0  0  0  0  0  0  0  0  0  0  0  0
  -18.5476   -6.8860    4.0819 C   0  0  0  0  0  0  0  0  0  0  0  0
  -19.5219   -6.3050    3.5656 O   0  0  0  0  0  0  0  0  0  0  0  0
  -17.5825   -7.6175    3.2290 C   0  0  0  0  0  0  0  0  0  0  0  0
  -16.5758   -8.3738    4.0416 C   0  0  0  0  0  0  0  0  0  0  0  0
  -16.0256   -7.5276    5.1984 C   0  0  0  0  0  0  0  0  0  0  0  0
  -15.4642   -6.2411    4.6267 C   0  0  0  0  0  0  0  0  0  0  0  0
  -13.7740   -8.9483    7.8445 C   0  0  0  0  0  0  0  0  0  0  0  0
  -13.4462   -8.9617    9.2704 C   0  0  0  0  0  0  0  0  0  0  0  0
  -12.1115   -9.7287    9.2373 C   0  0  0  0  0  0  0  0  0  0  0  0
  -11.4167   -9.0578    8.0702 C   0  0  0  0  0  0  0  0  0  0  0  0
  -10.5768   -8.0759    8.6431 O   0  0  0  0  0  0  0  0  0  0  0  0
  -10.3082   -8.3600    9.5540 H   0  0  0  0  0  0  0  0  0  0  0  0
  -10.5363   -9.9750    7.3594 C   0  0  0  0  0  0  0  0  0  0  0  0
   -9.8166  -10.7421    6.7743 C   0  0  0  0  0  0  0  0  0  0  0  0
  2  1  1  0  0  0
  2  3  1  0  0  0
  3  4  1  0  0  0
  4  5  1  0  0  0
  5  6  1  0  0  0
  6  7  1  0  0  0
  7  8  1  0  0  0
  8  9  1  0  0  0
  9 10  2  0  0  0
 10 11  1  0  0  0
 11 12  2  0  0  0
 11 13  1  0  0  0
 13 14  1  0  0  0
 14 15  1  0  0  0
 15 16  1  0  0  0
  6 17  1  0  0  0
 17 18  1  0  0  0
 18 19  1  0  0  0
 19 20  1  0  0  0
 20 21  1  0  0  0
 20 23  1  0  0  0
 23 24  3  0  0  0
 17  2  1  0  0  0
 20  2  1  0  0  0
 15  5  1  0  0  0
 15  9  1  0  0  0
 21 22  1  0  0  0
M  END
> <minimizedAffinity>
-3.99802

> <CNNscore>
0.2684650123

> <CNNaffinity>
6.1446523666

> <CNN_VS>
1.6496242285

> <CNNaffinity_variance>
0.0806867927

$$$$
[H]O[C@@]1([H])C([H])([H])C([H])([H])[C@]2(C([H])([H])[H])C3([H])C([H])([H])C([H])([H])[C@@]4(C([H])([H])[H])C([H])(C([H])([H])C([H])([H])[C@]4([H])O[H])C3([H])C([H])([H])C([H])([H])C2([H])C1([H])[H]


 23 26  0  0  0  0  0  0  0  0999 V2000
   -7.7872   -7.5333    9.6184 C   0  0  0  0  0  0  0  0  0  0  0  0
   -7.9456   -7.2559    8.1570 C   0  0  0  0  0  0  0  0  0  0  0  0
   -8.9132   -6.1679    7.8484 C   0  0  0  0  0  0  0  0  0  0  0  0
  -10.2497   -6.7009    7.3138 C   0  0  0  0  0  0  0  0  0  0  0  0
  -10.6508   -7.9446    8.1212 C   0  0  0  0  0  0  0  0  0  0  0  0
   -9.6616   -9.0306    7.9100 C   0  0  0  0  0  0  0  0  0  0  0  0
  -10.0947  -10.1330    7.0001 C   0  0  0  0  0  0  0  0  0  0  0  0
  -11.2189   -9.7472    6.1115 C   0  0  0  0  0  0  0  0  0  0  0  0
  -12.3922   -9.4175    7.0525 C   0  0  0  0  0  0  0  0  0  0  0  0
  -13.5997   -9.2789    6.2016 C   0  0  0  0  0  0  0  0  0  0  0  0
  -14.6753   -8.3868    6.6703 C   0  0  0  0  0  0  0  0  0  0  0  0
  -15.7811   -9.1315    7.1551 O   0  0  0  0  0  0  0  0  0  0  0  0
  -14.3231   -7.4147    7.7286 C   0  0  0  0  0  0  0  0  0  0  0  0
  -12.8563   -7.0254    7.6322 C   0  0  0  0  0  0  0  0  0  0  0  0
  -12.0778   -8.3052    7.9736 C   0  0  0  0  0  0  0  0  0  0  0  0
  -12.6467   -8.6755    9.3595 C   0  0  0  0  0  0  0  0  0  0  0  0
   -8.3993   -8.4607    7.3631 C   0  0  0  0  0  0  0  0  0  0  0  0
   -7.2342   -9.3627    7.3214 C   0  0  0  0  0  0  0  0  0  0  0  0
   -6.0473   -8.4303    7.4164 C   0  0  0  0  0  0  0  0  0  0  0  0
   -6.5692   -7.0329    7.5632 C   0  0  0  0  0  0  0  0  0  0  0  0
   -5.7312   -6.3282    8.4179 O   0  0  0  0  0  0  0  0  0  0  0  0
  -16.0924   -9.6827    6.3740 H   0  0  0  0  0  0  0  0  0  0  0  0
   -4.9912   -6.8826    8.7788 H   0  0  0  0  0  0  0  0  0  0  0  0
  2  1  1  0  0  0
  2  3  1  0  0  0
  3  4  1  0  0  0
  4  5  1  0  0  0
  5  6  1  0  0  0
  6  7  1  0  0  0
  7  8  1  0  0  0
  8  9  1  0  0  0
  9 10  1  0  0  0
 10 11  1  0  0  0
 11 12  1  0  0  0
 11 13  1  0  0  0
 13 14  1  0  0  0
 14 15  1  0  0  0
 15 16  1  0  0  0
  6 17  1  0  0  0
 17 18  1  0  0  0
 18 19  1  0  0  0
 19 20  1  0  0  0
 20 21  1  0  0  0
 17  2  1  0  0  0
 20  2  1  0  0  0
 15  5  1  0  0  0
 15  9  1  0  0  0
 12 22  1  0  0  0
 21 23  1  0  0  0
M  END
> <minimizedAffinity>
-7.30616

> <CNNscore>
0.4796350598

> <CNNaffinity>
6.0863571167

> <CNN_VS>
2.9192302227

> <CNNaffinity_variance>
0.2159228772

$$$$
[H]O[C@@]1([H])C([H])([H])C([H])([H])[C@]2(C([H])([H])[H])C3([H])C([H])([H])C([H])([H])[C@@]4(C([H])([H])[H])C([H])(C([H])([H])C([H])([H])[C@]4([H])O[H])C3([H])C([H])([H])C([H])([H])C2([H])C1([H])[H]


 23 26  0  0  0  0  0  0  0  0999 V2000
   -3.8241   -3.3882    3.0765 C   0  0  0  0  0  0  0  0  0  0  0  0
   -2.3461   -3.3254    3.2991 C   0  0  0  0  0  0  0  0  0  0  0  0
   -1.7187   -4.6463    3.5765 C   0  0  0  0  0  0  0  0  0  0  0  0
   -1.3622   -4.8308    5.0580 C   0  0  0  0  0  0  0  0  0  0  0  0
   -2.5046   -4.2731    5.9203 C   0  0  0  0  0  0  0  0  0  0  0  0
   -2.6359   -2.8101    5.7087 C   0  0  0  0  0  0  0  0  0  0  0  0
   -2.0980   -1.9468    6.8024 C   0  0  0  0  0  0  0  0  0  0  0  0
   -1.1284   -2.6514    7.6772 C   0  0  0  0  0  0  0  0  0  0  0  0
   -1.9198   -3.8028    8.3245 C   0  0  0  0  0  0  0  0  0  0  0  0
   -1.0600   -4.3673    9.3938 C   0  0  0  0  0  0  0  0  0  0  0  0
   -1.2322   -5.7901    9.7382 C   0  0  0  0  0  0  0  0  0  0  0  0
   -1.9128   -5.9373   10.9742 O   0  0  0  0  0  0  0  0  0  0  0  0
   -1.9504   -6.6327    8.7568 C   0  0  0  0  0  0  0  0  0  0  0  0
   -1.7492   -6.1021    7.3460 C   0  0  0  0  0  0  0  0  0  0  0  0
   -2.4647   -4.7426    7.3224 C   0  0  0  0  0  0  0  0  0  0  0  0
   -3.8946   -5.1165    7.7663 C   0  0  0  0  0  0  0  0  0  0  0  0
   -1.9496   -2.4219    4.4454 C   0  0  0  0  0  0  0  0  0  0  0  0
   -2.1881   -1.0499    3.9622 C   0  0  0  0  0  0  0  0  0  0  0  0
   -2.0042   -1.1532    2.4647 C   0  0  0  0  0  0  0  0  0  0  0  0
   -1.7203   -2.5871    2.1328 C   0  0  0  0  0  0  0  0  0  0  0  0
   -2.3276   -2.8966    0.9225 O   0  0  0  0  0  0  0  0  0  0  0  0
   -1.3324   -5.4756   11.6530 H   0  0  0  0  0  0  0  0  0  0  0  0
   -2.8428   -2.1380    0.5427 H   0  0  0  0  0  0  0  0  0  0  0  0
  2  1  1  0  0  0
  2  3  1  0  0  0
  3  4  1  0  0  0
  4  5  1  0  0  0
  5  6  1  0  0  0
  6  7  1  0  0  0
  7  8  1  0  0  0
  8  9  1  0  0  0
  9 10  1  0  0  0
 10 11  1  0  0  0
 11 12  1  0  0  0
 11 13  1  0  0  0
 13 14  1  0  0  0
 14 15  1  0  0  0
 15 16  1  0  0  0
  6 17  1  0  0  0
 17 18  1  0  0  0
 18 19  1  0  0  0
 19 20  1  0  0  0
 20 21  1  0  0  0
 17  2  1  0  0  0
 20  2  1  0  0  0
 15  5  1  0  0  0
 15  9  1  0  0  0
 12 22  1  0  0  0
 21 23  1  0  0  0
M  END
> <minimizedAffinity>
-2.38696

> <CNNscore>
0.4097574651

> <CNNaffinity>
4.2894706726

> <CNN_VS>
1.7576426268

> <CNNaffinity_variance>
0.1574926078

$$$$
[H]O[C@@]1([H])C([H])([H])C([H])([H])[C@]2(C([H])([H])[H])C3([H])C([H])([H])C([H])([H])[C@@]4(C([H])([H])[H])C([H])(C([H])([H])C([H])([H])[C@]4([H])O[H])C3([H])C([H])([H])C([H])([H])C2([H])C1([H])[H]


 23 26  0  0  0  0  0  0  0  0999 V2000
   -3.8357   -5.1562    5.4467 C   0  0  0  0  0  0  0  0  0  0  0  0
   -2.4128   -4.7820    5.7172 C   0  0  0  0  0  0  0  0  0  0  0  0
   -1.6781   -5.7640    6.5605 C   0  0  0  0  0  0  0  0  0  0  0  0
   -1.4866   -5.2761    8.0032 C   0  0  0  0  0  0  0  0  0  0  0  0
   -2.7816   -4.6004    8.4784 C   0  0  0  0  0  0  0  0  0  0  0  0
   -3.0514   -3.3873    7.6671 C   0  0  0  0  0  0  0  0  0  0  0  0
   -2.7527   -2.0839    8.3324 C   0  0  0  0  0  0  0  0  0  0  0  0
   -1.8235   -2.2159    9.4818 C   0  0  0  0  0  0  0  0  0  0  0  0
   -2.5521   -3.1138   10.4986 C   0  0  0  0  0  0  0  0  0  0  0  0
   -1.7710   -3.0578   11.7587 C   0  0  0  0  0  0  0  0  0  0  0  0
   -1.8213   -4.2276   12.6540 C   0  0  0  0  0  0  0  0  0  0  0  0
   -2.6266   -3.9651   13.7920 O   0  0  0  0  0  0  0  0  0  0  0  0
   -2.3138   -5.4948   12.0704 C   0  0  0  0  0  0  0  0  0  0  0  0
   -2.0033   -5.5562   10.5830 C   0  0  0  0  0  0  0  0  0  0  0  0
   -2.8603   -4.4503    9.9479 C   0  0  0  0  0  0  0  0  0  0  0  0
   -4.2819   -4.8279   10.4146 C   0  0  0  0  0  0  0  0  0  0  0  0
   -2.2645   -3.4427    6.4041 C   0  0  0  0  0  0  0  0  0  0  0  0
   -2.5964   -2.4381    5.3779 C   0  0  0  0  0  0  0  0  0  0  0  0
   -2.2204   -3.1087    4.0756 C   0  0  0  0  0  0  0  0  0  0  0  0
   -1.7371   -4.4919    4.3919 C   0  0  0  0  0  0  0  0  0  0  0  0
   -2.1529   -5.3540    3.3852 O   0  0  0  0  0  0  0  0  0  0  0  0
   -2.1897   -3.1849   14.2516 H   0  0  0  0  0  0  0  0  0  0  0  0
   -2.7006   -4.9031    2.6911 H   0  0  0  0  0  0  0  0  0  0  0  0
  2  1  1  0  0  0
  2  3  1  0  0  0
  3  4  1  0  0  0
  4  5  1  0  0  0
  5  6  1  0  0  0
  6  7  1  0  0  0
  7  8  1  0  0  0
  8  9  1  0  0  0
  9 10  1  0  0  0
 10 11  1  0  0  0
 11 12  1  0  0  0
 11 13  1  0  0  0
 13 14  1  0  0  0
 14 15  1  0  0  0
 15 16  1  0  0  0
  6 17  1  0  0  0
 17 18  1  0  0  0
 18 19  1  0  0  0
 19 20  1  0  0  0
 20 21  1  0  0  0
 17  2  1  0  0  0
 20  2  1  0  0  0
 15  5  1  0  0  0
 15  9  1  0  0  0
 12 22  1  0  0  0
 21 23  1  0  0  0
M  END
> <minimizedAffinity>
-3.11146

> <CNNscore>
0.3584866226

> <CNNaffinity>
4.2963328362

> <CNN_VS>
1.5401778221

> <CNNaffinity_variance>
0.1901135147

$$$$
[H]O[C@@]1([H])C([H])([H])C([H])([H])[C@]2(C([H])([H])[H])C3([H])C([H])([H])C([H])([H])[C@@]4(C([H])([H])[H])C([H])(C([H])([H])C([H])([H])[C@]4([H])O[H])C3([H])C([H])([H])C([H])([H])C2([H])C1([H])[H]


 23 26  0  0  0  0  0  0  0  0999 V2000
  -12.6539   -9.6194    9.3324 C   0  0  0  0  0  0  0  0  0  0  0  0
  -12.6577   -8.9126    8.0140 C   0  0  0  0  0  0  0  0  0  0  0  0
  -11.9343   -9.6392    6.9351 C   0  0  0  0  0  0  0  0  0  0  0  0
  -10.5651   -9.0201    6.6221 C   0  0  0  0  0  0  0  0  0  0  0  0
   -9.8817   -8.6256    7.9400 C   0  0  0  0  0  0  0  0  0  0  0  0
  -10.6649   -7.5662    8.6234 C   0  0  0  0  0  0  0  0  0  0  0  0
  -10.1027   -6.1855    8.5334 C   0  0  0  0  0  0  0  0  0  0  0  0
   -9.1382   -6.0208    7.4177 C   0  0  0  0  0  0  0  0  0  0  0  0
   -7.9805   -6.9871    7.7290 C   0  0  0  0  0  0  0  0  0  0  0  0
   -6.8857   -6.6658    6.7806 C   0  0  0  0  0  0  0  0  0  0  0  0
   -5.9630   -7.7501    6.3993 C   0  0  0  0  0  0  0  0  0  0  0  0
   -4.7055   -7.5985    7.0381 O   0  0  0  0  0  0  0  0  0  0  0  0
   -6.4107   -9.1342    6.6695 C   0  0  0  0  0  0  0  0  0  0  0  0
   -7.9273   -9.2279    6.6111 C   0  0  0  0  0  0  0  0  0  0  0  0
   -8.4274   -8.3941    7.8008 C   0  0  0  0  0  0  0  0  0  0  0  0
   -7.6992   -9.0520    8.9917 C   0  0  0  0  0  0  0  0  0  0  0  0
  -12.0478   -7.5298    8.0726 C   0  0  0  0  0  0  0  0  0  0  0  0
  -13.0250   -6.7022    8.8026 C   0  0  0  0  0  0  0  0  0  0  0  0
  -14.3541   -7.3596    8.5057 C   0  0  0  0  0  0  0  0  0  0  0  0
  -14.0915   -8.5703    7.6619 C   0  0  0  0  0  0  0  0  0  0  0  0
  -14.9806   -9.5733    8.0267 O   0  0  0  0  0  0  0  0  0  0  0  0
   -4.3556   -6.7089    6.7268 H   0  0  0  0  0  0  0  0  0  0  0  0
  -15.5761   -9.3092    8.7755 H   0  0  0  0  0  0  0  0  0  0  0  0
  2  1  1  0  0  0
  2  3  1  0  0  0
  3  4  1  0  0  0
  4  5  1  0  0  0
  5  6  1  0  0  0
  6  7  1  0  0  0
  7  8  1  0  0  0
  8  9  1  0  0  0
  9 10  1  0  0  0
 10 11  1  0  0  0
 11 12  1  0  0  0
 11 13  1  0  0  0
 13 14  1  0  0  0
 14 15  1  0  0  0
 15 16  1  0  0  0
  6 17  1  0  0  0
 17 18  1  0  0  0
 18 19  1  0  0  0
 19 20  1  0  0  0
 20 21  1  0  0  0
 17  2  1  0  0  0
 20  2  1  0  0  0
 15  5  1  0  0  0
 15  9  1  0  0  0
 12 22  1  0  0  0
 21 23  1  0  0  0
M  END
> <minimizedAffinity>
-8.17745

> <CNNscore>
0.3532013595

> <CNNaffinity>
5.8473711014

> <CNN_VS>
2.0652995110

> <CNNaffinity_variance>
0.1213162988

$$$$
[H]O[C@@]1([H])C([H])([H])C([H])([H])[C@]2(C([H])([H])[H])C3([H])C([H])([H])C([H])([H])[C@@]4(C([H])([H])[H])C([H])(C([H])([H])C([H])([H])[C@]4([H])O[H])C3([H])C([H])([H])C([H])([H])C2([H])C1([H])[H]


 23 26  0  0  0  0  0  0  0  0999 V2000
  -20.8516   -8.4615    7.4124 C   0  0  0  0  0  0  0  0  0  0  0  0
  -19.6858   -9.3962    7.3421 C   0  0  0  0  0  0  0  0  0  0  0  0
  -18.4941   -8.9366    8.1062 C   0  0  0  0  0  0  0  0  0  0  0  0
  -17.3851   -8.3894    7.1969 C   0  0  0  0  0  0  0  0  0  0  0  0
  -18.0222   -7.5372    6.0890 C   0  0  0  0  0  0  0  0  0  0  0  0
  -18.8814   -8.3840    5.2246 C   0  0  0  0  0  0  0  0  0  0  0  0
  -18.3090   -8.7387    3.8915 C   0  0  0  0  0  0  0  0  0  0  0  0
  -16.8339   -8.5887    3.8322 C   0  0  0  0  0  0  0  0  0  0  0  0
  -16.5621   -7.0943    4.0851 C   0  0  0  0  0  0  0  0  0  0  0  0
  -15.1293   -6.8603    3.7795 C   0  0  0  0  0  0  0  0  0  0  0  0
  -14.4409   -5.7697    4.4931 C   0  0  0  0  0  0  0  0  0  0  0  0
  -14.2326   -4.6543    3.6416 O   0  0  0  0  0  0  0  0  0  0  0  0
  -15.0961   -5.2528    5.7149 C   0  0  0  0  0  0  0  0  0  0  0  0
  -15.9160   -6.3437    6.3857 C   0  0  0  0  0  0  0  0  0  0  0  0
  -17.0581   -6.6487    5.4041 C   0  0  0  0  0  0  0  0  0  0  0  0
  -17.7050   -5.2609    5.2120 C   0  0  0  0  0  0  0  0  0  0  0  0
  -19.2074   -9.6539    5.9307 C   0  0  0  0  0  0  0  0  0  0  0  0
  -20.2446  -10.5012    5.3149 C   0  0  0  0  0  0  0  0  0  0  0  0
  -20.8387  -11.2571    6.4823 C   0  0  0  0  0  0  0  0  0  0  0  0
  -20.1622  -10.7810    7.7323 C   0  0  0  0  0  0  0  0  0  0  0  0
  -21.0932  -10.7503    8.7628 O   0  0  0  0  0  0  0  0  0  0  0  0
  -13.6643   -4.9991    2.8874 H   0  0  0  0  0  0  0  0  0  0  0  0
  -22.0047  -11.0110    8.4690 H   0  0  0  0  0  0  0  0  0  0  0  0
  2  1  1  0  0  0
  2  3  1  0  0  0
  3  4  1  0  0  0
  4  5  1  0  0  0
  5  6  1  0  0  0
  6  7  1  0  0  0
  7  8  1  0  0  0
  8  9  1  0  0  0
  9 10  1  0  0  0
 10 11  1  0  0  0
 11 12  1  0  0  0
 11 13  1  0  0  0
 13 14  1  0  0  0
 14 15  1  0  0  0
 15 16  1  0  0  0
  6 17  1  0  0  0
 17 18  1  0  0  0
 18 19  1  0  0  0
 19 20  1  0  0  0
 20 21  1  0  0  0
 17  2  1  0  0  0
 20  2  1  0  0  0
 15  5  1  0  0  0
 15  9  1  0  0  0
 12 22  1  0  0  0
 21 23  1  0  0  0
M  END
> <minimizedAffinity>
9.18525

> <CNNscore>
0.2769890726

> <CNNaffinity>
5.8549318314

> <CNN_VS>
1.6217521429

> <CNNaffinity_variance>
0.3353464603

$$$$
[H]O[C@@]1([H])C([H])([H])C([H])([H])[C@]2(C([H])([H])[H])C3([H])C([H])([H])C([H])([H])[C@@]4(C([H])([H])[H])C([H])(C([H])([H])C([H])([H])[C@]4([H])O[H])C3([H])C([H])([H])C([H])([H])C2([H])C1([H])[H]


 23 26  0  0  0  0  0  0  0  0999 V2000
  -13.3901   -6.9357    6.2237 C   0  0  0  0  0  0  0  0  0  0  0  0
  -13.0880   -7.4408    7.5991 C   0  0  0  0  0  0  0  0  0  0  0  0
  -12.2985   -6.4934    8.4324 C   0  0  0  0  0  0  0  0  0  0  0  0
  -10.8284   -6.9126    8.5701 C   0  0  0  0  0  0  0  0  0  0  0  0
  -10.3235   -7.4192    7.2106 C   0  0  0  0  0  0  0  0  0  0  0  0
  -11.0642   -8.6430    6.8153 C   0  0  0  0  0  0  0  0  0  0  0  0
  -10.3216   -9.9291    6.9744 C   0  0  0  0  0  0  0  0  0  0  0  0
   -9.1753   -9.8278    7.9114 C   0  0  0  0  0  0  0  0  0  0  0  0
   -8.2181   -8.7998    7.2804 C   0  0  0  0  0  0  0  0  0  0  0  0
   -6.9514   -8.8631    8.0502 C   0  0  0  0  0  0  0  0  0  0  0  0
   -6.1265   -7.6437    8.1226 C   0  0  0  0  0  0  0  0  0  0  0  0
   -4.9809   -7.7525    7.2931 O   0  0  0  0  0  0  0  0  0  0  0  0
   -6.7870   -6.3684    7.7668 C   0  0  0  0  0  0  0  0  0  0  0  0
   -8.2731   -6.4280    8.0834 C   0  0  0  0  0  0  0  0  0  0  0  0
   -8.8484   -7.4732    7.1153 C   0  0  0  0  0  0  0  0  0  0  0  0
   -8.4148   -6.9213    5.7410 C   0  0  0  0  0  0  0  0  0  0  0  0
  -12.3227   -8.7453    7.6048 C   0  0  0  0  0  0  0  0  0  0  0  0
  -13.2906   -9.7683    7.1699 C   0  0  0  0  0  0  0  0  0  0  0  0
  -14.6272   -9.2190    7.6156 C   0  0  0  0  0  0  0  0  0  0  0  0
  -14.3891   -7.8780    8.2416 C   0  0  0  0  0  0  0  0  0  0  0  0
  -15.4475   -7.0380    7.9198 O   0  0  0  0  0  0  0  0  0  0  0  0
   -4.4732   -8.5457    7.6450 H   0  0  0  0  0  0  0  0  0  0  0  0
  -16.1179   -7.4690    7.3283 H   0  0  0  0  0  0  0  0  0  0  0  0
  2  1  1  0  0  0
  2  3  1  0  0  0
  3  4  1  0  0  0
  4  5  1  0  0  0
  5  6  1  0  0  0
  6  7  1  0  0  0
  7  8  1  0  0  0
  8  9  1  0  0  0
  9 10  1  0  0  0
 10 11  1  0  0  0
 11 12  1  0  0  0
 11 13  1  0  0  0
 13 14  1  0  0  0
 14 15  1  0  0  0
 15 16  1  0  0  0
  6 17  1  0  0  0
 17 18  1  0  0  0
 18 19  1  0  0  0
 19 20  1  0  0  0
 20 21  1  0  0  0
 17  2  1  0  0  0
 20  2  1  0  0  0
 15  5  1  0  0  0
 15  9  1  0  0  0
 12 22  1  0  0  0
 21 23  1  0  0  0
M  END
> <minimizedAffinity>
-5.57823

> <CNNscore>
0.2745373845

> <CNNaffinity>
5.8153867722

> <CNN_VS>
1.5965410471

> <CNNaffinity_variance>
0.1480241120

$$$$
[H]O[C@@]1([H])C([H])([H])C([H])([H])[C@]2(C([H])([H])[H])C3([H])C([H])([H])C([H])([H])[C@@]4(C([H])([H])[H])C([H])(C([H])([H])C([H])([H])[C@]4([H])O[H])C3([H])C([H])([H])C([H])([H])C2([H])C1([H])[H]


 23 26  0  0  0  0  0  0  0  0999 V2000
   -8.3040   -6.7585    6.6253 C   0  0  0  0  0  0  0  0  0  0  0  0
   -7.6904   -7.8529    7.4399 C   0  0  0  0  0  0  0  0  0  0  0  0
   -7.5907   -7.5437    8.8924 C   0  0  0  0  0  0  0  0  0  0  0  0
   -6.1601   -7.1927    9.3241 C   0  0  0  0  0  0  0  0  0  0  0  0
   -5.5207   -6.2959    8.2533 C   0  0  0  0  0  0  0  0  0  0  0  0
   -5.3931   -7.0393    6.9752 C   0  0  0  0  0  0  0  0  0  0  0  0
   -4.0188   -7.5176    6.6388 C   0  0  0  0  0  0  0  0  0  0  0  0
   -3.1199   -7.5832    7.8177 C   0  0  0  0  0  0  0  0  0  0  0  0
   -3.0083   -6.1357    8.3307 C   0  0  0  0  0  0  0  0  0  0  0  0
   -1.9227   -6.1205    9.3418 C   0  0  0  0  0  0  0  0  0  0  0  0
   -1.9967   -5.1165   10.4184 C   0  0  0  0  0  0  0  0  0  0  0  0
   -1.0600   -4.0722   10.2077 O   0  0  0  0  0  0  0  0  0  0  0  0
   -3.3089   -4.4697   10.6395 C   0  0  0  0  0  0  0  0  0  0  0  0
   -4.4410   -5.4081   10.2520 C   0  0  0  0  0  0  0  0  0  0  0  0
   -4.3179   -5.5789    8.7300 C   0  0  0  0  0  0  0  0  0  0  0  0
   -4.3736   -4.1199    8.2304 C   0  0  0  0  0  0  0  0  0  0  0  0
   -6.2945   -8.2245    6.9916 C   0  0  0  0  0  0  0  0  0  0  0  0
   -6.4709   -8.9344    5.7119 C   0  0  0  0  0  0  0  0  0  0  0  0
   -7.8443   -9.5570    5.8262 C   0  0  0  0  0  0  0  0  0  0  0  0
   -8.4313   -9.1409    7.1412 C   0  0  0  0  0  0  0  0  0  0  0  0
   -9.7966   -8.9418    6.9806 O   0  0  0  0  0  0  0  0  0  0  0  0
   -0.1601   -4.5205   10.2017 H   0  0  0  0  0  0  0  0  0  0  0  0
  -10.1004   -9.0786    6.0456 H   0  0  0  0  0  0  0  0  0  0  0  0
  2  1  1  0  0  0
  2  3  1  0  0  0
  3  4  1  0  0  0
  4  5  1  0  0  0
  5  6  1  0  0  0
  6  7  1  0  0  0
  7  8  1  0  0  0
  8  9  1  0  0  0
  9 10  1  0  0  0
 10 11  1  0  0  0
 11 12  1  0  0  0
 11 13  1  0  0  0
 13 14  1  0  0  0
 14 15  1  0  0  0
 15 16  1  0  0  0
  6 17  1  0  0  0
 17 18  1  0  0  0
 18 19  1  0  0  0
 19 20  1  0  0  0
 20 21  1  0  0  0
 17  2  1  0  0  0
 20  2  1  0  0  0
 15  5  1  0  0  0
 15  9  1  0  0  0
 12 22  1  0  0  0
 21 23  1  0  0  0
M  END
> <minimizedAffinity>
-3.87119

> <CNNscore>
0.2563920021

> <CNNaffinity>
4.7125573158

> <CNN_VS>
1.2082619667

> <CNNaffinity_variance>
0.3040025830

$$$$
[H]O[C@@]1([H])C([H])([H])C([H])([H])[C@]2(C([H])([H])[H])C3([H])C([H])([H])C([H])([H])[C@@]4(C([H])([H])[H])C([H])(C([H])([H])C([H])([H])[C@]4([H])O[H])C3([H])C([H])([H])C([H])([H])C2([H])C1([H])[H]


 23 26  0  0  0  0  0  0  0  0999 V2000
  -12.6988   -7.0476    7.1842 C   0  0  0  0  0  0  0  0  0  0  0  0
  -12.0975   -7.6167    8.4302 C   0  0  0  0  0  0  0  0  0  0  0  0
  -11.1847   -6.6823    9.1436 C   0  0  0  0  0  0  0  0  0  0  0  0
   -9.7045   -7.0371    8.9456 C   0  0  0  0  0  0  0  0  0  0  0  0
   -9.4784   -7.4386    7.4802 C   0  0  0  0  0  0  0  0  0  0  0  0
  -10.2419   -8.6717    7.1656 C   0  0  0  0  0  0  0  0  0  0  0  0
   -9.4376   -9.9274    7.0809 C   0  0  0  0  0  0  0  0  0  0  0  0
   -8.1246   -9.8254    7.7648 C   0  0  0  0  0  0  0  0  0  0  0  0
   -7.3578   -8.7173    7.0198 C   0  0  0  0  0  0  0  0  0  0  0  0
   -5.9564   -8.7638    7.5047 C   0  0  0  0  0  0  0  0  0  0  0  0
   -5.1782   -7.5122    7.4864 C   0  0  0  0  0  0  0  0  0  0  0  0
   -4.2288   -7.5168    6.4323 O   0  0  0  0  0  0  0  0  0  0  0  0
   -5.9431   -6.2518    7.3614 C   0  0  0  0  0  0  0  0  0  0  0  0
   -7.3268   -6.4017    7.9741 C   0  0  0  0  0  0  0  0  0  0  0  0
   -8.0551   -7.4154    7.0781 C   0  0  0  0  0  0  0  0  0  0  0  0
   -7.9390   -6.7640    5.6840 C   0  0  0  0  0  0  0  0  0  0  0  0
  -11.3025   -8.8807    8.1898 C   0  0  0  0  0  0  0  0  0  0  0  0
  -12.3034   -9.9224    7.8970 C   0  0  0  0  0  0  0  0  0  0  0  0
  -13.5354   -9.4653    8.6457 C   0  0  0  0  0  0  0  0  0  0  0  0
  -13.2187   -8.1532    9.2973 C   0  0  0  0  0  0  0  0  0  0  0  0
  -14.3500   -7.3481    9.2588 O   0  0  0  0  0  0  0  0  0  0  0  0
   -3.6311   -8.3036    6.6174 H   0  0  0  0  0  0  0  0  0  0  0  0
  -15.1139   -7.7759    8.7913 H   0  0  0  0  0  0  0  0  0  0  0  0
  2  1  1  0  0  0
  2  3  1  0  0  0
  3  4  1  0  0  0
  4  5  1  0  0  0
  5  6  1  0  0  0
  6  7  1  0  0  0
  7  8  1  0  0  0
  8  9  1  0  0  0
  9 10  1  0  0  0
 10 11  1  0  0  0
 11 12  1  0  0  0
 11 13  1  0  0  0
 13 14  1  0  0  0
 14 15  1  0  0  0
 15 16  1  0  0  0
  6 17  1  0  0  0
 17 18  1  0  0  0
 18 19  1  0  0  0
 19 20  1  0  0  0
 20 21  1  0  0  0
 17  2  1  0  0  0
 20  2  1  0  0  0
 15  5  1  0  0  0
 15  9  1  0  0  0
 12 22  1  0  0  0
 21 23  1  0  0  0
M  END
> <minimizedAffinity>
-8.20399

> <CNNscore>
0.2429427952

> <CNNaffinity>
5.6041436195

> <CNN_VS>
1.3614863157

> <CNNaffinity_variance>
0.1749996394

$$$$
[H]O[C@@]1([H])C([H])([H])C([H])([H])[C@]2(C([H])([H])[H])C3([H])C([H])([H])C([H])([H])[C@@]4(C([H])([H])[H])C([H])(C([H])([H])C([H])([H])[C@]4([H])O[H])C3([H])C([H])([H])C([H])([H])C2([H])C1([H])[H]


 23 26  0  0  0  0  0  0  0  0999 V2000
   -4.3474   -8.4660    6.3807 C   0  0  0  0  0  0  0  0  0  0  0  0
   -5.3767   -7.3825    6.4490 C   0  0  0  0  0  0  0  0  0  0  0  0
   -5.0195   -6.1585    5.6813 C   0  0  0  0  0  0  0  0  0  0  0  0
   -4.5664   -5.0051    6.5870 C   0  0  0  0  0  0  0  0  0  0  0  0
   -3.6627   -5.5654    7.6956 C   0  0  0  0  0  0  0  0  0  0  0  0
   -4.4336   -6.4903    8.5632 C   0  0  0  0  0  0  0  0  0  0  0  0
   -4.8337   -5.9461    9.8953 C   0  0  0  0  0  0  0  0  0  0  0  0
   -4.8080   -4.4634    9.9504 C   0  0  0  0  0  0  0  0  0  0  0  0
   -3.3419   -4.0678    9.6951 C   0  0  0  0  0  0  0  0  0  0  0  0
   -3.2288   -2.6196    9.9966 C   0  0  0  0  0  0  0  0  0  0  0  0
   -2.2005   -1.8440    9.2799 C   0  0  0  0  0  0  0  0  0  0  0  0
   -1.1057   -1.5405   10.1295 O   0  0  0  0  0  0  0  0  0  0  0  0
   -1.6316   -2.4568    8.0593 C   0  0  0  0  0  0  0  0  0  0  0  0
   -2.6505   -3.3673    7.3919 C   0  0  0  0  0  0  0  0  0  0  0  0
   -2.8576   -4.5282    8.3768 C   0  0  0  0  0  0  0  0  0  0  0  0
   -1.4202   -5.0558    8.5690 C   0  0  0  0  0  0  0  0  0  0  0  0
   -5.6723   -6.9237    7.8596 C   0  0  0  0  0  0  0  0  0  0  0  0
   -6.4289   -8.0266    8.4790 C   0  0  0  0  0  0  0  0  0  0  0  0
   -7.1334   -8.6852    7.3141 C   0  0  0  0  0  0  0  0  0  0  0  0
   -6.7170   -7.9746    6.0618 C   0  0  0  0  0  0  0  0  0  0  0  0
   -6.6092   -8.9025    5.0337 O   0  0  0  0  0  0  0  0  0  0  0  0
   -1.4963   -1.0011   10.8826 H   0  0  0  0  0  0  0  0  0  0  0  0
   -6.7922   -9.8319    5.3302 H   0  0  0  0  0  0  0  0  0  0  0  0
  2  1  1  0  0  0
  2  3  1  0  0  0
  3  4  1  0  0  0
  4  5  1  0  0  0
  5  6  1  0  0  0
  6  7  1  0  0  0
  7  8  1  0  0  0
  8  9  1  0  0  0
  9 10  1  0  0  0
 10 11  1  0  0  0
 11 12  1  0  0  0
 11 13  1  0  0  0
 13 14  1  0  0  0
 14 15  1  0  0  0
 15 16  1  0  0  0
  6 17  1  0  0  0
 17 18  1  0  0  0
 18 19  1  0  0  0
 19 20  1  0  0  0
 20 21  1  0  0  0
 17  2  1  0  0  0
 20  2  1  0  0  0
 15  5  1  0  0  0
 15  9  1  0  0  0
 12 22  1  0  0  0
 21 23  1  0  0  0
M  END
> <minimizedAffinity>
-3.28115

> <CNNscore>
0.2358639091

> <CNNaffinity>
4.4385118484

> <CNN_VS>
1.0468847752

> <CNNaffinity_variance>
0.2055262774

$$$$
[H]O[C@]1([H])C([H])([H])C([H])([H])[C@]2([H])[C@]1(C([H])([H])[H])C([H])([H])C([H])([H])[C@]1([H])[C@]3(C([H])([H])[H])C(=C([H])C(=O)C([H])([H])C3([H])[H])C([H])([H])C([H])([H])[C@@]21[H]


 22 25  0  0  0  0  0  0  0  0999 V2000
  -12.7465  -10.0812    9.0882 C   0  0  0  0  0  0  0  0  0  0  0  0
  -13.0759   -9.2063    7.9066 C   0  0  0  0  0  0  0  0  0  0  0  0
  -12.4556   -9.6910    6.6364 C   0  0  0  0  0  0  0  0  0  0  0  0
  -10.9585   -9.6541    6.7875 C   0  0  0  0  0  0  0  0  0  0  0  0
  -10.4189   -8.3458    7.2487 C   0  0  0  0  0  0  0  0  0  0  0  0
  -11.1529   -7.7774    8.4476 C   0  0  0  0  0  0  0  0  0  0  0  0
  -10.6528   -6.3708    8.6951 C   0  0  0  0  0  0  0  0  0  0  0  0
   -9.1666   -6.3040    8.8375 C   0  0  0  0  0  0  0  0  0  0  0  0
   -8.4354   -7.1072    7.8372 C   0  0  0  0  0  0  0  0  0  0  0  0
   -7.3403   -6.5938    7.2934 C   0  0  0  0  0  0  0  0  0  0  0  0
   -6.5698   -7.3255    6.3030 C   0  0  0  0  0  0  0  0  0  0  0  0
   -5.7411   -6.7202    5.5863 O   0  0  0  0  0  0  0  0  0  0  0  0
   -6.8186   -8.7974    6.1953 C   0  0  0  0  0  0  0  0  0  0  0  0
   -8.3155   -8.9854    6.2083 C   0  0  0  0  0  0  0  0  0  0  0  0
   -8.9460   -8.4630    7.4698 C   0  0  0  0  0  0  0  0  0  0  0  0
   -8.6121   -9.3818    8.6212 C   0  0  0  0  0  0  0  0  0  0  0  0
  -12.5814   -7.7842    8.0926 C   0  0  0  0  0  0  0  0  0  0  0  0
  -13.5446   -7.2169    9.0453 C   0  0  0  0  0  0  0  0  0  0  0  0
  -14.8568   -7.6242    8.3702 C   0  0  0  0  0  0  0  0  0  0  0  0
  -14.5581   -9.0082    7.8401 C   0  0  0  0  0  0  0  0  0  0  0  0
  -15.0693   -9.2007    6.5595 O   0  0  0  0  0  0  0  0  0  0  0  0
  -15.5755  -10.0404    6.5172 H   0  0  0  0  0  0  0  0  0  0  0  0
  2  1  1  0  0  0
  2  3  1  0  0  0
  3  4  1  0  0  0
  4  5  1  0  0  0
  5  6  1  0  0  0
  6  7  1  0  0  0
  7  8  1  0  0  0
  8  9  1  0  0  0
  9 10  2  0  0  0
 10 11  1  0  0  0
 11 12  2  0  0  0
 11 13  1  0  0  0
 13 14  1  0  0  0
 14 15  1  0  0  0
 15 16  1  0  0  0
  6 17  1  0  0  0
 17 18  1  0  0  0
 18 19  1  0  0  0
 19 20  1  0  0  0
 20 21  1  0  0  0
 17  2  1  0  0  0
 20  2  1  0  0  0
 15  5  1  0  0  0
 15  9  1  0  0  0
 21 22  1  0  0  0
M  END
> <minimizedAffinity>
-7.69309

> <CNNscore>
0.3559823036

> <CNNaffinity>
5.9447774887

> <CNN_VS>
2.1162354946

> <CNNaffinity_variance>
0.1142074317

$$$$
[H]O[C@]1([H])C([H])([H])C([H])([H])[C@]2([H])[C@]1(C([H])([H])[H])C([H])([H])C([H])([H])[C@]1([H])[C@]3(C([H])([H])[H])C(=C([H])C(=O)C([H])([H])C3([H])[H])C([H])([H])C([H])([H])[C@@]21[H]


 22 25  0  0  0  0  0  0  0  0999 V2000
  -17.9241   -5.8906    6.3459 C   0  0  0  0  0  0  0  0  0  0  0  0
  -17.6859   -7.2002    5.6398 C   0  0  0  0  0  0  0  0  0  0  0  0
  -17.5470   -8.3502    6.5837 C   0  0  0  0  0  0  0  0  0  0  0  0
  -16.3437   -8.1136    7.4565 C   0  0  0  0  0  0  0  0  0  0  0  0
  -15.0934   -7.8057    6.7099 C   0  0  0  0  0  0  0  0  0  0  0  0
  -15.2724   -6.7448    5.6414 C   0  0  0  0  0  0  0  0  0  0  0  0
  -14.0003   -6.6643    4.8258 C   0  0  0  0  0  0  0  0  0  0  0  0
  -12.7873   -6.4411    5.6700 C   0  0  0  0  0  0  0  0  0  0  0  0
  -12.7484   -7.2734    6.8890 C   0  0  0  0  0  0  0  0  0  0  0  0
  -11.5919   -7.8146    7.2474 C   0  0  0  0  0  0  0  0  0  0  0  0
  -11.4775   -8.6445    8.4340 C   0  0  0  0  0  0  0  0  0  0  0  0
  -10.4797   -9.3857    8.5824 O   0  0  0  0  0  0  0  0  0  0  0  0
  -12.5875   -8.5623    9.4345 C   0  0  0  0  0  0  0  0  0  0  0  0
  -13.8779   -8.6158    8.6547 C   0  0  0  0  0  0  0  0  0  0  0  0
  -14.0018   -7.4801    7.6765 C   0  0  0  0  0  0  0  0  0  0  0  0
  -14.2648   -6.1942    8.4237 C   0  0  0  0  0  0  0  0  0  0  0  0
  -16.4109   -7.1829    4.8178 C   0  0  0  0  0  0  0  0  0  0  0  0
  -16.7797   -6.3793    3.6450 C   0  0  0  0  0  0  0  0  0  0  0  0
  -18.0869   -7.0710    3.2498 C   0  0  0  0  0  0  0  0  0  0  0  0
  -18.7289   -7.3848    4.5821 C   0  0  0  0  0  0  0  0  0  0  0  0
  -19.2975   -8.6554    4.6038 O   0  0  0  0  0  0  0  0  0  0  0  0
  -20.2159   -8.6121    4.9471 H   0  0  0  0  0  0  0  0  0  0  0  0
  2  1  1  0  0  0
  2  3  1  0  0  0
  3  4  1  0  0  0
  4  5  1  0  0  0
  5  6  1  0  0  0
  6  7  1  0  0  0
  7  8  1  0  0  0
  8  9  1  0  0  0
  9 10  2  0  0  0
 10 11  1  0  0  0
 11 12  2  0  0  0
 11 13  1  0  0  0
 13 14  1  0  0  0
 14 15  1  0  0  0
 15 16  1  0  0  0
  6 17  1  0  0  0
 17 18  1  0  0  0
 18 19  1  0  0  0
 19 20  1  0  0  0
 20 21  1  0  0  0
 17  2  1  0  0  0
 20  2  1  0  0  0
 15  5  1  0  0  0
 15  9  1  0  0  0
 21 22  1  0  0  0
M  END
> <minimizedAffinity>
-1.13042

> <CNNscore>
0.3510783315

> <CNNaffinity>
6.0608644485

> <CNN_VS>
2.1278381348

> <CNNaffinity_variance>
0.1267893016

$$$$
[H]O[C@]1([H])C([H])([H])C([H])([H])[C@]2([H])[C@]1(C([H])([H])[H])C([H])([H])C([H])([H])[C@]1([H])[C@]3(C([H])([H])[H])C(=C([H])C(=O)C([H])([H])C3([H])[H])C([H])([H])C([H])([H])[C@@]21[H]


 22 25  0  0  0  0  0  0  0  0999 V2000
  -11.6872   -9.4846    5.6216 C   0  0  0  0  0  0  0  0  0  0  0  0
  -10.8904  -10.0937    6.7460 C   0  0  0  0  0  0  0  0  0  0  0  0
  -11.7434  -10.5153    7.8982 C   0  0  0  0  0  0  0  0  0  0  0  0
  -12.4185   -9.2966    8.4681 C   0  0  0  0  0  0  0  0  0  0  0  0
  -11.4935   -8.1771    8.7943 C   0  0  0  0  0  0  0  0  0  0  0  0
  -10.5201   -7.8518    7.6781 C   0  0  0  0  0  0  0  0  0  0  0  0
   -9.5128   -6.8482    8.1958 C   0  0  0  0  0  0  0  0  0  0  0  0
  -10.1575   -5.6322    8.7785 C   0  0  0  0  0  0  0  0  0  0  0  0
  -11.3130   -5.9293    9.6485 C   0  0  0  0  0  0  0  0  0  0  0  0
  -11.4519   -5.2381   10.7716 C   0  0  0  0  0  0  0  0  0  0  0  0
  -12.5632   -5.4752   11.6764 C   0  0  0  0  0  0  0  0  0  0  0  0
  -12.5116   -5.0490   12.8523 O   0  0  0  0  0  0  0  0  0  0  0  0
  -13.7341   -6.2346   11.1357 C   0  0  0  0  0  0  0  0  0  0  0  0
  -13.1735   -7.4129   10.3786 C   0  0  0  0  0  0  0  0  0  0  0  0
  -12.2836   -6.9907    9.2420 C   0  0  0  0  0  0  0  0  0  0  0  0
  -13.1239   -6.4106    8.1291 C   0  0  0  0  0  0  0  0  0  0  0  0
   -9.8733   -9.1236    7.3169 C   0  0  0  0  0  0  0  0  0  0  0  0
   -8.8158   -9.1092    6.2977 C   0  0  0  0  0  0  0  0  0  0  0  0
   -8.6066  -10.6141    6.1111 C   0  0  0  0  0  0  0  0  0  0  0  0
  -10.0093  -11.1716    6.1959 C   0  0  0  0  0  0  0  0  0  0  0  0
  -10.0632  -12.3442    6.9445 O   0  0  0  0  0  0  0  0  0  0  0  0
  -10.5533  -13.0392    6.4547 H   0  0  0  0  0  0  0  0  0  0  0  0
  2  1  1  0  0  0
  2  3  1  0  0  0
  3  4  1  0  0  0
  4  5  1  0  0  0
  5  6  1  0  0  0
  6  7  1  0  0  0
  7  8  1  0  0  0
  8  9  1  0  0  0
  9 10  2  0  0  0
 10 11  1  0  0  0
 11 12  2  0  0  0
 11 13  1  0  0  0
 13 14  1  0  0  0
 14 15  1  0  0  0
 15 16  1  0  0  0
  6 17  1  0  0  0
 17 18  1  0  0  0
 18 19  1  0  0  0
 19 20  1  0  0  0
 20 21  1  0  0  0
 17  2  1  0  0  0
 20  2  1  0  0  0
 15  5  1  0  0  0
 15  9  1  0  0  0
 21 22  1  0  0  0
M  END
> <minimizedAffinity>
2.69075

> <CNNscore>
0.3400067091

> <CNNaffinity>
5.7878212929

> <CNN_VS>
1.9678980112

> <CNNaffinity_variance>
0.3370616138

$$$$
[H]O[C@]1([H])C([H])([H])C([H])([H])[C@]2([H])[C@]1(C([H])([H])[H])C([H])([H])C([H])([H])[C@]1([H])[C@]3(C([H])([H])[H])C(=C([H])C(=O)C([H])([H])C3([H])[H])C([H])([H])C([H])([H])[C@@]21[H]


 22 25  0  0  0  0  0  0  0  0999 V2000
   -2.0099   -6.9716    5.7561 C   0  0  0  0  0  0  0  0  0  0  0  0
   -2.4397   -5.7083    6.4557 C   0  0  0  0  0  0  0  0  0  0  0  0
   -2.8000   -5.9335    7.8883 C   0  0  0  0  0  0  0  0  0  0  0  0
   -3.9754   -6.8720    7.9469 C   0  0  0  0  0  0  0  0  0  0  0  0
   -5.1311   -6.4637    7.1026 C   0  0  0  0  0  0  0  0  0  0  0  0
   -4.7420   -6.0838    5.6872 C   0  0  0  0  0  0  0  0  0  0  0  0
   -5.9549   -5.5009    4.9950 C   0  0  0  0  0  0  0  0  0  0  0  0
   -7.1411   -6.4086    5.0487 C   0  0  0  0  0  0  0  0  0  0  0  0
   -7.3590   -7.0267    6.3718 C   0  0  0  0  0  0  0  0  0  0  0  0
   -8.6009   -7.1226    6.8271 C   0  0  0  0  0  0  0  0  0  0  0  0
   -8.8917   -7.7186    8.1194 C   0  0  0  0  0  0  0  0  0  0  0  0
  -10.0036   -7.5228    8.6601 O   0  0  0  0  0  0  0  0  0  0  0  0
   -7.8175   -8.5528    8.7441 C   0  0  0  0  0  0  0  0  0  0  0  0
   -6.5289   -7.7829    8.5932 C   0  0  0  0  0  0  0  0  0  0  0  0
   -6.1847   -7.5218    7.1526 C   0  0  0  0  0  0  0  0  0  0  0  0
   -5.7358   -8.8068    6.4980 C   0  0  0  0  0  0  0  0  0  0  0  0
   -3.6658   -5.0876    5.8130 C   0  0  0  0  0  0  0  0  0  0  0  0
   -3.1291   -4.4751    4.5907 C   0  0  0  0  0  0  0  0  0  0  0  0
   -1.9434   -3.7055    5.1781 C   0  0  0  0  0  0  0  0  0  0  0  0
   -1.4075   -4.6475    6.2323 C   0  0  0  0  0  0  0  0  0  0  0  0
   -1.0600   -3.9803    7.4038 O   0  0  0  0  0  0  0  0  0  0  0  0
   -0.1593   -4.2431    7.6914 H   0  0  0  0  0  0  0  0  0  0  0  0
  2  1  1  0  0  0
  2  3  1  0  0  0
  3  4  1  0  0  0
  4  5  1  0  0  0
  5  6  1  0  0  0
  6  7  1  0  0  0
  7  8  1  0  0  0
  8  9  1  0  0  0
  9 10  2  0  0  0
 10 11  1  0  0  0
 11 12  2  0  0  0
 11 13  1  0  0  0
 13 14  1  0  0  0
 14 15  1  0  0  0
 15 16  1  0  0  0
  6 17  1  0  0  0
 17 18  1  0  0  0
 18 19  1  0  0  0
 19 20  1  0  0  0
 20 21  1  0  0  0
 17  2  1  0  0  0
 20  2  1  0  0  0
 15  5  1  0  0  0
 15  9  1  0  0  0
 21 22  1  0  0  0
M  END
> <minimizedAffinity>
-5.21329

> <CNNscore>
0.2263659388

> <CNNaffinity>
4.7162828445

> <CNN_VS>
1.0676058531

> <CNNaffinity_variance>
0.1646549553

$$$$
[H]O[C@]1([H])C([H])([H])C([H])([H])[C@]2([H])[C@]1(C([H])([H])[H])C([H])([H])C([H])([H])[C@]1([H])[C@]3(C([H])([H])[H])C(=C([H])C(=O)C([H])([H])C3([H])[H])C([H])([H])C([H])([H])[C@@]21[H]


 22 25  0  0  0  0  0  0  0  0999 V2000
   -1.0624   -4.9311    8.9603 C   0  0  0  0  0  0  0  0  0  0  0  0
   -2.1112   -3.8729    9.1849 C   0  0  0  0  0  0  0  0  0  0  0  0
   -3.1530   -4.2902   10.1715 C   0  0  0  0  0  0  0  0  0  0  0  0
   -3.8746   -5.4945    9.6287 C   0  0  0  0  0  0  0  0  0  0  0  0
   -4.4014   -5.3248    8.2471 C   0  0  0  0  0  0  0  0  0  0  0  0
   -3.3852   -4.7523    7.2782 C   0  0  0  0  0  0  0  0  0  0  0  0
   -4.0868   -4.4400    5.9742 C   0  0  0  0  0  0  0  0  0  0  0  0
   -4.8218   -5.6168    5.4187 C   0  0  0  0  0  0  0  0  0  0  0  0
   -5.5921   -6.3694    6.4289 C   0  0  0  0  0  0  0  0  0  0  0  0
   -6.8008   -6.8074    6.1037 C   0  0  0  0  0  0  0  0  0  0  0  0
   -7.6163   -7.5545    7.0454 C   0  0  0  0  0  0  0  0  0  0  0  0
   -8.8442   -7.6850    6.8400 O   0  0  0  0  0  0  0  0  0  0  0  0
   -6.9226   -8.1389    8.2360 C   0  0  0  0  0  0  0  0  0  0  0  0
   -6.0179   -7.0619    8.7815 C   0  0  0  0  0  0  0  0  0  0  0  0
   -4.9930   -6.6134    7.7763 C   0  0  0  0  0  0  0  0  0  0  0  0
   -3.9495   -7.6912    7.6012 C   0  0  0  0  0  0  0  0  0  0  0  0
   -2.8607   -3.5312    7.9109 C   0  0  0  0  0  0  0  0  0  0  0  0
   -1.8964   -2.7122    7.1648 C   0  0  0  0  0  0  0  0  0  0  0  0
   -1.4923   -1.7178    8.2563 C   0  0  0  0  0  0  0  0  0  0  0  0
   -1.4383   -2.5738    9.5014 C   0  0  0  0  0  0  0  0  0  0  0  0
   -1.9983   -1.9327   10.6031 O   0  0  0  0  0  0  0  0  0  0  0  0
   -1.3907   -1.9831   11.3721 H   0  0  0  0  0  0  0  0  0  0  0  0
  2  1  1  0  0  0
  2  3  1  0  0  0
  3  4  1  0  0  0
  4  5  1  0  0  0
  5  6  1  0  0  0
  6  7  1  0  0  0
  7  8  1  0  0  0
  8  9  1  0  0  0
  9 10  2  0  0  0
 10 11  1  0  0  0
 11 12  2  0  0  0
 11 13  1  0  0  0
 13 14  1  0  0  0
 14 15  1  0  0  0
 15 16  1  0  0  0
  6 17  1  0  0  0
 17 18  1  0  0  0
 18 19  1  0  0  0
 19 20  1  0  0  0
 20 21  1  0  0  0
 17  2  1  0  0  0
 20  2  1  0  0  0
 15  5  1  0  0  0
 15  9  1  0  0  0
 21 22  1  0  0  0
M  END
> <minimizedAffinity>
-4.76252

> <CNNscore>
0.2188115567

> <CNNaffinity>
4.4786067009

> <CNN_VS>
0.9799709320

> <CNNaffinity_variance>
0.0977778435

$$$$
[H]O[C@]1([H])C([H])([H])C([H])([H])[C@]2([H])[C@]1(C([H])([H])[H])C([H])([H])C([H])([H])[C@]1([H])[C@]3(C([H])([H])[H])C(=C([H])C(=O)C([H])([H])C3([H])[H])C([H])([H])C([H])([H])[C@@]21[H]


 22 25  0  0  0  0  0  0  0  0999 V2000
  -12.6208   -9.6818    6.4154 C   0  0  0  0  0  0  0  0  0  0  0  0
  -13.1665   -8.8679    7.5599 C   0  0  0  0  0  0  0  0  0  0  0  0
  -14.5792   -9.2183    7.8979 C   0  0  0  0  0  0  0  0  0  0  0  0
  -15.4485   -8.9129    6.7076 C   0  0  0  0  0  0  0  0  0  0  0  0
  -15.2926   -7.5339    6.1699 C   0  0  0  0  0  0  0  0  0  0  0  0
  -13.8470   -7.1209    5.9734 C   0  0  0  0  0  0  0  0  0  0  0  0
  -13.8108   -5.6498    5.6203 C   0  0  0  0  0  0  0  0  0  0  0  0
  -14.6755   -5.3169    4.4477 C   0  0  0  0  0  0  0  0  0  0  0  0
  -16.0026   -5.9635    4.4832 C   0  0  0  0  0  0  0  0  0  0  0  0
  -17.0605   -5.2546    4.1134 C   0  0  0  0  0  0  0  0  0  0  0  0
  -18.3967   -5.8239    4.1225 C   0  0  0  0  0  0  0  0  0  0  0  0
  -19.3955   -5.0708    4.0750 O   0  0  0  0  0  0  0  0  0  0  0  0
  -18.5033   -7.3153    4.1899 C   0  0  0  0  0  0  0  0  0  0  0  0
  -17.5321   -7.7710    5.2507 C   0  0  0  0  0  0  0  0  0  0  0  0
  -16.1141   -7.3852    4.9308 C   0  0  0  0  0  0  0  0  0  0  0  0
  -15.5995   -8.2411    3.7977 C   0  0  0  0  0  0  0  0  0  0  0  0
  -13.1702   -7.3819    7.2542 C   0  0  0  0  0  0  0  0  0  0  0  0
  -11.7562   -7.0087    7.3902 C   0  0  0  0  0  0  0  0  0  0  0  0
  -11.4450   -7.6391    8.7501 C   0  0  0  0  0  0  0  0  0  0  0  0
  -12.2138   -8.9403    8.7123 C   0  0  0  0  0  0  0  0  0  0  0  0
  -12.8513   -9.2080    9.9207 O   0  0  0  0  0  0  0  0  0  0  0  0
  -12.6580  -10.1248   10.2124 H   0  0  0  0  0  0  0  0  0  0  0  0
  2  1  1  0  0  0
  2  3  1  0  0  0
  3  4  1  0  0  0
  4  5  1  0  0  0
  5  6  1  0  0  0
  6  7  1  0  0  0
  7  8  1  0  0  0
  8  9  1  0  0  0
  9 10  2  0  0  0
 10 11  1  0  0  0
 11 12  2  0  0  0
 11 13  1  0  0  0
 13 14  1  0  0  0
 14 15  1  0  0  0
 15 16  1  0  0  0
  6 17  1  0  0  0
 17 18  1  0  0  0
 18 19  1  0  0  0
 19 20  1  0  0  0
 20 21  1  0  0  0
 17  2  1  0  0  0
 20  2  1  0  0  0
 15  5  1  0  0  0
 15  9  1  0  0  0
 21 22  1  0  0  0
M  END
> <minimizedAffinity>
-8.05635

> <CNNscore>
0.2160658538

> <CNNaffinity>
5.8535375595

> <CNN_VS>
1.2647496462

> <CNNaffinity_variance>
0.0097548338

$$$$
[H]O[C@]1([H])C([H])([H])C([H])([H])[C@]2([H])[C@]1(C([H])([H])[H])C([H])([H])C([H])([H])[C@]1([H])[C@]3(C([H])([H])[H])C(=C([H])C(=O)C([H])([H])C3([H])[H])C([H])([H])C([H])([H])[C@@]21[H]


 22 25  0  0  0  0  0  0  0  0999 V2000
   -7.7588   -7.7913    9.2006 C   0  0  0  0  0  0  0  0  0  0  0  0
   -7.8897   -7.3624    7.7622 C   0  0  0  0  0  0  0  0  0  0  0  0
   -8.7641   -6.1626    7.5929 C   0  0  0  0  0  0  0  0  0  0  0  0
  -10.1523   -6.5092    8.0603 C   0  0  0  0  0  0  0  0  0  0  0  0
  -10.7163   -7.7441    7.4502 C   0  0  0  0  0  0  0  0  0  0  0  0
   -9.7646   -8.9241    7.4829 C   0  0  0  0  0  0  0  0  0  0  0  0
  -10.3634  -10.0475    6.6647 C   0  0  0  0  0  0  0  0  0  0  0  0
  -11.7476  -10.4041    7.1009 C   0  0  0  0  0  0  0  0  0  0  0  0
  -12.6100   -9.2344    7.3624 C   0  0  0  0  0  0  0  0  0  0  0  0
  -13.8716   -9.2768    6.9563 C   0  0  0  0  0  0  0  0  0  0  0  0
  -14.7784   -8.1640    7.1785 C   0  0  0  0  0  0  0  0  0  0  0  0
  -15.8468   -8.0914    6.5301 O   0  0  0  0  0  0  0  0  0  0  0  0
  -14.3715   -7.1440    8.1954 C   0  0  0  0  0  0  0  0  0  0  0  0
  -12.9179   -6.8325    7.9382 C   0  0  0  0  0  0  0  0  0  0  0  0
  -12.0412   -8.0474    8.0704 C   0  0  0  0  0  0  0  0  0  0  0  0
  -11.9170   -8.4264    9.5272 C   0  0  0  0  0  0  0  0  0  0  0  0
   -8.5021   -8.4468    6.8957 C   0  0  0  0  0  0  0  0  0  0  0  0
   -7.4000   -9.4029    6.7273 C   0  0  0  0  0  0  0  0  0  0  0  0
   -6.2820   -8.4471    6.3033 C   0  0  0  0  0  0  0  0  0  0  0  0
   -6.5243   -7.2277    7.1636 C   0  0  0  0  0  0  0  0  0  0  0  0
   -6.3645   -6.0428    6.4505 O   0  0  0  0  0  0  0  0  0  0  0  0
   -5.7804   -5.4256    6.9414 H   0  0  0  0  0  0  0  0  0  0  0  0
  2  1  1  0  0  0
  2  3  1  0  0  0
  3  4  1  0  0  0
  4  5  1  0  0  0
  5  6  1  0  0  0
  6  7  1  0  0  0
  7  8  1  0  0  0
  8  9  1  0  0  0
  9 10  2  0  0  0
 10 11  1  0  0  0
 11 12  2  0  0  0
 11 13  1  0  0  0
 13 14  1  0  0  0
 14 15  1  0  0  0
 15 16  1  0  0  0
  6 17  1  0  0  0
 17 18  1  0  0  0
 18 19  1  0  0  0
 19 20  1  0  0  0
 20 21  1  0  0  0
 17  2  1  0  0  0
 20  2  1  0  0  0
 15  5  1  0  0  0
 15  9  1  0  0  0
 21 22  1  0  0  0
M  END
> <minimizedAffinity>
-8.49570

> <CNNscore>
0.2097075731

> <CNNaffinity>
5.7277135849

> <CNN_VS>
1.2011449337

> <CNNaffinity_variance>
0.0601846166

$$$$
[H]O[C@]1([H])C([H])([H])C([H])([H])[C@]2([H])[C@]1(C([H])([H])[H])C([H])([H])C([H])([H])[C@]1([H])[C@]3(C([H])([H])[H])C(=C([H])C(=O)C([H])([H])C3([H])[H])C([H])([H])C([H])([H])[C@@]21[H]


 22 25  0  0  0  0  0  0  0  0999 V2000
  -12.4506   -7.0221    7.1678 C   0  0  0  0  0  0  0  0  0  0  0  0
  -12.0479   -7.6893    8.4573 C   0  0  0  0  0  0  0  0  0  0  0  0
  -11.2006   -6.8138    9.3224 C   0  0  0  0  0  0  0  0  0  0  0  0
   -9.9237   -6.5034    8.5884 C   0  0  0  0  0  0  0  0  0  0  0  0
   -9.2047   -7.6999    8.0719 C   0  0  0  0  0  0  0  0  0  0  0  0
  -10.1008   -8.6686    7.3251 C   0  0  0  0  0  0  0  0  0  0  0  0
   -9.3099   -9.9241    7.0282 C   0  0  0  0  0  0  0  0  0  0  0  0
   -8.0301   -9.6429    6.3093 C   0  0  0  0  0  0  0  0  0  0  0  0
   -7.2803   -8.4937    6.8547 C   0  0  0  0  0  0  0  0  0  0  0  0
   -5.9620   -8.5922    6.9591 C   0  0  0  0  0  0  0  0  0  0  0  0
   -5.1588   -7.5027    7.4862 C   0  0  0  0  0  0  0  0  0  0  0  0
   -3.9850   -7.7195    7.8634 O   0  0  0  0  0  0  0  0  0  0  0  0
   -5.7983   -6.1510    7.5490 C   0  0  0  0  0  0  0  0  0  0  0  0
   -7.1804   -6.3522    8.1194 C   0  0  0  0  0  0  0  0  0  0  0  0
   -8.0219   -7.2642    7.2697 C   0  0  0  0  0  0  0  0  0  0  0  0
   -8.4236   -6.5481    6.0020 C   0  0  0  0  0  0  0  0  0  0  0  0
  -11.2353   -8.9483    8.2201 C   0  0  0  0  0  0  0  0  0  0  0  0
  -12.2461   -9.9229    7.7895 C   0  0  0  0  0  0  0  0  0  0  0  0
  -13.2891   -9.7288    8.8930 C   0  0  0  0  0  0  0  0  0  0  0  0
  -13.2686   -8.2357    9.1297 C   0  0  0  0  0  0  0  0  0  0  0  0
  -13.3235   -7.9187   10.4842 O   0  0  0  0  0  0  0  0  0  0  0  0
  -14.0161   -7.2431   10.6485 H   0  0  0  0  0  0  0  0  0  0  0  0
  2  1  1  0  0  0
  2  3  1  0  0  0
  3  4  1  0  0  0
  4  5  1  0  0  0
  5  6  1  0  0  0
  6  7  1  0  0  0
  7  8  1  0  0  0
  8  9  1  0  0  0
  9 10  2  0  0  0
 10 11  1  0  0  0
 11 12  2  0  0  0
 11 13  1  0  0  0
 13 14  1  0  0  0
 14 15  1  0  0  0
 15 16  1  0  0  0
  6 17  1  0  0  0
 17 18  1  0  0  0
 18 19  1  0  0  0
 19 20  1  0  0  0
 20 21  1  0  0  0
 17  2  1  0  0  0
 20  2  1  0  0  0
 15  5  1  0  0  0
 15  9  1  0  0  0
 21 22  1  0  0  0
M  END
> <minimizedAffinity>
-7.47803

> <CNNscore>
0.1927649230

> <CNNaffinity>
5.5299806595

> <CNN_VS>
1.0659862757

> <CNNaffinity_variance>
0.1237857118

$$$$
[H]O[C@]1([H])C([H])([H])C([H])([H])[C@]2([H])[C@]1(C([H])([H])[H])C([H])([H])C([H])([H])[C@]1([H])[C@]3(C([H])([H])[H])C(=C([H])C(=O)C([H])([H])C3([H])[H])C([H])([H])C([H])([H])[C@@]21[H]


 22 25  0  0  0  0  0  0  0  0999 V2000
  -15.0943   -5.8235    4.2312 C   0  0  0  0  0  0  0  0  0  0  0  0
  -16.0844   -6.9061    4.5747 C   0  0  0  0  0  0  0  0  0  0  0  0
  -16.7676   -6.6722    5.8829 C   0  0  0  0  0  0  0  0  0  0  0  0
  -15.7319   -6.6823    6.9750 C   0  0  0  0  0  0  0  0  0  0  0  0
  -14.8485   -7.8802    6.9739 C   0  0  0  0  0  0  0  0  0  0  0  0
  -14.2776   -8.2097    5.6084 C   0  0  0  0  0  0  0  0  0  0  0  0
  -13.5700   -9.5447    5.6924 C   0  0  0  0  0  0  0  0  0  0  0  0
  -12.5433   -9.5857    6.7776 C   0  0  0  0  0  0  0  0  0  0  0  0
  -12.9964   -8.9881    8.0496 C   0  0  0  0  0  0  0  0  0  0  0  0
  -12.6756   -9.5972    9.1830 C   0  0  0  0  0  0  0  0  0  0  0  0
  -13.0863   -9.0678   10.4718 C   0  0  0  0  0  0  0  0  0  0  0  0
  -13.0488   -9.7995   11.4868 O   0  0  0  0  0  0  0  0  0  0  0  0
  -13.5417   -7.6427   10.5111 C   0  0  0  0  0  0  0  0  0  0  0  0
  -14.4720   -7.4531    9.3387 C   0  0  0  0  0  0  0  0  0  0  0  0
  -13.7961   -7.7257    8.0231 C   0  0  0  0  0  0  0  0  0  0  0  0
  -12.8334   -6.6058    7.7064 C   0  0  0  0  0  0  0  0  0  0  0  0
  -15.4257   -8.2680    4.6891 C   0  0  0  0  0  0  0  0  0  0  0  0
  -15.1864   -8.6427    3.2893 C   0  0  0  0  0  0  0  0  0  0  0  0
  -16.5726   -8.3686    2.7005 C   0  0  0  0  0  0  0  0  0  0  0  0
  -17.0100   -7.1108    3.4162 C   0  0  0  0  0  0  0  0  0  0  0  0
  -18.3474   -7.1637    3.7996 O   0  0  0  0  0  0  0  0  0  0  0  0
  -18.8143   -6.3465    3.5217 H   0  0  0  0  0  0  0  0  0  0  0  0
  2  1  1  0  0  0
  2  3  1  0  0  0
  3  4  1  0  0  0
  4  5  1  0  0  0
  5  6  1  0  0  0
  6  7  1  0  0  0
  7  8  1  0  0  0
  8  9  1  0  0  0
  9 10  2  0  0  0
 10 11  1  0  0  0
 11 12  2  0  0  0
 11 13  1  0  0  0
 13 14  1  0  0  0
 14 15  1  0  0  0
 15 16  1  0  0  0
  6 17  1  0  0  0
 17 18  1  0  0  0
 18 19  1  0  0  0
 19 20  1  0  0  0
 20 21  1  0  0  0
 17  2  1  0  0  0
 20  2  1  0  0  0
 15  5  1  0  0  0
 15  9  1  0  0  0
 21 22  1  0  0  0
M  END
> <minimizedAffinity>
-5.20644

> <CNNscore>
0.1747310609

> <CNNaffinity>
5.8985242844

> <CNN_VS>
1.0306553841

> <CNNaffinity_variance>
0.0346009657

$$$$
[H]Oc1c([H])c([H])c2c(c1[H])C([H])([H])C([H])([H])[C@]1([H])[C@]2([H])C([H])([H])C([H])([H])[C@]2(C([H])([H])[H])[C@@](C#CC([H])([H])[H])(O[H])C([H])([H])C([H])([H])[C@]21[H]


 25 28  0  0  0  0  0  0  0  0999 V2000
  -12.7162   -9.7601    9.2294 C   0  0  0  0  0  0  0  0  0  0  0  0
  -13.1884   -8.7791    8.1913 C   0  0  0  0  0  0  0  0  0  0  0  0
  -12.7594   -9.2018    6.8428 C   0  0  0  0  0  0  0  0  0  0  0  0
  -11.2550   -9.4302    6.8995 C   0  0  0  0  0  0  0  0  0  0  0  0
  -10.5877   -8.1326    7.2032 C   0  0  0  0  0  0  0  0  0  0  0  0
  -11.1335   -7.4143    8.4048 C   0  0  0  0  0  0  0  0  0  0  0  0
  -10.6263   -5.9876    8.3250 C   0  0  0  0  0  0  0  0  0  0  0  0
   -9.1419   -5.8778    8.2558 C   0  0  0  0  0  0  0  0  0  0  0  0
   -8.4557   -7.1473    7.8743 C   0  0  0  0  0  0  0  0  0  0  0  0
   -7.0730   -7.1741    8.0590 C   0  0  0  0  0  0  0  0  0  0  0  0
   -6.3738   -8.3256    7.7236 C   0  0  0  0  0  0  0  0  0  0  0  0
   -4.9812   -8.3401    7.9142 O   0  0  0  0  0  0  0  0  0  0  0  0
   -7.0370   -9.4193    7.2180 C   0  0  0  0  0  0  0  0  0  0  0  0
   -8.4245   -9.3589    7.0453 C   0  0  0  0  0  0  0  0  0  0  0  0
   -9.1338   -8.2309    7.3706 C   0  0  0  0  0  0  0  0  0  0  0  0
  -12.6105   -7.3775    8.4395 C   0  0  0  0  0  0  0  0  0  0  0  0
  -13.2217   -7.0717    9.7612 C   0  0  0  0  0  0  0  0  0  0  0  0
  -14.6169   -7.6933    9.6752 C   0  0  0  0  0  0  0  0  0  0  0  0
  -14.6353   -8.4756    8.3619 C   0  0  0  0  0  0  0  0  0  0  0  0
  -15.4357   -9.6011    8.4511 O   0  0  0  0  0  0  0  0  0  0  0  0
   -4.5109   -7.5364    8.2833 H   0  0  0  0  0  0  0  0  0  0  0  0
  -15.8577   -9.8588    7.6092 H   0  0  0  0  0  0  0  0  0  0  0  0
  -15.0866   -7.5845    7.2775 C   0  0  0  0  0  0  0  0  0  0  0  0
  -15.4436   -6.8428    6.3932 C   0  0  0  0  0  0  0  0  0  0  0  0
  -15.8725   -5.9516    5.2964 C   0  0  0  0  0  0  0  0  0  0  0  0
  2  1  1  0  0  0
  2  3  1  0  0  0
  3  4  1  0  0  0
  4  5  1  0  0  0
  5  6  1  0  0  0
  6  7  1  0  0  0
  7  8  1  0  0  0
  8  9  1  0  0  0
  9 10  2  0  0  0
 10 11  1  0  0  0
 11 12  1  0  0  0
 11 13  2  0  0  0
 13 14  1  0  0  0
 14 15  2  0  0  0
  6 16  1  0  0  0
 16 17  1  0  0  0
 17 18  1  0  0  0
 18 19  1  0  0  0
 19 20  1  0  0  0
 19 23  1  0  0  0
 23 24  3  0  0  0
 24 25  1  0  0  0
 16  2  1  0  0  0
 19  2  1  0  0  0
 15  5  1  0  0  0
 15  9  1  0  0  0
 12 21  1  0  0  0
 20 22  1  0  0  0
M  END
> <minimizedAffinity>
-7.70803

> <CNNscore>
0.4157322943

> <CNNaffinity>
6.4236083031

> <CNN_VS>
2.6705014706

> <CNNaffinity_variance>
0.3285461366

$$$$
[H]Oc1c([H])c([H])c2c(c1[H])C([H])([H])C([H])([H])[C@]1([H])[C@]2([H])C([H])([H])C([H])([H])[C@]2(C([H])([H])[H])[C@@](C#CC([H])([H])[H])(O[H])C([H])([H])C([H])([H])[C@]21[H]


 25 28  0  0  0  0  0  0  0  0999 V2000
   -5.8041   -7.1738    9.4214 C   0  0  0  0  0  0  0  0  0  0  0  0
   -5.6507   -6.6202    8.0311 C   0  0  0  0  0  0  0  0  0  0  0  0
   -6.7128   -5.6350    7.7433 C   0  0  0  0  0  0  0  0  0  0  0  0
   -8.0452   -6.3086    8.0426 C   0  0  0  0  0  0  0  0  0  0  0  0
   -8.2208   -7.4538    7.1050 C   0  0  0  0  0  0  0  0  0  0  0  0
   -7.0609   -8.4077    7.0580 C   0  0  0  0  0  0  0  0  0  0  0  0
   -7.2410   -9.2487    5.8092 C   0  0  0  0  0  0  0  0  0  0  0  0
   -8.5416   -9.9735    5.7522 C   0  0  0  0  0  0  0  0  0  0  0  0
   -9.5735   -9.4455    6.6927 C   0  0  0  0  0  0  0  0  0  0  0  0
  -10.7009  -10.2468    6.8756 C   0  0  0  0  0  0  0  0  0  0  0  0
  -11.6990   -9.8132    7.7378 C   0  0  0  0  0  0  0  0  0  0  0  0
  -12.8299  -10.6294    7.9136 O   0  0  0  0  0  0  0  0  0  0  0  0
  -11.5743   -8.6133    8.3983 C   0  0  0  0  0  0  0  0  0  0  0  0
  -10.4304   -7.8339    8.1920 C   0  0  0  0  0  0  0  0  0  0  0  0
   -9.4330   -8.2443    7.3447 C   0  0  0  0  0  0  0  0  0  0  0  0
   -5.7516   -7.7279    6.9714 C   0  0  0  0  0  0  0  0  0  0  0  0
   -4.5671   -8.5505    7.3379 C   0  0  0  0  0  0  0  0  0  0  0  0
   -3.5199   -7.5201    7.7644 C   0  0  0  0  0  0  0  0  0  0  0  0
   -4.2516   -6.1779    7.7833 C   0  0  0  0  0  0  0  0  0  0  0  0
   -3.7492   -5.3382    8.7620 O   0  0  0  0  0  0  0  0  0  0  0  0
  -12.9077  -11.5010    7.4262 H   0  0  0  0  0  0  0  0  0  0  0  0
   -3.8102   -4.3885    8.5433 H   0  0  0  0  0  0  0  0  0  0  0  0
   -4.1558   -5.5589    6.4485 C   0  0  0  0  0  0  0  0  0  0  0  0
   -4.0738   -5.0677    5.3479 C   0  0  0  0  0  0  0  0  0  0  0  0
   -3.9967   -4.4629    4.0028 C   0  0  0  0  0  0  0  0  0  0  0  0
  2  1  1  0  0  0
  2  3  1  0  0  0
  3  4  1  0  0  0
  4  5  1  0  0  0
  5  6  1  0  0  0
  6  7  1  0  0  0
  7  8  1  0  0  0
  8  9  1  0  0  0
  9 10  2  0  0  0
 10 11  1  0  0  0
 11 12  1  0  0  0
 11 13  2  0  0  0
 13 14  1  0  0  0
 14 15  2  0  0  0
  6 16  1  0  0  0
 16 17  1  0  0  0
 17 18  1  0  0  0
 18 19  1  0  0  0
 19 20  1  0  0  0
 19 23  1  0  0  0
 23 24  3  0  0  0
 24 25  1  0  0  0
 16  2  1  0  0  0
 19  2  1  0  0  0
 15  5  1  0  0  0
 15  9  1  0  0  0
 12 21  1  0  0  0
 20 22  1  0  0  0
M  END
> <minimizedAffinity>
-2.48065

> <CNNscore>
0.4102692604

> <CNNaffinity>
5.5932397842

> <CNN_VS>
2.2947342396

> <CNNaffinity_variance>
0.6414088011

$$$$
[H]Oc1c([H])c([H])c2c(c1[H])C([H])([H])C([H])([H])[C@]1([H])[C@]2([H])C([H])([H])C([H])([H])[C@]2(C([H])([H])[H])[C@@](C#CC([H])([H])[H])(O[H])C([H])([H])C([H])([H])[C@]21[H]


 25 28  0  0  0  0  0  0  0  0999 V2000
  -14.5634   -9.7550    7.7461 C   0  0  0  0  0  0  0  0  0  0  0  0
  -14.4712   -8.5055    6.9137 C   0  0  0  0  0  0  0  0  0  0  0  0
  -13.8069   -8.7867    5.6249 C   0  0  0  0  0  0  0  0  0  0  0  0
  -12.4828   -9.4694    5.9402 C   0  0  0  0  0  0  0  0  0  0  0  0
  -11.6233   -8.5148    6.6962 C   0  0  0  0  0  0  0  0  0  0  0  0
  -12.2819   -7.8949    7.8960 C   0  0  0  0  0  0  0  0  0  0  0  0
  -11.4333   -6.7013    8.2886 C   0  0  0  0  0  0  0  0  0  0  0  0
  -10.0087   -7.0387    8.5660 C   0  0  0  0  0  0  0  0  0  0  0  0
   -9.5831   -8.3657    8.0310 C   0  0  0  0  0  0  0  0  0  0  0  0
   -8.3569   -8.8459    8.4922 C   0  0  0  0  0  0  0  0  0  0  0  0
   -7.9026  -10.0748    8.0331 C   0  0  0  0  0  0  0  0  0  0  0  0
   -6.6658  -10.5477    8.5051 O   0  0  0  0  0  0  0  0  0  0  0  0
   -8.6518  -10.8033    7.1389 C   0  0  0  0  0  0  0  0  0  0  0  0
   -9.8773  -10.2924    6.6966 C   0  0  0  0  0  0  0  0  0  0  0  0
  -10.3441   -9.0805    7.1379 C   0  0  0  0  0  0  0  0  0  0  0  0
  -13.6535   -7.4164    7.6245 C   0  0  0  0  0  0  0  0  0  0  0  0
  -14.5088   -7.1839    8.8197 C   0  0  0  0  0  0  0  0  0  0  0  0
  -15.9354   -7.3240    8.2854 C   0  0  0  0  0  0  0  0  0  0  0  0
  -15.7858   -7.8115    6.8442 C   0  0  0  0  0  0  0  0  0  0  0  0
  -16.8341   -8.6357    6.4743 O   0  0  0  0  0  0  0  0  0  0  0  0
   -6.1304  -10.0067    9.1563 H   0  0  0  0  0  0  0  0  0  0  0  0
  -17.0583   -8.5952    5.5248 H   0  0  0  0  0  0  0  0  0  0  0  0
  -15.6839   -6.6438    5.9496 C   0  0  0  0  0  0  0  0  0  0  0  0
  -15.5887   -5.6798    5.2279 C   0  0  0  0  0  0  0  0  0  0  0  0
  -15.4616   -4.5145    4.3295 C   0  0  0  0  0  0  0  0  0  0  0  0
  2  1  1  0  0  0
  2  3  1  0  0  0
  3  4  1  0  0  0
  4  5  1  0  0  0
  5  6  1  0  0  0
  6  7  1  0  0  0
  7  8  1  0  0  0
  8  9  1  0  0  0
  9 10  2  0  0  0
 10 11  1  0  0  0
 11 12  1  0  0  0
 11 13  2  0  0  0
 13 14  1  0  0  0
 14 15  2  0  0  0
  6 16  1  0  0  0
 16 17  1  0  0  0
 17 18  1  0  0  0
 18 19  1  0  0  0
 19 20  1  0  0  0
 19 23  1  0  0  0
 23 24  3  0  0  0
 24 25  1  0  0  0
 16  2  1  0  0  0
 19  2  1  0  0  0
 15  5  1  0  0  0
 15  9  1  0  0  0
 12 21  1  0  0  0
 20 22  1  0  0  0
M  END
> <minimizedAffinity>
-6.87889

> <CNNscore>
0.3057847917

> <CNNaffinity>
6.2664780617

> <CNN_VS>
1.9161937237

> <CNNaffinity_variance>
0.2513670027

$$$$
[H]Oc1c([H])c([H])c2c(c1[H])C([H])([H])C([H])([H])[C@]1([H])[C@]2([H])C([H])([H])C([H])([H])[C@]2(C([H])([H])[H])[C@@](C#CC([H])([H])[H])(O[H])C([H])([H])C([H])([H])[C@]21[H]


 25 28  0  0  0  0  0  0  0  0999 V2000
   -6.3914   -8.6048    5.3847 C   0  0  0  0  0  0  0  0  0  0  0  0
   -6.0628   -7.9388    6.6929 C   0  0  0  0  0  0  0  0  0  0  0  0
   -6.2707   -8.8721    7.8185 C   0  0  0  0  0  0  0  0  0  0  0  0
   -7.6858   -9.4203    7.6937 C   0  0  0  0  0  0  0  0  0  0  0  0
   -8.6485   -8.2937    7.8532 C   0  0  0  0  0  0  0  0  0  0  0  0
   -8.3804   -7.1111    6.9660 C   0  0  0  0  0  0  0  0  0  0  0  0
   -9.1837   -5.9550    7.5294 C   0  0  0  0  0  0  0  0  0  0  0  0
  -10.6439   -6.2312    7.6382 C   0  0  0  0  0  0  0  0  0  0  0  0
  -10.9954   -7.6801    7.5671 C   0  0  0  0  0  0  0  0  0  0  0  0
  -12.3481   -7.9729    7.3902 C   0  0  0  0  0  0  0  0  0  0  0  0
  -12.7423   -9.3020    7.3162 C   0  0  0  0  0  0  0  0  0  0  0  0
  -14.1079   -9.5840    7.1379 O   0  0  0  0  0  0  0  0  0  0  0  0
  -11.8119  -10.3099    7.4160 C   0  0  0  0  0  0  0  0  0  0  0  0
  -10.4631   -9.9813    7.5930 C   0  0  0  0  0  0  0  0  0  0  0  0
  -10.0529   -8.6746    7.6686 C   0  0  0  0  0  0  0  0  0  0  0  0
   -6.9571   -6.7142    6.9397 C   0  0  0  0  0  0  0  0  0  0  0  0
   -6.5440   -5.8532    5.7987 C   0  0  0  0  0  0  0  0  0  0  0  0
   -5.0433   -6.1171    5.6618 C   0  0  0  0  0  0  0  0  0  0  0  0
   -4.7397   -7.2607    6.6298 C   0  0  0  0  0  0  0  0  0  0  0  0
   -3.7194   -8.0686    6.1590 O   0  0  0  0  0  0  0  0  0  0  0  0
  -14.7749   -8.8401    7.0667 H   0  0  0  0  0  0  0  0  0  0  0  0
   -3.1806   -8.4813    6.8609 H   0  0  0  0  0  0  0  0  0  0  0  0
   -4.4074   -6.6970    7.9511 C   0  0  0  0  0  0  0  0  0  0  0  0
   -4.1268   -6.2218    9.0257 C   0  0  0  0  0  0  0  0  0  0  0  0
   -3.8064   -5.6358   10.3429 C   0  0  0  0  0  0  0  0  0  0  0  0
  2  1  1  0  0  0
  2  3  1  0  0  0
  3  4  1  0  0  0
  4  5  1  0  0  0
  5  6  1  0  0  0
  6  7  1  0  0  0
  7  8  1  0  0  0
  8  9  1  0  0  0
  9 10  2  0  0  0
 10 11  1  0  0  0
 11 12  1  0  0  0
 11 13  2  0  0  0
 13 14  1  0  0  0
 14 15  2  0  0  0
  6 16  1  0  0  0
 16 17  1  0  0  0
 17 18  1  0  0  0
 18 19  1  0  0  0
 19 20  1  0  0  0
 19 23  1  0  0  0
 23 24  3  0  0  0
 24 25  1  0  0  0
 16  2  1  0  0  0
 19  2  1  0  0  0
 15  5  1  0  0  0
 15  9  1  0  0  0
 12 21  1  0  0  0
 20 22  1  0  0  0
M  END
> <minimizedAffinity>
-5.50725

> <CNNscore>
0.2946816683

> <CNNaffinity>
5.7795157433

> <CNN_VS>
1.7031173706

> <CNNaffinity_variance>
0.3156205714

$$$$
[H]Oc1c([H])c([H])c2c(c1[H])C([H])([H])C([H])([H])[C@]1([H])[C@]2([H])C([H])([H])C([H])([H])[C@]2(C([H])([H])[H])[C@@](C#CC([H])([H])[H])(O[H])C([H])([H])C([H])([H])[C@]21[H]


 25 28  0  0  0  0  0  0  0  0999 V2000
   -3.3974   -7.7125    5.4905 C   0  0  0  0  0  0  0  0  0  0  0  0
   -3.4230   -6.6844    6.5883 C   0  0  0  0  0  0  0  0  0  0  0  0
   -3.4738   -7.3377    7.9119 C   0  0  0  0  0  0  0  0  0  0  0  0
   -4.6458   -8.3097    7.8899 C   0  0  0  0  0  0  0  0  0  0  0  0
   -5.9056   -7.5322    7.7177 C   0  0  0  0  0  0  0  0  0  0  0  0
   -5.8964   -6.5736    6.5607 C   0  0  0  0  0  0  0  0  0  0  0  0
   -7.0580   -5.6230    6.7755 C   0  0  0  0  0  0  0  0  0  0  0  0
   -8.3777   -6.3025    6.9060 C   0  0  0  0  0  0  0  0  0  0  0  0
   -8.2830   -7.7617    7.2058 C   0  0  0  0  0  0  0  0  0  0  0  0
   -9.4641   -8.4917    7.0686 C   0  0  0  0  0  0  0  0  0  0  0  0
   -9.4445   -9.8545    7.3328 C   0  0  0  0  0  0  0  0  0  0  0  0
  -10.6408  -10.5790    7.1910 O   0  0  0  0  0  0  0  0  0  0  0  0
   -8.2784  -10.4705    7.7229 C   0  0  0  0  0  0  0  0  0  0  0  0
   -7.1114   -9.7087    7.8508 C   0  0  0  0  0  0  0  0  0  0  0  0
   -7.1095   -8.3612    7.5945 C   0  0  0  0  0  0  0  0  0  0  0  0
   -4.6560   -5.7747    6.4769 C   0  0  0  0  0  0  0  0  0  0  0  0
   -4.3874   -5.1281    5.1640 C   0  0  0  0  0  0  0  0  0  0  0  0
   -2.8693   -4.9398    5.1491 C   0  0  0  0  0  0  0  0  0  0  0  0
   -2.3554   -5.6664    6.3921 C   0  0  0  0  0  0  0  0  0  0  0  0
   -1.0990   -6.2074    6.1824 O   0  0  0  0  0  0  0  0  0  0  0  0
  -11.4830  -10.1176    6.9061 H   0  0  0  0  0  0  0  0  0  0  0  0
   -0.5444   -6.2523    6.9848 H   0  0  0  0  0  0  0  0  0  0  0  0
   -2.3493   -4.7282    7.5295 C   0  0  0  0  0  0  0  0  0  0  0  0
   -2.3387   -3.9466    8.4506 C   0  0  0  0  0  0  0  0  0  0  0  0
   -2.3492   -2.9920    9.5775 C   0  0  0  0  0  0  0  0  0  0  0  0
  2  1  1  0  0  0
  2  3  1  0  0  0
  3  4  1  0  0  0
  4  5  1  0  0  0
  5  6  1  0  0  0
  6  7  1  0  0  0
  7  8  1  0  0  0
  8  9  1  0  0  0
  9 10  2  0  0  0
 10 11  1  0  0  0
 11 12  1  0  0  0
 11 13  2  0  0  0
 13 14  1  0  0  0
 14 15  2  0  0  0
  6 16  1  0  0  0
 16 17  1  0  0  0
 17 18  1  0  0  0
 18 19  1  0  0  0
 19 20  1  0  0  0
 19 23  1  0  0  0
 23 24  3  0  0  0
 24 25  1  0  0  0
 16  2  1  0  0  0
 19  2  1  0  0  0
 15  5  1  0  0  0
 15  9  1  0  0  0
 12 21  1  0  0  0
 20 22  1  0  0  0
M  END
> <minimizedAffinity>
-3.11942

> <CNNscore>
0.2552378774

> <CNNaffinity>
5.1711983681

> <CNN_VS>
1.3198857307

> <CNNaffinity_variance>
0.4223880768

$$$$
[H]Oc1c([H])c([H])c2c(c1[H])C([H])([H])C([H])([H])[C@]1([H])[C@]2([H])C([H])([H])C([H])([H])[C@]2(C([H])([H])[H])[C@@](C#CC([H])([H])[H])(O[H])C([H])([H])C([H])([H])[C@]21[H]


 25 28  0  0  0  0  0  0  0  0999 V2000
  -11.9834   -6.9316    6.5964 C   0  0  0  0  0  0  0  0  0  0  0  0
  -12.0111   -7.6055    7.9410 C   0  0  0  0  0  0  0  0  0  0  0  0
  -11.3268   -6.7756    8.9531 C   0  0  0  0  0  0  0  0  0  0  0  0
   -9.9437   -6.4482    8.4069 C   0  0  0  0  0  0  0  0  0  0  0  0
   -9.1755   -7.7174    8.2645 C   0  0  0  0  0  0  0  0  0  0  0  0
   -9.8860   -8.7963    7.4972 C   0  0  0  0  0  0  0  0  0  0  0  0
   -9.1520  -10.0908    7.7879 C   0  0  0  0  0  0  0  0  0  0  0  0
   -7.7013  -10.0509    7.4499 C   0  0  0  0  0  0  0  0  0  0  0  0
   -7.1546   -8.6725    7.2793 C   0  0  0  0  0  0  0  0  0  0  0  0
   -5.8875   -8.5846    6.7017 C   0  0  0  0  0  0  0  0  0  0  0  0
   -5.3212   -7.3308    6.5150 C   0  0  0  0  0  0  0  0  0  0  0  0
   -4.0443   -7.2555    5.9321 O   0  0  0  0  0  0  0  0  0  0  0  0
   -6.0012   -6.1972    6.8945 C   0  0  0  0  0  0  0  0  0  0  0  0
   -7.2704   -6.3210    7.4710 C   0  0  0  0  0  0  0  0  0  0  0  0
   -7.8476   -7.5503    7.6640 C   0  0  0  0  0  0  0  0  0  0  0  0
  -11.2971   -8.9653    7.9022 C   0  0  0  0  0  0  0  0  0  0  0  0
  -12.1672   -9.6913    6.9379 C   0  0  0  0  0  0  0  0  0  0  0  0
  -13.5758   -9.1907    7.2627 C   0  0  0  0  0  0  0  0  0  0  0  0
  -13.3851   -8.0657    8.2800 C   0  0  0  0  0  0  0  0  0  0  0  0
  -14.3525   -7.0856    8.1425 O   0  0  0  0  0  0  0  0  0  0  0  0
   -3.5602   -8.0893    5.6604 H   0  0  0  0  0  0  0  0  0  0  0  0
  -14.5821   -6.6313    8.9757 H   0  0  0  0  0  0  0  0  0  0  0  0
  -13.3955   -8.6387    9.6385 C   0  0  0  0  0  0  0  0  0  0  0  0
  -13.3872   -9.1030   10.7538 C   0  0  0  0  0  0  0  0  0  0  0  0
  -13.3923   -9.6540   12.1240 C   0  0  0  0  0  0  0  0  0  0  0  0
  2  1  1  0  0  0
  2  3  1  0  0  0
  3  4  1  0  0  0
  4  5  1  0  0  0
  5  6  1  0  0  0
  6  7  1  0  0  0
  7  8  1  0  0  0
  8  9  1  0  0  0
  9 10  2  0  0  0
 10 11  1  0  0  0
 11 12  1  0  0  0
 11 13  2  0  0  0
 13 14  1  0  0  0
 14 15  2  0  0  0
  6 16  1  0  0  0
 16 17  1  0  0  0
 17 18  1  0  0  0
 18 19  1  0  0  0
 19 20  1  0  0  0
 19 23  1  0  0  0
 23 24  3  0  0  0
 24 25  1  0  0  0
 16  2  1  0  0  0
 19  2  1  0  0  0
 15  5  1  0  0  0
 15  9  1  0  0  0
 12 21  1  0  0  0
 20 22  1  0  0  0
M  END
> <minimizedAffinity>
-4.24467

> <CNNscore>
0.2512672246

> <CNNaffinity>
5.8450050354

> <CNN_VS>
1.4686582088

> <CNNaffinity_variance>
0.1195105761

$$$$
[H]Oc1c([H])c([H])c2c(c1[H])C([H])([H])C([H])([H])[C@]1([H])[C@]2([H])C([H])([H])C([H])([H])[C@]2(C([H])([H])[H])[C@@](C#CC([H])([H])[H])(O[H])C([H])([H])C([H])([H])[C@]21[H]


 25 28  0  0  0  0  0  0  0  0999 V2000
   -8.6584   -7.8067    9.7514 C   0  0  0  0  0  0  0  0  0  0  0  0
   -8.4633   -7.4713    8.2979 C   0  0  0  0  0  0  0  0  0  0  0  0
   -9.1849   -6.2308    7.9489 C   0  0  0  0  0  0  0  0  0  0  0  0
  -10.6291   -6.4082    8.3976 C   0  0  0  0  0  0  0  0  0  0  0  0
  -11.2366   -7.5228    7.6168 C   0  0  0  0  0  0  0  0  0  0  0  0
  -10.4425   -8.7984    7.6251 C   0  0  0  0  0  0  0  0  0  0  0  0
  -10.9867   -9.6557    6.4991 C   0  0  0  0  0  0  0  0  0  0  0  0
  -12.4485   -9.9266    6.5992 C   0  0  0  0  0  0  0  0  0  0  0  0
  -13.1756   -9.0054    7.5216 C   0  0  0  0  0  0  0  0  0  0  0  0
  -14.4763   -9.3803    7.8597 C   0  0  0  0  0  0  0  0  0  0  0  0
  -15.2080   -8.5665    8.7141 C   0  0  0  0  0  0  0  0  0  0  0  0
  -16.5172   -8.9550    9.0472 O   0  0  0  0  0  0  0  0  0  0  0  0
  -14.6560   -7.4113    9.2163 C   0  0  0  0  0  0  0  0  0  0  0  0
  -13.3487   -7.0646    8.8568 C   0  0  0  0  0  0  0  0  0  0  0  0
  -12.6090   -7.8548    8.0143 C   0  0  0  0  0  0  0  0  0  0  0  0
   -8.9993   -8.5868    7.3877 C   0  0  0  0  0  0  0  0  0  0  0  0
   -8.1042   -9.7057    7.7886 C   0  0  0  0  0  0  0  0  0  0  0  0
   -6.7537   -9.0292    8.0308 C   0  0  0  0  0  0  0  0  0  0  0  0
   -7.0238   -7.5283    7.9249 C   0  0  0  0  0  0  0  0  0  0  0  0
   -6.1992   -6.8021    8.7663 O   0  0  0  0  0  0  0  0  0  0  0  0
  -16.9068   -9.7991    8.6742 H   0  0  0  0  0  0  0  0  0  0  0  0
   -5.9791   -5.9095    8.4373 H   0  0  0  0  0  0  0  0  0  0  0  0
   -6.8579   -7.1075    6.5216 C   0  0  0  0  0  0  0  0  0  0  0  0
   -6.7390   -6.7663    5.3688 C   0  0  0  0  0  0  0  0  0  0  0  0
   -6.5907   -6.3270    3.9666 C   0  0  0  0  0  0  0  0  0  0  0  0
  2  1  1  0  0  0
  2  3  1  0  0  0
  3  4  1  0  0  0
  4  5  1  0  0  0
  5  6  1  0  0  0
  6  7  1  0  0  0
  7  8  1  0  0  0
  8  9  1  0  0  0
  9 10  2  0  0  0
 10 11  1  0  0  0
 11 12  1  0  0  0
 11 13  2  0  0  0
 13 14  1  0  0  0
 14 15  2  0  0  0
  6 16  1  0  0  0
 16 17  1  0  0  0
 17 18  1  0  0  0
 18 19  1  0  0  0
 19 20  1  0  0  0
 19 23  1  0  0  0
 23 24  3  0  0  0
 24 25  1  0  0  0
 16  2  1  0  0  0
 19  2  1  0  0  0
 15  5  1  0  0  0
 15  9  1  0  0  0
 12 21  1  0  0  0
 20 22  1  0  0  0
M  END
> <minimizedAffinity>
-4.02835

> <CNNscore>
0.2469879836

> <CNNaffinity>
6.1565947533

> <CNN_VS>
1.5206049681

> <CNNaffinity_variance>
0.2754475772

$$$$
[H]Oc1c([H])c([H])c2c(c1[H])C([H])([H])C([H])([H])[C@]1([H])[C@]2([H])C([H])([H])C([H])([H])[C@]2(C([H])([H])[H])[C@@](C#CC([H])([H])[H])(O[H])C([H])([H])C([H])([H])[C@]21[H]


 25 28  0  0  0  0  0  0  0  0999 V2000
   -5.8747   -8.7998    5.6036 C   0  0  0  0  0  0  0  0  0  0  0  0
   -7.0045   -8.0556    6.2615 C   0  0  0  0  0  0  0  0  0  0  0  0
   -7.5528   -7.0307    5.3502 C   0  0  0  0  0  0  0  0  0  0  0  0
   -6.3844   -6.1754    4.8790 C   0  0  0  0  0  0  0  0  0  0  0  0
   -5.8036   -5.4721    6.0576 C   0  0  0  0  0  0  0  0  0  0  0  0
   -5.4659   -6.3669    7.2165 C   0  0  0  0  0  0  0  0  0  0  0  0
   -5.2712   -5.4643    8.4193 C   0  0  0  0  0  0  0  0  0  0  0  0
   -4.2318   -4.4146    8.2241 C   0  0  0  0  0  0  0  0  0  0  0  0
   -3.8684   -4.1772    6.7959 C   0  0  0  0  0  0  0  0  0  0  0  0
   -2.7221   -3.4128    6.5758 C   0  0  0  0  0  0  0  0  0  0  0  0
   -2.3288   -3.1548    5.2696 C   0  0  0  0  0  0  0  0  0  0  0  0
   -1.1723   -2.3835    5.0610 O   0  0  0  0  0  0  0  0  0  0  0  0
   -3.0597   -3.6463    4.2134 C   0  0  0  0  0  0  0  0  0  0  0  0
   -4.2045   -4.4096    4.4694 C   0  0  0  0  0  0  0  0  0  0  0  0
   -4.6100   -4.6759    5.7524 C   0  0  0  0  0  0  0  0  0  0  0  0
   -6.5359   -7.3353    7.5350 C   0  0  0  0  0  0  0  0  0  0  0  0
   -6.1297   -8.5030    8.3628 C   0  0  0  0  0  0  0  0  0  0  0  0
   -7.1618   -9.5778    8.0163 C   0  0  0  0  0  0  0  0  0  0  0  0
   -7.9848   -8.9979    6.8659 C   0  0  0  0  0  0  0  0  0  0  0  0
   -8.4163   -9.9873    5.9997 O   0  0  0  0  0  0  0  0  0  0  0  0
   -0.6493   -2.0317    5.8396 H   0  0  0  0  0  0  0  0  0  0  0  0
   -9.2683   -9.7930    5.5640 H   0  0  0  0  0  0  0  0  0  0  0  0
   -9.1223   -8.2419    7.4215 C   0  0  0  0  0  0  0  0  0  0  0  0
  -10.0536   -7.6116    7.8627 C   0  0  0  0  0  0  0  0  0  0  0  0
  -11.2063   -6.8594    8.3981 C   0  0  0  0  0  0  0  0  0  0  0  0
  2  1  1  0  0  0
  2  3  1  0  0  0
  3  4  1  0  0  0
  4  5  1  0  0  0
  5  6  1  0  0  0
  6  7  1  0  0  0
  7  8  1  0  0  0
  8  9  1  0  0  0
  9 10  2  0  0  0
 10 11  1  0  0  0
 11 12  1  0  0  0
 11 13  2  0  0  0
 13 14  1  0  0  0
 14 15  2  0  0  0
  6 16  1  0  0  0
 16 17  1  0  0  0
 17 18  1  0  0  0
 18 19  1  0  0  0
 19 20  1  0  0  0
 19 23  1  0  0  0
 23 24  3  0  0  0
 24 25  1  0  0  0
 16  2  1  0  0  0
 19  2  1  0  0  0
 15  5  1  0  0  0
 15  9  1  0  0  0
 12 21  1  0  0  0
 20 22  1  0  0  0
M  END
> <minimizedAffinity>
-2.19702

> <CNNscore>
0.2330444902

> <CNNaffinity>
5.1852955818

> <CNN_VS>
1.2084045410

> <CNNaffinity_variance>
0.5889395475

$$$$
[H]Oc1c([H])c([H])c2c(c1[H])C([H])([H])C([H])([H])[C@]1([H])[C@]2([H])C([H])([H])C([H])([H])[C@]2(C([H])([H])[H])[C@@](C#CC([H])([H])[H])(O[H])C([H])([H])C([H])([H])[C@]21[H]


 25 28  0  0  0  0  0  0  0  0999 V2000
  -15.1377   -9.8041    3.5508 C   0  0  0  0  0  0  0  0  0  0  0  0
  -14.9990   -8.4756    4.2426 C   0  0  0  0  0  0  0  0  0  0  0  0
  -13.8226   -7.7432    3.7315 C   0  0  0  0  0  0  0  0  0  0  0  0
  -12.6252   -8.6766    3.8481 C   0  0  0  0  0  0  0  0  0  0  0  0
  -12.3880   -8.9686    5.2903 C   0  0  0  0  0  0  0  0  0  0  0  0
  -13.5995   -9.4467    6.0395 C   0  0  0  0  0  0  0  0  0  0  0  0
  -13.2778   -9.3131    7.5153 C   0  0  0  0  0  0  0  0  0  0  0  0
  -12.0540  -10.0521    7.9354 C   0  0  0  0  0  0  0  0  0  0  0  0
  -11.1600  -10.4399    6.8047 C   0  0  0  0  0  0  0  0  0  0  0  0
  -10.1543  -11.3583    7.1080 C   0  0  0  0  0  0  0  0  0  0  0  0
   -9.2879  -11.7610    6.1007 C   0  0  0  0  0  0  0  0  0  0  0  0
   -8.2790  -12.6866    6.4188 O   0  0  0  0  0  0  0  0  0  0  0  0
   -9.4223  -11.2605    4.8268 C   0  0  0  0  0  0  0  0  0  0  0  0
  -10.4419  -10.3407    4.5566 C   0  0  0  0  0  0  0  0  0  0  0  0
  -11.3083   -9.9301    5.5375 C   0  0  0  0  0  0  0  0  0  0  0  0
  -14.8107   -8.6484    5.7574 C   0  0  0  0  0  0  0  0  0  0  0  0
  -16.1069   -9.2872    6.1119 C   0  0  0  0  0  0  0  0  0  0  0  0
  -17.1201   -8.5999    5.1948 C   0  0  0  0  0  0  0  0  0  0  0  0
  -16.2906   -7.7365    4.2442 C   0  0  0  0  0  0  0  0  0  0  0  0
  -16.8817   -7.6413    2.9964 O   0  0  0  0  0  0  0  0  0  0  0  0
   -8.1926  -13.0431    7.3509 H   0  0  0  0  0  0  0  0  0  0  0  0
  -16.7025   -6.8010    2.5326 H   0  0  0  0  0  0  0  0  0  0  0  0
  -16.0995   -6.4046    4.8470 C   0  0  0  0  0  0  0  0  0  0  0  0
  -15.9588   -5.3147    5.3488 C   0  0  0  0  0  0  0  0  0  0  0  0
  -15.7698   -3.9910    5.9758 C   0  0  0  0  0  0  0  0  0  0  0  0
  2  1  1  0  0  0
  2  3  1  0  0  0
  3  4  1  0  0  0
  4  5  1  0  0  0
  5  6  1  0  0  0
  6  7  1  0  0  0
  7  8  1  0  0  0
  8  9  1  0  0  0
  9 10  2  0  0  0
 10 11  1  0  0  0
 11 12  1  0  0  0
 11 13  2  0  0  0
 13 14  1  0  0  0
 14 15  2  0  0  0
  6 16  1  0  0  0
 16 17  1  0  0  0
 17 18  1  0  0  0
 18 19  1  0  0  0
 19 20  1  0  0  0
 19 23  1  0  0  0
 23 24  3  0  0  0
 24 25  1  0  0  0
 16  2  1  0  0  0
 19  2  1  0  0  0
 15  5  1  0  0  0
 15  9  1  0  0  0
 12 21  1  0  0  0
 20 22  1  0  0  0
M  END
> <minimizedAffinity>
25.55532

> <CNNscore>
0.2188478410

> <CNNaffinity>
5.9020042419

> <CNN_VS>
1.2916408777

> <CNNaffinity_variance>
1.0331847668

$$$$
[H]O[C@@]1([H])C([H])([H])C([H])([H])[C@]2([H])[C@]1(C([H])([H])[H])C([H])([H])C([H])([H])[C@]1([H])C3(C([H])([H])[H])C(=C([H])C(=O)C([H])([H])C3([H])[H])C([H])([H])C([H])([H])[C@]12[H]


 22 25  0  0  0  0  0  0  0  0999 V2000
  -12.8290  -10.0758    9.0005 C   0  0  0  0  0  0  0  0  0  0  0  0
  -12.9398   -9.0082    7.9565 C   0  0  0  0  0  0  0  0  0  0  0  0
  -12.2985   -9.4365    6.6845 C   0  0  0  0  0  0  0  0  0  0  0  0
  -10.8126   -9.6491    6.9901 C   0  0  0  0  0  0  0  0  0  0  0  0
  -10.1967   -8.3110    7.3336 C   0  0  0  0  0  0  0  0  0  0  0  0
  -10.8476   -7.7602    8.5933 C   0  0  0  0  0  0  0  0  0  0  0  0
  -10.3563   -6.3350    8.7766 C   0  0  0  0  0  0  0  0  0  0  0  0
   -8.8706   -6.2208    8.7853 C   0  0  0  0  0  0  0  0  0  0  0  0
   -8.1865   -7.0467    7.7833 C   0  0  0  0  0  0  0  0  0  0  0  0
   -7.1057   -6.5455    7.1886 C   0  0  0  0  0  0  0  0  0  0  0  0
   -6.3892   -7.3122    6.1930 C   0  0  0  0  0  0  0  0  0  0  0  0
   -5.5757   -6.7785    5.3962 O   0  0  0  0  0  0  0  0  0  0  0  0
   -6.6249   -8.7625    6.1158 C   0  0  0  0  0  0  0  0  0  0  0  0
   -8.1273   -8.9867    6.2235 C   0  0  0  0  0  0  0  0  0  0  0  0
   -8.7127   -8.3994    7.4662 C   0  0  0  0  0  0  0  0  0  0  0  0
   -8.3504   -9.3358    8.6208 C   0  0  0  0  0  0  0  0  0  0  0  0
  -12.3003   -7.7028    8.3868 C   0  0  0  0  0  0  0  0  0  0  0  0
  -13.1357   -7.3406    9.5596 C   0  0  0  0  0  0  0  0  0  0  0  0
  -14.5379   -7.7501    9.1136 C   0  0  0  0  0  0  0  0  0  0  0  0
  -14.3492   -8.5021    7.8045 C   0  0  0  0  0  0  0  0  0  0  0  0
  -15.2827   -9.4678    7.5925 O   0  0  0  0  0  0  0  0  0  0  0  0
  -15.2701  -10.2347    8.1812 H   0  0  0  0  0  0  0  0  0  0  0  0
  2  1  1  0  0  0
  2  3  1  0  0  0
  3  4  1  0  0  0
  4  5  1  0  0  0
  5  6  1  0  0  0
  6  7  1  0  0  0
  7  8  1  0  0  0
  8  9  1  0  0  0
  9 10  2  0  0  0
 10 11  1  0  0  0
 11 12  2  0  0  0
 11 13  1  0  0  0
 13 14  1  0  0  0
 14 15  1  0  0  0
 15 16  1  0  0  0
  6 17  1  0  0  0
 17 18  1  0  0  0
 18 19  1  0  0  0
 19 20  1  0  0  0
 20 21  1  0  0  0
 17  2  1  0  0  0
 20  2  1  0  0  0
 15  5  1  0  0  0
 15  9  1  0  0  0
 21 22  1  0  0  0
M  END
> <minimizedAffinity>
-7.71219

> <CNNscore>
0.4585750103

> <CNNaffinity>
6.1331839561

> <CNN_VS>
2.8125247955

> <CNNaffinity_variance>
0.2356619537

$$$$
[H]O[C@@]1([H])C([H])([H])C([H])([H])[C@]2([H])[C@]1(C([H])([H])[H])C([H])([H])C([H])([H])[C@]1([H])C3(C([H])([H])[H])C(=C([H])C(=O)C([H])([H])C3([H])[H])C([H])([H])C([H])([H])[C@]12[H]


 22 25  0  0  0  0  0  0  0  0999 V2000
  -15.5419   -9.3925    5.6659 C   0  0  0  0  0  0  0  0  0  0  0  0
  -15.9801   -9.1661    4.2521 C   0  0  0  0  0  0  0  0  0  0  0  0
  -14.8866   -8.5630    3.4440 C   0  0  0  0  0  0  0  0  0  0  0  0
  -14.5775   -7.1992    4.0694 C   0  0  0  0  0  0  0  0  0  0  0  0
  -15.7781   -6.2996    3.8770 C   0  0  0  0  0  0  0  0  0  0  0  0
  -16.9729   -6.8812    4.6176 C   0  0  0  0  0  0  0  0  0  0  0  0
  -18.1946   -6.0696    4.2238 C   0  0  0  0  0  0  0  0  0  0  0  0
  -18.0244   -4.6054    4.4422 C   0  0  0  0  0  0  0  0  0  0  0  0
  -16.7105   -4.0770    4.0569 C   0  0  0  0  0  0  0  0  0  0  0  0
  -16.6586   -2.8680    3.5015 C   0  0  0  0  0  0  0  0  0  0  0  0
  -15.3926   -2.2940    3.1008 C   0  0  0  0  0  0  0  0  0  0  0  0
  -15.3209   -1.3216    2.3067 O   0  0  0  0  0  0  0  0  0  0  0  0
  -14.1531   -2.8718    3.6438 C   0  0  0  0  0  0  0  0  0  0  0  0
  -14.2876   -4.3871    3.5740 C   0  0  0  0  0  0  0  0  0  0  0  0
  -15.4935   -4.8952    4.2947 C   0  0  0  0  0  0  0  0  0  0  0  0
  -15.1747   -4.8539    5.7906 C   0  0  0  0  0  0  0  0  0  0  0  0
  -17.1898   -8.2577    4.1547 C   0  0  0  0  0  0  0  0  0  0  0  0
  -18.2149   -9.0579    4.8714 C   0  0  0  0  0  0  0  0  0  0  0  0
  -17.9070  -10.4835    4.4177 C   0  0  0  0  0  0  0  0  0  0  0  0
  -16.6006  -10.3947    3.6428 C   0  0  0  0  0  0  0  0  0  0  0  0
  -15.8409  -11.5193    3.7268 O   0  0  0  0  0  0  0  0  0  0  0  0
  -15.4614  -11.7356    4.5893 H   0  0  0  0  0  0  0  0  0  0  0  0
  2  1  1  0  0  0
  2  3  1  0  0  0
  3  4  1  0  0  0
  4  5  1  0  0  0
  5  6  1  0  0  0
  6  7  1  0  0  0
  7  8  1  0  0  0
  8  9  1  0  0  0
  9 10  2  0  0  0
 10 11  1  0  0  0
 11 12  2  0  0  0
 11 13  1  0  0  0
 13 14  1  0  0  0
 14 15  1  0  0  0
 15 16  1  0  0  0
  6 17  1  0  0  0
 17 18  1  0  0  0
 18 19  1  0  0  0
 19 20  1  0  0  0
 20 21  1  0  0  0
 17  2  1  0  0  0
 20  2  1  0  0  0
 15  5  1  0  0  0
 15  9  1  0  0  0
 21 22  1  0  0  0
M  END
> <minimizedAffinity>
19.62192

> <CNNscore>
0.4009247422

> <CNNaffinity>
6.2952165604

> <CNN_VS>
2.5239081383

> <CNNaffinity_variance>
1.0721638203

$$$$
[H]O[C@@]1([H])C([H])([H])C([H])([H])[C@]2([H])[C@]1(C([H])([H])[H])C([H])([H])C([H])([H])[C@]1([H])C3(C([H])([H])[H])C(=C([H])C(=O)C([H])([H])C3([H])[H])C([H])([H])C([H])([H])[C@]12[H]


 22 25  0  0  0  0  0  0  0  0999 V2000
  -20.3754   -8.1825    7.9158 C   0  0  0  0  0  0  0  0  0  0  0  0
  -19.3072   -9.1480    7.5052 C   0  0  0  0  0  0  0  0  0  0  0  0
  -17.9851   -8.7484    8.0574 C   0  0  0  0  0  0  0  0  0  0  0  0
  -17.6490   -7.3826    7.4508 C   0  0  0  0  0  0  0  0  0  0  0  0
  -17.4402   -7.5562    5.9629 C   0  0  0  0  0  0  0  0  0  0  0  0
  -18.7333   -8.0352    5.3207 C   0  0  0  0  0  0  0  0  0  0  0  0
  -18.4212   -8.3984    3.8794 C   0  0  0  0  0  0  0  0  0  0  0  0
  -17.7636   -7.2956    3.1234 C   0  0  0  0  0  0  0  0  0  0  0  0
  -16.7338   -6.5671    3.8737 C   0  0  0  0  0  0  0  0  0  0  0  0
  -15.6487   -6.1608    3.2177 C   0  0  0  0  0  0  0  0  0  0  0  0
  -14.5996   -5.4384    3.9034 C   0  0  0  0  0  0  0  0  0  0  0  0
  -13.4461   -5.3141    3.4180 O   0  0  0  0  0  0  0  0  0  0  0  0
  -14.8989   -4.8323    5.2103 C   0  0  0  0  0  0  0  0  0  0  0  0
  -15.6867   -5.8552    6.0177 C   0  0  0  0  0  0  0  0  0  0  0  0
  -16.9296   -6.3079    5.3234 C   0  0  0  0  0  0  0  0  0  0  0  0
  -17.9623   -5.1889    5.4735 C   0  0  0  0  0  0  0  0  0  0  0  0
  -19.1708   -9.2615    5.9997 C   0  0  0  0  0  0  0  0  0  0  0  0
  -20.5016   -9.8030    5.6255 C   0  0  0  0  0  0  0  0  0  0  0  0
  -20.7913  -10.7929    6.7520 C   0  0  0  0  0  0  0  0  0  0  0  0
  -19.6919  -10.5768    7.7813 C   0  0  0  0  0  0  0  0  0  0  0  0
  -20.0864  -10.8250    9.0587 O   0  0  0  0  0  0  0  0  0  0  0  0
  -20.7405  -10.2275    9.4457 H   0  0  0  0  0  0  0  0  0  0  0  0
  2  1  1  0  0  0
  2  3  1  0  0  0
  3  4  1  0  0  0
  4  5  1  0  0  0
  5  6  1  0  0  0
  6  7  1  0  0  0
  7  8  1  0  0  0
  8  9  1  0  0  0
  9 10  2  0  0  0
 10 11  1  0  0  0
 11 12  2  0  0  0
 11 13  1  0  0  0
 13 14  1  0  0  0
 14 15  1  0  0  0
 15 16  1  0  0  0
  6 17  1  0  0  0
 17 18  1  0  0  0
 18 19  1  0  0  0
 19 20  1  0  0  0
 20 21  1  0  0  0
 17  2  1  0  0  0
 20  2  1  0  0  0
 15  5  1  0  0  0
 15  9  1  0  0  0
 21 22  1  0  0  0
M  END
> <minimizedAffinity>
8.07841

> <CNNscore>
0.3574847281

> <CNNaffinity>
5.8869934082

> <CNN_VS>
2.1045103073

> <CNNaffinity_variance>
0.2579711676

$$$$
[H]O[C@@]1([H])C([H])([H])C([H])([H])[C@]2([H])[C@]1(C([H])([H])[H])C([H])([H])C([H])([H])[C@]1([H])C3(C([H])([H])[H])C(=C([H])C(=O)C([H])([H])C3([H])[H])C([H])([H])C([H])([H])[C@]12[H]


 22 25  0  0  0  0  0  0  0  0999 V2000
  -14.5259   -6.2541    6.2493 C   0  0  0  0  0  0  0  0  0  0  0  0
  -14.5732   -7.3809    7.2340 C   0  0  0  0  0  0  0  0  0  0  0  0
  -13.9108   -7.0026    8.5109 C   0  0  0  0  0  0  0  0  0  0  0  0
  -12.4416   -6.7234    8.1792 C   0  0  0  0  0  0  0  0  0  0  0  0
  -11.7929   -8.0189    7.7450 C   0  0  0  0  0  0  0  0  0  0  0  0
  -12.4606   -8.5206    6.4736 C   0  0  0  0  0  0  0  0  0  0  0  0
  -11.9290   -9.9162    6.1976 C   0  0  0  0  0  0  0  0  0  0  0  0
  -10.4412   -9.9797    6.1437 C   0  0  0  0  0  0  0  0  0  0  0  0
   -9.7564   -9.1880    7.1724 C   0  0  0  0  0  0  0  0  0  0  0  0
   -8.6439   -9.6848    7.7095 C   0  0  0  0  0  0  0  0  0  0  0  0
   -7.9249   -8.9508    8.7278 C   0  0  0  0  0  0  0  0  0  0  0  0
   -7.0727   -9.5001    9.4717 O   0  0  0  0  0  0  0  0  0  0  0  0
   -8.2048   -7.5157    8.8927 C   0  0  0  0  0  0  0  0  0  0  0  0
   -9.7160   -7.3366    8.8369 C   0  0  0  0  0  0  0  0  0  0  0  0
  -10.3167   -7.8734    7.5788 C   0  0  0  0  0  0  0  0  0  0  0  0
  -10.0170   -6.8629    6.4697 C   0  0  0  0  0  0  0  0  0  0  0  0
  -13.9044   -8.6382    6.7143 C   0  0  0  0  0  0  0  0  0  0  0  0
  -14.7601   -8.9628    5.5452 C   0  0  0  0  0  0  0  0  0  0  0  0
  -16.1618   -8.6260    6.0500 C   0  0  0  0  0  0  0  0  0  0  0  0
  -15.9608   -7.9418    7.3940 C   0  0  0  0  0  0  0  0  0  0  0  0
  -16.9186   -7.0213    7.6843 O   0  0  0  0  0  0  0  0  0  0  0  0
  -16.9471   -6.2230    7.1396 H   0  0  0  0  0  0  0  0  0  0  0  0
  2  1  1  0  0  0
  2  3  1  0  0  0
  3  4  1  0  0  0
  4  5  1  0  0  0
  5  6  1  0  0  0
  6  7  1  0  0  0
  7  8  1  0  0  0
  8  9  1  0  0  0
  9 10  2  0  0  0
 10 11  1  0  0  0
 11 12  2  0  0  0
 11 13  1  0  0  0
 13 14  1  0  0  0
 14 15  1  0  0  0
 15 16  1  0  0  0
  6 17  1  0  0  0
 17 18  1  0  0  0
 18 19  1  0  0  0
 19 20  1  0  0  0
 20 21  1  0  0  0
 17  2  1  0  0  0
 20  2  1  0  0  0
 15  5  1  0  0  0
 15  9  1  0  0  0
 21 22  1  0  0  0
M  END
> <minimizedAffinity>
-2.86859

> <CNNscore>
0.2927933633

> <CNNaffinity>
5.9078660011

> <CNN_VS>
1.7297840118

> <CNNaffinity_variance>
0.1713284701

$$$$
[H]O[C@@]1([H])C([H])([H])C([H])([H])[C@]2([H])[C@]1(C([H])([H])[H])C([H])([H])C([H])([H])[C@]1([H])C3(C([H])([H])[H])C(=C([H])C(=O)C([H])([H])C3([H])[H])C([H])([H])C([H])([H])[C@]12[H]


 22 25  0  0  0  0  0  0  0  0999 V2000
  -12.6196   -6.9374    7.6158 C   0  0  0  0  0  0  0  0  0  0  0  0
  -11.9728   -7.7387    8.7027 C   0  0  0  0  0  0  0  0  0  0  0  0
  -11.0338   -6.9018    9.4967 C   0  0  0  0  0  0  0  0  0  0  0  0
   -9.9373   -6.4357    8.5339 C   0  0  0  0  0  0  0  0  0  0  0  0
   -9.1416   -7.6435    8.0915 C   0  0  0  0  0  0  0  0  0  0  0  0
  -10.0471   -8.5960    7.3255 C   0  0  0  0  0  0  0  0  0  0  0  0
   -9.2681   -9.8783    7.0903 C   0  0  0  0  0  0  0  0  0  0  0  0
   -7.9536   -9.6551    6.4249 C   0  0  0  0  0  0  0  0  0  0  0  0
   -7.2062   -8.4925    6.9188 C   0  0  0  0  0  0  0  0  0  0  0  0
   -5.8816   -8.5910    7.0112 C   0  0  0  0  0  0  0  0  0  0  0  0
   -5.0909   -7.4787    7.4910 C   0  0  0  0  0  0  0  0  0  0  0  0
   -3.9058   -7.6222    7.8864 O   0  0  0  0  0  0  0  0  0  0  0  0
   -5.6994   -6.1392    7.5143 C   0  0  0  0  0  0  0  0  0  0  0  0
   -7.1084   -6.2881    8.0724 C   0  0  0  0  0  0  0  0  0  0  0  0
   -7.9395   -7.2567    7.2959 C   0  0  0  0  0  0  0  0  0  0  0  0
   -8.3742   -6.5483    6.0112 C   0  0  0  0  0  0  0  0  0  0  0  0
  -11.2016   -8.9298    8.1693 C   0  0  0  0  0  0  0  0  0  0  0  0
  -12.2881   -9.7254    7.5438 C   0  0  0  0  0  0  0  0  0  0  0  0
  -13.4427   -9.5511    8.5285 C   0  0  0  0  0  0  0  0  0  0  0  0
  -12.9770   -8.5004    9.5256 C   0  0  0  0  0  0  0  0  0  0  0  0
  -13.9883   -7.7466   10.0334 O   0  0  0  0  0  0  0  0  0  0  0  0
  -14.4457   -7.1497    9.4258 H   0  0  0  0  0  0  0  0  0  0  0  0
  2  1  1  0  0  0
  2  3  1  0  0  0
  3  4  1  0  0  0
  4  5  1  0  0  0
  5  6  1  0  0  0
  6  7  1  0  0  0
  7  8  1  0  0  0
  8  9  1  0  0  0
  9 10  2  0  0  0
 10 11  1  0  0  0
 11 12  2  0  0  0
 11 13  1  0  0  0
 13 14  1  0  0  0
 14 15  1  0  0  0
 15 16  1  0  0  0
  6 17  1  0  0  0
 17 18  1  0  0  0
 18 19  1  0  0  0
 19 20  1  0  0  0
 20 21  1  0  0  0
 17  2  1  0  0  0
 20  2  1  0  0  0
 15  5  1  0  0  0
 15  9  1  0  0  0
 21 22  1  0  0  0
M  END
> <minimizedAffinity>
-8.16440

> <CNNscore>
0.2159651816

> <CNNaffinity>
5.6080255508

> <CNN_VS>
1.2111382484

> <CNNaffinity_variance>
0.1147117168

$$$$
[H]O[C@@]1([H])C([H])([H])C([H])([H])[C@]2([H])[C@]1(C([H])([H])[H])C([H])([H])C([H])([H])[C@]1([H])C3(C([H])([H])[H])C(=C([H])C(=O)C([H])([H])C3([H])[H])C([H])([H])C([H])([H])[C@]12[H]


 22 25  0  0  0  0  0  0  0  0999 V2000
   -7.6896   -7.6183    9.1390 C   0  0  0  0  0  0  0  0  0  0  0  0
   -8.0377   -7.3565    7.7065 C   0  0  0  0  0  0  0  0  0  0  0  0
   -8.9698   -6.2036    7.5854 C   0  0  0  0  0  0  0  0  0  0  0  0
  -10.2542   -6.5964    8.3220 C   0  0  0  0  0  0  0  0  0  0  0  0
  -10.9076   -7.7366    7.5732 C   0  0  0  0  0  0  0  0  0  0  0  0
   -9.9861   -8.9469    7.5853 C   0  0  0  0  0  0  0  0  0  0  0  0
  -10.5813   -9.9847    6.6498 C   0  0  0  0  0  0  0  0  0  0  0  0
  -11.9973  -10.3217    6.9686 C   0  0  0  0  0  0  0  0  0  0  0  0
  -12.8369   -9.1706    7.3211 C   0  0  0  0  0  0  0  0  0  0  0  0
  -14.1021   -9.1660    6.9062 C   0  0  0  0  0  0  0  0  0  0  0  0
  -14.9781   -8.0591    7.2225 C   0  0  0  0  0  0  0  0  0  0  0  0
  -16.0557   -7.8618    6.6050 O   0  0  0  0  0  0  0  0  0  0  0  0
  -14.5893   -7.1386    8.3026 C   0  0  0  0  0  0  0  0  0  0  0  0
  -13.1082   -6.8307    8.1282 C   0  0  0  0  0  0  0  0  0  0  0  0
  -12.2584   -8.0594    8.1199 C   0  0  0  0  0  0  0  0  0  0  0  0
  -12.1318   -8.5293    9.5705 C   0  0  0  0  0  0  0  0  0  0  0  0
   -8.6830   -8.5527    7.0350 C   0  0  0  0  0  0  0  0  0  0  0  0
   -7.5887   -9.5537    7.1063 C   0  0  0  0  0  0  0  0  0  0  0  0
   -6.3443   -8.7124    6.8292 C   0  0  0  0  0  0  0  0  0  0  0  0
   -6.8178   -7.2664    6.8294 C   0  0  0  0  0  0  0  0  0  0  0  0
   -5.8734   -6.3850    7.2539 O   0  0  0  0  0  0  0  0  0  0  0  0
   -5.6084   -6.4309    8.1826 H   0  0  0  0  0  0  0  0  0  0  0  0
  2  1  1  0  0  0
  2  3  1  0  0  0
  3  4  1  0  0  0
  4  5  1  0  0  0
  5  6  1  0  0  0
  6  7  1  0  0  0
  7  8  1  0  0  0
  8  9  1  0  0  0
  9 10  2  0  0  0
 10 11  1  0  0  0
 11 12  2  0  0  0
 11 13  1  0  0  0
 13 14  1  0  0  0
 14 15  1  0  0  0
 15 16  1  0  0  0
  6 17  1  0  0  0
 17 18  1  0  0  0
 18 19  1  0  0  0
 19 20  1  0  0  0
 20 21  1  0  0  0
 17  2  1  0  0  0
 20  2  1  0  0  0
 15  5  1  0  0  0
 15  9  1  0  0  0
 21 22  1  0  0  0
M  END
> <minimizedAffinity>
-8.89299

> <CNNscore>
0.2138532251

> <CNNaffinity>
5.7918577194

> <CNN_VS>
1.2386074066

> <CNNaffinity_variance>
0.0565018579

$$$$
[H]O[C@@]1([H])C([H])([H])C([H])([H])[C@]2([H])[C@]1(C([H])([H])[H])C([H])([H])C([H])([H])[C@]1([H])C3(C([H])([H])[H])C(=C([H])C(=O)C([H])([H])C3([H])[H])C([H])([H])C([H])([H])[C@]12[H]


 22 25  0  0  0  0  0  0  0  0999 V2000
  -13.1710   -5.8068    8.8390 C   0  0  0  0  0  0  0  0  0  0  0  0
  -13.1665   -7.2029    8.2981 C   0  0  0  0  0  0  0  0  0  0  0  0
  -12.8236   -7.2139    6.8507 C   0  0  0  0  0  0  0  0  0  0  0  0
  -13.9252   -6.4296    6.1311 C   0  0  0  0  0  0  0  0  0  0  0  0
  -15.2215   -7.1992    6.2547 C   0  0  0  0  0  0  0  0  0  0  0  0
  -15.6154   -7.2993    7.7206 C   0  0  0  0  0  0  0  0  0  0  0  0
  -16.7936   -8.2530    7.8137 C   0  0  0  0  0  0  0  0  0  0  0  0
  -17.9286   -7.8753    6.9252 C   0  0  0  0  0  0  0  0  0  0  0  0
  -17.5340   -7.4190    5.5872 C   0  0  0  0  0  0  0  0  0  0  0  0
  -18.3012   -7.7637    4.5549 C   0  0  0  0  0  0  0  0  0  0  0  0
  -17.9636   -7.3439    3.2124 C   0  0  0  0  0  0  0  0  0  0  0  0
  -18.4621   -7.8909    2.1957 O   0  0  0  0  0  0  0  0  0  0  0  0
  -17.0054   -6.2409    3.0385 C   0  0  0  0  0  0  0  0  0  0  0  0
  -15.8547   -6.4795    4.0070 C   0  0  0  0  0  0  0  0  0  0  0  0
  -16.3070   -6.5971    5.4259 C   0  0  0  0  0  0  0  0  0  0  0  0
  -16.6118   -5.1815    5.9202 C   0  0  0  0  0  0  0  0  0  0  0  0
  -14.5026   -7.8987    8.4679 C   0  0  0  0  0  0  0  0  0  0  0  0
  -14.6257   -7.9385    9.9470 C   0  0  0  0  0  0  0  0  0  0  0  0
  -13.1971   -8.2394   10.3958 C   0  0  0  0  0  0  0  0  0  0  0  0
  -12.3427   -8.1393    9.1408 C   0  0  0  0  0  0  0  0  0  0  0  0
  -11.0709   -7.7222    9.3805 O   0  0  0  0  0  0  0  0  0  0  0  0
  -10.9518   -6.8129    9.6868 H   0  0  0  0  0  0  0  0  0  0  0  0
  2  1  1  0  0  0
  2  3  1  0  0  0
  3  4  1  0  0  0
  4  5  1  0  0  0
  5  6  1  0  0  0
  6  7  1  0  0  0
  7  8  1  0  0  0
  8  9  1  0  0  0
  9 10  2  0  0  0
 10 11  1  0  0  0
 11 12  2  0  0  0
 11 13  1  0  0  0
 13 14  1  0  0  0
 14 15  1  0  0  0
 15 16  1  0  0  0
  6 17  1  0  0  0
 17 18  1  0  0  0
 18 19  1  0  0  0
 19 20  1  0  0  0
 20 21  1  0  0  0
 17  2  1  0  0  0
 20  2  1  0  0  0
 15  5  1  0  0  0
 15  9  1  0  0  0
 21 22  1  0  0  0
M  END
> <minimizedAffinity>
-4.52891

> <CNNscore>
0.2017258406

> <CNNaffinity>
5.8734273911

> <CNN_VS>
1.1848220825

> <CNNaffinity_variance>
0.0227520764

$$$$
[H]O[C@@]1([H])C([H])([H])C([H])([H])[C@]2([H])[C@]1(C([H])([H])[H])C([H])([H])C([H])([H])[C@]1([H])C3(C([H])([H])[H])C(=C([H])C(=O)C([H])([H])C3([H])[H])C([H])([H])C([H])([H])[C@]12[H]


 22 25  0  0  0  0  0  0  0  0999 V2000
  -16.1066   -8.7639    5.6588 C   0  0  0  0  0  0  0  0  0  0  0  0
  -15.1223   -7.8489    4.9987 C   0  0  0  0  0  0  0  0  0  0  0  0
  -14.0860   -8.6210    4.2622 C   0  0  0  0  0  0  0  0  0  0  0  0
  -13.3341   -9.4547    5.3045 C   0  0  0  0  0  0  0  0  0  0  0  0
  -12.5785   -8.5145    6.2170 C   0  0  0  0  0  0  0  0  0  0  0  0
  -13.5646   -7.6300    6.9649 C   0  0  0  0  0  0  0  0  0  0  0  0
  -12.7628   -6.5692    7.6984 C   0  0  0  0  0  0  0  0  0  0  0  0
  -11.7002   -7.1360    8.5758 C   0  0  0  0  0  0  0  0  0  0  0  0
  -10.9577   -8.2593    7.9918 C   0  0  0  0  0  0  0  0  0  0  0  0
   -9.6533   -8.3482    8.2438 C   0  0  0  0  0  0  0  0  0  0  0  0
   -8.8684   -9.4329    7.6961 C   0  0  0  0  0  0  0  0  0  0  0  0
   -7.6128   -9.3889    7.6427 O   0  0  0  0  0  0  0  0  0  0  0  0
   -9.5685  -10.6226    7.1868 C   0  0  0  0  0  0  0  0  0  0  0  0
  -10.7573  -10.1367    6.3685 C   0  0  0  0  0  0  0  0  0  0  0  0
  -11.6734   -9.2507    7.1480 C   0  0  0  0  0  0  0  0  0  0  0  0
  -12.4986  -10.1534    8.0674 C   0  0  0  0  0  0  0  0  0  0  0  0
  -14.4161   -6.9414    5.9865 C   0  0  0  0  0  0  0  0  0  0  0  0
  -15.5526   -6.1486    6.5196 C   0  0  0  0  0  0  0  0  0  0  0  0
  -16.4130   -5.9172    5.2789 C   0  0  0  0  0  0  0  0  0  0  0  0
  -15.7960   -6.7765    4.1853 C   0  0  0  0  0  0  0  0  0  0  0  0
  -16.6994   -7.2319    3.2768 O   0  0  0  0  0  0  0  0  0  0  0  0
  -17.3552   -7.8720    3.5848 H   0  0  0  0  0  0  0  0  0  0  0  0
  2  1  1  0  0  0
  2  3  1  0  0  0
  3  4  1  0  0  0
  4  5  1  0  0  0
  5  6  1  0  0  0
  6  7  1  0  0  0
  7  8  1  0  0  0
  8  9  1  0  0  0
  9 10  2  0  0  0
 10 11  1  0  0  0
 11 12  2  0  0  0
 11 13  1  0  0  0
 13 14  1  0  0  0
 14 15  1  0  0  0
 15 16  1  0  0  0
  6 17  1  0  0  0
 17 18  1  0  0  0
 18 19  1  0  0  0
 19 20  1  0  0  0
 20 21  1  0  0  0
 17  2  1  0  0  0
 20  2  1  0  0  0
 15  5  1  0  0  0
 15  9  1  0  0  0
 21 22  1  0  0  0
M  END
> <minimizedAffinity>
-6.60106

> <CNNscore>
0.1923363656

> <CNNaffinity>
5.8193750381

> <CNN_VS>
1.1192774773

> <CNNaffinity_variance>
0.0428616144

$$$$
[H]O[C@@]1([H])C([H])([H])C([H])([H])[C@]2([H])[C@]1(C([H])([H])[H])C([H])([H])C([H])([H])[C@]1([H])C3(C([H])([H])[H])C(=C([H])C(=O)C([H])([H])C3([H])[H])C([H])([H])C([H])([H])[C@]12[H]


 22 25  0  0  0  0  0  0  0  0999 V2000
  -12.8988   -9.7808    6.9083 C   0  0  0  0  0  0  0  0  0  0  0  0
  -13.5036   -8.7535    7.8143 C   0  0  0  0  0  0  0  0  0  0  0  0
  -14.9579   -8.9999    8.0057 C   0  0  0  0  0  0  0  0  0  0  0  0
  -15.6131   -8.8622    6.6279 C   0  0  0  0  0  0  0  0  0  0  0  0
  -15.4930   -7.4222    6.1810 C   0  0  0  0  0  0  0  0  0  0  0  0
  -14.0240   -7.0588    6.0263 C   0  0  0  0  0  0  0  0  0  0  0  0
  -13.9458   -5.5609    5.7883 C   0  0  0  0  0  0  0  0  0  0  0  0
  -14.7876   -5.1011    4.6479 C   0  0  0  0  0  0  0  0  0  0  0  0
  -16.1125   -5.7280    4.5723 C   0  0  0  0  0  0  0  0  0  0  0  0
  -17.1402   -4.9781    4.1796 C   0  0  0  0  0  0  0  0  0  0  0  0
  -18.4699   -5.5399    4.0855 C   0  0  0  0  0  0  0  0  0  0  0  0
  -19.4981   -4.8182    4.0283 O   0  0  0  0  0  0  0  0  0  0  0  0
  -18.6164   -7.0037    4.0563 C   0  0  0  0  0  0  0  0  0  0  0  0
  -17.6888   -7.5761    5.1197 C   0  0  0  0  0  0  0  0  0  0  0  0
  -16.2660   -7.1615    4.9310 C   0  0  0  0  0  0  0  0  0  0  0  0
  -15.6996   -8.0039    3.7861 C   0  0  0  0  0  0  0  0  0  0  0  0
  -13.3330   -7.3411    7.2908 C   0  0  0  0  0  0  0  0  0  0  0  0
  -11.8547   -7.2029    7.2984 C   0  0  0  0  0  0  0  0  0  0  0  0
  -11.4557   -7.9236    8.5846 C   0  0  0  0  0  0  0  0  0  0  0  0
  -12.7256   -8.5904    9.0925 C   0  0  0  0  0  0  0  0  0  0  0  0
  -12.4984   -9.7450    9.7738 O   0  0  0  0  0  0  0  0  0  0  0  0
  -12.1536  -10.4963    9.2723 H   0  0  0  0  0  0  0  0  0  0  0  0
  2  1  1  0  0  0
  2  3  1  0  0  0
  3  4  1  0  0  0
  4  5  1  0  0  0
  5  6  1  0  0  0
  6  7  1  0  0  0
  7  8  1  0  0  0
  8  9  1  0  0  0
  9 10  2  0  0  0
 10 11  1  0  0  0
 11 12  2  0  0  0
 11 13  1  0  0  0
 13 14  1  0  0  0
 14 15  1  0  0  0
 15 16  1  0  0  0
  6 17  1  0  0  0
 17 18  1  0  0  0
 18 19  1  0  0  0
 19 20  1  0  0  0
 20 21  1  0  0  0
 17  2  1  0  0  0
 20  2  1  0  0  0
 15  5  1  0  0  0
 15  9  1  0  0  0
 21 22  1  0  0  0
M  END
> <minimizedAffinity>
-7.82013

> <CNNscore>
0.1912815422

> <CNNaffinity>
5.8516454697

> <CNN_VS>
1.1193118095

> <CNNaffinity_variance>
0.0104679074

$$$$
[H]O[C@@]1([H])C([H])([H])C([H])([H])C2([H])C3([H])C([H])([H])C([H])([H])C4([H])C([H])([H])[C@]([H])(O[H])C([H])([H])C([H])([H])[C@]4(C([H])([H])[H])C3([H])C([H])([H])C([H])([H])[C@@]21C([H])([H])[H]


 23 26  0  0  0  0  0  0  0  0999 V2000
   -4.0655   -3.6605    9.9979 C   0  0  0  0  0  0  0  0  0  0  0  0
   -3.2033   -4.4653    9.0708 C   0  0  0  0  0  0  0  0  0  0  0  0
   -3.4852   -4.0799    7.6412 C   0  0  0  0  0  0  0  0  0  0  0  0
   -4.3757   -4.9905    6.8961 C   0  0  0  0  0  0  0  0  0  0  0  0
   -5.2357   -5.8476    7.7845 C   0  0  0  0  0  0  0  0  0  0  0  0
   -4.3326   -6.6894    8.6416 C   0  0  0  0  0  0  0  0  0  0  0  0
   -3.7557   -7.8766    7.9088 C   0  0  0  0  0  0  0  0  0  0  0  0
   -4.7054   -8.4625    6.8984 C   0  0  0  0  0  0  0  0  0  0  0  0
   -6.0976   -8.0957    7.2912 C   0  0  0  0  0  0  0  0  0  0  0  0
   -7.0574   -8.9391    6.5031 C   0  0  0  0  0  0  0  0  0  0  0  0
   -7.0978   -8.6160    5.0454 C   0  0  0  0  0  0  0  0  0  0  0  0
   -5.9971   -9.0775    4.3368 O   0  0  0  0  0  0  0  0  0  0  0  0
   -7.3299   -7.1522    4.8771 C   0  0  0  0  0  0  0  0  0  0  0  0
   -6.3452   -6.2808    5.5886 C   0  0  0  0  0  0  0  0  0  0  0  0
   -6.2813   -6.6158    7.0725 C   0  0  0  0  0  0  0  0  0  0  0  0
   -7.6880   -6.2858    7.6020 C   0  0  0  0  0  0  0  0  0  0  0  0
   -3.2669   -5.9358    9.3143 C   0  0  0  0  0  0  0  0  0  0  0  0
   -1.8529   -6.3701    8.8988 C   0  0  0  0  0  0  0  0  0  0  0  0
   -1.0601   -5.4049    9.7586 C   0  0  0  0  0  0  0  0  0  0  0  0
   -1.7605   -4.0983    9.3540 C   0  0  0  0  0  0  0  0  0  0  0  0
   -1.5705   -3.2262   10.3861 O   0  0  0  0  0  0  0  0  0  0  0  0
   -5.6927   -9.9430    4.6739 H   0  0  0  0  0  0  0  0  0  0  0  0
   -1.4161   -3.6451   11.2708 H   0  0  0  0  0  0  0  0  0  0  0  0
  2  1  1  0  0  0
  2  3  1  0  0  0
  3  4  1  0  0  0
  4  5  1  0  0  0
  5  6  1  0  0  0
  6  7  1  0  0  0
  7  8  1  0  0  0
  8  9  1  0  0  0
  9 10  1  0  0  0
 10 11  1  0  0  0
 11 12  1  0  0  0
 11 13  1  0  0  0
 13 14  1  0  0  0
 14 15  1  0  0  0
 15 16  1  0  0  0
  6 17  1  0  0  0
 17 18  1  0  0  0
 18 19  1  0  0  0
 19 20  1  0  0  0
 20 21  1  0  0  0
 17  2  1  0  0  0
 20  2  1  0  0  0
 15  5  1  0  0  0
 15  9  1  0  0  0
 12 22  1  0  0  0
 21 23  1  0  0  0
M  END
> <minimizedAffinity>
-1.96545

> <CNNscore>
0.3957332671

> <CNNaffinity>
4.7250647545

> <CNN_VS>
1.8698652983

> <CNNaffinity_variance>
0.5327151418

$$$$
[H]O[C@@]1([H])C([H])([H])C([H])([H])C2([H])C3([H])C([H])([H])C([H])([H])C4([H])C([H])([H])[C@]([H])(O[H])C([H])([H])C([H])([H])[C@]4(C([H])([H])[H])C3([H])C([H])([H])C([H])([H])[C@@]21C([H])([H])[H]


 23 26  0  0  0  0  0  0  0  0999 V2000
  -12.9085  -10.4784    8.6352 C   0  0  0  0  0  0  0  0  0  0  0  0
  -12.8207   -9.1949    7.8635 C   0  0  0  0  0  0  0  0  0  0  0  0
  -12.1815   -9.4439    6.5214 C   0  0  0  0  0  0  0  0  0  0  0  0
  -10.7521   -9.0928    6.4179 C   0  0  0  0  0  0  0  0  0  0  0  0
  -10.0544   -9.0221    7.7490 C   0  0  0  0  0  0  0  0  0  0  0  0
  -10.7276   -7.9633    8.5763 C   0  0  0  0  0  0  0  0  0  0  0  0
  -10.3210   -6.5612    8.1913 C   0  0  0  0  0  0  0  0  0  0  0  0
   -8.8850   -6.4655    7.7500 C   0  0  0  0  0  0  0  0  0  0  0  0
   -8.1321   -7.6102    8.3416 C   0  0  0  0  0  0  0  0  0  0  0  0
   -6.6618   -7.3460    8.1941 C   0  0  0  0  0  0  0  0  0  0  0  0
   -6.1704   -7.4037    6.7847 C   0  0  0  0  0  0  0  0  0  0  0  0
   -6.5196   -6.2978    6.0221 O   0  0  0  0  0  0  0  0  0  0  0  0
   -6.5978   -8.6950    6.1723 C   0  0  0  0  0  0  0  0  0  0  0  0
   -8.0686   -8.9558    6.2347 C   0  0  0  0  0  0  0  0  0  0  0  0
   -8.5836   -8.8793    7.6655 C   0  0  0  0  0  0  0  0  0  0  0  0
   -7.8596  -10.0235    8.3965 C   0  0  0  0  0  0  0  0  0  0  0  0
  -12.1908   -8.0770    8.6244 C   0  0  0  0  0  0  0  0  0  0  0  0
  -12.9199   -6.8617    8.0308 C   0  0  0  0  0  0  0  0  0  0  0  0
  -14.3463   -7.3301    8.2435 C   0  0  0  0  0  0  0  0  0  0  0  0
  -14.2362   -8.7216    7.6008 C   0  0  0  0  0  0  0  0  0  0  0  0
  -15.2208   -9.4817    8.1617 O   0  0  0  0  0  0  0  0  0  0  0  0
   -6.4968   -5.4769    6.5522 H   0  0  0  0  0  0  0  0  0  0  0  0
  -15.5171   -9.1927    9.0622 H   0  0  0  0  0  0  0  0  0  0  0  0
  2  1  1  0  0  0
  2  3  1  0  0  0
  3  4  1  0  0  0
  4  5  1  0  0  0
  5  6  1  0  0  0
  6  7  1  0  0  0
  7  8  1  0  0  0
  8  9  1  0  0  0
  9 10  1  0  0  0
 10 11  1  0  0  0
 11 12  1  0  0  0
 11 13  1  0  0  0
 13 14  1  0  0  0
 14 15  1  0  0  0
 15 16  1  0  0  0
  6 17  1  0  0  0
 17 18  1  0  0  0
 18 19  1  0  0  0
 19 20  1  0  0  0
 20 21  1  0  0  0
 17  2  1  0  0  0
 20  2  1  0  0  0
 15  5  1  0  0  0
 15  9  1  0  0  0
 12 22  1  0  0  0
 21 23  1  0  0  0
M  END
> <minimizedAffinity>
-8.23031

> <CNNscore>
0.3585356474

> <CNNaffinity>
5.8840126991

> <CNN_VS>
2.1096282005

> <CNNaffinity_variance>
0.0951485708

$$$$
[H]O[C@@]1([H])C([H])([H])C([H])([H])C2([H])C3([H])C([H])([H])C([H])([H])C4([H])C([H])([H])[C@]([H])(O[H])C([H])([H])C([H])([H])[C@]4(C([H])([H])[H])C3([H])C([H])([H])C([H])([H])[C@@]21C([H])([H])[H]


 23 26  0  0  0  0  0  0  0  0999 V2000
   -7.1778   -7.0403    9.2083 C   0  0  0  0  0  0  0  0  0  0  0  0
   -7.5085   -7.4653    7.8081 C   0  0  0  0  0  0  0  0  0  0  0  0
   -8.4444   -6.4678    7.1750 C   0  0  0  0  0  0  0  0  0  0  0  0
   -9.8700   -6.8481    7.1586 C   0  0  0  0  0  0  0  0  0  0  0  0
  -10.2239   -7.8908    8.1838 C   0  0  0  0  0  0  0  0  0  0  0  0
   -9.4169   -9.1255    7.8954 C   0  0  0  0  0  0  0  0  0  0  0  0
   -9.9674   -9.9405    6.7500 C   0  0  0  0  0  0  0  0  0  0  0  0
  -11.4705   -9.9087    6.6744 C   0  0  0  0  0  0  0  0  0  0  0  0
  -12.0042   -9.5780    8.0283 C   0  0  0  0  0  0  0  0  0  0  0  0
  -13.4764   -9.8710    8.0493 C   0  0  0  0  0  0  0  0  0  0  0  0
  -14.2940   -8.9471    7.2074 C   0  0  0  0  0  0  0  0  0  0  0  0
  -14.1913   -9.1895    5.8446 O   0  0  0  0  0  0  0  0  0  0  0  0
  -13.9719   -7.5381    7.5766 C   0  0  0  0  0  0  0  0  0  0  0  0
  -12.5204   -7.1901    7.4938 C   0  0  0  0  0  0  0  0  0  0  0  0
  -11.6754   -8.1389    8.3328 C   0  0  0  0  0  0  0  0  0  0  0  0
  -12.1471   -7.8984    9.7776 C   0  0  0  0  0  0  0  0  0  0  0  0
   -7.9827   -8.8758    7.7033 C   0  0  0  0  0  0  0  0  0  0  0  0
   -7.4757   -9.2598    6.3047 C   0  0  0  0  0  0  0  0  0  0  0  0
   -6.0211   -8.8682    6.4782 C   0  0  0  0  0  0  0  0  0  0  0  0
   -6.2226   -7.4394    7.0065 C   0  0  0  0  0  0  0  0  0  0  0  0
   -5.0980   -7.1305    7.7148 O   0  0  0  0  0  0  0  0  0  0  0  0
  -14.1206  -10.1460    5.6565 H   0  0  0  0  0  0  0  0  0  0  0  0
   -4.6039   -7.9065    8.0835 H   0  0  0  0  0  0  0  0  0  0  0  0
  2  1  1  0  0  0
  2  3  1  0  0  0
  3  4  1  0  0  0
  4  5  1  0  0  0
  5  6  1  0  0  0
  6  7  1  0  0  0
  7  8  1  0  0  0
  8  9  1  0  0  0
  9 10  1  0  0  0
 10 11  1  0  0  0
 11 12  1  0  0  0
 11 13  1  0  0  0
 13 14  1  0  0  0
 14 15  1  0  0  0
 15 16  1  0  0  0
  6 17  1  0  0  0
 17 18  1  0  0  0
 18 19  1  0  0  0
 19 20  1  0  0  0
 20 21  1  0  0  0
 17  2  1  0  0  0
 20  2  1  0  0  0
 15  5  1  0  0  0
 15  9  1  0  0  0
 12 22  1  0  0  0
 21 23  1  0  0  0
M  END
> <minimizedAffinity>
-8.81407

> <CNNscore>
0.2871759832

> <CNNaffinity>
5.7632379532

> <CNN_VS>
1.6550635099

> <CNNaffinity_variance>
0.0688637346

$$$$
[H]O[C@@]1([H])C([H])([H])C([H])([H])C2([H])C3([H])C([H])([H])C([H])([H])C4([H])C([H])([H])[C@]([H])(O[H])C([H])([H])C([H])([H])[C@]4(C([H])([H])[H])C3([H])C([H])([H])C([H])([H])[C@@]21C([H])([H])[H]


 23 26  0  0  0  0  0  0  0  0999 V2000
   -5.9325   -5.9268    6.3379 C   0  0  0  0  0  0  0  0  0  0  0  0
   -5.1952   -6.9227    7.1835 C   0  0  0  0  0  0  0  0  0  0  0  0
   -5.7144   -6.8815    8.5979 C   0  0  0  0  0  0  0  0  0  0  0  0
   -4.8953   -6.1179    9.5587 C   0  0  0  0  0  0  0  0  0  0  0  0
   -3.9813   -5.1176    8.9049 C   0  0  0  0  0  0  0  0  0  0  0  0
   -3.0452   -5.8618    7.9946 C   0  0  0  0  0  0  0  0  0  0  0  0
   -1.9162   -6.5416    8.7310 C   0  0  0  0  0  0  0  0  0  0  0  0
   -1.4457   -5.7655    9.9321 C   0  0  0  0  0  0  0  0  0  0  0  0
   -1.8071   -4.3307    9.7379 C   0  0  0  0  0  0  0  0  0  0  0  0
   -1.0603   -3.5062   10.7460 C   0  0  0  0  0  0  0  0  0  0  0  0
   -1.5145   -3.7073   12.1547 C   0  0  0  0  0  0  0  0  0  0  0  0
   -1.0940   -4.9055   12.7151 O   0  0  0  0  0  0  0  0  0  0  0  0
   -2.9925   -3.5172   12.2218 C   0  0  0  0  0  0  0  0  0  0  0  0
   -3.7734   -4.3789   11.2823 C   0  0  0  0  0  0  0  0  0  0  0  0
   -3.3045   -4.1966    9.8453 C   0  0  0  0  0  0  0  0  0  0  0  0
   -3.6173   -2.7249    9.5226 C   0  0  0  0  0  0  0  0  0  0  0  0
   -3.7106   -6.8089    7.0910 C   0  0  0  0  0  0  0  0  0  0  0  0
   -3.2835   -8.2684    7.3102 C   0  0  0  0  0  0  0  0  0  0  0  0
   -4.1489   -8.9173    6.2474 C   0  0  0  0  0  0  0  0  0  0  0  0
   -5.5022   -8.3026    6.6372 C   0  0  0  0  0  0  0  0  0  0  0  0
   -6.2730   -8.3280    5.5116 O   0  0  0  0  0  0  0  0  0  0  0  0
   -0.1949   -5.1439   12.4149 H   0  0  0  0  0  0  0  0  0  0  0  0
   -5.7726   -8.3324    4.6563 H   0  0  0  0  0  0  0  0  0  0  0  0
  2  1  1  0  0  0
  2  3  1  0  0  0
  3  4  1  0  0  0
  4  5  1  0  0  0
  5  6  1  0  0  0
  6  7  1  0  0  0
  7  8  1  0  0  0
  8  9  1  0  0  0
  9 10  1  0  0  0
 10 11  1  0  0  0
 11 12  1  0  0  0
 11 13  1  0  0  0
 13 14  1  0  0  0
 14 15  1  0  0  0
 15 16  1  0  0  0
  6 17  1  0  0  0
 17 18  1  0  0  0
 18 19  1  0  0  0
 19 20  1  0  0  0
 20 21  1  0  0  0
 17  2  1  0  0  0
 20  2  1  0  0  0
 15  5  1  0  0  0
 15  9  1  0  0  0
 12 22  1  0  0  0
 21 23  1  0  0  0
M  END
> <minimizedAffinity>
-3.16303

> <CNNscore>
0.2751641273

> <CNNaffinity>
4.3398046494

> <CNN_VS>
1.1941585541

> <CNNaffinity_variance>
0.2644127905

$$$$
[H]O[C@@]1([H])C([H])([H])C([H])([H])C2([H])C3([H])C([H])([H])C([H])([H])C4([H])C([H])([H])[C@]([H])(O[H])C([H])([H])C([H])([H])[C@]4(C([H])([H])[H])C3([H])C([H])([H])C([H])([H])[C@@]21C([H])([H])[H]


 23 26  0  0  0  0  0  0  0  0999 V2000
   -8.9158   -6.2195    7.1272 C   0  0  0  0  0  0  0  0  0  0  0  0
   -8.2146   -7.4482    7.6262 C   0  0  0  0  0  0  0  0  0  0  0  0
   -7.4575   -7.1311    8.8904 C   0  0  0  0  0  0  0  0  0  0  0  0
   -6.0086   -6.9036    8.7290 C   0  0  0  0  0  0  0  0  0  0  0  0
   -5.6124   -6.5354    7.3251 C   0  0  0  0  0  0  0  0  0  0  0  0
   -6.0028   -7.6662    6.4153 C   0  0  0  0  0  0  0  0  0  0  0  0
   -5.0450   -8.8318    6.4722 C   0  0  0  0  0  0  0  0  0  0  0  0
   -3.6162   -8.4092    6.6863 C   0  0  0  0  0  0  0  0  0  0  0  0
   -3.4663   -6.9992    6.2209 C   0  0  0  0  0  0  0  0  0  0  0  0
   -2.0031   -6.6816    6.1129 C   0  0  0  0  0  0  0  0  0  0  0  0
   -1.2974   -6.6050    7.4272 C   0  0  0  0  0  0  0  0  0  0  0  0
   -1.0602   -7.8418    8.0107 O   0  0  0  0  0  0  0  0  0  0  0  0
   -2.0357   -5.6678    8.3226 C   0  0  0  0  0  0  0  0  0  0  0  0
   -3.4811   -5.9988    8.5128 C   0  0  0  0  0  0  0  0  0  0  0  0
   -4.2058   -6.0993    7.1775 C   0  0  0  0  0  0  0  0  0  0  0  0
   -4.1097   -4.6844    6.5804 C   0  0  0  0  0  0  0  0  0  0  0  0
   -7.3849   -8.1301    6.5908 C   0  0  0  0  0  0  0  0  0  0  0  0
   -7.4869   -9.5954    7.0417 C   0  0  0  0  0  0  0  0  0  0  0  0
   -8.9976   -9.7017    7.1183 C   0  0  0  0  0  0  0  0  0  0  0  0
   -9.2775   -8.4662    7.9880 C   0  0  0  0  0  0  0  0  0  0  0  0
  -10.5618   -8.0915    7.7196 O   0  0  0  0  0  0  0  0  0  0  0  0
   -0.8453   -8.5182    7.3386 H   0  0  0  0  0  0  0  0  0  0  0  0
  -10.9046   -8.3635    6.8304 H   0  0  0  0  0  0  0  0  0  0  0  0
  2  1  1  0  0  0
  2  3  1  0  0  0
  3  4  1  0  0  0
  4  5  1  0  0  0
  5  6  1  0  0  0
  6  7  1  0  0  0
  7  8  1  0  0  0
  8  9  1  0  0  0
  9 10  1  0  0  0
 10 11  1  0  0  0
 11 12  1  0  0  0
 11 13  1  0  0  0
 13 14  1  0  0  0
 14 15  1  0  0  0
 15 16  1  0  0  0
  6 17  1  0  0  0
 17 18  1  0  0  0
 18 19  1  0  0  0
 19 20  1  0  0  0
 20 21  1  0  0  0
 17  2  1  0  0  0
 20  2  1  0  0  0
 15  5  1  0  0  0
 15  9  1  0  0  0
 12 22  1  0  0  0
 21 23  1  0  0  0
M  END
> <minimizedAffinity>
-6.05787

> <CNNscore>
0.2429341674

> <CNNaffinity>
4.9072580338

> <CNN_VS>
1.1921406984

> <CNNaffinity_variance>
0.2094948590

$$$$
[H]O[C@@]1([H])C([H])([H])C([H])([H])C2([H])C3([H])C([H])([H])C([H])([H])C4([H])C([H])([H])[C@]([H])(O[H])C([H])([H])C([H])([H])[C@]4(C([H])([H])[H])C3([H])C([H])([H])C([H])([H])[C@@]21C([H])([H])[H]


 23 26  0  0  0  0  0  0  0  0999 V2000
  -17.7810   -8.8282    4.8503 C   0  0  0  0  0  0  0  0  0  0  0  0
  -16.7837   -7.7457    4.5604 C   0  0  0  0  0  0  0  0  0  0  0  0
  -15.5878   -8.3247    3.8489 C   0  0  0  0  0  0  0  0  0  0  0  0
  -14.4045   -8.5833    4.6917 C   0  0  0  0  0  0  0  0  0  0  0  0
  -14.7266   -8.7030    6.1564 C   0  0  0  0  0  0  0  0  0  0  0  0
  -15.3379   -7.4072    6.6101 C   0  0  0  0  0  0  0  0  0  0  0  0
  -14.3187   -6.3164    6.8349 C   0  0  0  0  0  0  0  0  0  0  0  0
  -13.0098   -6.8350    7.3678 C   0  0  0  0  0  0  0  0  0  0  0  0
  -13.2607   -8.1399    8.0470 C   0  0  0  0  0  0  0  0  0  0  0  0
  -12.0522   -8.4975    8.8626 C   0  0  0  0  0  0  0  0  0  0  0  0
  -10.8494   -8.8473    8.0489 C   0  0  0  0  0  0  0  0  0  0  0  0
  -10.2245   -7.7516    7.4698 O   0  0  0  0  0  0  0  0  0  0  0  0
  -11.2202   -9.8997    7.0589 C   0  0  0  0  0  0  0  0  0  0  0  0
  -12.3747   -9.5451    6.1777 C   0  0  0  0  0  0  0  0  0  0  0  0
  -13.6007   -9.1670    6.9976 C   0  0  0  0  0  0  0  0  0  0  0  0
  -13.9586  -10.4500    7.7680 C   0  0  0  0  0  0  0  0  0  0  0  0
  -16.4261   -6.9221    5.7518 C   0  0  0  0  0  0  0  0  0  0  0  0
  -16.1325   -5.5623    5.0994 C   0  0  0  0  0  0  0  0  0  0  0  0
  -17.4235   -5.4043    4.3197 C   0  0  0  0  0  0  0  0  0  0  0  0
  -17.4369   -6.7655    3.6068 C   0  0  0  0  0  0  0  0  0  0  0  0
  -18.7413   -7.0260    3.3029 O   0  0  0  0  0  0  0  0  0  0  0  0
  -10.2499   -6.9729    8.0601 H   0  0  0  0  0  0  0  0  0  0  0  0
  -19.4083   -6.5792    3.8838 H   0  0  0  0  0  0  0  0  0  0  0  0
  2  1  1  0  0  0
  2  3  1  0  0  0
  3  4  1  0  0  0
  4  5  1  0  0  0
  5  6  1  0  0  0
  6  7  1  0  0  0
  7  8  1  0  0  0
  8  9  1  0  0  0
  9 10  1  0  0  0
 10 11  1  0  0  0
 11 12  1  0  0  0
 11 13  1  0  0  0
 13 14  1  0  0  0
 14 15  1  0  0  0
 15 16  1  0  0  0
  6 17  1  0  0  0
 17 18  1  0  0  0
 18 19  1  0  0  0
 19 20  1  0  0  0
 20 21  1  0  0  0
 17  2  1  0  0  0
 20  2  1  0  0  0
 15  5  1  0  0  0
 15  9  1  0  0  0
 12 22  1  0  0  0
 21 23  1  0  0  0
M  END
> <minimizedAffinity>
-10.79762

> <CNNscore>
0.1784075797

> <CNNaffinity>
5.9535932541

> <CNN_VS>
1.0621662140

> <CNNaffinity_variance>
0.0113491658

$$$$
[H]O[C@@]1([H])C([H])([H])C([H])([H])C2([H])C3([H])C([H])([H])C([H])([H])C4([H])C([H])([H])[C@]([H])(O[H])C([H])([H])C([H])([H])[C@]4(C([H])([H])[H])C3([H])C([H])([H])C([H])([H])[C@@]21C([H])([H])[H]


 23 26  0  0  0  0  0  0  0  0999 V2000
  -12.3401   -5.1462    9.2236 C   0  0  0  0  0  0  0  0  0  0  0  0
  -12.7244   -6.5963    9.2216 C   0  0  0  0  0  0  0  0  0  0  0  0
  -12.1311   -7.2843    8.0189 C   0  0  0  0  0  0  0  0  0  0  0  0
  -13.0489   -7.4919    6.8823 C   0  0  0  0  0  0  0  0  0  0  0  0
  -14.2398   -6.5727    6.8981 C   0  0  0  0  0  0  0  0  0  0  0  0
  -15.0117   -6.8261    8.1625 C   0  0  0  0  0  0  0  0  0  0  0  0
  -15.8641   -8.0705    8.0985 C   0  0  0  0  0  0  0  0  0  0  0  0
  -16.4321   -8.3246    6.7277 C   0  0  0  0  0  0  0  0  0  0  0  0
  -16.4766   -7.0293    5.9879 C   0  0  0  0  0  0  0  0  0  0  0  0
  -17.3373   -7.2009    4.7699 C   0  0  0  0  0  0  0  0  0  0  0  0
  -16.7431   -8.0855    3.7233 C   0  0  0  0  0  0  0  0  0  0  0  0
  -16.7906   -9.4369    4.0365 O   0  0  0  0  0  0  0  0  0  0  0  0
  -15.3666   -7.6070    3.4050 C   0  0  0  0  0  0  0  0  0  0  0  0
  -14.4581   -7.4963    4.5872 C   0  0  0  0  0  0  0  0  0  0  0  0
  -15.0636   -6.6125    5.6692 C   0  0  0  0  0  0  0  0  0  0  0  0
  -15.1742   -5.2244    5.0145 C   0  0  0  0  0  0  0  0  0  0  0  0
  -14.1892   -6.8310    9.3790 C   0  0  0  0  0  0  0  0  0  0  0  0
  -14.1996   -8.1767   10.1204 C   0  0  0  0  0  0  0  0  0  0  0  0
  -13.2750   -7.8092   11.2648 C   0  0  0  0  0  0  0  0  0  0  0  0
  -12.1063   -7.2349   10.4491 C   0  0  0  0  0  0  0  0  0  0  0  0
  -11.4415   -6.3813   11.2806 O   0  0  0  0  0  0  0  0  0  0  0  0
  -17.6149   -9.6649    4.5097 H   0  0  0  0  0  0  0  0  0  0  0  0
  -11.9851   -5.9970   12.0147 H   0  0  0  0  0  0  0  0  0  0  0  0
  2  1  1  0  0  0
  2  3  1  0  0  0
  3  4  1  0  0  0
  4  5  1  0  0  0
  5  6  1  0  0  0
  6  7  1  0  0  0
  7  8  1  0  0  0
  8  9  1  0  0  0
  9 10  1  0  0  0
 10 11  1  0  0  0
 11 12  1  0  0  0
 11 13  1  0  0  0
 13 14  1  0  0  0
 14 15  1  0  0  0
 15 16  1  0  0  0
  6 17  1  0  0  0
 17 18  1  0  0  0
 18 19  1  0  0  0
 19 20  1  0  0  0
 20 21  1  0  0  0
 17  2  1  0  0  0
 20  2  1  0  0  0
 15  5  1  0  0  0
 15  9  1  0  0  0
 12 22  1  0  0  0
 21 23  1  0  0  0
M  END
> <minimizedAffinity>
-5.22759

> <CNNscore>
0.1779436916

> <CNNaffinity>
5.8566694260

> <CNN_VS>
1.0421574116

> <CNNaffinity_variance>
0.0392787941

$$$$
[H]O[C@@]1([H])C([H])([H])C([H])([H])C2([H])C3([H])C([H])([H])C([H])([H])C4([H])C([H])([H])[C@]([H])(O[H])C([H])([H])C([H])([H])[C@]4(C([H])([H])[H])C3([H])C([H])([H])C([H])([H])[C@@]21C([H])([H])[H]


 23 26  0  0  0  0  0  0  0  0999 V2000
   -6.3124   -8.9236    5.3698 C   0  0  0  0  0  0  0  0  0  0  0  0
   -6.5571   -7.8618    6.4010 C   0  0  0  0  0  0  0  0  0  0  0  0
   -6.7558   -6.5275    5.7287 C   0  0  0  0  0  0  0  0  0  0  0  0
   -5.5825   -5.6328    5.7219 C   0  0  0  0  0  0  0  0  0  0  0  0
   -4.2778   -6.3538    5.9251 C   0  0  0  0  0  0  0  0  0  0  0  0
   -4.3235   -7.0394    7.2617 C   0  0  0  0  0  0  0  0  0  0  0  0
   -4.0841   -6.1002    8.4192 C   0  0  0  0  0  0  0  0  0  0  0  0
   -3.1049   -5.0039    8.0944 C   0  0  0  0  0  0  0  0  0  0  0  0
   -2.2390   -5.4628    6.9689 C   0  0  0  0  0  0  0  0  0  0  0  0
   -1.0612   -4.5384    6.8607 C   0  0  0  0  0  0  0  0  0  0  0  0
   -1.4064   -3.1640    6.3883 C   0  0  0  0  0  0  0  0  0  0  0  0
   -2.0269   -2.3786    7.3499 O   0  0  0  0  0  0  0  0  0  0  0  0
   -2.1889   -3.2662    5.1225 C   0  0  0  0  0  0  0  0  0  0  0  0
   -3.4123   -4.1204    5.2153 C   0  0  0  0  0  0  0  0  0  0  0  0
   -3.0743   -5.5182    5.7155 C   0  0  0  0  0  0  0  0  0  0  0  0
   -2.1581   -6.1049    4.6274 C   0  0  0  0  0  0  0  0  0  0  0  0
   -5.5374   -7.8336    7.4895 C   0  0  0  0  0  0  0  0  0  0  0  0
   -6.3791   -7.3400    8.6764 C   0  0  0  0  0  0  0  0  0  0  0  0
   -7.5001   -8.3579    8.5950 C   0  0  0  0  0  0  0  0  0  0  0  0
   -7.8539   -8.2011    7.1079 C   0  0  0  0  0  0  0  0  0  0  0  0
   -8.4382   -9.3739    6.7273 O   0  0  0  0  0  0  0  0  0  0  0  0
   -1.6635   -2.5511    8.2407 H   0  0  0  0  0  0  0  0  0  0  0  0
   -8.1842  -10.1669    7.2647 H   0  0  0  0  0  0  0  0  0  0  0  0
  2  1  1  0  0  0
  2  3  1  0  0  0
  3  4  1  0  0  0
  4  5  1  0  0  0
  5  6  1  0  0  0
  6  7  1  0  0  0
  7  8  1  0  0  0
  8  9  1  0  0  0
  9 10  1  0  0  0
 10 11  1  0  0  0
 11 12  1  0  0  0
 11 13  1  0  0  0
 13 14  1  0  0  0
 14 15  1  0  0  0
 15 16  1  0  0  0
  6 17  1  0  0  0
 17 18  1  0  0  0
 18 19  1  0  0  0
 19 20  1  0  0  0
 20 21  1  0  0  0
 17  2  1  0  0  0
 20  2  1  0  0  0
 15  5  1  0  0  0
 15  9  1  0  0  0
 12 22  1  0  0  0
 21 23  1  0  0  0
M  END
> <minimizedAffinity>
-5.59662

> <CNNscore>
0.1777221113

> <CNNaffinity>
4.4286599159

> <CNN_VS>
0.7870708108

> <CNNaffinity_variance>
0.1078125834

$$$$
[H]O[C@@]1([H])C([H])([H])C([H])([H])C2([H])C3([H])C([H])([H])C([H])([H])C4([H])C([H])([H])[C@]([H])(O[H])C([H])([H])C([H])([H])[C@]4(C([H])([H])[H])C3([H])C([H])([H])C([H])([H])[C@@]21C([H])([H])[H]


 23 26  0  0  0  0  0  0  0  0999 V2000
   -3.2433   -3.9349    6.0436 C   0  0  0  0  0  0  0  0  0  0  0  0
   -3.0320   -5.0017    7.0769 C   0  0  0  0  0  0  0  0  0  0  0  0
   -2.9270   -6.3498    6.4110 C   0  0  0  0  0  0  0  0  0  0  0  0
   -4.1489   -7.1764    6.4423 C   0  0  0  0  0  0  0  0  0  0  0  0
   -5.4048   -6.3809    6.6734 C   0  0  0  0  0  0  0  0  0  0  0  0
   -5.2849   -5.6898    8.0026 C   0  0  0  0  0  0  0  0  0  0  0  0
   -5.5463   -6.6058    9.1738 C   0  0  0  0  0  0  0  0  0  0  0  0
   -6.5944   -7.6469    8.8839 C   0  0  0  0  0  0  0  0  0  0  0  0
   -7.4624   -7.1473    7.7776 C   0  0  0  0  0  0  0  0  0  0  0  0
   -8.6931   -8.0040    7.7080 C   0  0  0  0  0  0  0  0  0  0  0  0
   -8.4391   -9.3990    7.2384 C   0  0  0  0  0  0  0  0  0  0  0  0
   -7.8387  -10.2118    8.1899 O   0  0  0  0  0  0  0  0  0  0  0  0
   -7.6858   -9.3503    5.9517 C   0  0  0  0  0  0  0  0  0  0  0  0
   -6.4139   -8.5664    6.0053 C   0  0  0  0  0  0  0  0  0  0  0  0
   -6.6588   -7.1482    6.5024 C   0  0  0  0  0  0  0  0  0  0  0  0
   -7.5689   -6.5180    5.4336 C   0  0  0  0  0  0  0  0  0  0  0  0
   -4.0224   -4.9643    8.1919 C   0  0  0  0  0  0  0  0  0  0  0  0
   -3.1788   -5.4968    9.3606 C   0  0  0  0  0  0  0  0  0  0  0  0
   -2.0045   -4.5448    9.2414 C   0  0  0  0  0  0  0  0  0  0  0  0
   -1.6997   -4.7318    7.7469 C   0  0  0  0  0  0  0  0  0  0  0  0
   -1.0602   -3.5968    7.3413 O   0  0  0  0  0  0  0  0  0  0  0  0
   -8.1680  -10.0127    9.0884 H   0  0  0  0  0  0  0  0  0  0  0  0
   -1.2544   -2.7870    7.8784 H   0  0  0  0  0  0  0  0  0  0  0  0
  2  1  1  0  0  0
  2  3  1  0  0  0
  3  4  1  0  0  0
  4  5  1  0  0  0
  5  6  1  0  0  0
  6  7  1  0  0  0
  7  8  1  0  0  0
  8  9  1  0  0  0
  9 10  1  0  0  0
 10 11  1  0  0  0
 11 12  1  0  0  0
 11 13  1  0  0  0
 13 14  1  0  0  0
 14 15  1  0  0  0
 15 16  1  0  0  0
  6 17  1  0  0  0
 17 18  1  0  0  0
 18 19  1  0  0  0
 19 20  1  0  0  0
 20 21  1  0  0  0
 17  2  1  0  0  0
 20  2  1  0  0  0
 15  5  1  0  0  0
 15  9  1  0  0  0
 12 22  1  0  0  0
 21 23  1  0  0  0
M  END
> <minimizedAffinity>
-5.56264

> <CNNscore>
0.1776203960

> <CNNaffinity>
4.7000646591

> <CNN_VS>
0.8348273635

> <CNNaffinity_variance>
0.1862762272

$$$$
[H]C1=C2C([H])([H])C([H])([H])[C@@]3([H])[C@]4([H])C([H])([H])C([H])([H])C([H])([H])[C@@]4(C([H])([H])[H])C([H])([H])C([H])([H])[C@]3([H])[C@@]2(C([H])([H])[H])C([H])([H])C([H])([H])C1=O


 20 23  0  0  0  0  0  0  0  0999 V2000
  -14.2796   -6.9650    3.9979 C   0  0  0  0  0  0  0  0  0  0  0  0
  -14.6482   -5.8786    4.9501 C   0  0  0  0  0  0  0  0  0  0  0  0
  -14.7732   -6.4380    6.3210 C   0  0  0  0  0  0  0  0  0  0  0  0
  -15.9582   -7.3305    6.5380 C   0  0  0  0  0  0  0  0  0  0  0  0
  -17.1809   -6.9723    5.8006 C   0  0  0  0  0  0  0  0  0  0  0  0
  -16.9455   -6.3919    4.4244 C   0  0  0  0  0  0  0  0  0  0  0  0
  -18.2057   -5.9820    3.7675 C   0  0  0  0  0  0  0  0  0  0  0  0
  -19.4773   -6.4818    4.3400 C   0  0  0  0  0  0  0  0  0  0  0  0
  -19.4034   -7.7186    5.1274 C   0  0  0  0  0  0  0  0  0  0  0  0
  -20.4575   -8.4754    5.3370 C   0  0  0  0  0  0  0  0  0  0  0  0
  -20.3621   -9.7191    6.1352 C   0  0  0  0  0  0  0  0  0  0  0  0
  -21.1096  -10.6853    5.9346 O   0  0  0  0  0  0  0  0  0  0  0  0
  -19.3319   -9.7869    7.2027 C   0  0  0  0  0  0  0  0  0  0  0  0
  -18.4572   -8.5364    7.1735 C   0  0  0  0  0  0  0  0  0  0  0  0
  -18.1093   -8.1617    5.7276 C   0  0  0  0  0  0  0  0  0  0  0  0
  -17.5300   -9.3506    5.0368 C   0  0  0  0  0  0  0  0  0  0  0  0
  -16.0108   -5.2434    4.6347 C   0  0  0  0  0  0  0  0  0  0  0  0
  -15.6857   -4.4199    3.4560 C   0  0  0  0  0  0  0  0  0  0  0  0
  -14.4596   -3.6719    3.9566 C   0  0  0  0  0  0  0  0  0  0  0  0
  -13.7638   -4.6755    4.8512 C   0  0  0  0  0  0  0  0  0  0  0  0
  2  1  1  0  0  0
  2  3  1  0  0  0
  3  4  1  0  0  0
  4  5  1  0  0  0
  5  6  1  0  0  0
  6  7  1  0  0  0
  7  8  1  0  0  0
  8  9  1  0  0  0
  9 10  2  0  0  0
 10 11  1  0  0  0
 11 12  2  0  0  0
 11 13  1  0  0  0
 13 14  1  0  0  0
 14 15  1  0  0  0
 15 16  1  0  0  0
  6 17  1  0  0  0
 17 18  1  0  0  0
 18 19  1  0  0  0
 19 20  1  0  0  0
 17  2  1  0  0  0
 20  2  1  0  0  0
 15  5  1  0  0  0
 15  9  1  0  0  0
M  END
> <minimizedAffinity>
7.19501

> <CNNscore>
0.5635227561

> <CNNaffinity>
6.3087582588

> <CNN_VS>
3.5551288128

> <CNNaffinity_variance>
0.8449322581

$$$$
[H]C1=C2C([H])([H])C([H])([H])[C@@]3([H])[C@]4([H])C([H])([H])C([H])([H])C([H])([H])[C@@]4(C([H])([H])[H])C([H])([H])C([H])([H])[C@]3([H])[C@@]2(C([H])([H])[H])C([H])([H])C([H])([H])C1=O


 20 23  0  0  0  0  0  0  0  0999 V2000
  -13.7254   -4.6293    3.0741 C   0  0  0  0  0  0  0  0  0  0  0  0
  -14.0440   -3.8720    4.3181 C   0  0  0  0  0  0  0  0  0  0  0  0
  -13.8356   -4.7460    5.5015 C   0  0  0  0  0  0  0  0  0  0  0  0
  -14.8341   -5.8535    5.6578 C   0  0  0  0  0  0  0  0  0  0  0  0
  -16.2095   -5.5489    5.2307 C   0  0  0  0  0  0  0  0  0  0  0  0
  -16.3141   -4.6347    4.0309 C   0  0  0  0  0  0  0  0  0  0  0  0
  -17.7176   -4.3057    3.6996 C   0  0  0  0  0  0  0  0  0  0  0  0
  -18.7837   -5.1340    4.3093 C   0  0  0  0  0  0  0  0  0  0  0  0
  -18.4046   -6.4880    4.7315 C   0  0  0  0  0  0  0  0  0  0  0  0
  -19.2944   -7.4415    4.8959 C   0  0  0  0  0  0  0  0  0  0  0  0
  -18.8915   -8.8009    5.3234 C   0  0  0  0  0  0  0  0  0  0  0  0
  -19.5332   -9.8076    4.9961 O   0  0  0  0  0  0  0  0  0  0  0  0
  -17.6786   -8.9365    6.1694 C   0  0  0  0  0  0  0  0  0  0  0  0
  -16.9928   -7.5825    6.3312 C   0  0  0  0  0  0  0  0  0  0  0  0
  -16.9747   -6.8299    4.9951 C   0  0  0  0  0  0  0  0  0  0  0  0
  -16.3883   -7.7099    3.9424 C   0  0  0  0  0  0  0  0  0  0  0  0
  -15.5117   -3.4236    4.3862 C   0  0  0  0  0  0  0  0  0  0  0  0
  -15.5230   -2.3068    3.4239 C   0  0  0  0  0  0  0  0  0  0  0  0
  -14.3307   -1.4965    3.9091 C   0  0  0  0  0  0  0  0  0  0  0  0
  -13.3560   -2.5456    4.3998 C   0  0  0  0  0  0  0  0  0  0  0  0
  2  1  1  0  0  0
  2  3  1  0  0  0
  3  4  1  0  0  0
  4  5  1  0  0  0
  5  6  1  0  0  0
  6  7  1  0  0  0
  7  8  1  0  0  0
  8  9  1  0  0  0
  9 10  2  0  0  0
 10 11  1  0  0  0
 11 12  2  0  0  0
 11 13  1  0  0  0
 13 14  1  0  0  0
 14 15  1  0  0  0
 15 16  1  0  0  0
  6 17  1  0  0  0
 17 18  1  0  0  0
 18 19  1  0  0  0
 19 20  1  0  0  0
 17  2  1  0  0  0
 20  2  1  0  0  0
 15  5  1  0  0  0
 15  9  1  0  0  0
M  END
> <minimizedAffinity>
16.41313

> <CNNscore>
0.5441344976

> <CNNaffinity>
6.4169859886

> <CNN_VS>
3.4917035103

> <CNNaffinity_variance>
1.0466098785

$$$$
[H]C1=C2C([H])([H])C([H])([H])[C@@]3([H])[C@]4([H])C([H])([H])C([H])([H])C([H])([H])[C@@]4(C([H])([H])[H])C([H])([H])C([H])([H])[C@]3([H])[C@@]2(C([H])([H])[H])C([H])([H])C([H])([H])C1=O


 20 23  0  0  0  0  0  0  0  0999 V2000
   -3.4021   -7.3221    6.9305 C   0  0  0  0  0  0  0  0  0  0  0  0
   -1.9190   -7.3982    7.0629 C   0  0  0  0  0  0  0  0  0  0  0  0
   -1.4045   -6.1323    7.6463 C   0  0  0  0  0  0  0  0  0  0  0  0
   -1.4826   -4.9380    6.7433 C   0  0  0  0  0  0  0  0  0  0  0  0
   -1.2752   -5.1973    5.3091 C   0  0  0  0  0  0  0  0  0  0  0  0
   -1.8164   -6.5211    4.8184 C   0  0  0  0  0  0  0  0  0  0  0  0
   -1.5094   -6.7558    3.3907 C   0  0  0  0  0  0  0  0  0  0  0  0
   -1.0603   -5.5991    2.5815 C   0  0  0  0  0  0  0  0  0  0  0  0
   -1.4535   -4.2683    3.0608 C   0  0  0  0  0  0  0  0  0  0  0  0
   -1.4866   -3.2226    2.2651 C   0  0  0  0  0  0  0  0  0  0  0  0
   -1.8852   -1.8882    2.7686 C   0  0  0  0  0  0  0  0  0  0  0  0
   -2.4278   -1.0480    2.0390 O   0  0  0  0  0  0  0  0  0  0  0  0
   -1.6164   -1.5703    4.1940 C   0  0  0  0  0  0  0  0  0  0  0  0
   -1.0637   -2.7974    4.9142 C   0  0  0  0  0  0  0  0  0  0  0  0
   -1.8309   -4.0560    4.4904 C   0  0  0  0  0  0  0  0  0  0  0  0
   -3.2937   -3.8255    4.6728 C   0  0  0  0  0  0  0  0  0  0  0  0
   -1.2050   -7.5532    5.7116 C   0  0  0  0  0  0  0  0  0  0  0  0
   -1.4834   -8.9652    5.3920 C   0  0  0  0  0  0  0  0  0  0  0  0
   -1.0692   -9.6413    6.6901 C   0  0  0  0  0  0  0  0  0  0  0  0
   -1.4465   -8.6365    7.7577 C   0  0  0  0  0  0  0  0  0  0  0  0
  2  1  1  0  0  0
  2  3  1  0  0  0
  3  4  1  0  0  0
  4  5  1  0  0  0
  5  6  1  0  0  0
  6  7  1  0  0  0
  7  8  1  0  0  0
  8  9  1  0  0  0
  9 10  2  0  0  0
 10 11  1  0  0  0
 11 12  2  0  0  0
 11 13  1  0  0  0
 13 14  1  0  0  0
 14 15  1  0  0  0
 15 16  1  0  0  0
  6 17  1  0  0  0
 17 18  1  0  0  0
 18 19  1  0  0  0
 19 20  1  0  0  0
 17  2  1  0  0  0
 20  2  1  0  0  0
 15  5  1  0  0  0
 15  9  1  0  0  0
M  END
> <minimizedAffinity>
-3.24704

> <CNNscore>
0.4443876445

> <CNNaffinity>
4.5481696129

> <CNN_VS>
2.0211503506

> <CNNaffinity_variance>
0.2442166507

$$$$
[H]C1=C2C([H])([H])C([H])([H])[C@@]3([H])[C@]4([H])C([H])([H])C([H])([H])C([H])([H])[C@@]4(C([H])([H])[H])C([H])([H])C([H])([H])[C@]3([H])[C@@]2(C([H])([H])[H])C([H])([H])C([H])([H])C1=O


 20 23  0  0  0  0  0  0  0  0999 V2000
   -3.2373   -7.1268    5.5882 C   0  0  0  0  0  0  0  0  0  0  0  0
   -1.7735   -6.8695    5.4718 C   0  0  0  0  0  0  0  0  0  0  0  0
   -1.0617   -7.5157    6.6048 C   0  0  0  0  0  0  0  0  0  0  0  0
   -1.2896   -6.8811    7.9439 C   0  0  0  0  0  0  0  0  0  0  0  0
   -1.4526   -5.4180    7.9466 C   0  0  0  0  0  0  0  0  0  0  0  0
   -2.1710   -4.8569    6.7402 C   0  0  0  0  0  0  0  0  0  0  0  0
   -2.2346   -3.3794    6.7648 C   0  0  0  0  0  0  0  0  0  0  0  0
   -1.9314   -2.6961    8.0438 C   0  0  0  0  0  0  0  0  0  0  0  0
   -2.1202   -3.4809    9.2700 C   0  0  0  0  0  0  0  0  0  0  0  0
   -2.2869   -2.9117   10.4430 C   0  0  0  0  0  0  0  0  0  0  0  0
   -2.4748   -3.7214   11.6686 C   0  0  0  0  0  0  0  0  0  0  0  0
   -3.1303   -3.3069   12.6335 O   0  0  0  0  0  0  0  0  0  0  0  0
   -1.8495   -5.0674   11.7194 C   0  0  0  0  0  0  0  0  0  0  0  0
   -1.2084   -5.4036   10.3756 C   0  0  0  0  0  0  0  0  0  0  0  0
   -2.1256   -4.9739    9.2240 C   0  0  0  0  0  0  0  0  0  0  0  0
   -3.4845   -5.5528    9.4348 C   0  0  0  0  0  0  0  0  0  0  0  0
   -1.4198   -5.3770    5.5561 C   0  0  0  0  0  0  0  0  0  0  0  0
   -1.8470   -4.8981    4.2288 C   0  0  0  0  0  0  0  0  0  0  0  0
   -1.1682   -5.9147    3.3237 C   0  0  0  0  0  0  0  0  0  0  0  0
   -1.2168   -7.1996    4.1225 C   0  0  0  0  0  0  0  0  0  0  0  0
  2  1  1  0  0  0
  2  3  1  0  0  0
  3  4  1  0  0  0
  4  5  1  0  0  0
  5  6  1  0  0  0
  6  7  1  0  0  0
  7  8  1  0  0  0
  8  9  1  0  0  0
  9 10  2  0  0  0
 10 11  1  0  0  0
 11 12  2  0  0  0
 11 13  1  0  0  0
 13 14  1  0  0  0
 14 15  1  0  0  0
 15 16  1  0  0  0
  6 17  1  0  0  0
 17 18  1  0  0  0
 18 19  1  0  0  0
 19 20  1  0  0  0
 17  2  1  0  0  0
 20  2  1  0  0  0
 15  5  1  0  0  0
 15  9  1  0  0  0
M  END
> <minimizedAffinity>
-2.40456

> <CNNscore>
0.4185856283

> <CNNaffinity>
4.5706787109

> <CNN_VS>
1.9132204056

> <CNNaffinity_variance>
0.3920021951

$$$$
[H]C1=C2C([H])([H])C([H])([H])[C@@]3([H])[C@]4([H])C([H])([H])C([H])([H])C([H])([H])[C@@]4(C([H])([H])[H])C([H])([H])C([H])([H])[C@]3([H])[C@@]2(C([H])([H])[H])C([H])([H])C([H])([H])C1=O


 20 23  0  0  0  0  0  0  0  0999 V2000
   -3.9137   -2.4949   10.4839 C   0  0  0  0  0  0  0  0  0  0  0  0
   -2.4616   -2.1935   10.3315 C   0  0  0  0  0  0  0  0  0  0  0  0
   -2.1274   -2.0648    8.8894 C   0  0  0  0  0  0  0  0  0  0  0  0
   -2.1681   -3.3452    8.1105 C   0  0  0  0  0  0  0  0  0  0  0  0
   -1.7461   -4.5558    8.8342 C   0  0  0  0  0  0  0  0  0  0  0  0
   -2.1152   -4.5803   10.3003 C   0  0  0  0  0  0  0  0  0  0  0  0
   -1.5976   -5.7837   10.9869 C   0  0  0  0  0  0  0  0  0  0  0  0
   -1.1278   -6.9098   10.1470 C   0  0  0  0  0  0  0  0  0  0  0  0
   -1.6806   -6.9937    8.7896 C   0  0  0  0  0  0  0  0  0  0  0  0
   -1.6807   -8.1159    8.1051 C   0  0  0  0  0  0  0  0  0  0  0  0
   -2.2424   -8.1793    6.7364 C   0  0  0  0  0  0  0  0  0  0  0  0
   -2.7396   -9.2169    6.2797 O   0  0  0  0  0  0  0  0  0  0  0  0
   -2.1970   -6.9497    5.9049 C   0  0  0  0  0  0  0  0  0  0  0  0
   -1.6600   -5.7781    6.7226 C   0  0  0  0  0  0  0  0  0  0  0  0
   -2.2663   -5.7875    8.1313 C   0  0  0  0  0  0  0  0  0  0  0  0
   -3.7533   -5.8522    8.0267 C   0  0  0  0  0  0  0  0  0  0  0  0
   -1.5584   -3.3139   10.8689 C   0  0  0  0  0  0  0  0  0  0  0  0
   -1.6850   -3.1210   12.3249 C   0  0  0  0  0  0  0  0  0  0  0  0
   -1.4052   -1.6306   12.4433 C   0  0  0  0  0  0  0  0  0  0  0  0
   -1.9994   -1.0493   11.1781 C   0  0  0  0  0  0  0  0  0  0  0  0
  2  1  1  0  0  0
  2  3  1  0  0  0
  3  4  1  0  0  0
  4  5  1  0  0  0
  5  6  1  0  0  0
  6  7  1  0  0  0
  7  8  1  0  0  0
  8  9  1  0  0  0
  9 10  2  0  0  0
 10 11  1  0  0  0
 11 12  2  0  0  0
 11 13  1  0  0  0
 13 14  1  0  0  0
 14 15  1  0  0  0
 15 16  1  0  0  0
  6 17  1  0  0  0
 17 18  1  0  0  0
 18 19  1  0  0  0
 19 20  1  0  0  0
 17  2  1  0  0  0
 20  2  1  0  0  0
 15  5  1  0  0  0
 15  9  1  0  0  0
M  END
> <minimizedAffinity>
-2.28251

> <CNNscore>
0.3638024330

> <CNNaffinity>
4.3851661682

> <CNN_VS>
1.5953341722

> <CNNaffinity_variance>
0.2253142893

$$$$
[H]C1=C2C([H])([H])C([H])([H])[C@@]3([H])[C@]4([H])C([H])([H])C([H])([H])C([H])([H])[C@@]4(C([H])([H])[H])C([H])([H])C([H])([H])[C@]3([H])[C@@]2(C([H])([H])[H])C([H])([H])C([H])([H])C1=O


 20 23  0  0  0  0  0  0  0  0999 V2000
  -15.4369   -6.1073    4.7490 C   0  0  0  0  0  0  0  0  0  0  0  0
  -16.1533   -7.0542    5.6507 C   0  0  0  0  0  0  0  0  0  0  0  0
  -15.9919   -6.6180    7.0619 C   0  0  0  0  0  0  0  0  0  0  0  0
  -14.6118   -6.7821    7.6244 C   0  0  0  0  0  0  0  0  0  0  0  0
  -13.8551   -7.9521    7.1494 C   0  0  0  0  0  0  0  0  0  0  0  0
  -14.1054   -8.3272    5.7062 C   0  0  0  0  0  0  0  0  0  0  0  0
  -13.3771   -9.5530    5.3130 C   0  0  0  0  0  0  0  0  0  0  0  0
  -12.2905  -10.0260    6.2018 C   0  0  0  0  0  0  0  0  0  0  0  0
  -11.6635   -9.0199    7.0676 C   0  0  0  0  0  0  0  0  0  0  0  0
  -10.4654   -9.1908    7.5805 C   0  0  0  0  0  0  0  0  0  0  0  0
   -9.8509   -8.1639    8.4527 C   0  0  0  0  0  0  0  0  0  0  0  0
   -8.6244   -8.0094    8.5189 O   0  0  0  0  0  0  0  0  0  0  0  0
  -10.7518   -7.3054    9.2629 C   0  0  0  0  0  0  0  0  0  0  0  0
  -12.2101   -7.5956    8.9178 C   0  0  0  0  0  0  0  0  0  0  0  0
  -12.3792   -7.7520    7.4016 C   0  0  0  0  0  0  0  0  0  0  0  0
  -11.7955   -6.5622    6.7160 C   0  0  0  0  0  0  0  0  0  0  0  0
  -15.5885   -8.4814    5.5899 C   0  0  0  0  0  0  0  0  0  0  0  0
  -16.1135   -8.9506    4.2946 C   0  0  0  0  0  0  0  0  0  0  0  0
  -17.5848   -8.5903    4.4327 C   0  0  0  0  0  0  0  0  0  0  0  0
  -17.5695   -7.3101    5.2405 C   0  0  0  0  0  0  0  0  0  0  0  0
  2  1  1  0  0  0
  2  3  1  0  0  0
  3  4  1  0  0  0
  4  5  1  0  0  0
  5  6  1  0  0  0
  6  7  1  0  0  0
  7  8  1  0  0  0
  8  9  1  0  0  0
  9 10  2  0  0  0
 10 11  1  0  0  0
 11 12  2  0  0  0
 11 13  1  0  0  0
 13 14  1  0  0  0
 14 15  1  0  0  0
 15 16  1  0  0  0
  6 17  1  0  0  0
 17 18  1  0  0  0
 18 19  1  0  0  0
 19 20  1  0  0  0
 17  2  1  0  0  0
 20  2  1  0  0  0
 15  5  1  0  0  0
 15  9  1  0  0  0
M  END
> <minimizedAffinity>
-5.45321

> <CNNscore>
0.3619981110

> <CNNaffinity>
6.1708936691

> <CNN_VS>
2.2338519096

> <CNNaffinity_variance>
0.1517780125

$$$$
[H]C1=C2C([H])([H])C([H])([H])[C@@]3([H])[C@]4([H])C([H])([H])C([H])([H])C([H])([H])[C@@]4(C([H])([H])[H])C([H])([H])C([H])([H])[C@]3([H])[C@@]2(C([H])([H])[H])C([H])([H])C([H])([H])C1=O


 20 23  0  0  0  0  0  0  0  0999 V2000
   -8.1321   -6.5964    7.4076 C   0  0  0  0  0  0  0  0  0  0  0  0
   -7.4852   -7.8873    7.7788 C   0  0  0  0  0  0  0  0  0  0  0  0
   -6.9550   -7.7995    9.1641 C   0  0  0  0  0  0  0  0  0  0  0  0
   -5.7660   -6.9021    9.3342 C   0  0  0  0  0  0  0  0  0  0  0  0
   -4.8214   -6.8597    8.2059 C   0  0  0  0  0  0  0  0  0  0  0  0
   -5.4583   -6.9777    6.8397 C   0  0  0  0  0  0  0  0  0  0  0  0
   -4.4532   -7.0061    5.7550 C   0  0  0  0  0  0  0  0  0  0  0  0
   -3.0714   -6.5843    6.0824 C   0  0  0  0  0  0  0  0  0  0  0  0
   -2.9121   -5.6914    7.2368 C   0  0  0  0  0  0  0  0  0  0  0  0
   -1.8492   -4.9333    7.3901 C   0  0  0  0  0  0  0  0  0  0  0  0
   -1.7071   -4.0399    8.5626 C   0  0  0  0  0  0  0  0  0  0  0  0
   -1.0621   -2.9848    8.5078 O   0  0  0  0  0  0  0  0  0  0  0  0
   -2.3664   -4.4418    9.8311 C   0  0  0  0  0  0  0  0  0  0  0  0
   -3.2003   -5.7022    9.6174 C   0  0  0  0  0  0  0  0  0  0  0  0
   -3.9669   -5.6170    8.2918 C   0  0  0  0  0  0  0  0  0  0  0  0
   -4.7362   -4.3393    8.2495 C   0  0  0  0  0  0  0  0  0  0  0  0
   -6.2776   -8.2279    6.8926 C   0  0  0  0  0  0  0  0  0  0  0  0
   -6.9385   -8.6489    5.6439 C   0  0  0  0  0  0  0  0  0  0  0  0
   -7.9505   -9.6513    6.1775 C   0  0  0  0  0  0  0  0  0  0  0  0
   -8.3497   -9.0815    7.5219 C   0  0  0  0  0  0  0  0  0  0  0  0
  2  1  1  0  0  0
  2  3  1  0  0  0
  3  4  1  0  0  0
  4  5  1  0  0  0
  5  6  1  0  0  0
  6  7  1  0  0  0
  7  8  1  0  0  0
  8  9  1  0  0  0
  9 10  2  0  0  0
 10 11  1  0  0  0
 11 12  2  0  0  0
 11 13  1  0  0  0
 13 14  1  0  0  0
 14 15  1  0  0  0
 15 16  1  0  0  0
  6 17  1  0  0  0
 17 18  1  0  0  0
 18 19  1  0  0  0
 19 20  1  0  0  0
 17  2  1  0  0  0
 20  2  1  0  0  0
 15  5  1  0  0  0
 15  9  1  0  0  0
M  END
> <minimizedAffinity>
-3.01117

> <CNNscore>
0.3495755196

> <CNNaffinity>
4.9766039848

> <CNN_VS>
1.7396988869

> <CNNaffinity_variance>
0.3692924082

$$$$
[H]C1=C2C([H])([H])C([H])([H])[C@@]3([H])[C@]4([H])C([H])([H])C([H])([H])C([H])([H])[C@@]4(C([H])([H])[H])C([H])([H])C([H])([H])[C@]3([H])[C@@]2(C([H])([H])[H])C([H])([H])C([H])([H])C1=O


 20 23  0  0  0  0  0  0  0  0999 V2000
  -15.9708   -8.7209    3.5740 C   0  0  0  0  0  0  0  0  0  0  0  0
  -16.4730   -7.4057    4.0645 C   0  0  0  0  0  0  0  0  0  0  0  0
  -15.4012   -6.3842    3.9394 C   0  0  0  0  0  0  0  0  0  0  0  0
  -14.2527   -6.5479    4.8892 C   0  0  0  0  0  0  0  0  0  0  0  0
  -14.5874   -7.0692    6.2245 C   0  0  0  0  0  0  0  0  0  0  0  0
  -15.7051   -8.0874    6.2470 C   0  0  0  0  0  0  0  0  0  0  0  0
  -16.0451   -8.5139    7.6218 C   0  0  0  0  0  0  0  0  0  0  0  0
  -15.0843   -8.1920    8.7024 C   0  0  0  0  0  0  0  0  0  0  0  0
  -13.6881   -7.9812    8.3004 C   0  0  0  0  0  0  0  0  0  0  0  0
  -12.6929   -8.0964    9.1513 C   0  0  0  0  0  0  0  0  0  0  0  0
  -11.2912   -7.8786    8.7259 C   0  0  0  0  0  0  0  0  0  0  0  0
  -10.3430   -8.4550    9.2746 O   0  0  0  0  0  0  0  0  0  0  0  0
  -11.0393   -6.9365    7.6059 C   0  0  0  0  0  0  0  0  0  0  0  0
  -12.3608   -6.4536    7.0139 C   0  0  0  0  0  0  0  0  0  0  0  0
  -13.3489   -7.6201    6.8913 C   0  0  0  0  0  0  0  0  0  0  0  0
  -12.6992   -8.7396    6.1492 C   0  0  0  0  0  0  0  0  0  0  0  0
  -16.8539   -7.4280    5.5525 C   0  0  0  0  0  0  0  0  0  0  0  0
  -18.1293   -8.1667    5.5187 C   0  0  0  0  0  0  0  0  0  0  0  0
  -18.8727   -7.4079    4.4301 C   0  0  0  0  0  0  0  0  0  0  0  0
  -17.7823   -7.0058    3.4601 C   0  0  0  0  0  0  0  0  0  0  0  0
  2  1  1  0  0  0
  2  3  1  0  0  0
  3  4  1  0  0  0
  4  5  1  0  0  0
  5  6  1  0  0  0
  6  7  1  0  0  0
  7  8  1  0  0  0
  8  9  1  0  0  0
  9 10  2  0  0  0
 10 11  1  0  0  0
 11 12  2  0  0  0
 11 13  1  0  0  0
 13 14  1  0  0  0
 14 15  1  0  0  0
 15 16  1  0  0  0
  6 17  1  0  0  0
 17 18  1  0  0  0
 18 19  1  0  0  0
 19 20  1  0  0  0
 17  2  1  0  0  0
 20  2  1  0  0  0
 15  5  1  0  0  0
 15  9  1  0  0  0
M  END
> <minimizedAffinity>
-4.88510

> <CNNscore>
0.3212124705

> <CNNaffinity>
6.1310977936

> <CNN_VS>
1.9693850279

> <CNNaffinity_variance>
0.0807452723

$$$$
[H]C1=C2C([H])([H])C([H])([H])[C@@]3([H])[C@]4([H])C([H])([H])C([H])([H])C([H])([H])[C@@]4(C([H])([H])[H])C([H])([H])C([H])([H])[C@]3([H])[C@@]2(C([H])([H])[H])C([H])([H])C([H])([H])C1=O


 20 23  0  0  0  0  0  0  0  0999 V2000
   -8.0473   -7.4718    6.0411 C   0  0  0  0  0  0  0  0  0  0  0  0
   -7.8236   -8.1994    7.3230 C   0  0  0  0  0  0  0  0  0  0  0  0
   -8.5629   -9.4881    7.3010 C   0  0  0  0  0  0  0  0  0  0  0  0
  -10.0553   -9.3664    7.3761 C   0  0  0  0  0  0  0  0  0  0  0  0
  -10.5731   -8.2621    8.2005 C   0  0  0  0  0  0  0  0  0  0  0  0
   -9.7378   -7.0022    8.1716 C   0  0  0  0  0  0  0  0  0  0  0  0
  -10.2671   -5.9596    9.0775 C   0  0  0  0  0  0  0  0  0  0  0  0
  -11.6466   -6.1263    9.5910 C   0  0  0  0  0  0  0  0  0  0  0  0
  -12.5505   -6.9613    8.7904 C   0  0  0  0  0  0  0  0  0  0  0  0
  -13.8577   -6.8668    8.8897 C   0  0  0  0  0  0  0  0  0  0  0  0
  -14.7524   -7.7193    8.0736 C   0  0  0  0  0  0  0  0  0  0  0  0
  -15.8812   -7.3442    7.7306 O   0  0  0  0  0  0  0  0  0  0  0  0
  -14.2601   -9.0597    7.6662 C   0  0  0  0  0  0  0  0  0  0  0  0
  -12.8067   -9.2421    8.0955 C   0  0  0  0  0  0  0  0  0  0  0  0
  -12.0054   -7.9627    7.8252 C   0  0  0  0  0  0  0  0  0  0  0  0
  -12.1944   -7.5549    6.4025 C   0  0  0  0  0  0  0  0  0  0  0  0
   -8.3560   -7.4359    8.5451 C   0  0  0  0  0  0  0  0  0  0  0  0
   -7.3401   -6.3784    8.6968 C   0  0  0  0  0  0  0  0  0  0  0  0
   -6.0609   -7.2005    8.6601 C   0  0  0  0  0  0  0  0  0  0  0  0
   -6.3788   -8.3214    7.6935 C   0  0  0  0  0  0  0  0  0  0  0  0
  2  1  1  0  0  0
  2  3  1  0  0  0
  3  4  1  0  0  0
  4  5  1  0  0  0
  5  6  1  0  0  0
  6  7  1  0  0  0
  7  8  1  0  0  0
  8  9  1  0  0  0
  9 10  2  0  0  0
 10 11  1  0  0  0
 11 12  2  0  0  0
 11 13  1  0  0  0
 13 14  1  0  0  0
 14 15  1  0  0  0
 15 16  1  0  0  0
  6 17  1  0  0  0
 17 18  1  0  0  0
 18 19  1  0  0  0
 19 20  1  0  0  0
 17  2  1  0  0  0
 20  2  1  0  0  0
 15  5  1  0  0  0
 15  9  1  0  0  0
M  END
> <minimizedAffinity>
-6.62563

> <CNNscore>
0.2873387933

> <CNNaffinity>
5.9796876907

> <CNN_VS>
1.7181962729

> <CNNaffinity_variance>
0.0929651037

$$$$
[H]O[C@@]1([H])C([H])([H])C([H])([H])C2([H])C3([H])C([H])([H])C([H])([H])C4=C([H])C(=O)C([H])([H])C([H])([H])[C@]4(C([H])([H])[H])C3([H])C([H])([H])C([H])([H])[C@@]21C([H])([H])[H]


 22 25  0  0  0  0  0  0  0  0999 V2000
   -6.4879   -8.4263    8.7202 C   0  0  0  0  0  0  0  0  0  0  0  0
   -6.8004   -8.1054    7.2564 C   0  0  0  0  0  0  0  0  0  0  0  0
   -5.9041   -8.9816    6.4124 C   0  0  0  0  0  0  0  0  0  0  0  0
   -4.5265   -8.3447    6.4782 C   0  0  0  0  0  0  0  0  0  0  0  0
   -4.6037   -7.1100    5.5620 C   0  0  0  0  0  0  0  0  0  0  0  0
   -5.8330   -6.3407    5.7465 C   0  0  0  0  0  0  0  0  0  0  0  0
   -5.7727   -4.8607    5.6120 C   0  0  0  0  0  0  0  0  0  0  0  0
   -4.4358   -4.2348    5.7724 C   0  0  0  0  0  0  0  0  0  0  0  0
   -3.3622   -5.0715    5.1782 C   0  0  0  0  0  0  0  0  0  0  0  0
   -2.5929   -4.5924    4.2320 C   0  0  0  0  0  0  0  0  0  0  0  0
   -1.5339   -5.4519    3.6628 C   0  0  0  0  0  0  0  0  0  0  0  0
   -1.1004   -5.2520    2.5113 O   0  0  0  0  0  0  0  0  0  0  0  0
   -1.0613   -6.5328    4.5702 C   0  0  0  0  0  0  0  0  0  0  0  0
   -2.2303   -7.2844    5.1135 C   0  0  0  0  0  0  0  0  0  0  0  0
   -3.2861   -6.4214    5.7584 C   0  0  0  0  0  0  0  0  0  0  0  0
   -2.9239   -6.3208    7.2415 C   0  0  0  0  0  0  0  0  0  0  0  0
   -6.5794   -6.6555    7.0542 C   0  0  0  0  0  0  0  0  0  0  0  0
   -7.9945   -6.1033    6.8348 C   0  0  0  0  0  0  0  0  0  0  0  0
   -8.9222   -7.1311    7.4724 C   0  0  0  0  0  0  0  0  0  0  0  0
   -8.2381   -8.4271    7.0308 C   0  0  0  0  0  0  0  0  0  0  0  0
   -8.7304   -9.4463    7.8098 O   0  0  0  0  0  0  0  0  0  0  0  0
   -8.3200  -10.3156    7.6721 H   0  0  0  0  0  0  0  0  0  0  0  0
  2  1  1  0  0  0
  2  3  1  0  0  0
  3  4  1  0  0  0
  4  5  1  0  0  0
  5  6  1  0  0  0
  6  7  1  0  0  0
  7  8  1  0  0  0
  8  9  1  0  0  0
  9 10  2  0  0  0
 10 11  1  0  0  0
 11 12  2  0  0  0
 11 13  1  0  0  0
 13 14  1  0  0  0
 14 15  1  0  0  0
 15 16  1  0  0  0
  6 17  1  0  0  0
 17 18  1  0  0  0
 18 19  1  0  0  0
 19 20  1  0  0  0
 20 21  1  0  0  0
 17  2  1  0  0  0
 20  2  1  0  0  0
 15  5  1  0  0  0
 15  9  1  0  0  0
 21 22  1  0  0  0
M  END
> <minimizedAffinity>
-2.13060

> <CNNscore>
0.4064420462

> <CNNaffinity>
4.8877882957

> <CNN_VS>
1.9866026640

> <CNNaffinity_variance>
0.4411667883

$$$$
[H]O[C@@]1([H])C([H])([H])C([H])([H])C2([H])C3([H])C([H])([H])C([H])([H])C4=C([H])C(=O)C([H])([H])C([H])([H])[C@]4(C([H])([H])[H])C3([H])C([H])([H])C([H])([H])[C@@]21C([H])([H])[H]


 22 25  0  0  0  0  0  0  0  0999 V2000
  -12.8656  -10.4027    8.7831 C   0  0  0  0  0  0  0  0  0  0  0  0
  -12.7697   -9.0904    8.0008 C   0  0  0  0  0  0  0  0  0  0  0  0
  -12.1940   -9.4270    6.6448 C   0  0  0  0  0  0  0  0  0  0  0  0
  -10.7081   -9.6459    6.8719 C   0  0  0  0  0  0  0  0  0  0  0  0
  -10.1115   -8.2385    7.0543 C   0  0  0  0  0  0  0  0  0  0  0  0
  -10.9206   -7.3861    7.9238 C   0  0  0  0  0  0  0  0  0  0  0  0
  -10.2281   -6.4117    8.8087 C   0  0  0  0  0  0  0  0  0  0  0  0
   -8.7986   -6.6844    9.1038 C   0  0  0  0  0  0  0  0  0  0  0  0
   -8.0892   -7.2379    7.9223 C   0  0  0  0  0  0  0  0  0  0  0  0
   -7.0458   -6.6215    7.4244 C   0  0  0  0  0  0  0  0  0  0  0  0
   -6.3630   -7.2000    6.2482 C   0  0  0  0  0  0  0  0  0  0  0  0
   -5.7022   -6.4788    5.4756 O   0  0  0  0  0  0  0  0  0  0  0  0
   -6.5405   -8.6694    6.0915 C   0  0  0  0  0  0  0  0  0  0  0  0
   -7.9883   -9.0173    6.1885 C   0  0  0  0  0  0  0  0  0  0  0  0
   -8.6792   -8.4891    7.4210 C   0  0  0  0  0  0  0  0  0  0  0  0
   -8.5583   -9.5761    8.4908 C   0  0  0  0  0  0  0  0  0  0  0  0
  -11.9348   -8.1548    8.7879 C   0  0  0  0  0  0  0  0  0  0  0  0
  -12.9338   -7.0870    9.2545 C   0  0  0  0  0  0  0  0  0  0  0  0
  -14.2965   -7.7671    9.1906 C   0  0  0  0  0  0  0  0  0  0  0  0
  -14.1518   -8.5457    7.8809 C   0  0  0  0  0  0  0  0  0  0  0  0
  -15.1450   -9.4945    7.8465 O   0  0  0  0  0  0  0  0  0  0  0  0
  -15.1174  -10.1037    7.0907 H   0  0  0  0  0  0  0  0  0  0  0  0
  2  1  1  0  0  0
  2  3  1  0  0  0
  3  4  1  0  0  0
  4  5  1  0  0  0
  5  6  1  0  0  0
  6  7  1  0  0  0
  7  8  1  0  0  0
  8  9  1  0  0  0
  9 10  2  0  0  0
 10 11  1  0  0  0
 11 12  2  0  0  0
 11 13  1  0  0  0
 13 14  1  0  0  0
 14 15  1  0  0  0
 15 16  1  0  0  0
  6 17  1  0  0  0
 17 18  1  0  0  0
 18 19  1  0  0  0
 19 20  1  0  0  0
 20 21  1  0  0  0
 17  2  1  0  0  0
 20  2  1  0  0  0
 15  5  1  0  0  0
 15  9  1  0  0  0
 21 22  1  0  0  0
M  END
> <minimizedAffinity>
-7.34231

> <CNNscore>
0.3970944285

> <CNNaffinity>
5.9585466385

> <CNN_VS>
2.3661055565

> <CNNaffinity_variance>
0.1343489438

$$$$
[H]O[C@@]1([H])C([H])([H])C([H])([H])C2([H])C3([H])C([H])([H])C([H])([H])C4=C([H])C(=O)C([H])([H])C([H])([H])[C@]4(C([H])([H])[H])C3([H])C([H])([H])C([H])([H])[C@@]21C([H])([H])[H]


 22 25  0  0  0  0  0  0  0  0999 V2000
   -8.9789   -6.7021    6.1543 C   0  0  0  0  0  0  0  0  0  0  0  0
   -8.4082   -7.5919    7.2616 C   0  0  0  0  0  0  0  0  0  0  0  0
   -8.1045   -6.6923    8.4370 C   0  0  0  0  0  0  0  0  0  0  0  0
   -6.8239   -5.9601    8.0742 C   0  0  0  0  0  0  0  0  0  0  0  0
   -5.6978   -6.9943    8.2534 C   0  0  0  0  0  0  0  0  0  0  0  0
   -6.0357   -8.3047    7.7004 C   0  0  0  0  0  0  0  0  0  0  0  0
   -4.9537   -9.1155    7.0807 C   0  0  0  0  0  0  0  0  0  0  0  0
   -3.7422   -8.3781    6.6409 C   0  0  0  0  0  0  0  0  0  0  0  0
   -3.3936   -7.2829    7.5815 C   0  0  0  0  0  0  0  0  0  0  0  0
   -2.2231   -7.2594    8.1699 C   0  0  0  0  0  0  0  0  0  0  0  0
   -1.9086   -6.1547    9.1000 C   0  0  0  0  0  0  0  0  0  0  0  0
   -1.0617   -6.3026   10.0027 O   0  0  0  0  0  0  0  0  0  0  0  0
   -2.6760   -4.9033    8.8551 C   0  0  0  0  0  0  0  0  0  0  0  0
   -4.1314   -5.2151    8.7485 C   0  0  0  0  0  0  0  0  0  0  0  0
   -4.4703   -6.2947    7.7510 C   0  0  0  0  0  0  0  0  0  0  0  0
   -4.7339   -5.5921    6.4177 C   0  0  0  0  0  0  0  0  0  0  0  0
   -7.2183   -8.2843    6.7169 C   0  0  0  0  0  0  0  0  0  0  0  0
   -7.6671   -9.7488    6.6206 C   0  0  0  0  0  0  0  0  0  0  0  0
   -9.1896   -9.6923    6.5719 C   0  0  0  0  0  0  0  0  0  0  0  0
   -9.4552   -8.5953    7.6055 C   0  0  0  0  0  0  0  0  0  0  0  0
  -10.7479   -8.1625    7.4334 O   0  0  0  0  0  0  0  0  0  0  0  0
  -11.0170   -7.4128    7.9889 H   0  0  0  0  0  0  0  0  0  0  0  0
  2  1  1  0  0  0
  2  3  1  0  0  0
  3  4  1  0  0  0
  4  5  1  0  0  0
  5  6  1  0  0  0
  6  7  1  0  0  0
  7  8  1  0  0  0
  8  9  1  0  0  0
  9 10  2  0  0  0
 10 11  1  0  0  0
 11 12  2  0  0  0
 11 13  1  0  0  0
 13 14  1  0  0  0
 14 15  1  0  0  0
 15 16  1  0  0  0
  6 17  1  0  0  0
 17 18  1  0  0  0
 18 19  1  0  0  0
 19 20  1  0  0  0
 20 21  1  0  0  0
 17  2  1  0  0  0
 20  2  1  0  0  0
 15  5  1  0  0  0
 15  9  1  0  0  0
 21 22  1  0  0  0
M  END
> <minimizedAffinity>
-2.02689

> <CNNscore>
0.3763234317

> <CNNaffinity>
5.0387372971

> <CNN_VS>
1.8961949348

> <CNNaffinity_variance>
0.5760618448

$$$$
[H]O[C@@]1([H])C([H])([H])C([H])([H])C2([H])C3([H])C([H])([H])C([H])([H])C4=C([H])C(=O)C([H])([H])C([H])([H])[C@]4(C([H])([H])[H])C3([H])C([H])([H])C([H])([H])[C@@]21C([H])([H])[H]


 22 25  0  0  0  0  0  0  0  0999 V2000
  -16.5914   -5.3713    4.0265 C   0  0  0  0  0  0  0  0  0  0  0  0
  -16.0529   -6.6861    4.5964 C   0  0  0  0  0  0  0  0  0  0  0  0
  -16.5641   -7.7945    3.7057 C   0  0  0  0  0  0  0  0  0  0  0  0
  -18.0236   -7.9841    4.0819 C   0  0  0  0  0  0  0  0  0  0  0  0
  -18.0043   -8.7330    5.4268 C   0  0  0  0  0  0  0  0  0  0  0  0
  -17.0164   -8.1974    6.3619 C   0  0  0  0  0  0  0  0  0  0  0  0
  -17.3389   -8.1967    7.8138 C   0  0  0  0  0  0  0  0  0  0  0  0
  -18.7768   -8.2865    8.1732 C   0  0  0  0  0  0  0  0  0  0  0  0
  -19.5174   -9.1897    7.2559 C   0  0  0  0  0  0  0  0  0  0  0  0
  -20.1536  -10.2355    7.7231 C   0  0  0  0  0  0  0  0  0  0  0  0
  -20.8809  -11.1134    6.7825 C   0  0  0  0  0  0  0  0  0  0  0  0
  -21.0978  -12.3084    7.0633 O   0  0  0  0  0  0  0  0  0  0  0  0
  -21.3078  -10.4485    5.5212 C   0  0  0  0  0  0  0  0  0  0  0  0
  -20.1514   -9.7280    4.9127 C   0  0  0  0  0  0  0  0  0  0  0  0
  -19.4435   -8.7772    5.8456 C   0  0  0  0  0  0  0  0  0  0  0  0
  -20.1170   -7.4140    5.6756 C   0  0  0  0  0  0  0  0  0  0  0  0
  -16.5094   -6.7907    6.0009 C   0  0  0  0  0  0  0  0  0  0  0  0
  -15.2171   -6.6250    6.8123 C   0  0  0  0  0  0  0  0  0  0  0  0
  -14.2568   -5.8955    5.8799 C   0  0  0  0  0  0  0  0  0  0  0  0
  -14.5650   -6.6066    4.5601 C   0  0  0  0  0  0  0  0  0  0  0  0
  -14.0529   -5.8390    3.5419 O   0  0  0  0  0  0  0  0  0  0  0  0
  -14.2459   -6.1515    2.6429 H   0  0  0  0  0  0  0  0  0  0  0  0
  2  1  1  0  0  0
  2  3  1  0  0  0
  3  4  1  0  0  0
  4  5  1  0  0  0
  5  6  1  0  0  0
  6  7  1  0  0  0
  7  8  1  0  0  0
  8  9  1  0  0  0
  9 10  2  0  0  0
 10 11  1  0  0  0
 11 12  2  0  0  0
 11 13  1  0  0  0
 13 14  1  0  0  0
 14 15  1  0  0  0
 15 16  1  0  0  0
  6 17  1  0  0  0
 17 18  1  0  0  0
 18 19  1  0  0  0
 19 20  1  0  0  0
 20 21  1  0  0  0
 17  2  1  0  0  0
 20  2  1  0  0  0
 15  5  1  0  0  0
 15  9  1  0  0  0
 21 22  1  0  0  0
M  END
> <minimizedAffinity>
9.86899

> <CNNscore>
0.3119050860

> <CNNaffinity>
5.7113881111

> <CNN_VS>
1.7814110518

> <CNNaffinity_variance>
0.1327579021

$$$$
[H]O[C@@]1([H])C([H])([H])C([H])([H])C2([H])C3([H])C([H])([H])C([H])([H])C4=C([H])C(=O)C([H])([H])C([H])([H])[C@]4(C([H])([H])[H])C3([H])C([H])([H])C([H])([H])[C@@]21C([H])([H])[H]


 22 25  0  0  0  0  0  0  0  0999 V2000
   -5.0641   -5.6401    8.0395 C   0  0  0  0  0  0  0  0  0  0  0  0
   -5.4407   -6.4672    6.8076 C   0  0  0  0  0  0  0  0  0  0  0  0
   -6.6237   -5.7832    6.1626 C   0  0  0  0  0  0  0  0  0  0  0  0
   -7.8228   -6.1342    7.0266 C   0  0  0  0  0  0  0  0  0  0  0  0
   -8.1605   -7.5960    6.6813 C   0  0  0  0  0  0  0  0  0  0  0  0
   -6.9762   -8.4492    6.5993 C   0  0  0  0  0  0  0  0  0  0  0  0
   -7.0849   -9.8620    7.0511 C   0  0  0  0  0  0  0  0  0  0  0  0
   -8.2053  -10.1785    7.9728 C   0  0  0  0  0  0  0  0  0  0  0  0
   -9.4345   -9.4213    7.6243 C   0  0  0  0  0  0  0  0  0  0  0  0
  -10.5448  -10.0535    7.3340 C   0  0  0  0  0  0  0  0  0  0  0  0
  -11.7498   -9.2691    6.9919 C   0  0  0  0  0  0  0  0  0  0  0  0
  -12.6533   -9.7620    6.2886 O   0  0  0  0  0  0  0  0  0  0  0  0
  -11.7689   -7.8902    7.5516 C   0  0  0  0  0  0  0  0  0  0  0  0
  -10.4833   -7.1999    7.2400 C   0  0  0  0  0  0  0  0  0  0  0  0
   -9.2471   -7.9622    7.6477 C   0  0  0  0  0  0  0  0  0  0  0  0
   -8.9048   -7.5134    9.0697 C   0  0  0  0  0  0  0  0  0  0  0  0
   -5.7235   -7.8484    7.2596 C   0  0  0  0  0  0  0  0  0  0  0  0
   -4.5553   -8.6611    6.6847 C   0  0  0  0  0  0  0  0  0  0  0  0
   -3.4440   -7.6440    6.4521 C   0  0  0  0  0  0  0  0  0  0  0  0
   -4.2583   -6.4715    5.9002 C   0  0  0  0  0  0  0  0  0  0  0  0
   -3.4726   -5.3465    5.9709 O   0  0  0  0  0  0  0  0  0  0  0  0
   -3.9044   -4.5161    5.7122 H   0  0  0  0  0  0  0  0  0  0  0  0
  2  1  1  0  0  0
  2  3  1  0  0  0
  3  4  1  0  0  0
  4  5  1  0  0  0
  5  6  1  0  0  0
  6  7  1  0  0  0
  7  8  1  0  0  0
  8  9  1  0  0  0
  9 10  2  0  0  0
 10 11  1  0  0  0
 11 12  2  0  0  0
 11 13  1  0  0  0
 13 14  1  0  0  0
 14 15  1  0  0  0
 15 16  1  0  0  0
  6 17  1  0  0  0
 17 18  1  0  0  0
 18 19  1  0  0  0
 19 20  1  0  0  0
 20 21  1  0  0  0
 17  2  1  0  0  0
 20  2  1  0  0  0
 15  5  1  0  0  0
 15  9  1  0  0  0
 21 22  1  0  0  0
M  END
> <minimizedAffinity>
-4.64218

> <CNNscore>
0.3020967841

> <CNNaffinity>
5.3930940628

> <CNN_VS>
1.6292363405

> <CNNaffinity_variance>
0.2935854495

$$$$
[H]O[C@@]1([H])C([H])([H])C([H])([H])C2([H])C3([H])C([H])([H])C([H])([H])C4=C([H])C(=O)C([H])([H])C([H])([H])[C@]4(C([H])([H])[H])C3([H])C([H])([H])C([H])([H])[C@@]21C([H])([H])[H]


 22 25  0  0  0  0  0  0  0  0999 V2000
  -12.5647   -6.8051    7.6776 C   0  0  0  0  0  0  0  0  0  0  0  0
  -11.7332   -7.8160    8.4715 C   0  0  0  0  0  0  0  0  0  0  0  0
  -10.8192   -7.0215    9.3752 C   0  0  0  0  0  0  0  0  0  0  0  0
   -9.7113   -6.4950    8.4791 C   0  0  0  0  0  0  0  0  0  0  0  0
   -8.8001   -7.7048    8.2031 C   0  0  0  0  0  0  0  0  0  0  0  0
   -9.5487   -8.9214    7.8923 C   0  0  0  0  0  0  0  0  0  0  0  0
   -8.9780   -9.8744    6.9033 C   0  0  0  0  0  0  0  0  0  0  0  0
   -7.9633   -9.3286    5.9665 C   0  0  0  0  0  0  0  0  0  0  0  0
   -7.0766   -8.3401    6.6316 C   0  0  0  0  0  0  0  0  0  0  0  0
   -5.7806   -8.5292    6.6691 C   0  0  0  0  0  0  0  0  0  0  0  0
   -4.9271   -7.5254    7.3387 C   0  0  0  0  0  0  0  0  0  0  0  0
   -3.8149   -7.8422    7.8038 O   0  0  0  0  0  0  0  0  0  0  0  0
   -5.5108   -6.1575    7.3958 C   0  0  0  0  0  0  0  0  0  0  0  0
   -6.9043   -6.2239    7.9254 C   0  0  0  0  0  0  0  0  0  0  0  0
   -7.8039   -7.1965    7.2042 C   0  0  0  0  0  0  0  0  0  0  0  0
   -8.4876   -6.4119    6.0827 C   0  0  0  0  0  0  0  0  0  0  0  0
  -11.0152   -8.6725    7.5005 C   0  0  0  0  0  0  0  0  0  0  0  0
  -11.6949  -10.0398    7.6559 C   0  0  0  0  0  0  0  0  0  0  0  0
  -13.0638   -9.7343    8.2529 C   0  0  0  0  0  0  0  0  0  0  0  0
  -12.6851   -8.6473    9.2616 C   0  0  0  0  0  0  0  0  0  0  0  0
  -13.8398   -8.0036    9.6361 O   0  0  0  0  0  0  0  0  0  0  0  0
  -13.7228   -7.2410   10.2259 H   0  0  0  0  0  0  0  0  0  0  0  0
  2  1  1  0  0  0
  2  3  1  0  0  0
  3  4  1  0  0  0
  4  5  1  0  0  0
  5  6  1  0  0  0
  6  7  1  0  0  0
  7  8  1  0  0  0
  8  9  1  0  0  0
  9 10  2  0  0  0
 10 11  1  0  0  0
 11 12  2  0  0  0
 11 13  1  0  0  0
 13 14  1  0  0  0
 14 15  1  0  0  0
 15 16  1  0  0  0
  6 17  1  0  0  0
 17 18  1  0  0  0
 18 19  1  0  0  0
 19 20  1  0  0  0
 20 21  1  0  0  0
 17  2  1  0  0  0
 20  2  1  0  0  0
 15  5  1  0  0  0
 15  9  1  0  0  0
 21 22  1  0  0  0
M  END
> <minimizedAffinity>
-7.51636

> <CNNscore>
0.2277749777

> <CNNaffinity>
5.5674166679

> <CNN_VS>
1.2681182623

> <CNNaffinity_variance>
0.1506831795

$$$$
[H]O[C@@]1([H])C([H])([H])C([H])([H])C2([H])C3([H])C([H])([H])C([H])([H])C4=C([H])C(=O)C([H])([H])C([H])([H])[C@]4(C([H])([H])[H])C3([H])C([H])([H])C([H])([H])[C@@]21C([H])([H])[H]


 22 25  0  0  0  0  0  0  0  0999 V2000
  -12.0419   -6.6693    8.2352 C   0  0  0  0  0  0  0  0  0  0  0  0
  -12.8786   -7.9270    7.9873 C   0  0  0  0  0  0  0  0  0  0  0  0
  -12.6768   -8.3121    6.5401 C   0  0  0  0  0  0  0  0  0  0  0  0
  -13.5181   -7.3372    5.7342 C   0  0  0  0  0  0  0  0  0  0  0  0
  -14.9730   -7.8058    5.9170 C   0  0  0  0  0  0  0  0  0  0  0  0
  -15.2882   -8.1559    7.3010 C   0  0  0  0  0  0  0  0  0  0  0  0
  -16.6540   -7.8674    7.8141 C   0  0  0  0  0  0  0  0  0  0  0  0
  -17.4361   -6.8427    7.0769 C   0  0  0  0  0  0  0  0  0  0  0  0
  -17.2021   -6.9211    5.6124 C   0  0  0  0  0  0  0  0  0  0  0  0
  -18.2008   -7.1269    4.7897 C   0  0  0  0  0  0  0  0  0  0  0  0
  -17.9328   -7.1991    3.3381 C   0  0  0  0  0  0  0  0  0  0  0  0
  -18.6991   -7.8230    2.5782 O   0  0  0  0  0  0  0  0  0  0  0  0
  -16.7059   -6.4797    2.8998 C   0  0  0  0  0  0  0  0  0  0  0  0
  -15.5507   -6.8829    3.7539 C   0  0  0  0  0  0  0  0  0  0  0  0
  -15.7900   -6.7479    5.2372 C   0  0  0  0  0  0  0  0  0  0  0  0
  -15.3250   -5.3443    5.6300 C   0  0  0  0  0  0  0  0  0  0  0  0
  -14.2836   -7.6102    8.3301 C   0  0  0  0  0  0  0  0  0  0  0  0
  -14.5397   -8.4374    9.5974 C   0  0  0  0  0  0  0  0  0  0  0  0
  -13.1572   -8.6989   10.1838 C   0  0  0  0  0  0  0  0  0  0  0  0
  -12.3678   -8.9852    8.9042 C   0  0  0  0  0  0  0  0  0  0  0  0
  -11.0310   -8.8899    9.2073 O   0  0  0  0  0  0  0  0  0  0  0  0
  -10.4226   -8.9831    8.4561 H   0  0  0  0  0  0  0  0  0  0  0  0
  2  1  1  0  0  0
  2  3  1  0  0  0
  3  4  1  0  0  0
  4  5  1  0  0  0
  5  6  1  0  0  0
  6  7  1  0  0  0
  7  8  1  0  0  0
  8  9  1  0  0  0
  9 10  2  0  0  0
 10 11  1  0  0  0
 11 12  2  0  0  0
 11 13  1  0  0  0
 13 14  1  0  0  0
 14 15  1  0  0  0
 15 16  1  0  0  0
  6 17  1  0  0  0
 17 18  1  0  0  0
 18 19  1  0  0  0
 19 20  1  0  0  0
 20 21  1  0  0  0
 17  2  1  0  0  0
 20  2  1  0  0  0
 15  5  1  0  0  0
 15  9  1  0  0  0
 21 22  1  0  0  0
M  END
> <minimizedAffinity>
-4.62825

> <CNNscore>
0.2271490395

> <CNNaffinity>
5.9977674484

> <CNN_VS>
1.3623870611

> <CNNaffinity_variance>
0.0792132467

$$$$
[H]O[C@@]1([H])C([H])([H])C([H])([H])C2([H])C3([H])C([H])([H])C([H])([H])C4=C([H])C(=O)C([H])([H])C([H])([H])[C@]4(C([H])([H])[H])C3([H])C([H])([H])C([H])([H])[C@@]21C([H])([H])[H]


 22 25  0  0  0  0  0  0  0  0999 V2000
   -7.2954   -8.3834    5.2395 C   0  0  0  0  0  0  0  0  0  0  0  0
   -7.2222   -8.3760    6.7686 C   0  0  0  0  0  0  0  0  0  0  0  0
   -7.8667   -9.6563    7.2467 C   0  0  0  0  0  0  0  0  0  0  0  0
   -9.3638   -9.4402    7.1065 C   0  0  0  0  0  0  0  0  0  0  0  0
   -9.7532   -8.5137    8.2726 C   0  0  0  0  0  0  0  0  0  0  0  0
   -8.8151   -7.4079    8.4582 C   0  0  0  0  0  0  0  0  0  0  0  0
   -9.3461   -6.0922    8.9042 C   0  0  0  0  0  0  0  0  0  0  0  0
  -10.7935   -5.8503    8.6770 C   0  0  0  0  0  0  0  0  0  0  0  0
  -11.5973   -7.0798    8.8954 C   0  0  0  0  0  0  0  0  0  0  0  0
  -12.5539   -7.0984    9.7905 C   0  0  0  0  0  0  0  0  0  0  0  0
  -13.3347   -8.3386    9.9821 C   0  0  0  0  0  0  0  0  0  0  0  0
  -13.9034   -8.5732   11.0663 O   0  0  0  0  0  0  0  0  0  0  0  0
  -13.3682   -9.2369    8.7960 C   0  0  0  0  0  0  0  0  0  0  0  0
  -11.9818   -9.4610    8.2917 C   0  0  0  0  0  0  0  0  0  0  0  0
  -11.1988   -8.1991    8.0275 C   0  0  0  0  0  0  0  0  0  0  0  0
  -11.4493   -7.8263    6.5649 C   0  0  0  0  0  0  0  0  0  0  0  0
   -7.9015   -7.1508    7.2478 C   0  0  0  0  0  0  0  0  0  0  0  0
   -6.7534   -6.2972    7.8036 C   0  0  0  0  0  0  0  0  0  0  0  0
   -5.5011   -6.8205    7.1097 C   0  0  0  0  0  0  0  0  0  0  0  0
   -5.7801   -8.3250    7.1414 C   0  0  0  0  0  0  0  0  0  0  0  0
   -4.9306   -8.9269    6.2446 O   0  0  0  0  0  0  0  0  0  0  0  0
   -5.0587   -9.8816    6.1210 H   0  0  0  0  0  0  0  0  0  0  0  0
  2  1  1  0  0  0
  2  3  1  0  0  0
  3  4  1  0  0  0
  4  5  1  0  0  0
  5  6  1  0  0  0
  6  7  1  0  0  0
  7  8  1  0  0  0
  8  9  1  0  0  0
  9 10  2  0  0  0
 10 11  1  0  0  0
 11 12  2  0  0  0
 11 13  1  0  0  0
 13 14  1  0  0  0
 14 15  1  0  0  0
 15 16  1  0  0  0
  6 17  1  0  0  0
 17 18  1  0  0  0
 18 19  1  0  0  0
 19 20  1  0  0  0
 20 21  1  0  0  0
 17  2  1  0  0  0
 20  2  1  0  0  0
 15  5  1  0  0  0
 15  9  1  0  0  0
 21 22  1  0  0  0
M  END
> <minimizedAffinity>
-4.20484

> <CNNscore>
0.2000736594

> <CNNaffinity>
5.4422841072

> <CNN_VS>
1.0888576508

> <CNNaffinity_variance>
0.1147796661

$$$$
[H]O[C@@]1([H])C([H])([H])C([H])([H])C2([H])C3([H])C([H])([H])C([H])([H])C4=C([H])C(=O)C([H])([H])C([H])([H])[C@]4(C([H])([H])[H])C3([H])C([H])([H])C([H])([H])[C@@]21C([H])([H])[H]


 22 25  0  0  0  0  0  0  0  0999 V2000
  -17.7705   -8.7059    4.8358 C   0  0  0  0  0  0  0  0  0  0  0  0
  -16.6858   -7.7113    4.4143 C   0  0  0  0  0  0  0  0  0  0  0  0
  -15.5765   -8.5139    3.7752 C   0  0  0  0  0  0  0  0  0  0  0  0
  -14.8278   -9.1677    4.9239 C   0  0  0  0  0  0  0  0  0  0  0  0
  -13.9893   -8.0426    5.5573 C   0  0  0  0  0  0  0  0  0  0  0  0
  -14.7373   -6.7967    5.7167 C   0  0  0  0  0  0  0  0  0  0  0  0
  -14.4555   -5.9449    6.9028 C   0  0  0  0  0  0  0  0  0  0  0  0
  -13.8088   -6.6136    8.0603 C   0  0  0  0  0  0  0  0  0  0  0  0
  -12.8088   -7.6215    7.6245 C   0  0  0  0  0  0  0  0  0  0  0  0
  -11.5574   -7.5217    7.9996 C   0  0  0  0  0  0  0  0  0  0  0  0
  -10.5884   -8.5421    7.5482 C   0  0  0  0  0  0  0  0  0  0  0  0
   -9.3727   -8.2774    7.4712 O   0  0  0  0  0  0  0  0  0  0  0  0
  -11.1914   -9.8602    7.2105 C   0  0  0  0  0  0  0  0  0  0  0  0
  -12.3472   -9.6660    6.2869 C   0  0  0  0  0  0  0  0  0  0  0  0
  -13.3776   -8.6764    6.7709 C   0  0  0  0  0  0  0  0  0  0  0  0
  -14.4124   -9.4749    7.5660 C   0  0  0  0  0  0  0  0  0  0  0  0
  -16.2633   -6.9648    5.6210 C   0  0  0  0  0  0  0  0  0  0  0  0
  -16.7940   -5.5466    5.3706 C   0  0  0  0  0  0  0  0  0  0  0  0
  -17.9237   -5.7206    4.3620 C   0  0  0  0  0  0  0  0  0  0  0  0
  -17.3043   -6.7711    3.4372 C   0  0  0  0  0  0  0  0  0  0  0  0
  -18.3160   -7.3096    2.6792 O   0  0  0  0  0  0  0  0  0  0  0  0
  -18.0593   -8.0431    2.0968 H   0  0  0  0  0  0  0  0  0  0  0  0
  2  1  1  0  0  0
  2  3  1  0  0  0
  3  4  1  0  0  0
  4  5  1  0  0  0
  5  6  1  0  0  0
  6  7  1  0  0  0
  7  8  1  0  0  0
  8  9  1  0  0  0
  9 10  2  0  0  0
 10 11  1  0  0  0
 11 12  2  0  0  0
 11 13  1  0  0  0
 13 14  1  0  0  0
 14 15  1  0  0  0
 15 16  1  0  0  0
  6 17  1  0  0  0
 17 18  1  0  0  0
 18 19  1  0  0  0
 19 20  1  0  0  0
 20 21  1  0  0  0
 17  2  1  0  0  0
 20  2  1  0  0  0
 15  5  1  0  0  0
 15  9  1  0  0  0
 21 22  1  0  0  0
M  END
> <minimizedAffinity>
-10.40558

> <CNNscore>
0.1961162984

> <CNNaffinity>
6.1166238785

> <CNN_VS>
1.1995695829

> <CNNaffinity_variance>
0.0404733829

$$$$
[H]O[C@@]1([H])C([H])([H])C([H])([H])C2([H])C3([H])C([H])([H])C([H])([H])C4([H])N([H])C(=O)C([H])=C([H])[C@]4(C([H])([H])[H])C3([H])C([H])([H])C([H])([H])[C@@]21C([H])([H])[H]


 23 26  0  0  0  0  0  0  0  0999 V2000
  -15.7345   -8.8825    4.7171 C   0  0  0  0  0  0  0  0  0  0  0  0
  -15.6348   -8.0503    5.9518 C   0  0  0  0  0  0  0  0  0  0  0  0
  -14.7190   -6.8724    5.6630 C   0  0  0  0  0  0  0  0  0  0  0  0
  -13.2809   -7.2739    5.7276 C   0  0  0  0  0  0  0  0  0  0  0  0
  -12.9045   -7.8942    7.0541 C   0  0  0  0  0  0  0  0  0  0  0  0
  -13.7570   -9.1275    7.2288 C   0  0  0  0  0  0  0  0  0  0  0  0
  -13.4603   -9.8721    8.4971 C   0  0  0  0  0  0  0  0  0  0  0  0
  -12.1520   -9.3041    9.0510 C   0  0  0  0  0  0  0  0  0  0  0  0
  -11.1450   -9.4034    7.9168 C   0  0  0  0  0  0  0  0  0  0  0  0
   -9.7977   -9.4304    8.3864 N   0  0  0  0  0  0  0  0  0  0  0  0
   -9.0604   -8.2232    8.6084 C   0  0  0  0  0  0  0  0  0  0  0  0
   -8.0236   -8.2256    9.3342 O   0  0  0  0  0  0  0  0  0  0  0  0
   -9.5673   -7.0244    7.9622 C   0  0  0  0  0  0  0  0  0  0  0  0
  -10.6478   -7.0650    7.2162 C   0  0  0  0  0  0  0  0  0  0  0  0
  -11.4437   -8.2882    6.9571 C   0  0  0  0  0  0  0  0  0  0  0  0
  -11.1067   -8.7941    5.5590 C   0  0  0  0  0  0  0  0  0  0  0  0
  -15.2112   -8.8242    7.1678 C   0  0  0  0  0  0  0  0  0  0  0  0
  -15.6878   -7.9150    8.2722 C   0  0  0  0  0  0  0  0  0  0  0  0
  -17.1414   -7.7406    7.8313 C   0  0  0  0  0  0  0  0  0  0  0  0
  -17.0136   -7.5630    6.3538 C   0  0  0  0  0  0  0  0  0  0  0  0
  -17.9585   -8.3883    5.7158 O   0  0  0  0  0  0  0  0  0  0  0  0
   -9.3436  -10.3515    8.5709 H   0  0  0  0  0  0  0  0  0  0  0  0
  -17.8141   -9.3048    6.0613 H   0  0  0  0  0  0  0  0  0  0  0  0
  2  1  1  0  0  0
  2  3  1  0  0  0
  3  4  1  0  0  0
  4  5  1  0  0  0
  5  6  1  0  0  0
  6  7  1  0  0  0
  7  8  1  0  0  0
  8  9  1  0  0  0
  9 10  1  0  0  0
 10 11  1  0  0  0
 11 12  2  0  0  0
 11 13  1  0  0  0
 13 14  2  0  0  0
 14 15  1  0  0  0
 15 16  1  0  0  0
  6 17  1  0  0  0
 17 18  1  0  0  0
 18 19  1  0  0  0
 19 20  1  0  0  0
 20 21  1  0  0  0
 17  2  1  0  0  0
 20  2  1  0  0  0
 15  5  1  0  0  0
 15  9  1  0  0  0
 10 22  1  0  0  0
 21 23  1  0  0  0
M  END
> <minimizedAffinity>
0.52731

> <CNNscore>
0.4409139752

> <CNNaffinity>
6.1912455559

> <CNN_VS>
2.7298066616

> <CNNaffinity_variance>
0.5582703352

$$$$
[H]O[C@@]1([H])C([H])([H])C([H])([H])C2([H])C3([H])C([H])([H])C([H])([H])C4([H])N([H])C(=O)C([H])=C([H])[C@]4(C([H])([H])[H])C3([H])C([H])([H])C([H])([H])[C@@]21C([H])([H])[H]


 23 26  0  0  0  0  0  0  0  0999 V2000
   -7.1581   -6.2480    7.2837 C   0  0  0  0  0  0  0  0  0  0  0  0
   -6.0311   -7.1619    7.6327 C   0  0  0  0  0  0  0  0  0  0  0  0
   -6.2396   -7.6587    9.0537 C   0  0  0  0  0  0  0  0  0  0  0  0
   -5.8165   -6.6332   10.0552 C   0  0  0  0  0  0  0  0  0  0  0  0
   -4.3796   -6.1977    9.8770 C   0  0  0  0  0  0  0  0  0  0  0  0
   -4.2618   -5.5995    8.4962 C   0  0  0  0  0  0  0  0  0  0  0  0
   -2.8852   -5.0850    8.1942 C   0  0  0  0  0  0  0  0  0  0  0  0
   -2.1233   -5.0473    9.5206 C   0  0  0  0  0  0  0  0  0  0  0  0
   -2.9903   -4.2400   10.4728 C   0  0  0  0  0  0  0  0  0  0  0  0
   -2.2360   -3.6604   11.5366 N   0  0  0  0  0  0  0  0  0  0  0  0
   -1.9918   -4.3743   12.7536 C   0  0  0  0  0  0  0  0  0  0  0  0
   -1.0600   -4.0192   13.5330 O   0  0  0  0  0  0  0  0  0  0  0  0
   -2.8617   -5.5052   13.0289 C   0  0  0  0  0  0  0  0  0  0  0  0
   -3.8179   -5.8408   12.1930 C   0  0  0  0  0  0  0  0  0  0  0  0
   -4.1091   -5.1341   10.9231 C   0  0  0  0  0  0  0  0  0  0  0  0
   -5.3345   -4.2519   11.1338 C   0  0  0  0  0  0  0  0  0  0  0  0
   -4.6741   -6.5502    7.4300 C   0  0  0  0  0  0  0  0  0  0  0  0
   -3.8085   -7.7821    7.3483 C   0  0  0  0  0  0  0  0  0  0  0  0
   -4.5747   -8.5444    6.2668 C   0  0  0  0  0  0  0  0  0  0  0  0
   -5.9983   -8.3279    6.6635 C   0  0  0  0  0  0  0  0  0  0  0  0
   -6.7334   -7.9533    5.5233 O   0  0  0  0  0  0  0  0  0  0  0  0
   -1.8558   -2.6956   11.4213 H   0  0  0  0  0  0  0  0  0  0  0  0
   -6.2658   -7.1760    5.1268 H   0  0  0  0  0  0  0  0  0  0  0  0
  2  1  1  0  0  0
  2  3  1  0  0  0
  3  4  1  0  0  0
  4  5  1  0  0  0
  5  6  1  0  0  0
  6  7  1  0  0  0
  7  8  1  0  0  0
  8  9  1  0  0  0
  9 10  1  0  0  0
 10 11  1  0  0  0
 11 12  2  0  0  0
 11 13  1  0  0  0
 13 14  2  0  0  0
 14 15  1  0  0  0
 15 16  1  0  0  0
  6 17  1  0  0  0
 17 18  1  0  0  0
 18 19  1  0  0  0
 19 20  1  0  0  0
 20 21  1  0  0  0
 17  2  1  0  0  0
 20  2  1  0  0  0
 15  5  1  0  0  0
 15  9  1  0  0  0
 10 22  1  0  0  0
 21 23  1  0  0  0
M  END
> <minimizedAffinity>
0.23923

> <CNNscore>
0.4083442688

> <CNNaffinity>
4.5690016747

> <CNN_VS>
1.8657256365

> <CNNaffinity_variance>
0.7189183831

$$$$
[H]O[C@@]1([H])C([H])([H])C([H])([H])C2([H])C3([H])C([H])([H])C([H])([H])C4([H])N([H])C(=O)C([H])=C([H])[C@]4(C([H])([H])[H])C3([H])C([H])([H])C([H])([H])[C@@]21C([H])([H])[H]


 23 26  0  0  0  0  0  0  0  0999 V2000
   -5.1074   -9.4058    7.5840 C   0  0  0  0  0  0  0  0  0  0  0  0
   -5.9131   -8.1819    7.3012 C   0  0  0  0  0  0  0  0  0  0  0  0
   -5.2971   -7.4676    6.1097 C   0  0  0  0  0  0  0  0  0  0  0  0
   -4.0964   -6.6744    6.5132 C   0  0  0  0  0  0  0  0  0  0  0  0
   -4.3958   -5.6720    7.6049 C   0  0  0  0  0  0  0  0  0  0  0  0
   -4.8847   -6.4489    8.8031 C   0  0  0  0  0  0  0  0  0  0  0  0
   -5.1860   -5.5765    9.9859 C   0  0  0  0  0  0  0  0  0  0  0  0
   -4.5880   -4.2000    9.6876 C   0  0  0  0  0  0  0  0  0  0  0  0
   -3.1290   -4.4491    9.3419 C   0  0  0  0  0  0  0  0  0  0  0  0
   -2.3145   -3.2975    9.5585 N   0  0  0  0  0  0  0  0  0  0  0  0
   -2.1332   -2.3090    8.5385 C   0  0  0  0  0  0  0  0  0  0  0  0
   -1.7148   -1.1509    8.8308 O   0  0  0  0  0  0  0  0  0  0  0  0
   -2.4531   -2.7119    7.1795 C   0  0  0  0  0  0  0  0  0  0  0  0
   -2.8850   -3.9247    6.9187 C   0  0  0  0  0  0  0  0  0  0  0  0
   -3.0883   -4.9809    7.9386 C   0  0  0  0  0  0  0  0  0  0  0  0
   -1.9197   -5.9568    7.8598 C   0  0  0  0  0  0  0  0  0  0  0  0
   -6.0775   -7.2800    8.4912 C   0  0  0  0  0  0  0  0  0  0  0  0
   -7.2864   -6.4766    8.0831 C   0  0  0  0  0  0  0  0  0  0  0  0
   -8.2357   -7.6253    7.7414 C   0  0  0  0  0  0  0  0  0  0  0  0
   -7.3479   -8.5713    7.0013 C   0  0  0  0  0  0  0  0  0  0  0  0
   -7.5500   -9.8696    7.5058 O   0  0  0  0  0  0  0  0  0  0  0  0
   -1.8425   -3.1768   10.4812 H   0  0  0  0  0  0  0  0  0  0  0  0
   -7.4156   -9.8176    8.4853 H   0  0  0  0  0  0  0  0  0  0  0  0
  2  1  1  0  0  0
  2  3  1  0  0  0
  3  4  1  0  0  0
  4  5  1  0  0  0
  5  6  1  0  0  0
  6  7  1  0  0  0
  7  8  1  0  0  0
  8  9  1  0  0  0
  9 10  1  0  0  0
 10 11  1  0  0  0
 11 12  2  0  0  0
 11 13  1  0  0  0
 13 14  2  0  0  0
 14 15  1  0  0  0
 15 16  1  0  0  0
  6 17  1  0  0  0
 17 18  1  0  0  0
 18 19  1  0  0  0
 19 20  1  0  0  0
 20 21  1  0  0  0
 17  2  1  0  0  0
 20  2  1  0  0  0
 15  5  1  0  0  0
 15  9  1  0  0  0
 10 22  1  0  0  0
 21 23  1  0  0  0
M  END
> <minimizedAffinity>
-0.70528

> <CNNscore>
0.3841139972

> <CNNaffinity>
4.6543350220

> <CNN_VS>
1.7877951860

> <CNNaffinity_variance>
0.6352912188

$$$$
[H]O[C@@]1([H])C([H])([H])C([H])([H])C2([H])C3([H])C([H])([H])C([H])([H])C4([H])N([H])C(=O)C([H])=C([H])[C@]4(C([H])([H])[H])C3([H])C([H])([H])C([H])([H])[C@@]21C([H])([H])[H]


 23 26  0  0  0  0  0  0  0  0999 V2000
   -4.3004   -5.6541    6.2887 C   0  0  0  0  0  0  0  0  0  0  0  0
   -2.8671   -5.3768    6.5986 C   0  0  0  0  0  0  0  0  0  0  0  0
   -2.4148   -6.3443    7.6797 C   0  0  0  0  0  0  0  0  0  0  0  0
   -2.8705   -5.8996    9.0318 C   0  0  0  0  0  0  0  0  0  0  0  0
   -2.4066   -4.5024    9.3766 C   0  0  0  0  0  0  0  0  0  0  0  0
   -2.9882   -3.5702    8.3417 C   0  0  0  0  0  0  0  0  0  0  0  0
   -2.6380   -2.1315    8.5838 C   0  0  0  0  0  0  0  0  0  0  0  0
   -2.0625   -2.0456    9.9989 C   0  0  0  0  0  0  0  0  0  0  0  0
   -3.0994   -2.6868   10.9067 C   0  0  0  0  0  0  0  0  0  0  0  0
   -2.9961   -2.2331   12.2558 N   0  0  0  0  0  0  0  0  0  0  0  0
   -2.1309   -2.8791   13.1963 C   0  0  0  0  0  0  0  0  0  0  0  0
   -1.7788   -2.2887   14.2589 O   0  0  0  0  0  0  0  0  0  0  0  0
   -1.6940   -4.2235   12.8597 C   0  0  0  0  0  0  0  0  0  0  0  0
   -2.0828   -4.8008   11.7457 C   0  0  0  0  0  0  0  0  0  0  0  0
   -2.9762   -4.1740   10.7427 C   0  0  0  0  0  0  0  0  0  0  0  0
   -4.3726   -4.7631   10.9077 C   0  0  0  0  0  0  0  0  0  0  0  0
   -2.5943   -3.9438    6.9576 C   0  0  0  0  0  0  0  0  0  0  0  0
   -1.1103   -3.8578    6.7054 C   0  0  0  0  0  0  0  0  0  0  0  0
   -1.0756   -4.4048    5.2781 C   0  0  0  0  0  0  0  0  0  0  0  0
   -2.0292   -5.5523    5.3467 C   0  0  0  0  0  0  0  0  0  0  0  0
   -2.8979   -5.4849    4.2413 O   0  0  0  0  0  0  0  0  0  0  0  0
   -3.5649   -1.4128   12.5596 H   0  0  0  0  0  0  0  0  0  0  0  0
   -3.2994   -4.5800    4.2505 H   0  0  0  0  0  0  0  0  0  0  0  0
  2  1  1  0  0  0
  2  3  1  0  0  0
  3  4  1  0  0  0
  4  5  1  0  0  0
  5  6  1  0  0  0
  6  7  1  0  0  0
  7  8  1  0  0  0
  8  9  1  0  0  0
  9 10  1  0  0  0
 10 11  1  0  0  0
 11 12  2  0  0  0
 11 13  1  0  0  0
 13 14  2  0  0  0
 14 15  1  0  0  0
 15 16  1  0  0  0
  6 17  1  0  0  0
 17 18  1  0  0  0
 18 19  1  0  0  0
 19 20  1  0  0  0
 20 21  1  0  0  0
 17  2  1  0  0  0
 20  2  1  0  0  0
 15  5  1  0  0  0
 15  9  1  0  0  0
 10 22  1  0  0  0
 21 23  1  0  0  0
M  END
> <minimizedAffinity>
-3.07608

> <CNNscore>
0.3289426267

> <CNNaffinity>
4.2477674484

> <CNN_VS>
1.3972717524

> <CNNaffinity_variance>
0.1480303705

$$$$
[H]O[C@@]1([H])C([H])([H])C([H])([H])C2([H])C3([H])C([H])([H])C([H])([H])C4([H])N([H])C(=O)C([H])=C([H])[C@]4(C([H])([H])[H])C3([H])C([H])([H])C([H])([H])[C@@]21C([H])([H])[H]


 23 26  0  0  0  0  0  0  0  0999 V2000
  -10.8755   -9.0885    7.4595 C   0  0  0  0  0  0  0  0  0  0  0  0
  -10.5168   -7.6939    7.8514 C   0  0  0  0  0  0  0  0  0  0  0  0
  -10.1727   -6.9159    6.5922 C   0  0  0  0  0  0  0  0  0  0  0  0
   -8.7857   -7.2213    6.1271 C   0  0  0  0  0  0  0  0  0  0  0  0
   -7.7403   -6.9569    7.1870 C   0  0  0  0  0  0  0  0  0  0  0  0
   -8.0609   -7.8472    8.3629 C   0  0  0  0  0  0  0  0  0  0  0  0
   -7.0736   -7.7167    9.4850 C   0  0  0  0  0  0  0  0  0  0  0  0
   -5.8714   -6.9478    8.9330 C   0  0  0  0  0  0  0  0  0  0  0  0
   -5.4352   -7.7013    7.6871 C   0  0  0  0  0  0  0  0  0  0  0  0
   -4.0663   -7.4654    7.3602 N   0  0  0  0  0  0  0  0  0  0  0  0
   -3.6756   -6.3638    6.5331 C   0  0  0  0  0  0  0  0  0  0  0  0
   -2.4779   -5.9550    6.5278 O   0  0  0  0  0  0  0  0  0  0  0  0
   -4.7180   -5.7603    5.7201 C   0  0  0  0  0  0  0  0  0  0  0  0
   -5.9498   -6.2152    5.7549 C   0  0  0  0  0  0  0  0  0  0  0  0
   -6.4020   -7.3508    6.5933 C   0  0  0  0  0  0  0  0  0  0  0  0
   -6.5408   -8.5805    5.7030 C   0  0  0  0  0  0  0  0  0  0  0  0
   -9.4327   -7.6191    8.8887 C   0  0  0  0  0  0  0  0  0  0  0  0
   -9.6491   -6.2312    9.4366 C   0  0  0  0  0  0  0  0  0  0  0  0
  -11.1399   -6.3293    9.7613 C   0  0  0  0  0  0  0  0  0  0  0  0
  -11.6852   -7.0474    8.5706 C   0  0  0  0  0  0  0  0  0  0  0  0
  -12.5341   -8.0787    9.0142 O   0  0  0  0  0  0  0  0  0  0  0  0
   -3.3374   -8.1118    7.7337 H   0  0  0  0  0  0  0  0  0  0  0  0
  -12.0091   -8.6238    9.6525 H   0  0  0  0  0  0  0  0  0  0  0  0
  2  1  1  0  0  0
  2  3  1  0  0  0
  3  4  1  0  0  0
  4  5  1  0  0  0
  5  6  1  0  0  0
  6  7  1  0  0  0
  7  8  1  0  0  0
  8  9  1  0  0  0
  9 10  1  0  0  0
 10 11  1  0  0  0
 11 12  2  0  0  0
 11 13  1  0  0  0
 13 14  2  0  0  0
 14 15  1  0  0  0
 15 16  1  0  0  0
  6 17  1  0  0  0
 17 18  1  0  0  0
 18 19  1  0  0  0
 19 20  1  0  0  0
 20 21  1  0  0  0
 17  2  1  0  0  0
 20  2  1  0  0  0
 15  5  1  0  0  0
 15  9  1  0  0  0
 10 22  1  0  0  0
 21 23  1  0  0  0
M  END
> <minimizedAffinity>
-3.57394

> <CNNscore>
0.2993789911

> <CNNaffinity>
5.1917686462

> <CNN_VS>
1.5543065071

> <CNNaffinity_variance>
0.1842993647

$$$$
[H]O[C@@]1([H])C([H])([H])C([H])([H])C2([H])C3([H])C([H])([H])C([H])([H])C4([H])N([H])C(=O)C([H])=C([H])[C@]4(C([H])([H])[H])C3([H])C([H])([H])C([H])([H])[C@@]21C([H])([H])[H]


 23 26  0  0  0  0  0  0  0  0999 V2000
  -12.8615  -10.3226    8.7419 C   0  0  0  0  0  0  0  0  0  0  0  0
  -12.7137   -9.3501    7.6197 C   0  0  0  0  0  0  0  0  0  0  0  0
  -11.8455   -9.9854    6.5464 C   0  0  0  0  0  0  0  0  0  0  0  0
  -10.3963   -9.9075    6.9034 C   0  0  0  0  0  0  0  0  0  0  0  0
   -9.9308   -8.4917    7.1586 C   0  0  0  0  0  0  0  0  0  0  0  0
  -10.7409   -7.9562    8.3141 C   0  0  0  0  0  0  0  0  0  0  0  0
  -10.3551   -6.5601    8.7051 C   0  0  0  0  0  0  0  0  0  0  0  0
   -9.0325   -6.2501    8.0010 C   0  0  0  0  0  0  0  0  0  0  0  0
   -8.0884   -7.3800    8.3781 C   0  0  0  0  0  0  0  0  0  0  0  0
   -6.7167   -7.0015    8.2703 N   0  0  0  0  0  0  0  0  0  0  0  0
   -5.9986   -7.1407    7.0392 C   0  0  0  0  0  0  0  0  0  0  0  0
   -4.9232   -6.5025    6.8449 O   0  0  0  0  0  0  0  0  0  0  0  0
   -6.5710   -8.0401    6.0517 C   0  0  0  0  0  0  0  0  0  0  0  0
   -7.6901   -8.6841    6.2932 C   0  0  0  0  0  0  0  0  0  0  0  0
   -8.4683   -8.5731    7.5498 C   0  0  0  0  0  0  0  0  0  0  0  0
   -8.1974   -9.8131    8.3943 C   0  0  0  0  0  0  0  0  0  0  0  0
  -12.2035   -8.0046    8.0511 C   0  0  0  0  0  0  0  0  0  0  0  0
  -12.6402   -7.1426    6.8936 C   0  0  0  0  0  0  0  0  0  0  0  0
  -14.1201   -7.5246    6.8528 C   0  0  0  0  0  0  0  0  0  0  0  0
  -14.0796   -9.0034    7.0592 C   0  0  0  0  0  0  0  0  0  0  0  0
  -15.0377   -9.3507    8.0300 O   0  0  0  0  0  0  0  0  0  0  0  0
   -6.2300   -6.6155    9.1085 H   0  0  0  0  0  0  0  0  0  0  0  0
  -14.8512   -8.7917    8.8256 H   0  0  0  0  0  0  0  0  0  0  0  0
  2  1  1  0  0  0
  2  3  1  0  0  0
  3  4  1  0  0  0
  4  5  1  0  0  0
  5  6  1  0  0  0
  6  7  1  0  0  0
  7  8  1  0  0  0
  8  9  1  0  0  0
  9 10  1  0  0  0
 10 11  1  0  0  0
 11 12  2  0  0  0
 11 13  1  0  0  0
 13 14  2  0  0  0
 14 15  1  0  0  0
 15 16  1  0  0  0
  6 17  1  0  0  0
 17 18  1  0  0  0
 18 19  1  0  0  0
 19 20  1  0  0  0
 20 21  1  0  0  0
 17  2  1  0  0  0
 20  2  1  0  0  0
 15  5  1  0  0  0
 15  9  1  0  0  0
 10 22  1  0  0  0
 21 23  1  0  0  0
M  END
> <minimizedAffinity>
-8.89002

> <CNNscore>
0.2912630439

> <CNNaffinity>
5.9676160812

> <CNN_VS>
1.7381460667

> <CNNaffinity_variance>
0.0814617127

$$$$
[H]O[C@@]1([H])C([H])([H])C([H])([H])C2([H])C3([H])C([H])([H])C([H])([H])C4([H])N([H])C(=O)C([H])=C([H])[C@]4(C([H])([H])[H])C3([H])C([H])([H])C([H])([H])[C@@]21C([H])([H])[H]


 23 26  0  0  0  0  0  0  0  0999 V2000
   -4.5200   -8.3290    6.0982 C   0  0  0  0  0  0  0  0  0  0  0  0
   -5.4111   -7.1680    6.3900 C   0  0  0  0  0  0  0  0  0  0  0  0
   -4.9362   -5.9811    5.5683 C   0  0  0  0  0  0  0  0  0  0  0  0
   -3.7503   -5.3245    6.1977 C   0  0  0  0  0  0  0  0  0  0  0  0
   -4.0107   -4.8834    7.6203 C   0  0  0  0  0  0  0  0  0  0  0  0
   -4.3553   -6.1193    8.4154 C   0  0  0  0  0  0  0  0  0  0  0  0
   -4.6030   -5.8337    9.8673 C   0  0  0  0  0  0  0  0  0  0  0  0
   -4.1069   -4.4107   10.1320 C   0  0  0  0  0  0  0  0  0  0  0  0
   -2.6706   -4.3745    9.6359 C   0  0  0  0  0  0  0  0  0  0  0  0
   -1.9038   -3.3479   10.2642 N   0  0  0  0  0  0  0  0  0  0  0  0
   -1.8619   -2.0180    9.7352 C   0  0  0  0  0  0  0  0  0  0  0  0
   -1.4833   -1.0494   10.4564 O   0  0  0  0  0  0  0  0  0  0  0  0
   -2.2722   -1.8566    8.3506 C   0  0  0  0  0  0  0  0  0  0  0  0
   -2.6586   -2.8889    7.6361 C   0  0  0  0  0  0  0  0  0  0  0  0
   -2.7189   -4.2822    8.1382 C   0  0  0  0  0  0  0  0  0  0  0  0
   -1.5102   -5.0398    7.6005 C   0  0  0  0  0  0  0  0  0  0  0  0
   -5.5235   -6.8471    7.8533 C   0  0  0  0  0  0  0  0  0  0  0  0
   -6.8037   -6.0510    7.8793 C   0  0  0  0  0  0  0  0  0  0  0  0
   -7.7153   -7.0351    7.1458 C   0  0  0  0  0  0  0  0  0  0  0  0
   -6.8429   -7.5193    6.0342 C   0  0  0  0  0  0  0  0  0  0  0  0
   -6.9321   -8.9224    5.9679 O   0  0  0  0  0  0  0  0  0  0  0  0
   -1.3636   -3.5752   11.1274 H   0  0  0  0  0  0  0  0  0  0  0  0
   -6.7193   -9.2634    6.8726 H   0  0  0  0  0  0  0  0  0  0  0  0
  2  1  1  0  0  0
  2  3  1  0  0  0
  3  4  1  0  0  0
  4  5  1  0  0  0
  5  6  1  0  0  0
  6  7  1  0  0  0
  7  8  1  0  0  0
  8  9  1  0  0  0
  9 10  1  0  0  0
 10 11  1  0  0  0
 11 12  2  0  0  0
 11 13  1  0  0  0
 13 14  2  0  0  0
 14 15  1  0  0  0
 15 16  1  0  0  0
  6 17  1  0  0  0
 17 18  1  0  0  0
 18 19  1  0  0  0
 19 20  1  0  0  0
 20 21  1  0  0  0
 17  2  1  0  0  0
 20  2  1  0  0  0
 15  5  1  0  0  0
 15  9  1  0  0  0
 10 22  1  0  0  0
 21 23  1  0  0  0
M  END
> <minimizedAffinity>
-3.67706

> <CNNscore>
0.2686452270

> <CNNaffinity>
4.3408231735

> <CNN_VS>
1.1661413908

> <CNNaffinity_variance>
0.1359968483

$$$$
[H]O[C@@]1([H])C([H])([H])C([H])([H])C2([H])C3([H])C([H])([H])C([H])([H])C4([H])N([H])C(=O)C([H])=C([H])[C@]4(C([H])([H])[H])C3([H])C([H])([H])C([H])([H])[C@@]21C([H])([H])[H]


 23 26  0  0  0  0  0  0  0  0999 V2000
   -6.6909   -7.5336    9.0906 C   0  0  0  0  0  0  0  0  0  0  0  0
   -7.1409   -7.5409    7.6678 C   0  0  0  0  0  0  0  0  0  0  0  0
   -8.0122   -6.3179    7.4345 C   0  0  0  0  0  0  0  0  0  0  0  0
   -9.3980   -6.5316    7.9517 C   0  0  0  0  0  0  0  0  0  0  0  0
  -10.0654   -7.7498    7.3544 C   0  0  0  0  0  0  0  0  0  0  0  0
   -9.2235   -8.9469    7.7239 C   0  0  0  0  0  0  0  0  0  0  0  0
   -9.7928  -10.2421    7.2247 C   0  0  0  0  0  0  0  0  0  0  0  0
  -11.2255   -9.9534    6.7717 C   0  0  0  0  0  0  0  0  0  0  0  0
  -11.9073   -9.2872    7.9556 C   0  0  0  0  0  0  0  0  0  0  0  0
  -13.3264   -9.4332    7.9189 N   0  0  0  0  0  0  0  0  0  0  0  0
  -14.1557   -8.4939    7.2260 C   0  0  0  0  0  0  0  0  0  0  0  0
  -15.3406   -8.7975    6.9011 O   0  0  0  0  0  0  0  0  0  0  0  0
  -13.5631   -7.2012    6.9271 C   0  0  0  0  0  0  0  0  0  0  0  0
  -12.3287   -6.9260    7.2821 C   0  0  0  0  0  0  0  0  0  0  0  0
  -11.4326   -7.8636    7.9996 C   0  0  0  0  0  0  0  0  0  0  0  0
  -11.3798   -7.4510    9.4663 C   0  0  0  0  0  0  0  0  0  0  0  0
   -7.8182   -8.8172    7.2562 C   0  0  0  0  0  0  0  0  0  0  0  0
   -7.6822   -8.7485    5.7561 C   0  0  0  0  0  0  0  0  0  0  0  0
   -6.1751   -8.5092    5.6608 C   0  0  0  0  0  0  0  0  0  0  0  0
   -5.9346   -7.5147    6.7489 C   0  0  0  0  0  0  0  0  0  0  0  0
   -4.8189   -7.9282    7.5008 O   0  0  0  0  0  0  0  0  0  0  0  0
  -13.7653  -10.2432    8.4088 H   0  0  0  0  0  0  0  0  0  0  0  0
   -4.9995   -8.8580    7.7888 H   0  0  0  0  0  0  0  0  0  0  0  0
  2  1  1  0  0  0
  2  3  1  0  0  0
  3  4  1  0  0  0
  4  5  1  0  0  0
  5  6  1  0  0  0
  6  7  1  0  0  0
  7  8  1  0  0  0
  8  9  1  0  0  0
  9 10  1  0  0  0
 10 11  1  0  0  0
 11 12  2  0  0  0
 11 13  1  0  0  0
 13 14  2  0  0  0
 14 15  1  0  0  0
 15 16  1  0  0  0
  6 17  1  0  0  0
 17 18  1  0  0  0
 18 19  1  0  0  0
 19 20  1  0  0  0
 20 21  1  0  0  0
 17  2  1  0  0  0
 20  2  1  0  0  0
 15  5  1  0  0  0
 15  9  1  0  0  0
 10 22  1  0  0  0
 21 23  1  0  0  0
M  END
> <minimizedAffinity>
-8.44361

> <CNNscore>
0.2621228695

> <CNNaffinity>
5.9317617416

> <CNN_VS>
1.5548504591

> <CNNaffinity_variance>
0.0898601189

$$$$
[H]O[C@@]1([H])C([H])([H])C([H])([H])C2([H])C3([H])C([H])([H])C([H])([H])C4([H])N([H])C(=O)C([H])=C([H])[C@]4(C([H])([H])[H])C3([H])C([H])([H])C([H])([H])[C@@]21C([H])([H])[H]


 23 26  0  0  0  0  0  0  0  0999 V2000
   -9.1835   -7.3978    9.3389 C   0  0  0  0  0  0  0  0  0  0  0  0
   -9.5305   -8.0523    8.0434 C   0  0  0  0  0  0  0  0  0  0  0  0
  -10.0423   -6.9857    7.0897 C   0  0  0  0  0  0  0  0  0  0  0  0
  -11.4660   -6.6356    7.3798 C   0  0  0  0  0  0  0  0  0  0  0  0
  -12.3851   -7.8354    7.3374 C   0  0  0  0  0  0  0  0  0  0  0  0
  -11.9036   -8.8047    8.3896 C   0  0  0  0  0  0  0  0  0  0  0  0
  -12.7540  -10.0368    8.4866 C   0  0  0  0  0  0  0  0  0  0  0  0
  -14.0333   -9.7581    7.6950 C   0  0  0  0  0  0  0  0  0  0  0  0
  -14.5938   -8.4621    8.2576 C   0  0  0  0  0  0  0  0  0  0  0  0
  -15.9976   -8.3347    8.0353 N   0  0  0  0  0  0  0  0  0  0  0  0
  -16.5131   -7.7501    6.8341 C   0  0  0  0  0  0  0  0  0  0  0  0
  -17.7136   -7.9472    6.4853 O   0  0  0  0  0  0  0  0  0  0  0  0
  -15.5910   -6.9358    6.0606 C   0  0  0  0  0  0  0  0  0  0  0  0
  -14.3520   -6.7562    6.4582 C   0  0  0  0  0  0  0  0  0  0  0  0
  -13.7732   -7.3394    7.6918 C   0  0  0  0  0  0  0  0  0  0  0  0
  -13.7080   -6.2484    8.7547 C   0  0  0  0  0  0  0  0  0  0  0  0
  -10.4856   -9.2031    8.1863 C   0  0  0  0  0  0  0  0  0  0  0  0
  -10.2432   -9.9447    6.8960 C   0  0  0  0  0  0  0  0  0  0  0  0
   -8.7223  -10.0788    6.9765 C   0  0  0  0  0  0  0  0  0  0  0  0
   -8.3030   -8.7322    7.4681 C   0  0  0  0  0  0  0  0  0  0  0  0
   -7.3800   -8.9011    8.5171 O   0  0  0  0  0  0  0  0  0  0  0  0
  -16.6595   -8.6762    8.7661 H   0  0  0  0  0  0  0  0  0  0  0  0
   -7.8109   -9.4957    9.1813 H   0  0  0  0  0  0  0  0  0  0  0  0
  2  1  1  0  0  0
  2  3  1  0  0  0
  3  4  1  0  0  0
  4  5  1  0  0  0
  5  6  1  0  0  0
  6  7  1  0  0  0
  7  8  1  0  0  0
  8  9  1  0  0  0
  9 10  1  0  0  0
 10 11  1  0  0  0
 11 12  2  0  0  0
 11 13  1  0  0  0
 13 14  2  0  0  0
 14 15  1  0  0  0
 15 16  1  0  0  0
  6 17  1  0  0  0
 17 18  1  0  0  0
 18 19  1  0  0  0
 19 20  1  0  0  0
 20 21  1  0  0  0
 17  2  1  0  0  0
 20  2  1  0  0  0
 15  5  1  0  0  0
 15  9  1  0  0  0
 10 22  1  0  0  0
 21 23  1  0  0  0
M  END
> <minimizedAffinity>
-6.82200

> <CNNscore>
0.2542762160

> <CNNaffinity>
6.1031908989

> <CNN_VS>
1.5518963337

> <CNNaffinity_variance>
0.1687417775

$$$$
[H]OC1([H])C([H])([H])C([H])([H])C2([H])C3([H])C([H])([H])C([H])([H])C4([H])C([H])([H])[C@@]([H])(O[H])C([H])([H])C([H])([H])[C@]4(C([H])([H])[H])C3([H])C([H])([H])C([H])([H])[C@]12C([H])([H])[H]


 23 26  0  0  0  0  0  0  0  0999 V2000
  -16.9455   -5.7789    4.5258 C   0  0  0  0  0  0  0  0  0  0  0  0
  -16.2139   -7.0498    4.8136 C   0  0  0  0  0  0  0  0  0  0  0  0
  -16.7404   -8.1851    4.0032 C   0  0  0  0  0  0  0  0  0  0  0  0
  -17.5916   -9.1502    4.8438 C   0  0  0  0  0  0  0  0  0  0  0  0
  -18.5048   -8.3368    5.7742 C   0  0  0  0  0  0  0  0  0  0  0  0
  -17.6601   -7.6496    6.7900 C   0  0  0  0  0  0  0  0  0  0  0  0
  -17.5501   -8.3488    8.1118 C   0  0  0  0  0  0  0  0  0  0  0  0
  -18.2318   -9.6854    8.1497 C   0  0  0  0  0  0  0  0  0  0  0  0
  -19.6554   -9.4194    7.7256 C   0  0  0  0  0  0  0  0  0  0  0  0
  -20.5629  -10.4936    8.1601 C   0  0  0  0  0  0  0  0  0  0  0  0
  -20.6703  -11.6744    7.2552 C   0  0  0  0  0  0  0  0  0  0  0  0
  -21.6812  -12.5133    7.7163 O   0  0  0  0  0  0  0  0  0  0  0  0
  -21.0784  -11.1448    5.8869 C   0  0  0  0  0  0  0  0  0  0  0  0
  -19.8723  -10.3351    5.3921 C   0  0  0  0  0  0  0  0  0  0  0  0
  -19.6752   -9.0887    6.2650 C   0  0  0  0  0  0  0  0  0  0  0  0
  -20.9702   -8.2812    6.0540 C   0  0  0  0  0  0  0  0  0  0  0  0
  -16.2939   -7.4844    6.2554 C   0  0  0  0  0  0  0  0  0  0  0  0
  -15.4168   -6.5025    6.9342 C   0  0  0  0  0  0  0  0  0  0  0  0
  -14.1755   -6.6290    6.0721 C   0  0  0  0  0  0  0  0  0  0  0  0
  -14.7017   -6.8652    4.6719 C   0  0  0  0  0  0  0  0  0  0  0  0
  -14.4006   -5.7298    3.9216 O   0  0  0  0  0  0  0  0  0  0  0  0
  -21.8717  -12.3429    8.6909 H   0  0  0  0  0  0  0  0  0  0  0  0
  -14.2470   -4.9456    4.5281 H   0  0  0  0  0  0  0  0  0  0  0  0
  2  1  1  0  0  0
  2  3  1  0  0  0
  3  4  1  0  0  0
  4  5  1  0  0  0
  5  6  1  0  0  0
  6  7  1  0  0  0
  7  8  1  0  0  0
  8  9  1  0  0  0
  9 10  1  0  0  0
 10 11  1  0  0  0
 11 12  1  0  0  0
 11 13  1  0  0  0
 13 14  1  0  0  0
 14 15  1  0  0  0
 15 16  1  0  0  0
  6 17  1  0  0  0
 17 18  1  0  0  0
 18 19  1  0  0  0
 19 20  1  0  0  0
 20 21  1  0  0  0
 17  2  1  0  0  0
 20  2  1  0  0  0
 15  5  1  0  0  0
 15  9  1  0  0  0
 12 22  1  0  0  0
 21 23  1  0  0  0
M  END
> <minimizedAffinity>
11.01760

> <CNNscore>
0.3635589182

> <CNNaffinity>
5.7436890602

> <CNN_VS>
2.0881693363

> <CNNaffinity_variance>
0.2276103944

$$$$
[H]OC1([H])C([H])([H])C([H])([H])C2([H])C3([H])C([H])([H])C([H])([H])C4([H])C([H])([H])[C@@]([H])(O[H])C([H])([H])C([H])([H])[C@]4(C([H])([H])[H])C3([H])C([H])([H])C([H])([H])[C@]12C([H])([H])[H]


 23 26  0  0  0  0  0  0  0  0999 V2000
  -12.6505   -9.7689    9.1076 C   0  0  0  0  0  0  0  0  0  0  0  0
  -12.6093   -8.9974    7.8283 C   0  0  0  0  0  0  0  0  0  0  0  0
  -11.8162   -9.7049    6.7828 C   0  0  0  0  0  0  0  0  0  0  0  0
  -10.4423   -9.0531    6.5588 C   0  0  0  0  0  0  0  0  0  0  0  0
   -9.8303   -8.6875    7.9202 C   0  0  0  0  0  0  0  0  0  0  0  0
  -10.6360   -7.5915    8.5262 C   0  0  0  0  0  0  0  0  0  0  0  0
  -10.0935   -6.2087    8.3227 C   0  0  0  0  0  0  0  0  0  0  0  0
   -8.8762   -6.1574    7.4461 C   0  0  0  0  0  0  0  0  0  0  0  0
   -7.8877   -7.1049    8.0804 C   0  0  0  0  0  0  0  0  0  0  0  0
   -6.5091   -6.8231    7.6489 C   0  0  0  0  0  0  0  0  0  0  0  0
   -6.0734   -7.4584    6.3716 C   0  0  0  0  0  0  0  0  0  0  0  0
   -4.7112   -7.2349    6.1912 O   0  0  0  0  0  0  0  0  0  0  0  0
   -6.2933   -8.9572    6.5281 C   0  0  0  0  0  0  0  0  0  0  0  0
   -7.8159   -9.1362    6.5972 C   0  0  0  0  0  0  0  0  0  0  0  0
   -8.3662   -8.5107    7.8858 C   0  0  0  0  0  0  0  0  0  0  0  0
   -7.6920   -9.3230    9.0079 C   0  0  0  0  0  0  0  0  0  0  0  0
  -12.0014   -7.6242    7.9656 C   0  0  0  0  0  0  0  0  0  0  0  0
  -13.0516   -6.8819    8.7006 C   0  0  0  0  0  0  0  0  0  0  0  0
  -14.2498   -7.2017    7.8276 C   0  0  0  0  0  0  0  0  0  0  0  0
  -14.0167   -8.6227    7.3594 C   0  0  0  0  0  0  0  0  0  0  0  0
  -14.9812   -9.4217    7.9712 O   0  0  0  0  0  0  0  0  0  0  0  0
   -4.4022   -6.4457    6.7361 H   0  0  0  0  0  0  0  0  0  0  0  0
  -15.3392   -8.9652    8.7896 H   0  0  0  0  0  0  0  0  0  0  0  0
  2  1  1  0  0  0
  2  3  1  0  0  0
  3  4  1  0  0  0
  4  5  1  0  0  0
  5  6  1  0  0  0
  6  7  1  0  0  0
  7  8  1  0  0  0
  8  9  1  0  0  0
  9 10  1  0  0  0
 10 11  1  0  0  0
 11 12  1  0  0  0
 11 13  1  0  0  0
 13 14  1  0  0  0
 14 15  1  0  0  0
 15 16  1  0  0  0
  6 17  1  0  0  0
 17 18  1  0  0  0
 18 19  1  0  0  0
 19 20  1  0  0  0
 20 21  1  0  0  0
 17  2  1  0  0  0
 20  2  1  0  0  0
 15  5  1  0  0  0
 15  9  1  0  0  0
 12 22  1  0  0  0
 21 23  1  0  0  0
M  END
> <minimizedAffinity>
-8.14760

> <CNNscore>
0.3622401059

> <CNNaffinity>
5.8689708710

> <CNN_VS>
2.1259765625

> <CNNaffinity_variance>
0.1210887283

$$$$
[H]OC1([H])C([H])([H])C([H])([H])C2([H])C3([H])C([H])([H])C([H])([H])C4([H])C([H])([H])[C@@]([H])(O[H])C([H])([H])C([H])([H])[C@]4(C([H])([H])[H])C3([H])C([H])([H])C([H])([H])[C@]12C([H])([H])[H]


 23 26  0  0  0  0  0  0  0  0999 V2000
  -16.5120   -6.3821    4.9554 C   0  0  0  0  0  0  0  0  0  0  0  0
  -16.2788   -7.7156    5.5884 C   0  0  0  0  0  0  0  0  0  0  0  0
  -16.7432   -7.7426    7.0049 C   0  0  0  0  0  0  0  0  0  0  0  0
  -15.5715   -7.7000    7.9989 C   0  0  0  0  0  0  0  0  0  0  0  0
  -14.5359   -6.6739    7.5132 C   0  0  0  0  0  0  0  0  0  0  0  0
  -13.9080   -7.1851    6.2634 C   0  0  0  0  0  0  0  0  0  0  0  0
  -12.5923   -7.8808    6.4448 C   0  0  0  0  0  0  0  0  0  0  0  0
  -12.1806   -8.0357    7.8799 C   0  0  0  0  0  0  0  0  0  0  0  0
  -12.2090   -6.6412    8.4557 C   0  0  0  0  0  0  0  0  0  0  0  0
  -11.3916   -6.5387    9.6754 C   0  0  0  0  0  0  0  0  0  0  0  0
  -12.0600   -6.9204   10.9530 C   0  0  0  0  0  0  0  0  0  0  0  0
  -11.2193   -6.6117   12.0188 O   0  0  0  0  0  0  0  0  0  0  0  0
  -13.3113   -6.0601   11.0692 C   0  0  0  0  0  0  0  0  0  0  0  0
  -14.2363   -6.5399    9.9425 C   0  0  0  0  0  0  0  0  0  0  0  0
  -13.6328   -6.1921    8.5754 C   0  0  0  0  0  0  0  0  0  0  0  0
  -13.5689   -4.6528    8.5806 C   0  0  0  0  0  0  0  0  0  0  0  0
  -14.8301   -8.1341    5.6085 C   0  0  0  0  0  0  0  0  0  0  0  0
  -14.5707   -8.4559    4.1861 C   0  0  0  0  0  0  0  0  0  0  0  0
  -15.7283   -9.3994    3.9218 C   0  0  0  0  0  0  0  0  0  0  0  0
  -16.8729   -8.8440    4.7430 C   0  0  0  0  0  0  0  0  0  0  0  0
  -17.8236   -8.3563    3.8480 O   0  0  0  0  0  0  0  0  0  0  0  0
  -10.2632   -6.5342   11.7104 H   0  0  0  0  0  0  0  0  0  0  0  0
  -17.3980   -8.1720    2.9585 H   0  0  0  0  0  0  0  0  0  0  0  0
  2  1  1  0  0  0
  2  3  1  0  0  0
  3  4  1  0  0  0
  4  5  1  0  0  0
  5  6  1  0  0  0
  6  7  1  0  0  0
  7  8  1  0  0  0
  8  9  1  0  0  0
  9 10  1  0  0  0
 10 11  1  0  0  0
 11 12  1  0  0  0
 11 13  1  0  0  0
 13 14  1  0  0  0
 14 15  1  0  0  0
 15 16  1  0  0  0
  6 17  1  0  0  0
 17 18  1  0  0  0
 18 19  1  0  0  0
 19 20  1  0  0  0
 20 21  1  0  0  0
 17  2  1  0  0  0
 20  2  1  0  0  0
 15  5  1  0  0  0
 15  9  1  0  0  0
 12 22  1  0  0  0
 21 23  1  0  0  0
M  END
> <minimizedAffinity>
-1.63108

> <CNNscore>
0.3385121226

> <CNNaffinity>
6.1711950302

> <CNN_VS>
2.0890243053

> <CNNaffinity_variance>
0.2642161250

$$$$
[H]OC1([H])C([H])([H])C([H])([H])C2([H])C3([H])C([H])([H])C([H])([H])C4([H])C([H])([H])[C@@]([H])(O[H])C([H])([H])C([H])([H])[C@]4(C([H])([H])[H])C3([H])C([H])([H])C([H])([H])[C@]12C([H])([H])[H]


 23 26  0  0  0  0  0  0  0  0999 V2000
   -7.5690   -7.6876    9.1683 C   0  0  0  0  0  0  0  0  0  0  0  0
   -7.9543   -7.4560    7.7431 C   0  0  0  0  0  0  0  0  0  0  0  0
   -8.9213   -6.3292    7.6092 C   0  0  0  0  0  0  0  0  0  0  0  0
  -10.3483   -6.8225    7.3214 C   0  0  0  0  0  0  0  0  0  0  0  0
  -10.6504   -8.0379    8.2119 C   0  0  0  0  0  0  0  0  0  0  0  0
   -9.7976   -9.1762    7.7704 C   0  0  0  0  0  0  0  0  0  0  0  0
  -10.4594  -10.1517    6.8439 C   0  0  0  0  0  0  0  0  0  0  0  0
  -11.8474   -9.7535    6.4342 C   0  0  0  0  0  0  0  0  0  0  0  0
  -12.5998   -9.5436    7.7253 C   0  0  0  0  0  0  0  0  0  0  0  0
  -14.0559   -9.6231    7.5263 C   0  0  0  0  0  0  0  0  0  0  0  0
  -14.7342   -8.3653    7.0990 C   0  0  0  0  0  0  0  0  0  0  0  0
  -16.1125   -8.5601    7.1178 O   0  0  0  0  0  0  0  0  0  0  0  0
  -14.3891   -7.3049    8.1361 C   0  0  0  0  0  0  0  0  0  0  0  0
  -12.8837   -7.0558    7.9725 C   0  0  0  0  0  0  0  0  0  0  0  0
  -12.0909   -8.3015    8.3896 C   0  0  0  0  0  0  0  0  0  0  0  0
  -12.4338   -8.4753    9.8815 C   0  0  0  0  0  0  0  0  0  0  0  0
   -8.6000   -8.6500    7.0860 C   0  0  0  0  0  0  0  0  0  0  0  0
   -7.4575   -9.5771    6.9147 C   0  0  0  0  0  0  0  0  0  0  0  0
   -6.4762   -8.6495    6.2242 C   0  0  0  0  0  0  0  0  0  0  0  0
   -6.7205   -7.2937    6.8529 C   0  0  0  0  0  0  0  0  0  0  0  0
   -5.5918   -6.9802    7.6081 O   0  0  0  0  0  0  0  0  0  0  0  0
  -16.3365   -9.5414    7.0718 H   0  0  0  0  0  0  0  0  0  0  0  0
   -5.0837   -7.8155    7.8329 H   0  0  0  0  0  0  0  0  0  0  0  0
  2  1  1  0  0  0
  2  3  1  0  0  0
  3  4  1  0  0  0
  4  5  1  0  0  0
  5  6  1  0  0  0
  6  7  1  0  0  0
  7  8  1  0  0  0
  8  9  1  0  0  0
  9 10  1  0  0  0
 10 11  1  0  0  0
 11 12  1  0  0  0
 11 13  1  0  0  0
 13 14  1  0  0  0
 14 15  1  0  0  0
 15 16  1  0  0  0
  6 17  1  0  0  0
 17 18  1  0  0  0
 18 19  1  0  0  0
 19 20  1  0  0  0
 20 21  1  0  0  0
 17  2  1  0  0  0
 20  2  1  0  0  0
 15  5  1  0  0  0
 15  9  1  0  0  0
 12 22  1  0  0  0
 21 23  1  0  0  0
M  END
> <minimizedAffinity>
-9.17818

> <CNNscore>
0.3347585797

> <CNNaffinity>
5.9038901329

> <CNN_VS>
1.9763778448

> <CNNaffinity_variance>
0.0795715004

$$$$
[H]OC1([H])C([H])([H])C([H])([H])C2([H])C3([H])C([H])([H])C([H])([H])C4([H])C([H])([H])[C@@]([H])(O[H])C([H])([H])C([H])([H])[C@]4(C([H])([H])[H])C3([H])C([H])([H])C([H])([H])[C@]12C([H])([H])[H]


 23 26  0  0  0  0  0  0  0  0999 V2000
   -2.7983   -7.0546    5.3125 C   0  0  0  0  0  0  0  0  0  0  0  0
   -3.2509   -6.4948    6.6221 C   0  0  0  0  0  0  0  0  0  0  0  0
   -3.4786   -7.5682    7.6316 C   0  0  0  0  0  0  0  0  0  0  0  0
   -4.9743   -7.8286    7.8719 C   0  0  0  0  0  0  0  0  0  0  0  0
   -5.7091   -7.8271    6.5222 C   0  0  0  0  0  0  0  0  0  0  0  0
   -5.6855   -6.4450    5.9680 C   0  0  0  0  0  0  0  0  0  0  0  0
   -6.9176   -5.6302    6.2244 C   0  0  0  0  0  0  0  0  0  0  0  0
   -7.9301   -6.3180    7.0931 C   0  0  0  0  0  0  0  0  0  0  0  0
   -8.2101   -7.6355    6.4129 C   0  0  0  0  0  0  0  0  0  0  0  0
   -9.4945   -8.2097    6.8452 C   0  0  0  0  0  0  0  0  0  0  0  0
   -9.4663   -9.0282    8.0918 C   0  0  0  0  0  0  0  0  0  0  0  0
  -10.7082   -9.6312    8.2710 O   0  0  0  0  0  0  0  0  0  0  0  0
   -8.4316  -10.1245    7.8752 C   0  0  0  0  0  0  0  0  0  0  0  0
   -7.0817   -9.3976    7.8102 C   0  0  0  0  0  0  0  0  0  0  0  0
   -7.0104   -8.5211    6.5529 C   0  0  0  0  0  0  0  0  0  0  0  0
   -7.1185   -9.5294    5.3930 C   0  0  0  0  0  0  0  0  0  0  0  0
   -4.5371   -5.7122    6.5371 C   0  0  0  0  0  0  0  0  0  0  0  0
   -4.1130   -4.4752    5.8414 C   0  0  0  0  0  0  0  0  0  0  0  0
   -2.9321   -4.0851    6.7095 C   0  0  0  0  0  0  0  0  0  0  0  0
   -2.3026   -5.4008    7.1167 C   0  0  0  0  0  0  0  0  0  0  0  0
   -1.0654   -5.4803    6.4797 O   0  0  0  0  0  0  0  0  0  0  0  0
  -11.4224   -9.1406    7.7569 H   0  0  0  0  0  0  0  0  0  0  0  0
   -1.0470   -4.8702    5.6836 H   0  0  0  0  0  0  0  0  0  0  0  0
  2  1  1  0  0  0
  2  3  1  0  0  0
  3  4  1  0  0  0
  4  5  1  0  0  0
  5  6  1  0  0  0
  6  7  1  0  0  0
  7  8  1  0  0  0
  8  9  1  0  0  0
  9 10  1  0  0  0
 10 11  1  0  0  0
 11 12  1  0  0  0
 11 13  1  0  0  0
 13 14  1  0  0  0
 14 15  1  0  0  0
 15 16  1  0  0  0
  6 17  1  0  0  0
 17 18  1  0  0  0
 18 19  1  0  0  0
 19 20  1  0  0  0
 20 21  1  0  0  0
 17  2  1  0  0  0
 20  2  1  0  0  0
 15  5  1  0  0  0
 15  9  1  0  0  0
 12 22  1  0  0  0
 21 23  1  0  0  0
M  END
> <minimizedAffinity>
-1.99987

> <CNNscore>
0.3297542334

> <CNNaffinity>
4.9330635071

> <CNN_VS>
1.6266986132

> <CNNaffinity_variance>
0.3097976446

$$$$
[H]OC1([H])C([H])([H])C([H])([H])C2([H])C3([H])C([H])([H])C([H])([H])C4([H])C([H])([H])[C@@]([H])(O[H])C([H])([H])C([H])([H])[C@]4(C([H])([H])[H])C3([H])C([H])([H])C([H])([H])[C@]12C([H])([H])[H]


 23 26  0  0  0  0  0  0  0  0999 V2000
  -12.3206   -7.5758    8.7835 C   0  0  0  0  0  0  0  0  0  0  0  0
  -13.6146   -6.9292    9.1587 C   0  0  0  0  0  0  0  0  0  0  0  0
  -14.7444   -7.9016    9.1348 C   0  0  0  0  0  0  0  0  0  0  0  0
  -15.6534   -7.7026    7.9114 C   0  0  0  0  0  0  0  0  0  0  0  0
  -14.7811   -7.4551    6.6707 C   0  0  0  0  0  0  0  0  0  0  0  0
  -14.1077   -6.1350    6.8170 C   0  0  0  0  0  0  0  0  0  0  0  0
  -14.7809   -4.9909    6.1200 C   0  0  0  0  0  0  0  0  0  0  0  0
  -16.0862   -5.3564    5.4756 C   0  0  0  0  0  0  0  0  0  0  0  0
  -15.7697   -6.5155    4.5627 C   0  0  0  0  0  0  0  0  0  0  0  0
  -16.7942   -6.6828    3.5193 C   0  0  0  0  0  0  0  0  0  0  0  0
  -17.9895   -7.4939    3.8909 C   0  0  0  0  0  0  0  0  0  0  0  0
  -18.7741   -7.6970    2.7589 O   0  0  0  0  0  0  0  0  0  0  0  0
  -17.4740   -8.8473    4.3618 C   0  0  0  0  0  0  0  0  0  0  0  0
  -16.7276   -8.5608    5.6717 C   0  0  0  0  0  0  0  0  0  0  0  0
  -15.4714   -7.7243    5.3951 C   0  0  0  0  0  0  0  0  0  0  0  0
  -14.6146   -8.6319    4.4920 C   0  0  0  0  0  0  0  0  0  0  0  0
  -14.0127   -5.7933    8.2501 C   0  0  0  0  0  0  0  0  0  0  0  0
  -13.0540   -4.7298    8.6292 C   0  0  0  0  0  0  0  0  0  0  0  0
  -13.2524   -4.7301   10.1328 C   0  0  0  0  0  0  0  0  0  0  0  0
  -13.4976   -6.1815   10.4884 C   0  0  0  0  0  0  0  0  0  0  0  0
  -12.3932   -6.6193   11.2174 O   0  0  0  0  0  0  0  0  0  0  0  0
  -18.5738   -7.0044    2.0551 H   0  0  0  0  0  0  0  0  0  0  0  0
  -11.6028   -6.0291   11.0349 H   0  0  0  0  0  0  0  0  0  0  0  0
  2  1  1  0  0  0
  2  3  1  0  0  0
  3  4  1  0  0  0
  4  5  1  0  0  0
  5  6  1  0  0  0
  6  7  1  0  0  0
  7  8  1  0  0  0
  8  9  1  0  0  0
  9 10  1  0  0  0
 10 11  1  0  0  0
 11 12  1  0  0  0
 11 13  1  0  0  0
 13 14  1  0  0  0
 14 15  1  0  0  0
 15 16  1  0  0  0
  6 17  1  0  0  0
 17 18  1  0  0  0
 18 19  1  0  0  0
 19 20  1  0  0  0
 20 21  1  0  0  0
 17  2  1  0  0  0
 20  2  1  0  0  0
 15  5  1  0  0  0
 15  9  1  0  0  0
 12 22  1  0  0  0
 21 23  1  0  0  0
M  END
> <minimizedAffinity>
-1.46720

> <CNNscore>
0.3011435568

> <CNNaffinity>
6.0365381241

> <CNN_VS>
1.8178645372

> <CNNaffinity_variance>
0.0815904886

$$$$
[H]OC1([H])C([H])([H])C([H])([H])C2([H])C3([H])C([H])([H])C([H])([H])C4([H])C([H])([H])[C@@]([H])(O[H])C([H])([H])C([H])([H])[C@]4(C([H])([H])[H])C3([H])C([H])([H])C([H])([H])[C@]12C([H])([H])[H]


 23 26  0  0  0  0  0  0  0  0999 V2000
   -5.1934   -5.7591    6.2342 C   0  0  0  0  0  0  0  0  0  0  0  0
   -5.0596   -6.8317    7.2662 C   0  0  0  0  0  0  0  0  0  0  0  0
   -5.7916   -6.4867    8.5184 C   0  0  0  0  0  0  0  0  0  0  0  0
   -4.8384   -6.0683    9.6493 C   0  0  0  0  0  0  0  0  0  0  0  0
   -3.7502   -5.1471    9.0759 C   0  0  0  0  0  0  0  0  0  0  0  0
   -2.8789   -5.9451    8.1695 C   0  0  0  0  0  0  0  0  0  0  0  0
   -1.6094   -6.4537    8.7840 C   0  0  0  0  0  0  0  0  0  0  0  0
   -1.4833   -6.1566   10.2498 C   0  0  0  0  0  0  0  0  0  0  0  0
   -1.6541   -4.6621   10.3701 C   0  0  0  0  0  0  0  0  0  0  0  0
   -1.0936   -4.1495   11.6307 C   0  0  0  0  0  0  0  0  0  0  0  0
   -1.9907   -4.1989   12.8213 C   0  0  0  0  0  0  0  0  0  0  0  0
   -1.3817   -3.5318   13.8807 O   0  0  0  0  0  0  0  0  0  0  0  0
   -3.2589   -3.4426   12.4485 C   0  0  0  0  0  0  0  0  0  0  0  0
   -3.9349   -4.2972   11.3678 C   0  0  0  0  0  0  0  0  0  0  0  0
   -3.0831   -4.3108   10.0917 C   0  0  0  0  0  0  0  0  0  0  0  0
   -3.0549   -2.8350    9.6505 C   0  0  0  0  0  0  0  0  0  0  0  0
   -3.6342   -7.1116    7.6711 C   0  0  0  0  0  0  0  0  0  0  0  0
   -3.0946   -7.8075    6.4800 C   0  0  0  0  0  0  0  0  0  0  0  0
   -4.1573   -8.8750    6.3036 C   0  0  0  0  0  0  0  0  0  0  0  0
   -5.4522   -8.1985    6.7018 C   0  0  0  0  0  0  0  0  0  0  0  0
   -6.2197   -8.0650    5.5460 O   0  0  0  0  0  0  0  0  0  0  0  0
   -0.3857   -3.4715   13.7412 H   0  0  0  0  0  0  0  0  0  0  0  0
   -5.6323   -8.1114    4.7341 H   0  0  0  0  0  0  0  0  0  0  0  0
  2  1  1  0  0  0
  2  3  1  0  0  0
  3  4  1  0  0  0
  4  5  1  0  0  0
  5  6  1  0  0  0
  6  7  1  0  0  0
  7  8  1  0  0  0
  8  9  1  0  0  0
  9 10  1  0  0  0
 10 11  1  0  0  0
 11 12  1  0  0  0
 11 13  1  0  0  0
 13 14  1  0  0  0
 14 15  1  0  0  0
 15 16  1  0  0  0
  6 17  1  0  0  0
 17 18  1  0  0  0
 18 19  1  0  0  0
 19 20  1  0  0  0
 20 21  1  0  0  0
 17  2  1  0  0  0
 20  2  1  0  0  0
 15  5  1  0  0  0
 15  9  1  0  0  0
 12 22  1  0  0  0
 21 23  1  0  0  0
M  END
> <minimizedAffinity>
-3.45080

> <CNNscore>
0.2781464159

> <CNNaffinity>
4.3192667961

> <CNN_VS>
1.2013885975

> <CNNaffinity_variance>
0.2187145948

$$$$
[H]OC1([H])C([H])([H])C([H])([H])C2([H])C3([H])C([H])([H])C([H])([H])C4([H])C([H])([H])[C@@]([H])(O[H])C([H])([H])C([H])([H])[C@]4(C([H])([H])[H])C3([H])C([H])([H])C([H])([H])[C@]12C([H])([H])[H]


 23 26  0  0  0  0  0  0  0  0999 V2000
  -12.5935   -6.9744    7.2336 C   0  0  0  0  0  0  0  0  0  0  0  0
  -11.9578   -7.5199    8.4712 C   0  0  0  0  0  0  0  0  0  0  0  0
  -11.0325   -6.5326    9.0972 C   0  0  0  0  0  0  0  0  0  0  0  0
   -9.5568   -6.8936    8.8635 C   0  0  0  0  0  0  0  0  0  0  0  0
   -9.3750   -7.3535    7.4086 C   0  0  0  0  0  0  0  0  0  0  0  0
  -10.0796   -8.6529    7.2276 C   0  0  0  0  0  0  0  0  0  0  0  0
   -9.2141   -9.8723    7.3359 C   0  0  0  0  0  0  0  0  0  0  0  0
   -7.7924   -9.5756    7.7150 C   0  0  0  0  0  0  0  0  0  0  0  0
   -7.3057   -8.5805    6.6902 C   0  0  0  0  0  0  0  0  0  0  0  0
   -5.8360   -8.5489    6.6168 C   0  0  0  0  0  0  0  0  0  0  0  0
   -5.1447   -7.6580    7.5931 C   0  0  0  0  0  0  0  0  0  0  0  0
   -3.7872   -7.6112    7.2875 O   0  0  0  0  0  0  0  0  0  0  0  0
   -5.7239   -6.2625    7.4024 C   0  0  0  0  0  0  0  0  0  0  0  0
   -7.1812   -6.3632    7.8729 C   0  0  0  0  0  0  0  0  0  0  0  0
   -7.9835   -7.2661    6.9267 C   0  0  0  0  0  0  0  0  0  0  0  0
   -7.9197   -6.5326    5.5735 C   0  0  0  0  0  0  0  0  0  0  0  0
  -11.1491   -8.7713    8.2385 C   0  0  0  0  0  0  0  0  0  0  0  0
  -12.1979   -9.7890    7.9967 C   0  0  0  0  0  0  0  0  0  0  0  0
  -13.0713   -9.5509    9.2135 C   0  0  0  0  0  0  0  0  0  0  0  0
  -13.0082   -8.0559    9.4459 C   0  0  0  0  0  0  0  0  0  0  0  0
  -14.2712   -7.5407    9.1593 O   0  0  0  0  0  0  0  0  0  0  0  0
   -3.5163   -8.4094    6.7356 H   0  0  0  0  0  0  0  0  0  0  0  0
  -14.7758   -8.1733    8.5663 H   0  0  0  0  0  0  0  0  0  0  0  0
  2  1  1  0  0  0
  2  3  1  0  0  0
  3  4  1  0  0  0
  4  5  1  0  0  0
  5  6  1  0  0  0
  6  7  1  0  0  0
  7  8  1  0  0  0
  8  9  1  0  0  0
  9 10  1  0  0  0
 10 11  1  0  0  0
 11 12  1  0  0  0
 11 13  1  0  0  0
 13 14  1  0  0  0
 14 15  1  0  0  0
 15 16  1  0  0  0
  6 17  1  0  0  0
 17 18  1  0  0  0
 18 19  1  0  0  0
 19 20  1  0  0  0
 20 21  1  0  0  0
 17  2  1  0  0  0
 20  2  1  0  0  0
 15  5  1  0  0  0
 15  9  1  0  0  0
 12 22  1  0  0  0
 21 23  1  0  0  0
M  END
> <minimizedAffinity>
-8.89427

> <CNNscore>
0.2770995200

> <CNNaffinity>
5.6603655815

> <CNN_VS>
1.5684845448

> <CNNaffinity_variance>
0.1435365379

$$$$
[H]OC1([H])C([H])([H])C([H])([H])C2([H])C3([H])C([H])([H])C([H])([H])C4([H])C([H])([H])[C@@]([H])(O[H])C([H])([H])C([H])([H])[C@]4(C([H])([H])[H])C3([H])C([H])([H])C([H])([H])[C@]12C([H])([H])[H]


 23 26  0  0  0  0  0  0  0  0999 V2000
   -3.6340   -3.8171    3.8149 C   0  0  0  0  0  0  0  0  0  0  0  0
   -2.7808   -4.6072    4.7536 C   0  0  0  0  0  0  0  0  0  0  0  0
   -2.8029   -6.0618    4.4275 C   0  0  0  0  0  0  0  0  0  0  0  0
   -3.6529   -6.8655    5.4247 C   0  0  0  0  0  0  0  0  0  0  0  0
   -4.9455   -6.0903    5.7241 C   0  0  0  0  0  0  0  0  0  0  0  0
   -4.5972   -4.8580    6.4843 C   0  0  0  0  0  0  0  0  0  0  0  0
   -4.7465   -4.9590    7.9727 C   0  0  0  0  0  0  0  0  0  0  0  0
   -5.1250   -6.3297    8.4530 C   0  0  0  0  0  0  0  0  0  0  0  0
   -6.3813   -6.6848    7.6962 C   0  0  0  0  0  0  0  0  0  0  0  0
   -7.1413   -7.7493    8.3711 C   0  0  0  0  0  0  0  0  0  0  0  0
   -6.7350   -9.1504    8.0601 C   0  0  0  0  0  0  0  0  0  0  0  0
   -7.6467  -10.0297    8.6378 O   0  0  0  0  0  0  0  0  0  0  0  0
   -6.8159   -9.3067    6.5474 C   0  0  0  0  0  0  0  0  0  0  0  0
   -5.7062   -8.4056    5.9891 C   0  0  0  0  0  0  0  0  0  0  0  0
   -6.0324   -6.9311    6.2607 C   0  0  0  0  0  0  0  0  0  0  0  0
   -7.3409   -6.6929    5.4832 C   0  0  0  0  0  0  0  0  0  0  0  0
   -3.1964   -4.4896    6.1985 C   0  0  0  0  0  0  0  0  0  0  0  0
   -2.7770   -3.1108    6.5403 C   0  0  0  0  0  0  0  0  0  0  0  0
   -1.3368   -3.1564    6.0673 C   0  0  0  0  0  0  0  0  0  0  0  0
   -1.3644   -4.0342    4.8338 C   0  0  0  0  0  0  0  0  0  0  0  0
   -1.0890   -3.2160    3.7395 O   0  0  0  0  0  0  0  0  0  0  0  0
   -8.1484   -9.5835    9.3890 H   0  0  0  0  0  0  0  0  0  0  0  0
   -1.2836   -2.2585    3.9665 H   0  0  0  0  0  0  0  0  0  0  0  0
  2  1  1  0  0  0
  2  3  1  0  0  0
  3  4  1  0  0  0
  4  5  1  0  0  0
  5  6  1  0  0  0
  6  7  1  0  0  0
  7  8  1  0  0  0
  8  9  1  0  0  0
  9 10  1  0  0  0
 10 11  1  0  0  0
 11 12  1  0  0  0
 11 13  1  0  0  0
 13 14  1  0  0  0
 14 15  1  0  0  0
 15 16  1  0  0  0
  6 17  1  0  0  0
 17 18  1  0  0  0
 18 19  1  0  0  0
 19 20  1  0  0  0
 20 21  1  0  0  0
 17  2  1  0  0  0
 20  2  1  0  0  0
 15  5  1  0  0  0
 15  9  1  0  0  0
 12 22  1  0  0  0
 21 23  1  0  0  0
M  END
> <minimizedAffinity>
-3.30909

> <CNNscore>
0.2693336904

> <CNNaffinity>
4.6118659973

> <CNN_VS>
1.2421308756

> <CNNaffinity_variance>
0.3333926499

$$$$
[H]Oc1c([H])c([H])c2c(c1[H])C([H])([H])C([H])([H])[C@]1([H])[C@]2([H])C([H])([H])C([H])([H])[C@]2(C([H])([H])[H])C(=O)C([H])([H])C([H])([H])[C@]21[H]


 21 24  0  0  0  0  0  0  0  0999 V2000
  -15.5358   -8.5384    7.9023 C   0  0  0  0  0  0  0  0  0  0  0  0
  -14.2621   -8.3738    7.1270 C   0  0  0  0  0  0  0  0  0  0  0  0
  -13.1334   -9.0923    7.7657 C   0  0  0  0  0  0  0  0  0  0  0  0
  -12.8390   -8.5318    9.1174 C   0  0  0  0  0  0  0  0  0  0  0  0
  -12.5803   -7.0576    9.0536 C   0  0  0  0  0  0  0  0  0  0  0  0
  -13.7769   -6.3618    8.3892 C   0  0  0  0  0  0  0  0  0  0  0  0
  -13.6167   -4.8846    8.4974 C   0  0  0  0  0  0  0  0  0  0  0  0
  -13.8170   -4.5145    9.9648 C   0  0  0  0  0  0  0  0  0  0  0  0
  -12.8267   -5.2747   10.7698 C   0  0  0  0  0  0  0  0  0  0  0  0
  -12.4835   -4.7472   12.0001 C   0  0  0  0  0  0  0  0  0  0  0  0
  -11.5709   -5.3691   12.8364 C   0  0  0  0  0  0  0  0  0  0  0  0
  -11.2239   -4.8410   14.0739 O   0  0  0  0  0  0  0  0  0  0  0  0
  -10.9958   -6.5501   12.4144 C   0  0  0  0  0  0  0  0  0  0  0  0
  -11.3468   -7.0774   11.1711 C   0  0  0  0  0  0  0  0  0  0  0  0
  -12.2549   -6.4550   10.3430 C   0  0  0  0  0  0  0  0  0  0  0  0
  -13.8546   -6.8980    7.0105 C   0  0  0  0  0  0  0  0  0  0  0  0
  -14.9219   -6.3533    6.1462 C   0  0  0  0  0  0  0  0  0  0  0  0
  -15.1610   -7.4684    5.1369 C   0  0  0  0  0  0  0  0  0  0  0  0
  -14.5132   -8.6927    5.7233 C   0  0  0  0  0  0  0  0  0  0  0  0
  -14.2970   -9.6808    5.0595 O   0  0  0  0  0  0  0  0  0  0  0  0
  -10.4234   -4.1922   14.0830 H   0  0  0  0  0  0  0  0  0  0  0  0
  2  1  1  0  0  0
  2  3  1  0  0  0
  3  4  1  0  0  0
  4  5  1  0  0  0
  5  6  1  0  0  0
  6  7  1  0  0  0
  7  8  1  0  0  0
  8  9  1  0  0  0
  9 10  2  0  0  0
 10 11  1  0  0  0
 11 12  1  0  0  0
 11 13  2  0  0  0
 13 14  1  0  0  0
 14 15  2  0  0  0
  6 16  1  0  0  0
 16 17  1  0  0  0
 17 18  1  0  0  0
 18 19  1  0  0  0
 19 20  2  0  0  0
 16  2  1  0  0  0
 19  2  1  0  0  0
 15  5  1  0  0  0
 15  9  1  0  0  0
 12 21  1  0  0  0
M  END
> <minimizedAffinity>
5.32056

> <CNNscore>
0.5383629203

> <CNNaffinity>
5.9736504555

> <CNN_VS>
3.2159919739

> <CNNaffinity_variance>
0.6363370419

$$$$
[H]Oc1c([H])c([H])c2c(c1[H])C([H])([H])C([H])([H])[C@]1([H])[C@]2([H])C([H])([H])C([H])([H])[C@]2(C([H])([H])[H])C(=O)C([H])([H])C([H])([H])[C@]21[H]


 21 24  0  0  0  0  0  0  0  0999 V2000
   -4.5257   -6.1623    6.2433 C   0  0  0  0  0  0  0  0  0  0  0  0
   -3.3647   -5.2144    6.1812 C   0  0  0  0  0  0  0  0  0  0  0  0
   -2.0759   -5.9078    6.4194 C   0  0  0  0  0  0  0  0  0  0  0  0
   -2.0277   -6.4896    7.7931 C   0  0  0  0  0  0  0  0  0  0  0  0
   -2.2872   -5.4477    8.8378 C   0  0  0  0  0  0  0  0  0  0  0  0
   -3.6311   -4.7641    8.5483 C   0  0  0  0  0  0  0  0  0  0  0  0
   -3.9888   -3.8684    9.6838 C   0  0  0  0  0  0  0  0  0  0  0  0
   -4.3432   -4.7618   10.8698 C   0  0  0  0  0  0  0  0  0  0  0  0
   -3.1748   -5.6342   11.1534 C   0  0  0  0  0  0  0  0  0  0  0  0
   -3.0662   -6.1369   12.4360 C   0  0  0  0  0  0  0  0  0  0  0  0
   -2.0188   -6.9606   12.8150 C   0  0  0  0  0  0  0  0  0  0  0  0
   -1.9070   -7.4674   14.1040 O   0  0  0  0  0  0  0  0  0  0  0  0
   -1.0633   -7.2799   11.8724 C   0  0  0  0  0  0  0  0  0  0  0  0
   -1.1790   -6.7690   10.5791 C   0  0  0  0  0  0  0  0  0  0  0  0
   -2.2225   -5.9501   10.2071 C   0  0  0  0  0  0  0  0  0  0  0  0
   -3.4834   -4.1010    7.2319 C   0  0  0  0  0  0  0  0  0  0  0  0
   -4.6490   -3.3384    6.7390 C   0  0  0  0  0  0  0  0  0  0  0  0
   -4.4648   -3.3522    5.2273 C   0  0  0  0  0  0  0  0  0  0  0  0
   -3.4534   -4.4308    4.9511 C   0  0  0  0  0  0  0  0  0  0  0  0
   -2.8945   -4.5235    3.8822 O   0  0  0  0  0  0  0  0  0  0  0  0
   -1.3772   -6.8917   14.7745 H   0  0  0  0  0  0  0  0  0  0  0  0
  2  1  1  0  0  0
  2  3  1  0  0  0
  3  4  1  0  0  0
  4  5  1  0  0  0
  5  6  1  0  0  0
  6  7  1  0  0  0
  7  8  1  0  0  0
  8  9  1  0  0  0
  9 10  2  0  0  0
 10 11  1  0  0  0
 11 12  1  0  0  0
 11 13  2  0  0  0
 13 14  1  0  0  0
 14 15  2  0  0  0
  6 16  1  0  0  0
 16 17  1  0  0  0
 17 18  1  0  0  0
 18 19  1  0  0  0
 19 20  2  0  0  0
 16  2  1  0  0  0
 19  2  1  0  0  0
 15  5  1  0  0  0
 15  9  1  0  0  0
 12 21  1  0  0  0
M  END
> <minimizedAffinity>
0.95793

> <CNNscore>
0.4492304623

> <CNNaffinity>
4.3854169846

> <CNN_VS>
1.9700628519

> <CNNaffinity_variance>
0.6894210577

$$$$
[H]Oc1c([H])c([H])c2c(c1[H])C([H])([H])C([H])([H])[C@]1([H])[C@]2([H])C([H])([H])C([H])([H])[C@]2(C([H])([H])[H])C(=O)C([H])([H])C([H])([H])[C@]21[H]


 21 24  0  0  0  0  0  0  0  0999 V2000
  -16.5181   -8.5383    7.4620 C   0  0  0  0  0  0  0  0  0  0  0  0
  -17.6025   -8.3838    6.4371 C   0  0  0  0  0  0  0  0  0  0  0  0
  -17.2378   -9.0241    5.1504 C   0  0  0  0  0  0  0  0  0  0  0  0
  -16.0395   -8.3690    4.5480 C   0  0  0  0  0  0  0  0  0  0  0  0
  -16.2470   -6.8946    4.3834 C   0  0  0  0  0  0  0  0  0  0  0  0
  -16.6179   -6.2807    5.7410 C   0  0  0  0  0  0  0  0  0  0  0  0
  -16.6343   -4.7954    5.6279 C   0  0  0  0  0  0  0  0  0  0  0  0
  -15.1868   -4.3385    5.4648 C   0  0  0  0  0  0  0  0  0  0  0  0
  -14.6239   -5.0140    4.2676 C   0  0  0  0  0  0  0  0  0  0  0  0
  -13.5535   -4.3982    3.6473 C   0  0  0  0  0  0  0  0  0  0  0  0
  -12.9478   -4.9362    2.5236 C   0  0  0  0  0  0  0  0  0  0  0  0
  -11.8714   -4.3191    1.8979 O   0  0  0  0  0  0  0  0  0  0  0  0
  -13.4391   -6.1231    2.0204 C   0  0  0  0  0  0  0  0  0  0  0  0
  -14.5201   -6.7398    2.6515 C   0  0  0  0  0  0  0  0  0  0  0  0
  -15.1191   -6.2007    3.7688 C   0  0  0  0  0  0  0  0  0  0  0  0
  -17.8993   -6.9064    6.1422 C   0  0  0  0  0  0  0  0  0  0  0  0
  -18.4880   -6.4521    7.4189 C   0  0  0  0  0  0  0  0  0  0  0  0
  -19.3403   -7.6365    7.8547 C   0  0  0  0  0  0  0  0  0  0  0  0
  -18.8751   -8.7998    7.0223 C   0  0  0  0  0  0  0  0  0  0  0  0
  -19.5179   -9.8211    6.9364 O   0  0  0  0  0  0  0  0  0  0  0  0
  -12.1034   -3.6463    1.1528 H   0  0  0  0  0  0  0  0  0  0  0  0
  2  1  1  0  0  0
  2  3  1  0  0  0
  3  4  1  0  0  0
  4  5  1  0  0  0
  5  6  1  0  0  0
  6  7  1  0  0  0
  7  8  1  0  0  0
  8  9  1  0  0  0
  9 10  2  0  0  0
 10 11  1  0  0  0
 11 12  1  0  0  0
 11 13  2  0  0  0
 13 14  1  0  0  0
 14 15  2  0  0  0
  6 16  1  0  0  0
 16 17  1  0  0  0
 17 18  1  0  0  0
 18 19  1  0  0  0
 19 20  2  0  0  0
 16  2  1  0  0  0
 19  2  1  0  0  0
 15  5  1  0  0  0
 15  9  1  0  0  0
 12 21  1  0  0  0
M  END
> <minimizedAffinity>
23.94347

> <CNNscore>
0.3534376025

> <CNNaffinity>
5.7590117455

> <CNN_VS>
2.0354514122

> <CNNaffinity_variance>
1.0997860432

$$$$
[H]Oc1c([H])c([H])c2c(c1[H])C([H])([H])C([H])([H])[C@]1([H])[C@]2([H])C([H])([H])C([H])([H])[C@]2(C([H])([H])[H])C(=O)C([H])([H])C([H])([H])[C@]21[H]


 21 24  0  0  0  0  0  0  0  0999 V2000
  -11.0195   -9.4050    5.7049 C   0  0  0  0  0  0  0  0  0  0  0  0
  -10.5284  -10.1433    6.9149 C   0  0  0  0  0  0  0  0  0  0  0  0
  -11.6409  -10.5117    7.8230 C   0  0  0  0  0  0  0  0  0  0  0  0
  -12.3178   -9.2947    8.3604 C   0  0  0  0  0  0  0  0  0  0  0  0
  -11.3428   -8.3801    9.0363 C   0  0  0  0  0  0  0  0  0  0  0  0
  -10.2159   -8.0269    8.0552 C   0  0  0  0  0  0  0  0  0  0  0  0
   -9.3514   -6.9693    8.6498 C   0  0  0  0  0  0  0  0  0  0  0  0
  -10.1649   -5.6776    8.6674 C   0  0  0  0  0  0  0  0  0  0  0  0
  -11.4072   -5.9275    9.4425 C   0  0  0  0  0  0  0  0  0  0  0  0
  -12.0232   -4.8275   10.0084 C   0  0  0  0  0  0  0  0  0  0  0  0
  -13.1864   -4.9398   10.7523 C   0  0  0  0  0  0  0  0  0  0  0  0
  -13.8080   -3.8355   11.3226 O   0  0  0  0  0  0  0  0  0  0  0  0
  -13.7345   -6.1942   10.9245 C   0  0  0  0  0  0  0  0  0  0  0  0
  -13.1075   -7.3006   10.3503 C   0  0  0  0  0  0  0  0  0  0  0  0
  -11.9507   -7.1837    9.6114 C   0  0  0  0  0  0  0  0  0  0  0  0
   -9.5354   -9.3018    7.7297 C   0  0  0  0  0  0  0  0  0  0  0  0
   -8.3790   -9.2213    6.8137 C   0  0  0  0  0  0  0  0  0  0  0  0
   -8.3274  -10.6094    6.1892 C   0  0  0  0  0  0  0  0  0  0  0  0
   -9.6610  -11.2384    6.4864 C   0  0  0  0  0  0  0  0  0  0  0  0
   -9.8498  -12.4263    6.3567 O   0  0  0  0  0  0  0  0  0  0  0  0
  -13.5091   -3.5882   12.2772 H   0  0  0  0  0  0  0  0  0  0  0  0
  2  1  1  0  0  0
  2  3  1  0  0  0
  3  4  1  0  0  0
  4  5  1  0  0  0
  5  6  1  0  0  0
  6  7  1  0  0  0
  7  8  1  0  0  0
  8  9  1  0  0  0
  9 10  2  0  0  0
 10 11  1  0  0  0
 11 12  1  0  0  0
 11 13  2  0  0  0
 13 14  1  0  0  0
 14 15  2  0  0  0
  6 16  1  0  0  0
 16 17  1  0  0  0
 17 18  1  0  0  0
 18 19  1  0  0  0
 19 20  2  0  0  0
 16  2  1  0  0  0
 19  2  1  0  0  0
 15  5  1  0  0  0
 15  9  1  0  0  0
 12 21  1  0  0  0
M  END
> <minimizedAffinity>
3.51762

> <CNNscore>
0.3500367999

> <CNNaffinity>
5.4400835037

> <CNN_VS>
1.9042294025

> <CNNaffinity_variance>
0.4807961881

$$$$
[H]Oc1c([H])c([H])c2c(c1[H])C([H])([H])C([H])([H])[C@]1([H])[C@]2([H])C([H])([H])C([H])([H])[C@]2(C([H])([H])[H])C(=O)C([H])([H])C([H])([H])[C@]21[H]


 21 24  0  0  0  0  0  0  0  0999 V2000
   -6.9544   -6.8524    5.7474 C   0  0  0  0  0  0  0  0  0  0  0  0
   -6.6050   -7.9102    6.7520 C   0  0  0  0  0  0  0  0  0  0  0  0
   -7.0894   -9.2474    6.3331 C   0  0  0  0  0  0  0  0  0  0  0  0
   -8.5793   -9.2732    6.2461 C   0  0  0  0  0  0  0  0  0  0  0  0
   -9.2100   -8.8445    7.5355 C   0  0  0  0  0  0  0  0  0  0  0  0
   -8.6793   -7.4566    7.9220 C   0  0  0  0  0  0  0  0  0  0  0  0
   -9.4422   -6.9401    9.0927 C   0  0  0  0  0  0  0  0  0  0  0  0
  -10.8504   -6.6099    8.6045 C   0  0  0  0  0  0  0  0  0  0  0  0
  -11.4347   -7.8435    8.0185 C   0  0  0  0  0  0  0  0  0  0  0  0
  -12.8136   -7.9266    7.9828 C   0  0  0  0  0  0  0  0  0  0  0  0
  -13.4690   -9.0293    7.4596 C   0  0  0  0  0  0  0  0  0  0  0  0
  -14.8554   -9.1155    7.4224 O   0  0  0  0  0  0  0  0  0  0  0  0
  -12.7085  -10.0677    6.9628 C   0  0  0  0  0  0  0  0  0  0  0  0
  -11.3166   -9.9774    7.0019 C   0  0  0  0  0  0  0  0  0  0  0  0
  -10.6695   -8.8787    7.5234 C   0  0  0  0  0  0  0  0  0  0  0  0
   -7.2206   -7.6134    8.1271 C   0  0  0  0  0  0  0  0  0  0  0  0
   -6.4757   -6.4066    8.5416 C   0  0  0  0  0  0  0  0  0  0  0  0
   -5.0599   -6.6817    8.0526 C   0  0  0  0  0  0  0  0  0  0  0  0
   -5.1822   -7.8145    7.0706 C   0  0  0  0  0  0  0  0  0  0  0  0
   -4.2182   -8.4432    6.6977 O   0  0  0  0  0  0  0  0  0  0  0  0
  -15.3066   -9.5413    8.2451 H   0  0  0  0  0  0  0  0  0  0  0  0
  2  1  1  0  0  0
  2  3  1  0  0  0
  3  4  1  0  0  0
  4  5  1  0  0  0
  5  6  1  0  0  0
  6  7  1  0  0  0
  7  8  1  0  0  0
  8  9  1  0  0  0
  9 10  2  0  0  0
 10 11  1  0  0  0
 11 12  1  0  0  0
 11 13  2  0  0  0
 13 14  1  0  0  0
 14 15  2  0  0  0
  6 16  1  0  0  0
 16 17  1  0  0  0
 17 18  1  0  0  0
 18 19  1  0  0  0
 19 20  2  0  0  0
 16  2  1  0  0  0
 19  2  1  0  0  0
 15  5  1  0  0  0
 15  9  1  0  0  0
 12 21  1  0  0  0
M  END
> <minimizedAffinity>
-7.87170

> <CNNscore>
0.3419673145

> <CNNaffinity>
5.7049036026

> <CNN_VS>
1.9508905411

> <CNNaffinity_variance>
0.1747969836

$$$$
[H]Oc1c([H])c([H])c2c(c1[H])C([H])([H])C([H])([H])[C@]1([H])[C@]2([H])C([H])([H])C([H])([H])[C@]2(C([H])([H])[H])C(=O)C([H])([H])C([H])([H])[C@]21[H]


 21 24  0  0  0  0  0  0  0  0999 V2000
  -10.2431   -9.6145    6.8471 C   0  0  0  0  0  0  0  0  0  0  0  0
  -10.1528   -8.5944    7.9432 C   0  0  0  0  0  0  0  0  0  0  0  0
  -10.8816   -9.0285    9.1592 C   0  0  0  0  0  0  0  0  0  0  0  0
  -12.3416   -9.1732    8.8844 C   0  0  0  0  0  0  0  0  0  0  0  0
  -12.9204   -7.9103    8.3239 C   0  0  0  0  0  0  0  0  0  0  0  0
  -12.1348   -7.5070    7.0679 C   0  0  0  0  0  0  0  0  0  0  0  0
  -12.8209   -6.3681    6.3959 C   0  0  0  0  0  0  0  0  0  0  0  0
  -14.1138   -6.9115    5.7931 C   0  0  0  0  0  0  0  0  0  0  0  0
  -14.9131   -7.5165    6.8892 C   0  0  0  0  0  0  0  0  0  0  0  0
  -16.2781   -7.6056    6.6923 C   0  0  0  0  0  0  0  0  0  0  0  0
  -17.1228   -8.1511    7.6452 C   0  0  0  0  0  0  0  0  0  0  0  0
  -18.4957   -8.2418    7.4499 O   0  0  0  0  0  0  0  0  0  0  0  0
  -16.5700   -8.6153    8.8209 C   0  0  0  0  0  0  0  0  0  0  0  0
  -15.1911   -8.5224    9.0133 C   0  0  0  0  0  0  0  0  0  0  0  0
  -14.3552   -7.9790    8.0626 C   0  0  0  0  0  0  0  0  0  0  0  0
  -10.7467   -7.2450    7.5140 C   0  0  0  0  0  0  0  0  0  0  0  0
   -9.7892   -6.8050    6.4784 C   0  0  0  0  0  0  0  0  0  0  0  0
   -8.4410   -7.2379    7.0389 C   0  0  0  0  0  0  0  0  0  0  0  0
   -8.7530   -8.2210    8.1337 C   0  0  0  0  0  0  0  0  0  0  0  0
   -7.9228   -8.5547    8.9480 O   0  0  0  0  0  0  0  0  0  0  0  0
  -19.0542   -7.4362    7.7673 H   0  0  0  0  0  0  0  0  0  0  0  0
  2  1  1  0  0  0
  2  3  1  0  0  0
  3  4  1  0  0  0
  4  5  1  0  0  0
  5  6  1  0  0  0
  6  7  1  0  0  0
  7  8  1  0  0  0
  8  9  1  0  0  0
  9 10  2  0  0  0
 10 11  1  0  0  0
 11 12  1  0  0  0
 11 13  2  0  0  0
 13 14  1  0  0  0
 14 15  2  0  0  0
  6 16  1  0  0  0
 16 17  1  0  0  0
 17 18  1  0  0  0
 18 19  1  0  0  0
 19 20  2  0  0  0
 16  2  1  0  0  0
 19  2  1  0  0  0
 15  5  1  0  0  0
 15  9  1  0  0  0
 12 21  1  0  0  0
M  END
> <minimizedAffinity>
-0.72330

> <CNNscore>
0.3375675678

> <CNNaffinity>
5.8951587677

> <CNN_VS>
1.9900144339

> <CNNaffinity_variance>
0.5572742820

$$$$
[H]Oc1c([H])c([H])c2c(c1[H])C([H])([H])C([H])([H])[C@]1([H])[C@]2([H])C([H])([H])C([H])([H])[C@]2(C([H])([H])[H])C(=O)C([H])([H])C([H])([H])[C@]21[H]


 21 24  0  0  0  0  0  0  0  0999 V2000
  -15.2821   -5.8940    4.4898 C   0  0  0  0  0  0  0  0  0  0  0  0
  -16.2501   -7.0364    4.5815 C   0  0  0  0  0  0  0  0  0  0  0  0
  -17.1415   -6.9081    5.7592 C   0  0  0  0  0  0  0  0  0  0  0  0
  -16.3598   -6.9602    7.0297 C   0  0  0  0  0  0  0  0  0  0  0  0
  -15.5274   -8.2031    7.1092 C   0  0  0  0  0  0  0  0  0  0  0  0
  -14.6223   -8.2864    5.8717 C   0  0  0  0  0  0  0  0  0  0  0  0
  -13.6569   -9.4092    6.0357 C   0  0  0  0  0  0  0  0  0  0  0  0
  -12.6645   -8.9971    7.1201 C   0  0  0  0  0  0  0  0  0  0  0  0
  -13.4324   -8.6956    8.3553 C   0  0  0  0  0  0  0  0  0  0  0  0
  -12.7535   -8.7983    9.5546 C   0  0  0  0  0  0  0  0  0  0  0  0
  -13.3673   -8.5411   10.7696 C   0  0  0  0  0  0  0  0  0  0  0  0
  -12.6871   -8.6436   11.9770 O   0  0  0  0  0  0  0  0  0  0  0  0
  -14.6967   -8.1723   10.7660 C   0  0  0  0  0  0  0  0  0  0  0  0
  -15.3763   -8.0705    9.5516 C   0  0  0  0  0  0  0  0  0  0  0  0
  -14.7615   -8.3273    8.3459 C   0  0  0  0  0  0  0  0  0  0  0  0
  -15.5269   -8.3855    4.7029 C   0  0  0  0  0  0  0  0  0  0  0  0
  -14.8864   -8.5096    3.3772 C   0  0  0  0  0  0  0  0  0  0  0  0
  -15.9371   -7.9535    2.4253 C   0  0  0  0  0  0  0  0  0  0  0  0
  -16.9134   -7.2047    3.2904 C   0  0  0  0  0  0  0  0  0  0  0  0
  -18.0003   -6.8659    2.8810 O   0  0  0  0  0  0  0  0  0  0  0  0
  -12.7113   -9.5660   12.4355 H   0  0  0  0  0  0  0  0  0  0  0  0
  2  1  1  0  0  0
  2  3  1  0  0  0
  3  4  1  0  0  0
  4  5  1  0  0  0
  5  6  1  0  0  0
  6  7  1  0  0  0
  7  8  1  0  0  0
  8  9  1  0  0  0
  9 10  2  0  0  0
 10 11  1  0  0  0
 11 12  1  0  0  0
 11 13  2  0  0  0
 13 14  1  0  0  0
 14 15  2  0  0  0
  6 16  1  0  0  0
 16 17  1  0  0  0
 17 18  1  0  0  0
 18 19  1  0  0  0
 19 20  2  0  0  0
 16  2  1  0  0  0
 19  2  1  0  0  0
 15  5  1  0  0  0
 15  9  1  0  0  0
 12 21  1  0  0  0
M  END
> <minimizedAffinity>
-1.79050

> <CNNscore>
0.2722462416

> <CNNaffinity>
5.7828106880

> <CNN_VS>
1.5743484497

> <CNNaffinity_variance>
0.1144209951

$$$$
[H]Oc1c([H])c([H])c2c(c1[H])C([H])([H])C([H])([H])[C@]1([H])[C@]2([H])C([H])([H])C([H])([H])[C@]2(C([H])([H])[H])C(=O)C([H])([H])C([H])([H])[C@]21[H]


 21 24  0  0  0  0  0  0  0  0999 V2000
   -8.9655   -9.6156    8.8936 C   0  0  0  0  0  0  0  0  0  0  0  0
   -9.2823   -9.0164    7.5554 C   0  0  0  0  0  0  0  0  0  0  0  0
   -8.5861   -9.7275    6.4562 C   0  0  0  0  0  0  0  0  0  0  0  0
   -7.1049   -9.6054    6.5942 C   0  0  0  0  0  0  0  0  0  0  0  0
   -6.6792   -8.1712    6.6711 C   0  0  0  0  0  0  0  0  0  0  0  0
   -7.4239   -7.4830    7.8239 C   0  0  0  0  0  0  0  0  0  0  0  0
   -6.8662   -6.1173    8.0320 C   0  0  0  0  0  0  0  0  0  0  0  0
   -5.4679   -6.2850    8.6210 C   0  0  0  0  0  0  0  0  0  0  0  0
   -4.6686   -7.1104    7.6796 C   0  0  0  0  0  0  0  0  0  0  0  0
   -3.2949   -6.9719    7.7375 C   0  0  0  0  0  0  0  0  0  0  0  0
   -2.4493   -7.6902    6.9081 C   0  0  0  0  0  0  0  0  0  0  0  0
   -1.0676   -7.5530    6.9642 O   0  0  0  0  0  0  0  0  0  0  0  0
   -3.0104   -8.5665    6.0021 C   0  0  0  0  0  0  0  0  0  0  0  0
   -4.3982   -8.7016    5.9487 C   0  0  0  0  0  0  0  0  0  0  0  0
   -5.2349   -7.9849    6.7758 C   0  0  0  0  0  0  0  0  0  0  0  0
   -8.8636   -7.5410    7.4800 C   0  0  0  0  0  0  0  0  0  0  0  0
   -9.7991   -6.9086    8.4328 C   0  0  0  0  0  0  0  0  0  0  0  0
  -11.1057   -7.6521    8.1892 C   0  0  0  0  0  0  0  0  0  0  0  0
  -10.7317   -8.8895    7.4203 C   0  0  0  0  0  0  0  0  0  0  0  0
  -11.5598   -9.5600    6.8474 O   0  0  0  0  0  0  0  0  0  0  0  0
   -0.6574   -6.8312    6.3538 H   0  0  0  0  0  0  0  0  0  0  0  0
  2  1  1  0  0  0
  2  3  1  0  0  0
  3  4  1  0  0  0
  4  5  1  0  0  0
  5  6  1  0  0  0
  6  7  1  0  0  0
  7  8  1  0  0  0
  8  9  1  0  0  0
  9 10  2  0  0  0
 10 11  1  0  0  0
 11 12  1  0  0  0
 11 13  2  0  0  0
 13 14  1  0  0  0
 14 15  2  0  0  0
  6 16  1  0  0  0
 16 17  1  0  0  0
 17 18  1  0  0  0
 18 19  1  0  0  0
 19 20  2  0  0  0
 16  2  1  0  0  0
 19  2  1  0  0  0
 15  5  1  0  0  0
 15  9  1  0  0  0
 12 21  1  0  0  0
M  END
> <minimizedAffinity>
-2.93510

> <CNNscore>
0.2580521107

> <CNNaffinity>
5.1227827072

> <CNN_VS>
1.3219448328

> <CNNaffinity_variance>
0.4455200136

$$$$
[H]Oc1c([H])c([H])c2c(c1[H])C([H])([H])C([H])([H])[C@]1([H])[C@]2([H])C([H])([H])C([H])([H])[C@]2(C([H])([H])[H])C(=O)C([H])([H])C([H])([H])[C@]21[H]


 21 24  0  0  0  0  0  0  0  0999 V2000
   -4.9674   -6.0395    5.6282 C   0  0  0  0  0  0  0  0  0  0  0  0
   -3.8444   -5.5529    6.4955 C   0  0  0  0  0  0  0  0  0  0  0  0
   -3.8112   -4.0726    6.5726 C   0  0  0  0  0  0  0  0  0  0  0  0
   -3.5516   -3.4731    5.2305 C   0  0  0  0  0  0  0  0  0  0  0  0
   -2.2942   -4.0154    4.6232 C   0  0  0  0  0  0  0  0  0  0  0  0
   -2.3805   -5.5472    4.5631 C   0  0  0  0  0  0  0  0  0  0  0  0
   -1.2263   -6.0808    3.7869 C   0  0  0  0  0  0  0  0  0  0  0  0
   -1.4492   -5.6990    2.3257 C   0  0  0  0  0  0  0  0  0  0  0  0
   -1.5760   -4.2209    2.2511 C   0  0  0  0  0  0  0  0  0  0  0  0
   -1.2793   -3.6280    1.0387 C   0  0  0  0  0  0  0  0  0  0  0  0
   -1.3622   -2.2578    0.8520 C   0  0  0  0  0  0  0  0  0  0  0  0
   -1.0644   -1.6589   -0.3660 O   0  0  0  0  0  0  0  0  0  0  0  0
   -1.7544   -1.4748    1.9181 C   0  0  0  0  0  0  0  0  0  0  0  0
   -2.0527   -2.0798    3.1396 C   0  0  0  0  0  0  0  0  0  0  0  0
   -1.9686   -3.4429    3.3202 C   0  0  0  0  0  0  0  0  0  0  0  0
   -2.4779   -6.0118    5.9663 C   0  0  0  0  0  0  0  0  0  0  0  0
   -2.5427   -7.4726    6.1783 C   0  0  0  0  0  0  0  0  0  0  0  0
   -3.2577   -7.6027    7.5166 C   0  0  0  0  0  0  0  0  0  0  0  0
   -3.8868   -6.2607    7.7732 C   0  0  0  0  0  0  0  0  0  0  0  0
   -4.3059   -5.9501    8.8647 O   0  0  0  0  0  0  0  0  0  0  0  0
   -0.0839   -1.3742   -0.5049 H   0  0  0  0  0  0  0  0  0  0  0  0
  2  1  1  0  0  0
  2  3  1  0  0  0
  3  4  1  0  0  0
  4  5  1  0  0  0
  5  6  1  0  0  0
  6  7  1  0  0  0
  7  8  1  0  0  0
  8  9  1  0  0  0
  9 10  2  0  0  0
 10 11  1  0  0  0
 11 12  1  0  0  0
 11 13  2  0  0  0
 13 14  1  0  0  0
 14 15  2  0  0  0
  6 16  1  0  0  0
 16 17  1  0  0  0
 17 18  1  0  0  0
 18 19  1  0  0  0
 19 20  2  0  0  0
 16  2  1  0  0  0
 19  2  1  0  0  0
 15  5  1  0  0  0
 15  9  1  0  0  0
 12 21  1  0  0  0
M  END
> <minimizedAffinity>
-4.15445

> <CNNscore>
0.2373361439

> <CNNaffinity>
4.1098546982

> <CNN_VS>
0.9754170775

> <CNNaffinity_variance>
0.0944891497

$$$$
[H]OC1([H])C([H])([H])C([H])([H])C2([H])C3([H])C([H])([H])C([H])([H])C4([H])C([H])([H])[C@]([H])(O[H])C([H])([H])C([H])([H])[C@]4(C([H])([H])[H])C3([H])C([H])([H])C([H])([H])[C@]12C([H])([H])[H]


 23 26  0  0  0  0  0  0  0  0999 V2000
  -10.2197   -8.8903    7.5325 C   0  0  0  0  0  0  0  0  0  0  0  0
  -10.0764   -7.4067    7.5905 C   0  0  0  0  0  0  0  0  0  0  0  0
   -9.6792   -6.8818    6.2544 C   0  0  0  0  0  0  0  0  0  0  0  0
   -8.1983   -6.4938    6.1888 C   0  0  0  0  0  0  0  0  0  0  0  0
   -7.3555   -7.5342    6.9482 C   0  0  0  0  0  0  0  0  0  0  0  0
   -7.6904   -7.5426    8.4022 C   0  0  0  0  0  0  0  0  0  0  0  0
   -6.7638   -6.8230    9.3097 C   0  0  0  0  0  0  0  0  0  0  0  0
   -5.4195   -6.4984    8.7494 C   0  0  0  0  0  0  0  0  0  0  0  0
   -5.0605   -7.6254    7.8174 C   0  0  0  0  0  0  0  0  0  0  0  0
   -3.5999   -7.5713    7.5492 C   0  0  0  0  0  0  0  0  0  0  0  0
   -3.2030   -6.3321    6.8146 C   0  0  0  0  0  0  0  0  0  0  0  0
   -3.1306   -5.2017    7.6229 O   0  0  0  0  0  0  0  0  0  0  0  0
   -4.0482   -6.1671    5.6064 C   0  0  0  0  0  0  0  0  0  0  0  0
   -5.5204   -6.2407    5.8129 C   0  0  0  0  0  0  0  0  0  0  0  0
   -5.9231   -7.4848    6.5924 C   0  0  0  0  0  0  0  0  0  0  0  0
   -5.5247   -8.6491    5.6663 C   0  0  0  0  0  0  0  0  0  0  0  0
   -9.0323   -6.9209    8.5519 C   0  0  0  0  0  0  0  0  0  0  0  0
   -9.6915   -7.0614    9.8667 C   0  0  0  0  0  0  0  0  0  0  0  0
  -11.0004   -6.3367    9.5727 C   0  0  0  0  0  0  0  0  0  0  0  0
  -11.3244   -6.7591    8.1547 C   0  0  0  0  0  0  0  0  0  0  0  0
  -12.3943   -7.6481    8.2433 O   0  0  0  0  0  0  0  0  0  0  0  0
   -2.7181   -5.4520    8.4673 H   0  0  0  0  0  0  0  0  0  0  0  0
  -12.3184   -8.1343    9.1016 H   0  0  0  0  0  0  0  0  0  0  0  0
  2  1  1  0  0  0
  2  3  1  0  0  0
  3  4  1  0  0  0
  4  5  1  0  0  0
  5  6  1  0  0  0
  6  7  1  0  0  0
  7  8  1  0  0  0
  8  9  1  0  0  0
  9 10  1  0  0  0
 10 11  1  0  0  0
 11 12  1  0  0  0
 11 13  1  0  0  0
 13 14  1  0  0  0
 14 15  1  0  0  0
 15 16  1  0  0  0
  6 17  1  0  0  0
 17 18  1  0  0  0
 18 19  1  0  0  0
 19 20  1  0  0  0
 20 21  1  0  0  0
 17  2  1  0  0  0
 20  2  1  0  0  0
 15  5  1  0  0  0
 15  9  1  0  0  0
 12 22  1  0  0  0
 21 23  1  0  0  0
M  END
> <minimizedAffinity>
-1.98180

> <CNNscore>
0.4566916227

> <CNNaffinity>
5.1766972542

> <CNN_VS>
2.3641543388

> <CNNaffinity_variance>
0.3763483167

$$$$
[H]OC1([H])C([H])([H])C([H])([H])C2([H])C3([H])C([H])([H])C([H])([H])C4([H])C([H])([H])[C@]([H])(O[H])C([H])([H])C([H])([H])[C@]4(C([H])([H])[H])C3([H])C([H])([H])C([H])([H])[C@]12C([H])([H])[H]


 23 26  0  0  0  0  0  0  0  0999 V2000
   -5.5025   -7.6870    4.8601 C   0  0  0  0  0  0  0  0  0  0  0  0
   -5.2664   -7.1912    6.2470 C   0  0  0  0  0  0  0  0  0  0  0  0
   -6.0842   -5.9718    6.4968 C   0  0  0  0  0  0  0  0  0  0  0  0
   -5.2525   -4.6853    6.4607 C   0  0  0  0  0  0  0  0  0  0  0  0
   -4.2220   -4.7660    5.3200 C   0  0  0  0  0  0  0  0  0  0  0  0
   -3.2355   -5.8593    5.5602 C   0  0  0  0  0  0  0  0  0  0  0  0
   -1.9106   -5.4634    6.0967 C   0  0  0  0  0  0  0  0  0  0  0  0
   -1.5642   -4.0165    5.9832 C   0  0  0  0  0  0  0  0  0  0  0  0
   -2.1939   -3.5244    4.7069 C   0  0  0  0  0  0  0  0  0  0  0  0
   -1.5622   -2.2317    4.3348 C   0  0  0  0  0  0  0  0  0  0  0  0
   -1.8407   -1.1555    5.3334 C   0  0  0  0  0  0  0  0  0  0  0  0
   -1.0615   -1.2439    6.4828 O   0  0  0  0  0  0  0  0  0  0  0  0
   -3.2995   -1.0667    5.5885 C   0  0  0  0  0  0  0  0  0  0  0  0
   -3.9893   -2.3384    5.9384 C   0  0  0  0  0  0  0  0  0  0  0  0
   -3.6782   -3.4461    4.9415 C   0  0  0  0  0  0  0  0  0  0  0  0
   -4.2829   -2.9375    3.6196 C   0  0  0  0  0  0  0  0  0  0  0  0
   -3.8464   -6.8019    6.5338 C   0  0  0  0  0  0  0  0  0  0  0  0
   -3.1701   -8.1022    6.7203 C   0  0  0  0  0  0  0  0  0  0  0  0
   -4.1149   -8.7361    7.7354 C   0  0  0  0  0  0  0  0  0  0  0  0
   -5.4844   -8.2918    7.2650 C   0  0  0  0  0  0  0  0  0  0  0  0
   -6.0953   -9.4166    6.7132 O   0  0  0  0  0  0  0  0  0  0  0  0
   -0.1547   -1.4812    6.2236 H   0  0  0  0  0  0  0  0  0  0  0  0
   -5.3890   -9.9875    6.3207 H   0  0  0  0  0  0  0  0  0  0  0  0
  2  1  1  0  0  0
  2  3  1  0  0  0
  3  4  1  0  0  0
  4  5  1  0  0  0
  5  6  1  0  0  0
  6  7  1  0  0  0
  7  8  1  0  0  0
  8  9  1  0  0  0
  9 10  1  0  0  0
 10 11  1  0  0  0
 11 12  1  0  0  0
 11 13  1  0  0  0
 13 14  1  0  0  0
 14 15  1  0  0  0
 15 16  1  0  0  0
  6 17  1  0  0  0
 17 18  1  0  0  0
 18 19  1  0  0  0
 19 20  1  0  0  0
 20 21  1  0  0  0
 17  2  1  0  0  0
 20  2  1  0  0  0
 15  5  1  0  0  0
 15  9  1  0  0  0
 12 22  1  0  0  0
 21 23  1  0  0  0
M  END
> <minimizedAffinity>
1.91720

> <CNNscore>
0.4411854744

> <CNNaffinity>
4.4027571678

> <CNN_VS>
1.9424325228

> <CNNaffinity_variance>
0.5050645471

$$$$
[H]OC1([H])C([H])([H])C([H])([H])C2([H])C3([H])C([H])([H])C([H])([H])C4([H])C([H])([H])[C@]([H])(O[H])C([H])([H])C([H])([H])[C@]4(C([H])([H])[H])C3([H])C([H])([H])C([H])([H])[C@]12C([H])([H])[H]


 23 26  0  0  0  0  0  0  0  0999 V2000
   -5.0604   -4.2774   12.1714 C   0  0  0  0  0  0  0  0  0  0  0  0
   -3.5713   -4.2208   12.1039 C   0  0  0  0  0  0  0  0  0  0  0  0
   -3.1211   -2.8054   11.9928 C   0  0  0  0  0  0  0  0  0  0  0  0
   -2.6728   -2.4379   10.5743 C   0  0  0  0  0  0  0  0  0  0  0  0
   -3.6207   -3.0833    9.5474 C   0  0  0  0  0  0  0  0  0  0  0  0
   -3.5454   -4.5724    9.6047 C   0  0  0  0  0  0  0  0  0  0  0  0
   -2.7252   -5.2445    8.5676 C   0  0  0  0  0  0  0  0  0  0  0  0
   -2.3798   -4.4218    7.3717 C   0  0  0  0  0  0  0  0  0  0  0  0
   -3.5503   -3.5060    7.1293 C   0  0  0  0  0  0  0  0  0  0  0  0
   -3.4495   -2.9633    5.7496 C   0  0  0  0  0  0  0  0  0  0  0  0
   -2.2465   -2.0959    5.5672 C   0  0  0  0  0  0  0  0  0  0  0  0
   -1.0618   -2.8086    5.4095 O   0  0  0  0  0  0  0  0  0  0  0  0
   -2.2017   -1.0622    6.6304 C   0  0  0  0  0  0  0  0  0  0  0  0
   -2.3267   -1.5477    8.0319 C   0  0  0  0  0  0  0  0  0  0  0  0
   -3.5317   -2.4604    8.2114 C   0  0  0  0  0  0  0  0  0  0  0  0
   -4.7372   -1.5450    7.9272 C   0  0  0  0  0  0  0  0  0  0  0  0
   -2.9754   -4.9370   10.9283 C   0  0  0  0  0  0  0  0  0  0  0  0
   -3.0556   -6.3589   11.3222 C   0  0  0  0  0  0  0  0  0  0  0  0
   -2.4116   -6.2764   12.7018 C   0  0  0  0  0  0  0  0  0  0  0  0
   -2.9433   -4.9724   13.2597 C   0  0  0  0  0  0  0  0  0  0  0  0
   -3.8711   -5.3136   14.2423 O   0  0  0  0  0  0  0  0  0  0  0  0
   -1.2355   -3.5727    4.8336 H   0  0  0  0  0  0  0  0  0  0  0  0
   -4.2940   -6.1688   13.9807 H   0  0  0  0  0  0  0  0  0  0  0  0
  2  1  1  0  0  0
  2  3  1  0  0  0
  3  4  1  0  0  0
  4  5  1  0  0  0
  5  6  1  0  0  0
  6  7  1  0  0  0
  7  8  1  0  0  0
  8  9  1  0  0  0
  9 10  1  0  0  0
 10 11  1  0  0  0
 11 12  1  0  0  0
 11 13  1  0  0  0
 13 14  1  0  0  0
 14 15  1  0  0  0
 15 16  1  0  0  0
  6 17  1  0  0  0
 17 18  1  0  0  0
 18 19  1  0  0  0
 19 20  1  0  0  0
 20 21  1  0  0  0
 17  2  1  0  0  0
 20  2  1  0  0  0
 15  5  1  0  0  0
 15  9  1  0  0  0
 12 22  1  0  0  0
 21 23  1  0  0  0
M  END
> <minimizedAffinity>
2.01956

> <CNNscore>
0.4299753904

> <CNNaffinity>
4.1664214134

> <CNN_VS>
1.7914587259

> <CNNaffinity_variance>
0.4041404724

$$$$
[H]OC1([H])C([H])([H])C([H])([H])C2([H])C3([H])C([H])([H])C([H])([H])C4([H])C([H])([H])[C@]([H])(O[H])C([H])([H])C([H])([H])[C@]4(C([H])([H])[H])C3([H])C([H])([H])C([H])([H])[C@]12C([H])([H])[H]


 23 26  0  0  0  0  0  0  0  0999 V2000
   -7.3422   -7.8404    9.1542 C   0  0  0  0  0  0  0  0  0  0  0  0
   -7.6961   -7.4786    7.7510 C   0  0  0  0  0  0  0  0  0  0  0  0
   -8.5813   -6.2808    7.7428 C   0  0  0  0  0  0  0  0  0  0  0  0
  -10.0466   -6.6313    7.4632 C   0  0  0  0  0  0  0  0  0  0  0  0
  -10.4208   -7.9264    8.2062 C   0  0  0  0  0  0  0  0  0  0  0  0
   -9.6389   -9.0887    7.6924 C   0  0  0  0  0  0  0  0  0  0  0  0
  -10.3271   -9.9935    6.7396 C   0  0  0  0  0  0  0  0  0  0  0  0
  -11.8139   -9.8797    6.6866 C   0  0  0  0  0  0  0  0  0  0  0  0
  -12.2674   -9.5406    8.0819 C   0  0  0  0  0  0  0  0  0  0  0  0
  -13.7252   -9.8101    8.1848 C   0  0  0  0  0  0  0  0  0  0  0  0
  -14.5315   -8.9179    7.2977 C   0  0  0  0  0  0  0  0  0  0  0  0
  -14.5208   -9.3015    5.9602 O   0  0  0  0  0  0  0  0  0  0  0  0
  -14.1585   -7.5010    7.5308 C   0  0  0  0  0  0  0  0  0  0  0  0
  -12.7067   -7.1792    7.4673 C   0  0  0  0  0  0  0  0  0  0  0  0
  -11.8798   -8.1102    8.3430 C   0  0  0  0  0  0  0  0  0  0  0  0
  -12.3622   -7.8020    9.7727 C   0  0  0  0  0  0  0  0  0  0  0  0
   -8.4389   -8.5460    7.0032 C   0  0  0  0  0  0  0  0  0  0  0  0
   -7.3779   -9.5111    6.6482 C   0  0  0  0  0  0  0  0  0  0  0  0
   -6.3681   -8.5576    6.0190 C   0  0  0  0  0  0  0  0  0  0  0  0
   -6.4544   -7.3261    6.8966 C   0  0  0  0  0  0  0  0  0  0  0  0
   -5.2846   -7.2995    7.6540 O   0  0  0  0  0  0  0  0  0  0  0  0
  -14.5935  -10.2703    5.9163 H   0  0  0  0  0  0  0  0  0  0  0  0
   -5.0007   -8.2339    7.8124 H   0  0  0  0  0  0  0  0  0  0  0  0
  2  1  1  0  0  0
  2  3  1  0  0  0
  3  4  1  0  0  0
  4  5  1  0  0  0
  5  6  1  0  0  0
  6  7  1  0  0  0
  7  8  1  0  0  0
  8  9  1  0  0  0
  9 10  1  0  0  0
 10 11  1  0  0  0
 11 12  1  0  0  0
 11 13  1  0  0  0
 13 14  1  0  0  0
 14 15  1  0  0  0
 15 16  1  0  0  0
  6 17  1  0  0  0
 17 18  1  0  0  0
 18 19  1  0  0  0
 19 20  1  0  0  0
 20 21  1  0  0  0
 17  2  1  0  0  0
 20  2  1  0  0  0
 15  5  1  0  0  0
 15  9  1  0  0  0
 12 22  1  0  0  0
 21 23  1  0  0  0
M  END
> <minimizedAffinity>
-9.55501

> <CNNscore>
0.3524097800

> <CNNaffinity>
5.8945322037

> <CNN_VS>
2.0772907734

> <CNNaffinity_variance>
0.0782905668

$$$$
[H]OC1([H])C([H])([H])C([H])([H])C2([H])C3([H])C([H])([H])C([H])([H])C4([H])C([H])([H])[C@]([H])(O[H])C([H])([H])C([H])([H])[C@]4(C([H])([H])[H])C3([H])C([H])([H])C([H])([H])[C@]12C([H])([H])[H]


 23 26  0  0  0  0  0  0  0  0999 V2000
  -12.7263   -9.7808    9.0476 C   0  0  0  0  0  0  0  0  0  0  0  0
  -12.6811   -9.1312    7.7056 C   0  0  0  0  0  0  0  0  0  0  0  0
  -11.9375   -9.9956    6.7474 C   0  0  0  0  0  0  0  0  0  0  0  0
  -10.5235   -9.4790    6.4607 C   0  0  0  0  0  0  0  0  0  0  0  0
   -9.8886   -8.9570    7.7622 C   0  0  0  0  0  0  0  0  0  0  0  0
  -10.6332   -7.7769    8.2905 C   0  0  0  0  0  0  0  0  0  0  0  0
  -10.0500   -6.4395    8.0238 C   0  0  0  0  0  0  0  0  0  0  0  0
   -8.6187   -6.4218    7.6024 C   0  0  0  0  0  0  0  0  0  0  0  0
   -7.9466   -7.5616    8.3212 C   0  0  0  0  0  0  0  0  0  0  0  0
   -6.4761   -7.3546    8.2668 C   0  0  0  0  0  0  0  0  0  0  0  0
   -5.9446   -7.4213    6.8718 C   0  0  0  0  0  0  0  0  0  0  0  0
   -6.1687   -6.2643    6.1320 O   0  0  0  0  0  0  0  0  0  0  0  0
   -6.4066   -8.6678    6.2130 C   0  0  0  0  0  0  0  0  0  0  0  0
   -7.8692   -8.9398    6.2617 C   0  0  0  0  0  0  0  0  0  0  0  0
   -8.4191   -8.8371    7.6776 C   0  0  0  0  0  0  0  0  0  0  0  0
   -7.7091   -9.9743    8.4357 C   0  0  0  0  0  0  0  0  0  0  0  0
  -11.9897   -7.8002    7.6831 C   0  0  0  0  0  0  0  0  0  0  0  0
  -12.9967   -6.8860    8.2605 C   0  0  0  0  0  0  0  0  0  0  0  0
  -14.1971   -7.2517    7.3944 C   0  0  0  0  0  0  0  0  0  0  0  0
  -14.0705   -8.7527    7.2350 C   0  0  0  0  0  0  0  0  0  0  0  0
  -15.0733   -9.3181    8.0207 O   0  0  0  0  0  0  0  0  0  0  0  0
   -6.0092   -5.4953    6.7057 H   0  0  0  0  0  0  0  0  0  0  0  0
  -15.2275   -8.7230    8.7959 H   0  0  0  0  0  0  0  0  0  0  0  0
  2  1  1  0  0  0
  2  3  1  0  0  0
  3  4  1  0  0  0
  4  5  1  0  0  0
  5  6  1  0  0  0
  6  7  1  0  0  0
  7  8  1  0  0  0
  8  9  1  0  0  0
  9 10  1  0  0  0
 10 11  1  0  0  0
 11 12  1  0  0  0
 11 13  1  0  0  0
 13 14  1  0  0  0
 14 15  1  0  0  0
 15 16  1  0  0  0
  6 17  1  0  0  0
 17 18  1  0  0  0
 18 19  1  0  0  0
 19 20  1  0  0  0
 20 21  1  0  0  0
 17  2  1  0  0  0
 20  2  1  0  0  0
 15  5  1  0  0  0
 15  9  1  0  0  0
 12 22  1  0  0  0
 21 23  1  0  0  0
M  END
> <minimizedAffinity>
-9.69570

> <CNNscore>
0.3409314156

> <CNNaffinity>
5.8828687668

> <CNN_VS>
2.0056548119

> <CNNaffinity_variance>
0.0587583669

$$$$
[H]OC1([H])C([H])([H])C([H])([H])C2([H])C3([H])C([H])([H])C([H])([H])C4([H])C([H])([H])[C@]([H])(O[H])C([H])([H])C([H])([H])[C@]4(C([H])([H])[H])C3([H])C([H])([H])C([H])([H])[C@]12C([H])([H])[H]


 23 26  0  0  0  0  0  0  0  0999 V2000
  -15.4074   -9.9434    5.3941 C   0  0  0  0  0  0  0  0  0  0  0  0
  -14.6645   -8.7688    4.8522 C   0  0  0  0  0  0  0  0  0  0  0  0
  -13.1984   -9.0256    4.9066 C   0  0  0  0  0  0  0  0  0  0  0  0
  -12.5082   -8.2687    6.0463 C   0  0  0  0  0  0  0  0  0  0  0  0
  -13.3968   -8.3008    7.3028 C   0  0  0  0  0  0  0  0  0  0  0  0
  -14.6797   -7.5740    7.0753 C   0  0  0  0  0  0  0  0  0  0  0  0
  -14.7769   -6.1962    7.6159 C   0  0  0  0  0  0  0  0  0  0  0  0
  -13.7583   -5.8216    8.6400 C   0  0  0  0  0  0  0  0  0  0  0  0
  -13.4633   -7.0708    9.4273 C   0  0  0  0  0  0  0  0  0  0  0  0
  -12.7831   -6.6848   10.6909 C   0  0  0  0  0  0  0  0  0  0  0  0
  -11.4450   -6.0653   10.4490 C   0  0  0  0  0  0  0  0  0  0  0  0
  -11.5095   -4.7372   10.0386 O   0  0  0  0  0  0  0  0  0  0  0  0
  -10.6342   -6.9397    9.5664 C   0  0  0  0  0  0  0  0  0  0  0  0
  -11.2777   -7.3801    8.2985 C   0  0  0  0  0  0  0  0  0  0  0  0
  -12.6563   -7.9791    8.5394 C   0  0  0  0  0  0  0  0  0  0  0  0
  -12.3730   -9.2387    9.3790 C   0  0  0  0  0  0  0  0  0  0  0  0
  -14.8881   -7.4912    5.6058 C   0  0  0  0  0  0  0  0  0  0  0  0
  -16.2215   -7.0542    5.1430 C   0  0  0  0  0  0  0  0  0  0  0  0
  -16.0084   -7.1432    3.6359 C   0  0  0  0  0  0  0  0  0  0  0  0
  -15.1679   -8.3929    3.4736 C   0  0  0  0  0  0  0  0  0  0  0  0
  -16.0064   -9.3634    2.9279 O   0  0  0  0  0  0  0  0  0  0  0  0
  -12.1972   -4.2867   10.5580 H   0  0  0  0  0  0  0  0  0  0  0  0
  -16.9246   -9.1941    3.2551 H   0  0  0  0  0  0  0  0  0  0  0  0
  2  1  1  0  0  0
  2  3  1  0  0  0
  3  4  1  0  0  0
  4  5  1  0  0  0
  5  6  1  0  0  0
  6  7  1  0  0  0
  7  8  1  0  0  0
  8  9  1  0  0  0
  9 10  1  0  0  0
 10 11  1  0  0  0
 11 12  1  0  0  0
 11 13  1  0  0  0
 13 14  1  0  0  0
 14 15  1  0  0  0
 15 16  1  0  0  0
  6 17  1  0  0  0
 17 18  1  0  0  0
 18 19  1  0  0  0
 19 20  1  0  0  0
 20 21  1  0  0  0
 17  2  1  0  0  0
 20  2  1  0  0  0
 15  5  1  0  0  0
 15  9  1  0  0  0
 12 22  1  0  0  0
 21 23  1  0  0  0
M  END
> <minimizedAffinity>
-2.16153

> <CNNscore>
0.3245625198

> <CNNaffinity>
5.8816127777

> <CNN_VS>
1.9089510441

> <CNNaffinity_variance>
0.0787025988

$$$$
[H]OC1([H])C([H])([H])C([H])([H])C2([H])C3([H])C([H])([H])C([H])([H])C4([H])C([H])([H])[C@]([H])(O[H])C([H])([H])C([H])([H])[C@]4(C([H])([H])[H])C3([H])C([H])([H])C([H])([H])[C@]12C([H])([H])[H]


 23 26  0  0  0  0  0  0  0  0999 V2000
  -17.2397   -7.3153    5.8284 C   0  0  0  0  0  0  0  0  0  0  0  0
  -16.1765   -7.0548    4.8151 C   0  0  0  0  0  0  0  0  0  0  0  0
  -15.6873   -8.3427    4.2492 C   0  0  0  0  0  0  0  0  0  0  0  0
  -14.3191   -8.7505    4.8059 C   0  0  0  0  0  0  0  0  0  0  0  0
  -14.2577   -8.4367    6.3117 C   0  0  0  0  0  0  0  0  0  0  0  0
  -14.3566   -6.9691    6.5616 C   0  0  0  0  0  0  0  0  0  0  0  0
  -13.0907   -6.2475    6.8387 C   0  0  0  0  0  0  0  0  0  0  0  0
  -11.9220   -7.0962    7.2133 C   0  0  0  0  0  0  0  0  0  0  0  0
  -12.4720   -8.2640    7.9887 C   0  0  0  0  0  0  0  0  0  0  0  0
  -11.3551   -8.9131    8.7233 C   0  0  0  0  0  0  0  0  0  0  0  0
  -10.3430   -9.5135    7.8024 C   0  0  0  0  0  0  0  0  0  0  0  0
   -9.4761   -8.5816    7.2400 O   0  0  0  0  0  0  0  0  0  0  0  0
  -11.0153  -10.3961    6.8173 C   0  0  0  0  0  0  0  0  0  0  0  0
  -12.1603   -9.8054    6.0720 C   0  0  0  0  0  0  0  0  0  0  0  0
  -13.1750   -9.1618    7.0067 C   0  0  0  0  0  0  0  0  0  0  0  0
  -13.7181  -10.3411    7.8350 C   0  0  0  0  0  0  0  0  0  0  0  0
  -14.9646   -6.3534    5.3530 C   0  0  0  0  0  0  0  0  0  0  0  0
  -15.4102   -4.9495    5.4700 C   0  0  0  0  0  0  0  0  0  0  0  0
  -15.9766   -4.7458    4.0691 C   0  0  0  0  0  0  0  0  0  0  0  0
  -16.6505   -6.0684    3.7675 C   0  0  0  0  0  0  0  0  0  0  0  0
  -18.0231   -5.8354    3.8351 O   0  0  0  0  0  0  0  0  0  0  0  0
   -9.2282   -7.9377    7.9254 H   0  0  0  0  0  0  0  0  0  0  0  0
  -18.1806   -5.1243    4.5046 H   0  0  0  0  0  0  0  0  0  0  0  0
  2  1  1  0  0  0
  2  3  1  0  0  0
  3  4  1  0  0  0
  4  5  1  0  0  0
  5  6  1  0  0  0
  6  7  1  0  0  0
  7  8  1  0  0  0
  8  9  1  0  0  0
  9 10  1  0  0  0
 10 11  1  0  0  0
 11 12  1  0  0  0
 11 13  1  0  0  0
 13 14  1  0  0  0
 14 15  1  0  0  0
 15 16  1  0  0  0
  6 17  1  0  0  0
 17 18  1  0  0  0
 18 19  1  0  0  0
 19 20  1  0  0  0
 20 21  1  0  0  0
 17  2  1  0  0  0
 20  2  1  0  0  0
 15  5  1  0  0  0
 15  9  1  0  0  0
 12 22  1  0  0  0
 21 23  1  0  0  0
M  END
> <minimizedAffinity>
-7.45544

> <CNNscore>
0.2161589563

> <CNNaffinity>
5.8796930313

> <CNN_VS>
1.2709482908

> <CNNaffinity_variance>
0.0932728425

$$$$
[H]OC1([H])C([H])([H])C([H])([H])C2([H])C3([H])C([H])([H])C([H])([H])C4([H])C([H])([H])[C@]([H])(O[H])C([H])([H])C([H])([H])[C@]4(C([H])([H])[H])C3([H])C([H])([H])C([H])([H])[C@]12C([H])([H])[H]


 23 26  0  0  0  0  0  0  0  0999 V2000
  -17.7408   -8.5026    5.1065 C   0  0  0  0  0  0  0  0  0  0  0  0
  -16.6420   -7.8364    4.3490 C   0  0  0  0  0  0  0  0  0  0  0  0
  -15.6725   -8.8552    3.8586 C   0  0  0  0  0  0  0  0  0  0  0  0
  -14.3780   -8.8813    4.6782 C   0  0  0  0  0  0  0  0  0  0  0  0
  -14.7068   -8.7098    6.1722 C   0  0  0  0  0  0  0  0  0  0  0  0
  -15.3101   -7.3721    6.4420 C   0  0  0  0  0  0  0  0  0  0  0  0
  -14.4143   -6.3313    7.0025 C   0  0  0  0  0  0  0  0  0  0  0  0
  -13.1312   -6.8183    7.5882 C   0  0  0  0  0  0  0  0  0  0  0  0
  -13.4210   -8.1667    8.1928 C   0  0  0  0  0  0  0  0  0  0  0  0
  -12.3177   -8.5147    9.1255 C   0  0  0  0  0  0  0  0  0  0  0  0
  -11.0119   -8.6892    8.4202 C   0  0  0  0  0  0  0  0  0  0  0  0
  -10.3936   -7.4891    8.0831 O   0  0  0  0  0  0  0  0  0  0  0  0
  -11.1703   -9.6349    7.2881 C   0  0  0  0  0  0  0  0  0  0  0  0
  -12.2793   -9.3498    6.3371 C   0  0  0  0  0  0  0  0  0  0  0  0
  -13.6037   -9.1364    7.0566 C   0  0  0  0  0  0  0  0  0  0  0  0
  -13.8936  -10.4987    7.7140 C   0  0  0  0  0  0  0  0  0  0  0  0
  -15.8396   -6.8561    5.1525 C   0  0  0  0  0  0  0  0  0  0  0  0
  -16.7197   -5.6710    5.2172 C   0  0  0  0  0  0  0  0  0  0  0  0
  -17.0437   -5.5148    3.7355 C   0  0  0  0  0  0  0  0  0  0  0  0
  -17.1948   -6.9439    3.2568 C   0  0  0  0  0  0  0  0  0  0  0  0
  -18.5570   -7.1449    3.0407 O   0  0  0  0  0  0  0  0  0  0  0  0
  -10.4971   -6.8694    8.8255 H   0  0  0  0  0  0  0  0  0  0  0  0
  -19.0556   -6.5826    3.6841 H   0  0  0  0  0  0  0  0  0  0  0  0
  2  1  1  0  0  0
  2  3  1  0  0  0
  3  4  1  0  0  0
  4  5  1  0  0  0
  5  6  1  0  0  0
  6  7  1  0  0  0
  7  8  1  0  0  0
  8  9  1  0  0  0
  9 10  1  0  0  0
 10 11  1  0  0  0
 11 12  1  0  0  0
 11 13  1  0  0  0
 13 14  1  0  0  0
 14 15  1  0  0  0
 15 16  1  0  0  0
  6 17  1  0  0  0
 17 18  1  0  0  0
 18 19  1  0  0  0
 19 20  1  0  0  0
 20 21  1  0  0  0
 17  2  1  0  0  0
 20  2  1  0  0  0
 15  5  1  0  0  0
 15  9  1  0  0  0
 12 22  1  0  0  0
 21 23  1  0  0  0
M  END
> <minimizedAffinity>
-10.76966

> <CNNscore>
0.1980442256

> <CNNaffinity>
5.9684023857

> <CNN_VS>
1.1820076704

> <CNNaffinity_variance>
0.0050904970

$$$$
[H]OC1([H])C([H])([H])C([H])([H])C2([H])C3([H])C([H])([H])C([H])([H])C4([H])C([H])([H])[C@]([H])(O[H])C([H])([H])C([H])([H])[C@]4(C([H])([H])[H])C3([H])C([H])([H])C([H])([H])[C@]12C([H])([H])[H]


 23 26  0  0  0  0  0  0  0  0999 V2000
   -7.4789  -10.1252    7.9820 C   0  0  0  0  0  0  0  0  0  0  0  0
   -7.8183   -8.8943    7.2108 C   0  0  0  0  0  0  0  0  0  0  0  0
   -7.1488   -8.9271    5.8808 C   0  0  0  0  0  0  0  0  0  0  0  0
   -5.9315   -7.9991    5.8093 C   0  0  0  0  0  0  0  0  0  0  0  0
   -5.1437   -8.0747    7.1296 C   0  0  0  0  0  0  0  0  0  0  0  0
   -5.9552   -7.5631    8.2724 C   0  0  0  0  0  0  0  0  0  0  0  0
   -5.6746   -6.1806    8.7305 C   0  0  0  0  0  0  0  0  0  0  0  0
   -4.3830   -5.5892    8.2737 C   0  0  0  0  0  0  0  0  0  0  0  0
   -3.3950   -6.7233    8.2004 C   0  0  0  0  0  0  0  0  0  0  0  0
   -2.0233   -6.1540    8.1500 C   0  0  0  0  0  0  0  0  0  0  0  0
   -1.7828   -5.3618    6.9060 C   0  0  0  0  0  0  0  0  0  0  0  0
   -2.3460   -4.0897    6.9354 O   0  0  0  0  0  0  0  0  0  0  0  0
   -2.1500   -6.1660    5.7146 C   0  0  0  0  0  0  0  0  0  0  0  0
   -3.5041   -6.7838    5.7243 C   0  0  0  0  0  0  0  0  0  0  0  0
   -3.7643   -7.5618    7.0067 C   0  0  0  0  0  0  0  0  0  0  0  0
   -2.7324   -8.7042    6.9646 C   0  0  0  0  0  0  0  0  0  0  0  0
   -7.3827   -7.6145    7.8608 C   0  0  0  0  0  0  0  0  0  0  0  0
   -8.3920   -7.4127    8.9209 C   0  0  0  0  0  0  0  0  0  0  0  0
   -9.6632   -7.5738    8.0945 C   0  0  0  0  0  0  0  0  0  0  0  0
   -9.3181   -8.6937    7.1348 C   0  0  0  0  0  0  0  0  0  0  0  0
  -10.0293   -9.8131    7.5636 O   0  0  0  0  0  0  0  0  0  0  0  0
   -2.2065   -3.7107    7.8201 H   0  0  0  0  0  0  0  0  0  0  0  0
  -10.1218   -9.7591    8.5471 H   0  0  0  0  0  0  0  0  0  0  0  0
  2  1  1  0  0  0
  2  3  1  0  0  0
  3  4  1  0  0  0
  4  5  1  0  0  0
  5  6  1  0  0  0
  6  7  1  0  0  0
  7  8  1  0  0  0
  8  9  1  0  0  0
  9 10  1  0  0  0
 10 11  1  0  0  0
 11 12  1  0  0  0
 11 13  1  0  0  0
 13 14  1  0  0  0
 14 15  1  0  0  0
 15 16  1  0  0  0
  6 17  1  0  0  0
 17 18  1  0  0  0
 18 19  1  0  0  0
 19 20  1  0  0  0
 20 21  1  0  0  0
 17  2  1  0  0  0
 20  2  1  0  0  0
 15  5  1  0  0  0
 15  9  1  0  0  0
 12 22  1  0  0  0
 21 23  1  0  0  0
M  END
> <minimizedAffinity>
-6.38103

> <CNNscore>
0.1724291146

> <CNNaffinity>
4.8218421936

> <CNN_VS>
0.8314259648

> <CNNaffinity_variance>
0.0818291083

$$$$
[H]OC1([H])C([H])([H])C([H])([H])C2([H])C3([H])C([H])([H])C([H])([H])C4=C([H])C(=O)C([H])([H])C([H])([H])[C@]4(C([H])([H])[H])C3([H])C([H])([H])C([H])([H])[C@]12C([H])([H])[H]


 22 25  0  0  0  0  0  0  0  0999 V2000
  -19.1397  -10.3321    4.8429 C   0  0  0  0  0  0  0  0  0  0  0  0
  -19.4014   -9.1094    5.6992 C   0  0  0  0  0  0  0  0  0  0  0  0
  -19.6338   -7.9175    4.8152 C   0  0  0  0  0  0  0  0  0  0  0  0
  -18.3038   -7.4804    4.2944 C   0  0  0  0  0  0  0  0  0  0  0  0
  -17.4949   -6.9176    5.4255 C   0  0  0  0  0  0  0  0  0  0  0  0
  -17.6354   -7.5993    6.7226 C   0  0  0  0  0  0  0  0  0  0  0  0
  -16.3444   -7.8361    7.4755 C   0  0  0  0  0  0  0  0  0  0  0  0
  -15.2774   -6.8507    7.2610 C   0  0  0  0  0  0  0  0  0  0  0  0
  -15.2414   -6.2119    5.9327 C   0  0  0  0  0  0  0  0  0  0  0  0
  -14.5107   -5.1285    5.7795 C   0  0  0  0  0  0  0  0  0  0  0  0
  -14.4497   -4.4607    4.4621 C   0  0  0  0  0  0  0  0  0  0  0  0
  -14.1079   -3.2645    4.3845 O   0  0  0  0  0  0  0  0  0  0  0  0
  -14.8205   -5.3305    3.3204 C   0  0  0  0  0  0  0  0  0  0  0  0
  -16.0763   -6.0951    3.6096 C   0  0  0  0  0  0  0  0  0  0  0  0
  -16.0508   -6.8787    4.8966 C   0  0  0  0  0  0  0  0  0  0  0  0
  -15.5610   -8.2785    4.6047 C   0  0  0  0  0  0  0  0  0  0  0  0
  -18.3556   -8.9016    6.7368 C   0  0  0  0  0  0  0  0  0  0  0  0
  -19.0687   -9.1045    8.0845 C   0  0  0  0  0  0  0  0  0  0  0  0
  -20.2086  -10.0033    7.7474 C   0  0  0  0  0  0  0  0  0  0  0  0
  -20.7084   -9.3805    6.4367 C   0  0  0  0  0  0  0  0  0  0  0  0
  -21.4792  -10.3355    5.8166 O   0  0  0  0  0  0  0  0  0  0  0  0
  -22.2350   -9.9821    5.2931 H   0  0  0  0  0  0  0  0  0  0  0  0
  2  1  1  0  0  0
  2  3  1  0  0  0
  3  4  1  0  0  0
  4  5  1  0  0  0
  5  6  1  0  0  0
  6  7  1  0  0  0
  7  8  1  0  0  0
  8  9  1  0  0  0
  9 10  2  0  0  0
 10 11  1  0  0  0
 11 12  2  0  0  0
 11 13  1  0  0  0
 13 14  1  0  0  0
 14 15  1  0  0  0
 15 16  1  0  0  0
  6 17  1  0  0  0
 17 18  1  0  0  0
 18 19  1  0  0  0
 19 20  1  0  0  0
 20 21  1  0  0  0
 17  2  1  0  0  0
 20  2  1  0  0  0
 15  5  1  0  0  0
 15  9  1  0  0  0
 21 22  1  0  0  0
M  END
> <minimizedAffinity>
7.52547

> <CNNscore>
0.5071560144

> <CNNaffinity>
6.1545419693

> <CNN_VS>
3.1213128567

> <CNNaffinity_variance>
0.6744002700

$$$$
[H]OC1([H])C([H])([H])C([H])([H])C2([H])C3([H])C([H])([H])C([H])([H])C4=C([H])C(=O)C([H])([H])C([H])([H])[C@]4(C([H])([H])[H])C3([H])C([H])([H])C([H])([H])[C@]12C([H])([H])[H]


 22 25  0  0  0  0  0  0  0  0999 V2000
  -15.5159   -6.7579    6.1623 C   0  0  0  0  0  0  0  0  0  0  0  0
  -14.7853   -7.9256    6.7944 C   0  0  0  0  0  0  0  0  0  0  0  0
  -15.3209   -8.1641    8.1773 C   0  0  0  0  0  0  0  0  0  0  0  0
  -14.7537   -7.1058    9.0657 C   0  0  0  0  0  0  0  0  0  0  0  0
  -13.2797   -7.3358    9.2231 C   0  0  0  0  0  0  0  0  0  0  0  0
  -12.5673   -7.8079    8.0246 C   0  0  0  0  0  0  0  0  0  0  0  0
  -11.2380   -7.1380    7.7526 C   0  0  0  0  0  0  0  0  0  0  0  0
  -10.4935   -6.6709    8.9287 C   0  0  0  0  0  0  0  0  0  0  0  0
  -11.3053   -6.2412   10.0821 C   0  0  0  0  0  0  0  0  0  0  0  0
  -10.7100   -6.0967   11.2465 C   0  0  0  0  0  0  0  0  0  0  0  0
  -11.4914   -5.6669   12.4255 C   0  0  0  0  0  0  0  0  0  0  0  0
  -11.0653   -5.8976   13.5739 O   0  0  0  0  0  0  0  0  0  0  0  0
  -12.7598   -4.9739   12.0961 C   0  0  0  0  0  0  0  0  0  0  0  0
  -13.5218   -5.7152   11.0402 C   0  0  0  0  0  0  0  0  0  0  0  0
  -12.7328   -6.0150    9.7917 C   0  0  0  0  0  0  0  0  0  0  0  0
  -12.9416   -4.8915    8.8024 C   0  0  0  0  0  0  0  0  0  0  0  0
  -13.3061   -7.7774    6.7331 C   0  0  0  0  0  0  0  0  0  0  0  0
  -12.8185   -8.9075    5.8105 C   0  0  0  0  0  0  0  0  0  0  0  0
  -13.9959   -9.1829    4.9392 C   0  0  0  0  0  0  0  0  0  0  0  0
  -15.1420   -9.1509    5.9594 C   0  0  0  0  0  0  0  0  0  0  0  0
  -16.3027   -8.9838    5.2414 O   0  0  0  0  0  0  0  0  0  0  0  0
  -17.0944   -9.4273    5.6245 H   0  0  0  0  0  0  0  0  0  0  0  0
  2  1  1  0  0  0
  2  3  1  0  0  0
  3  4  1  0  0  0
  4  5  1  0  0  0
  5  6  1  0  0  0
  6  7  1  0  0  0
  7  8  1  0  0  0
  8  9  1  0  0  0
  9 10  2  0  0  0
 10 11  1  0  0  0
 11 12  2  0  0  0
 11 13  1  0  0  0
 13 14  1  0  0  0
 14 15  1  0  0  0
 15 16  1  0  0  0
  6 17  1  0  0  0
 17 18  1  0  0  0
 18 19  1  0  0  0
 19 20  1  0  0  0
 20 21  1  0  0  0
 17  2  1  0  0  0
 20  2  1  0  0  0
 15  5  1  0  0  0
 15  9  1  0  0  0
 21 22  1  0  0  0
M  END
> <minimizedAffinity>
-1.07856

> <CNNscore>
0.4688203633

> <CNNaffinity>
6.1465024948

> <CNN_VS>
2.8816056252

> <CNNaffinity_variance>
0.4652022421

$$$$
[H]OC1([H])C([H])([H])C([H])([H])C2([H])C3([H])C([H])([H])C([H])([H])C4=C([H])C(=O)C([H])([H])C([H])([H])[C@]4(C([H])([H])[H])C3([H])C([H])([H])C([H])([H])[C@]12C([H])([H])[H]


 22 25  0  0  0  0  0  0  0  0999 V2000
  -15.0563   -9.6261    7.4892 C   0  0  0  0  0  0  0  0  0  0  0  0
  -14.4138   -8.5631    6.6209 C   0  0  0  0  0  0  0  0  0  0  0  0
  -13.4665   -9.2112    5.6518 C   0  0  0  0  0  0  0  0  0  0  0  0
  -12.2340   -9.5812    6.4102 C   0  0  0  0  0  0  0  0  0  0  0  0
  -11.5116   -8.3296    6.8128 C   0  0  0  0  0  0  0  0  0  0  0  0
  -12.3589   -7.1944    7.2135 C   0  0  0  0  0  0  0  0  0  0  0  0
  -11.9025   -6.4464    8.4471 C   0  0  0  0  0  0  0  0  0  0  0  0
  -10.4553   -6.4221    8.6935 C   0  0  0  0  0  0  0  0  0  0  0  0
   -9.6986   -7.6005    8.2323 C   0  0  0  0  0  0  0  0  0  0  0  0
   -8.3881   -7.5116    8.1568 C   0  0  0  0  0  0  0  0  0  0  0  0
   -7.5956   -8.6726    7.6992 C   0  0  0  0  0  0  0  0  0  0  0  0
   -6.4444   -8.5047    7.2520 O   0  0  0  0  0  0  0  0  0  0  0  0
   -8.2923   -9.9748    7.8286 C   0  0  0  0  0  0  0  0  0  0  0  0
   -9.6941   -9.8916    7.3059 C   0  0  0  0  0  0  0  0  0  0  0  0
  -10.5193   -8.7789    7.8992 C   0  0  0  0  0  0  0  0  0  0  0  0
  -11.2638   -9.3126    9.1014 C   0  0  0  0  0  0  0  0  0  0  0  0
  -13.8089   -7.4611    7.4167 C   0  0  0  0  0  0  0  0  0  0  0  0
  -14.6361   -6.2092    7.0789 C   0  0  0  0  0  0  0  0  0  0  0  0
  -15.9611   -6.7609    6.6775 C   0  0  0  0  0  0  0  0  0  0  0  0
  -15.5418   -7.9479    5.7995 C   0  0  0  0  0  0  0  0  0  0  0  0
  -16.6383   -8.7720    5.7033 O   0  0  0  0  0  0  0  0  0  0  0  0
  -16.7234   -9.2500    4.8461 H   0  0  0  0  0  0  0  0  0  0  0  0
  2  1  1  0  0  0
  2  3  1  0  0  0
  3  4  1  0  0  0
  4  5  1  0  0  0
  5  6  1  0  0  0
  6  7  1  0  0  0
  7  8  1  0  0  0
  8  9  1  0  0  0
  9 10  2  0  0  0
 10 11  1  0  0  0
 11 12  2  0  0  0
 11 13  1  0  0  0
 13 14  1  0  0  0
 14 15  1  0  0  0
 15 16  1  0  0  0
  6 17  1  0  0  0
 17 18  1  0  0  0
 18 19  1  0  0  0
 19 20  1  0  0  0
 20 21  1  0  0  0
 17  2  1  0  0  0
 20  2  1  0  0  0
 15  5  1  0  0  0
 15  9  1  0  0  0
 21 22  1  0  0  0
M  END
> <minimizedAffinity>
-5.87495

> <CNNscore>
0.4387870133

> <CNNaffinity>
6.2259979248

> <CNN_VS>
2.7318871021

> <CNNaffinity_variance>
0.5378196836

$$$$
[H]OC1([H])C([H])([H])C([H])([H])C2([H])C3([H])C([H])([H])C([H])([H])C4=C([H])C(=O)C([H])([H])C([H])([H])[C@]4(C([H])([H])[H])C3([H])C([H])([H])C([H])([H])[C@]12C([H])([H])[H]


 22 25  0  0  0  0  0  0  0  0999 V2000
  -12.8590  -10.1627    9.0130 C   0  0  0  0  0  0  0  0  0  0  0  0
  -12.9060   -9.0305    8.0066 C   0  0  0  0  0  0  0  0  0  0  0  0
  -12.3089   -9.4889    6.7067 C   0  0  0  0  0  0  0  0  0  0  0  0
  -10.8251   -9.5055    6.8768 C   0  0  0  0  0  0  0  0  0  0  0  0
  -10.3302   -8.0951    7.0045 C   0  0  0  0  0  0  0  0  0  0  0  0
  -11.1895   -7.1750    7.7675 C   0  0  0  0  0  0  0  0  0  0  0  0
  -10.4676   -6.2665    8.7387 C   0  0  0  0  0  0  0  0  0  0  0  0
   -9.0993   -5.8802    8.3722 C   0  0  0  0  0  0  0  0  0  0  0  0
   -8.3339   -6.8677    7.5893 C   0  0  0  0  0  0  0  0  0  0  0  0
   -7.2328   -6.4711    6.9882 C   0  0  0  0  0  0  0  0  0  0  0  0
   -6.4387   -7.4329    6.1946 C   0  0  0  0  0  0  0  0  0  0  0  0
   -5.6484   -7.0203    5.3236 O   0  0  0  0  0  0  0  0  0  0  0  0
   -6.6819   -8.8541    6.5390 C   0  0  0  0  0  0  0  0  0  0  0  0
   -8.1490   -9.1419    6.6400 C   0  0  0  0  0  0  0  0  0  0  0  0
   -8.9049   -8.2267    7.5684 C   0  0  0  0  0  0  0  0  0  0  0  0
   -8.9405   -8.8505    8.9446 C   0  0  0  0  0  0  0  0  0  0  0  0
  -12.3180   -7.7697    8.5340 C   0  0  0  0  0  0  0  0  0  0  0  0
  -13.4888   -6.7760    8.6209 C   0  0  0  0  0  0  0  0  0  0  0  0
  -14.6841   -7.6531    8.7724 C   0  0  0  0  0  0  0  0  0  0  0  0
  -14.3833   -8.7550    7.7473 C   0  0  0  0  0  0  0  0  0  0  0  0
  -15.1868   -9.8228    8.0711 O   0  0  0  0  0  0  0  0  0  0  0  0
  -15.4943  -10.3578    7.3033 H   0  0  0  0  0  0  0  0  0  0  0  0
  2  1  1  0  0  0
  2  3  1  0  0  0
  3  4  1  0  0  0
  4  5  1  0  0  0
  5  6  1  0  0  0
  6  7  1  0  0  0
  7  8  1  0  0  0
  8  9  1  0  0  0
  9 10  2  0  0  0
 10 11  1  0  0  0
 11 12  2  0  0  0
 11 13  1  0  0  0
 13 14  1  0  0  0
 14 15  1  0  0  0
 15 16  1  0  0  0
  6 17  1  0  0  0
 17 18  1  0  0  0
 18 19  1  0  0  0
 19 20  1  0  0  0
 20 21  1  0  0  0
 17  2  1  0  0  0
 20  2  1  0  0  0
 15  5  1  0  0  0
 15  9  1  0  0  0
 21 22  1  0  0  0
M  END
> <minimizedAffinity>
-5.86653

> <CNNscore>
0.4085642695

> <CNNaffinity>
5.9923758507

> <CNN_VS>
2.4482705593

> <CNNaffinity_variance>
0.1817334890

$$$$
[H]OC1([H])C([H])([H])C([H])([H])C2([H])C3([H])C([H])([H])C([H])([H])C4=C([H])C(=O)C([H])([H])C([H])([H])[C@]4(C([H])([H])[H])C3([H])C([H])([H])C([H])([H])[C@]12C([H])([H])[H]


 22 25  0  0  0  0  0  0  0  0999 V2000
   -3.4227   -6.2862    5.2328 C   0  0  0  0  0  0  0  0  0  0  0  0
   -3.4203   -7.1586    6.4720 C   0  0  0  0  0  0  0  0  0  0  0  0
   -3.6686   -8.5875    6.0808 C   0  0  0  0  0  0  0  0  0  0  0  0
   -5.1252   -8.7223    5.7790 C   0  0  0  0  0  0  0  0  0  0  0  0
   -5.9057   -8.5732    7.0515 C   0  0  0  0  0  0  0  0  0  0  0  0
   -5.3996   -7.5744    8.0071 C   0  0  0  0  0  0  0  0  0  0  0  0
   -6.4516   -6.6926    8.6438 C   0  0  0  0  0  0  0  0  0  0  0  0
   -7.7798   -7.2920    8.8228 C   0  0  0  0  0  0  0  0  0  0  0  0
   -8.1786   -8.2973    7.8206 C   0  0  0  0  0  0  0  0  0  0  0  0
   -9.2091   -9.0708    8.0868 C   0  0  0  0  0  0  0  0  0  0  0  0
   -9.6387  -10.0899    7.1058 C   0  0  0  0  0  0  0  0  0  0  0  0
  -10.3241  -11.0626    7.4767 O   0  0  0  0  0  0  0  0  0  0  0  0
   -9.1840   -9.8303    5.7189 C   0  0  0  0  0  0  0  0  0  0  0  0
   -7.7320   -9.4612    5.6868 C   0  0  0  0  0  0  0  0  0  0  0  0
   -7.3544   -8.3223    6.5986 C   0  0  0  0  0  0  0  0  0  0  0  0
   -7.4453   -7.0277    5.8239 C   0  0  0  0  0  0  0  0  0  0  0  0
   -4.3332   -6.6515    7.5319 C   0  0  0  0  0  0  0  0  0  0  0  0
   -3.4191   -6.2429    8.6995 C   0  0  0  0  0  0  0  0  0  0  0  0
   -2.1208   -5.9314    8.0374 C   0  0  0  0  0  0  0  0  0  0  0  0
   -2.0054   -7.0892    7.0366 C   0  0  0  0  0  0  0  0  0  0  0  0
   -1.0777   -6.7054    6.0970 O   0  0  0  0  0  0  0  0  0  0  0  0
   -0.5359   -7.4396    5.7257 H   0  0  0  0  0  0  0  0  0  0  0  0
  2  1  1  0  0  0
  2  3  1  0  0  0
  3  4  1  0  0  0
  4  5  1  0  0  0
  5  6  1  0  0  0
  6  7  1  0  0  0
  7  8  1  0  0  0
  8  9  1  0  0  0
  9 10  2  0  0  0
 10 11  1  0  0  0
 11 12  2  0  0  0
 11 13  1  0  0  0
 13 14  1  0  0  0
 14 15  1  0  0  0
 15 16  1  0  0  0
  6 17  1  0  0  0
 17 18  1  0  0  0
 18 19  1  0  0  0
 19 20  1  0  0  0
 20 21  1  0  0  0
 17  2  1  0  0  0
 20  2  1  0  0  0
 15  5  1  0  0  0
 15  9  1  0  0  0
 21 22  1  0  0  0
M  END
> <minimizedAffinity>
-0.71053

> <CNNscore>
0.3726951480

> <CNNaffinity>
5.0973443985

> <CNN_VS>
1.8997554779

> <CNNaffinity_variance>
0.4676156640

$$$$
[H]OC1([H])C([H])([H])C([H])([H])C2([H])C3([H])C([H])([H])C([H])([H])C4=C([H])C(=O)C([H])([H])C([H])([H])[C@]4(C([H])([H])[H])C3([H])C([H])([H])C([H])([H])[C@]12C([H])([H])[H]


 22 25  0  0  0  0  0  0  0  0999 V2000
   -2.5657   -1.9601    5.3042 C   0  0  0  0  0  0  0  0  0  0  0  0
   -2.8899   -3.0217    4.2724 C   0  0  0  0  0  0  0  0  0  0  0  0
   -4.3733   -3.2559    4.2415 C   0  0  0  0  0  0  0  0  0  0  0  0
   -4.7227   -4.0719    5.4427 C   0  0  0  0  0  0  0  0  0  0  0  0
   -4.1533   -5.4504    5.2818 C   0  0  0  0  0  0  0  0  0  0  0  0
   -2.8284   -5.5325    4.6455 C   0  0  0  0  0  0  0  0  0  0  0  0
   -1.8506   -6.4837    5.3004 C   0  0  0  0  0  0  0  0  0  0  0  0
   -2.4322   -7.6544    5.9687 C   0  0  0  0  0  0  0  0  0  0  0  0
   -3.7731   -7.4685    6.5532 C   0  0  0  0  0  0  0  0  0  0  0  0
   -4.4589   -8.5374    6.8972 C   0  0  0  0  0  0  0  0  0  0  0  0
   -5.8065   -8.3904    7.4867 C   0  0  0  0  0  0  0  0  0  0  0  0
   -6.6093   -9.3433    7.4530 O   0  0  0  0  0  0  0  0  0  0  0  0
   -6.0686   -7.0588    8.0831 C   0  0  0  0  0  0  0  0  0  0  0  0
   -5.6329   -5.9595    7.1627 C   0  0  0  0  0  0  0  0  0  0  0  0
   -4.2057   -6.0659    6.6907 C   0  0  0  0  0  0  0  0  0  0  0  0
   -3.3207   -5.2873    7.6368 C   0  0  0  0  0  0  0  0  0  0  0  0
   -2.0831   -4.2592    4.4500 C   0  0  0  0  0  0  0  0  0  0  0  0
   -1.1886   -4.3484    3.2019 C   0  0  0  0  0  0  0  0  0  0  0  0
   -1.0603   -2.9312    2.7591 C   0  0  0  0  0  0  0  0  0  0  0  0
   -2.5024   -2.4314    2.9207 C   0  0  0  0  0  0  0  0  0  0  0  0
   -2.4424   -1.0578    2.9394 O   0  0  0  0  0  0  0  0  0  0  0  0
   -3.2201   -0.6036    2.5405 H   0  0  0  0  0  0  0  0  0  0  0  0
  2  1  1  0  0  0
  2  3  1  0  0  0
  3  4  1  0  0  0
  4  5  1  0  0  0
  5  6  1  0  0  0
  6  7  1  0  0  0
  7  8  1  0  0  0
  8  9  1  0  0  0
  9 10  2  0  0  0
 10 11  1  0  0  0
 11 12  2  0  0  0
 11 13  1  0  0  0
 13 14  1  0  0  0
 14 15  1  0  0  0
 15 16  1  0  0  0
  6 17  1  0  0  0
 17 18  1  0  0  0
 18 19  1  0  0  0
 19 20  1  0  0  0
 20 21  1  0  0  0
 17  2  1  0  0  0
 20  2  1  0  0  0
 15  5  1  0  0  0
 15  9  1  0  0  0
 21 22  1  0  0  0
M  END
> <minimizedAffinity>
-3.46248

> <CNNscore>
0.3210653961

> <CNNaffinity>
4.4148712158

> <CNN_VS>
1.4174623489

> <CNNaffinity_variance>
0.2270223200

$$$$
[H]OC1([H])C([H])([H])C([H])([H])C2([H])C3([H])C([H])([H])C([H])([H])C4=C([H])C(=O)C([H])([H])C([H])([H])[C@]4(C([H])([H])[H])C3([H])C([H])([H])C([H])([H])[C@]12C([H])([H])[H]


 22 25  0  0  0  0  0  0  0  0999 V2000
   -7.7509   -6.3329    6.9998 C   0  0  0  0  0  0  0  0  0  0  0  0
   -6.8501   -7.4694    7.4399 C   0  0  0  0  0  0  0  0  0  0  0  0
   -6.8881   -7.5897    8.9367 C   0  0  0  0  0  0  0  0  0  0  0  0
   -6.0544   -6.4837    9.4959 C   0  0  0  0  0  0  0  0  0  0  0  0
   -4.6136   -6.7408    9.1664 C   0  0  0  0  0  0  0  0  0  0  0  0
   -4.3472   -7.3199    7.8395 C   0  0  0  0  0  0  0  0  0  0  0  0
   -3.1873   -6.7082    7.0844 C   0  0  0  0  0  0  0  0  0  0  0  0
   -2.0898   -6.1748    7.9009 C   0  0  0  0  0  0  0  0  0  0  0  0
   -2.4651   -5.6386    9.2221 C   0  0  0  0  0  0  0  0  0  0  0  0
   -1.5120   -5.4238   10.1034 C   0  0  0  0  0  0  0  0  0  0  0  0
   -1.8500   -4.8864   11.4384 C   0  0  0  0  0  0  0  0  0  0  0  0
   -1.0617   -5.0423   12.3912 O   0  0  0  0  0  0  0  0  0  0  0  0
   -3.1551   -4.1861   11.5007 C   0  0  0  0  0  0  0  0  0  0  0  0
   -4.2286   -4.9834   10.8246 C   0  0  0  0  0  0  0  0  0  0  0  0
   -3.9069   -5.3964    9.4116 C   0  0  0  0  0  0  0  0  0  0  0  0
   -4.4368   -4.3446    8.4642 C   0  0  0  0  0  0  0  0  0  0  0  0
   -5.4782   -7.3660    6.8734 C   0  0  0  0  0  0  0  0  0  0  0  0
   -5.3305   -8.5744    5.9333 C   0  0  0  0  0  0  0  0  0  0  0  0
   -6.7327   -8.8822    5.5332 C   0  0  0  0  0  0  0  0  0  0  0  0
   -7.4677   -8.7435    6.8733 C   0  0  0  0  0  0  0  0  0  0  0  0
   -8.8025   -8.5993    6.5764 O   0  0  0  0  0  0  0  0  0  0  0  0
   -9.4187   -8.9916    7.2372 H   0  0  0  0  0  0  0  0  0  0  0  0
  2  1  1  0  0  0
  2  3  1  0  0  0
  3  4  1  0  0  0
  4  5  1  0  0  0
  5  6  1  0  0  0
  6  7  1  0  0  0
  7  8  1  0  0  0
  8  9  1  0  0  0
  9 10  2  0  0  0
 10 11  1  0  0  0
 11 12  2  0  0  0
 11 13  1  0  0  0
 13 14  1  0  0  0
 14 15  1  0  0  0
 15 16  1  0  0  0
  6 17  1  0  0  0
 17 18  1  0  0  0
 18 19  1  0  0  0
 19 20  1  0  0  0
 20 21  1  0  0  0
 17  2  1  0  0  0
 20  2  1  0  0  0
 15  5  1  0  0  0
 15  9  1  0  0  0
 21 22  1  0  0  0
M  END
> <minimizedAffinity>
-2.82466

> <CNNscore>
0.3180367947

> <CNNaffinity>
4.7648882866

> <CNN_VS>
1.5154098272

> <CNNaffinity_variance>
0.3814899921

$$$$
[H]OC1([H])C([H])([H])C([H])([H])C2([H])C3([H])C([H])([H])C([H])([H])C4=C([H])C(=O)C([H])([H])C([H])([H])[C@]4(C([H])([H])[H])C3([H])C([H])([H])C([H])([H])[C@]12C([H])([H])[H]


 22 25  0  0  0  0  0  0  0  0999 V2000
   -8.6877   -7.6974    5.6868 C   0  0  0  0  0  0  0  0  0  0  0  0
   -8.6405   -8.1886    7.1197 C   0  0  0  0  0  0  0  0  0  0  0  0
   -9.4004   -9.4793    7.2335 C   0  0  0  0  0  0  0  0  0  0  0  0
  -10.8560   -9.1450    7.2147 C   0  0  0  0  0  0  0  0  0  0  0  0
  -11.2101   -8.4242    8.4818 C   0  0  0  0  0  0  0  0  0  0  0  0
  -10.2026   -7.4798    8.9917 C   0  0  0  0  0  0  0  0  0  0  0  0
  -10.7430   -6.1521    9.4765 C   0  0  0  0  0  0  0  0  0  0  0  0
  -12.1014   -6.1682   10.0334 C   0  0  0  0  0  0  0  0  0  0  0  0
  -13.0238   -7.1685    9.4656 C   0  0  0  0  0  0  0  0  0  0  0  0
  -14.1395   -7.4285   10.1125 C   0  0  0  0  0  0  0  0  0  0  0  0
  -15.0891   -8.4251    9.5736 C   0  0  0  0  0  0  0  0  0  0  0  0
  -15.9219   -8.9646   10.3279 O   0  0  0  0  0  0  0  0  0  0  0  0
  -14.9390   -8.6868    8.1222 C   0  0  0  0  0  0  0  0  0  0  0  0
  -13.5001   -8.8881    7.7557 C   0  0  0  0  0  0  0  0  0  0  0  0
  -12.5792   -7.7813    8.2006 C   0  0  0  0  0  0  0  0  0  0  0  0
  -12.4635   -6.7668    7.0862 C   0  0  0  0  0  0  0  0  0  0  0  0
   -9.0609   -7.1480    8.0966 C   0  0  0  0  0  0  0  0  0  0  0  0
   -7.8045   -6.8325    8.9259 C   0  0  0  0  0  0  0  0  0  0  0  0
   -6.6817   -7.1802    8.0096 C   0  0  0  0  0  0  0  0  0  0  0  0
   -7.1773   -8.5040    7.4117 C   0  0  0  0  0  0  0  0  0  0  0  0
   -6.4428   -8.7186    6.2693 O   0  0  0  0  0  0  0  0  0  0  0  0
   -6.2604   -9.6649    6.0656 H   0  0  0  0  0  0  0  0  0  0  0  0
  2  1  1  0  0  0
  2  3  1  0  0  0
  3  4  1  0  0  0
  4  5  1  0  0  0
  5  6  1  0  0  0
  6  7  1  0  0  0
  7  8  1  0  0  0
  8  9  1  0  0  0
  9 10  2  0  0  0
 10 11  1  0  0  0
 11 12  2  0  0  0
 11 13  1  0  0  0
 13 14  1  0  0  0
 14 15  1  0  0  0
 15 16  1  0  0  0
  6 17  1  0  0  0
 17 18  1  0  0  0
 18 19  1  0  0  0
 19 20  1  0  0  0
 20 21  1  0  0  0
 17  2  1  0  0  0
 20  2  1  0  0  0
 15  5  1  0  0  0
 15  9  1  0  0  0
 21 22  1  0  0  0
M  END
> <minimizedAffinity>
-2.67769

> <CNNscore>
0.3105070591

> <CNNaffinity>
5.7481250763

> <CNN_VS>
1.7848334312

> <CNNaffinity_variance>
0.1282207519

$$$$
[H]OC1([H])C([H])([H])C([H])([H])C2([H])C3([H])C([H])([H])C([H])([H])C4=C([H])C(=O)C([H])([H])C([H])([H])[C@]4(C([H])([H])[H])C3([H])C([H])([H])C([H])([H])[C@]12C([H])([H])[H]


 22 25  0  0  0  0  0  0  0  0999 V2000
   -4.6940   -4.7845   11.9194 C   0  0  0  0  0  0  0  0  0  0  0  0
   -3.3102   -4.3060   11.5282 C   0  0  0  0  0  0  0  0  0  0  0  0
   -3.4272   -3.2181   10.4991 C   0  0  0  0  0  0  0  0  0  0  0  0
   -3.7585   -3.8684    9.1959 C   0  0  0  0  0  0  0  0  0  0  0  0
   -2.5732   -4.6595    8.7272 C   0  0  0  0  0  0  0  0  0  0  0  0
   -1.8086   -5.3594    9.7725 C   0  0  0  0  0  0  0  0  0  0  0  0
   -1.3999   -6.7777    9.4393 C   0  0  0  0  0  0  0  0  0  0  0  0
   -1.1644   -7.0691    8.0197 C   0  0  0  0  0  0  0  0  0  0  0  0
   -1.9687   -6.2954    7.0562 C   0  0  0  0  0  0  0  0  0  0  0  0
   -1.6016   -6.2957    5.7927 C   0  0  0  0  0  0  0  0  0  0  0  0
   -2.3837   -5.5319    4.7976 C   0  0  0  0  0  0  0  0  0  0  0  0
   -1.8607   -5.1974    3.7168 O   0  0  0  0  0  0  0  0  0  0  0  0
   -3.7741   -5.2324    5.2154 C   0  0  0  0  0  0  0  0  0  0  0  0
   -3.8159   -4.7126    6.6202 C   0  0  0  0  0  0  0  0  0  0  0  0
   -3.1268   -5.5894    7.6338 C   0  0  0  0  0  0  0  0  0  0  0  0
   -4.1408   -6.5442    8.2209 C   0  0  0  0  0  0  0  0  0  0  0  0
   -2.4082   -5.4214   11.1332 C   0  0  0  0  0  0  0  0  0  0  0  0
   -1.3043   -5.4550   12.2038 C   0  0  0  0  0  0  0  0  0  0  0  0
   -1.9588   -4.8588   13.4026 C   0  0  0  0  0  0  0  0  0  0  0  0
   -2.7105   -3.6744   12.7800 C   0  0  0  0  0  0  0  0  0  0  0  0
   -3.6666   -3.2928   13.6916 O   0  0  0  0  0  0  0  0  0  0  0  0
   -3.8654   -2.3281   13.7043 H   0  0  0  0  0  0  0  0  0  0  0  0
  2  1  1  0  0  0
  2  3  1  0  0  0
  3  4  1  0  0  0
  4  5  1  0  0  0
  5  6  1  0  0  0
  6  7  1  0  0  0
  7  8  1  0  0  0
  8  9  1  0  0  0
  9 10  2  0  0  0
 10 11  1  0  0  0
 11 12  2  0  0  0
 11 13  1  0  0  0
 13 14  1  0  0  0
 14 15  1  0  0  0
 15 16  1  0  0  0
  6 17  1  0  0  0
 17 18  1  0  0  0
 18 19  1  0  0  0
 19 20  1  0  0  0
 20 21  1  0  0  0
 17  2  1  0  0  0
 20  2  1  0  0  0
 15  5  1  0  0  0
 15  9  1  0  0  0
 21 22  1  0  0  0
M  END
> <minimizedAffinity>
-3.77366

> <CNNscore>
0.2934925258

> <CNNaffinity>
4.3374843597

> <CNN_VS>
1.2730191946

> <CNNaffinity_variance>
0.1877545565

$$$$
