[H]c1c([H])c([H])c(-c2c([H])c([H])c([H])c([H])c2C([H])([H])N(C([H])([H])c2c([H])c([H])c([H])c([H])c2[H])S(=O)(=O)c2c([H])c([H])c(-c3c([H])c([H])c(Cl)c([H])c3[H])c([H])c2[H])c([H])c1[H]


 37 41  0  0  0  0  0  0  0  0999 V2000
  -11.1714   -7.4297    7.8555 N   0  0  0  0  0  0  0  0  0  0  0  0
  -12.8116   -7.9278    7.9751 S   0  0  0  0  0  0  0  0  0  0  0  0
  -13.3449   -7.4172    9.3076 O   0  0  0  0  0  0  0  0  0  0  0  0
  -12.9505   -9.4210    8.0273 O   0  0  0  0  0  0  0  0  0  0  0  0
  -15.4628   -6.0916    4.7345 C   0  0  0  0  0  0  0  0  0  0  0  0
  -14.4534   -5.3397    5.3447 C   0  0  0  0  0  0  0  0  0  0  0  0
  -13.6649   -5.9261    6.3283 C   0  0  0  0  0  0  0  0  0  0  0  0
  -13.8304   -7.2318    6.7389 C   0  0  0  0  0  0  0  0  0  0  0  0
  -14.8377   -7.9461    6.1140 C   0  0  0  0  0  0  0  0  0  0  0  0
  -15.6310   -7.3912    5.1395 C   0  0  0  0  0  0  0  0  0  0  0  0
  -18.8907   -3.6046    0.4860 Cl  0  0  0  0  0  0  0  0  0  0  0  0
  -17.9045   -4.3755    1.7217 C   0  0  0  0  0  0  0  0  0  0  0  0
  -17.0403   -3.5645    2.4522 C   0  0  0  0  0  0  0  0  0  0  0  0
  -16.2481   -4.1342    3.4327 C   0  0  0  0  0  0  0  0  0  0  0  0
  -16.2970   -5.4862    3.7001 C   0  0  0  0  0  0  0  0  0  0  0  0
  -17.1762   -6.2616    2.9451 C   0  0  0  0  0  0  0  0  0  0  0  0
  -17.9726   -5.7281    1.9689 C   0  0  0  0  0  0  0  0  0  0  0  0
  -10.3714   -8.3193    8.6811 C   0  0  0  0  0  0  0  0  0  0  0  0
   -9.6675   -9.3327    7.8690 C   0  0  0  0  0  0  0  0  0  0  0  0
  -10.4112  -10.3771    7.3383 C   0  0  0  0  0  0  0  0  0  0  0  0
   -9.7913  -11.3010    6.5542 C   0  0  0  0  0  0  0  0  0  0  0  0
   -8.4413  -11.1812    6.3030 C   0  0  0  0  0  0  0  0  0  0  0  0
   -7.6894  -10.1542    6.8203 C   0  0  0  0  0  0  0  0  0  0  0  0
   -8.3345   -9.2026    7.6304 C   0  0  0  0  0  0  0  0  0  0  0  0
   -7.4557   -8.1779    8.1517 C   0  0  0  0  0  0  0  0  0  0  0  0
   -7.1561   -7.0717    7.3473 C   0  0  0  0  0  0  0  0  0  0  0  0
   -6.3033   -6.0727    7.7669 C   0  0  0  0  0  0  0  0  0  0  0  0
   -5.7097   -6.1311    9.0082 C   0  0  0  0  0  0  0  0  0  0  0  0
   -5.9939   -7.2116    9.8093 C   0  0  0  0  0  0  0  0  0  0  0  0
   -6.8578   -8.2223    9.3823 C   0  0  0  0  0  0  0  0  0  0  0  0
  -10.9821   -6.0782    8.3169 C   0  0  0  0  0  0  0  0  0  0  0  0
  -11.4897   -5.8447    9.6729 C   0  0  0  0  0  0  0  0  0  0  0  0
  -10.8492   -6.1581   10.8248 C   0  0  0  0  0  0  0  0  0  0  0  0
  -11.4195   -5.8908   12.0456 C   0  0  0  0  0  0  0  0  0  0  0  0
  -12.6598   -5.2960   12.1554 C   0  0  0  0  0  0  0  0  0  0  0  0
  -13.3297   -4.9685   11.0054 C   0  0  0  0  0  0  0  0  0  0  0  0
  -12.7446   -5.2430    9.7947 C   0  0  0  0  0  0  0  0  0  0  0  0
 11 12  1  0  0  0
 12 13  2  0  0  0
 13 14  1  0  0  0
 14 15  2  0  0  0
 15 16  1  0  0  0
 16 17  2  0  0  0
 15  5  1  0  0  0
  5  6  2  0  0  0
  6  7  1  0  0  0
  7  8  2  0  0  0
  8  9  1  0  0  0
  9 10  2  0  0  0
  8  2  1  0  0  0
  2  3  2  0  0  0
  2  4  2  0  0  0
  2  1  1  0  0  0
  1 18  1  0  0  0
 18 19  1  0  0  0
 19 20  2  0  0  0
 20 21  1  0  0  0
 21 22  2  0  0  0
 22 23  1  0  0  0
 23 24  2  0  0  0
 24 25  1  0  0  0
 25 26  2  0  0  0
 26 27  1  0  0  0
 27 28  2  0  0  0
 28 29  1  0  0  0
 29 30  2  0  0  0
  1 31  1  0  0  0
 31 32  1  0  0  0
 32 33  2  0  0  0
 33 34  1  0  0  0
 34 35  2  0  0  0
 35 36  1  0  0  0
 36 37  2  0  0  0
 17 12  1  0  0  0
 10  5  1  0  0  0
 24 19  1  0  0  0
 30 25  1  0  0  0
 37 32  1  0  0  0
M  END
> <minimizedAffinity>
11.28029

> <CNNscore>
0.4827709496

> <CNNaffinity>
6.8317766190

> <CNN_VS>
3.2981832027

> <CNNaffinity_variance>
0.9247096777

$$$$
[H]c1c([H])c([H])c(-c2c([H])c([H])c([H])c([H])c2C([H])([H])N(C([H])([H])c2c([H])c([H])c([H])c([H])c2[H])S(=O)(=O)c2c([H])c([H])c(-c3c([H])c([H])c(Cl)c([H])c3[H])c([H])c2[H])c([H])c1[H]


 37 41  0  0  0  0  0  0  0  0999 V2000
  -10.9671   -7.1127    7.5900 N   0  0  0  0  0  0  0  0  0  0  0  0
   -9.2903   -7.4155    7.3681 S   0  0  0  0  0  0  0  0  0  0  0  0
   -8.7482   -7.9546    8.6858 O   0  0  0  0  0  0  0  0  0  0  0  0
   -8.5165   -6.1594    7.0940 O   0  0  0  0  0  0  0  0  0  0  0  0
   -8.4706  -10.6302    4.2224 C   0  0  0  0  0  0  0  0  0  0  0  0
   -9.5758  -10.7275    5.0742 C   0  0  0  0  0  0  0  0  0  0  0  0
   -9.7971   -9.7345    6.0219 C   0  0  0  0  0  0  0  0  0  0  0  0
   -8.9691   -8.6416    6.1664 C   0  0  0  0  0  0  0  0  0  0  0  0
   -7.8859   -8.5774    5.3073 C   0  0  0  0  0  0  0  0  0  0  0  0
   -7.6441   -9.5446    4.3623 C   0  0  0  0  0  0  0  0  0  0  0  0
   -7.4742  -14.8902    0.1181 Cl  0  0  0  0  0  0  0  0  0  0  0  0
   -7.7536  -13.6088    1.2901 C   0  0  0  0  0  0  0  0  0  0  0  0
   -8.1898  -13.9823    2.5584 C   0  0  0  0  0  0  0  0  0  0  0  0
   -8.4208  -13.0029    3.5076 C   0  0  0  0  0  0  0  0  0  0  0  0
   -8.2283  -11.6673    3.2232 C   0  0  0  0  0  0  0  0  0  0  0  0
   -7.7910  -11.3374    1.9410 C   0  0  0  0  0  0  0  0  0  0  0  0
   -7.5536  -12.2824    0.9805 C   0  0  0  0  0  0  0  0  0  0  0  0
  -11.3513   -7.6465    8.8862 C   0  0  0  0  0  0  0  0  0  0  0  0
  -11.8412   -6.5861    9.7905 C   0  0  0  0  0  0  0  0  0  0  0  0
  -10.9964   -6.1449   10.7990 C   0  0  0  0  0  0  0  0  0  0  0  0
  -11.4111   -5.1413   11.6196 C   0  0  0  0  0  0  0  0  0  0  0  0
  -12.6580   -4.5842   11.4330 C   0  0  0  0  0  0  0  0  0  0  0  0
  -13.5076   -5.0086   10.4401 C   0  0  0  0  0  0  0  0  0  0  0  0
  -13.0746   -6.0463    9.5953 C   0  0  0  0  0  0  0  0  0  0  0  0
  -14.0482   -6.4435    8.6012 C   0  0  0  0  0  0  0  0  0  0  0  0
  -15.0765   -7.3175    8.9741 C   0  0  0  0  0  0  0  0  0  0  0  0
  -16.0208   -7.7615    8.0727 C   0  0  0  0  0  0  0  0  0  0  0  0
  -15.9831   -7.3542    6.7577 C   0  0  0  0  0  0  0  0  0  0  0  0
  -14.9788   -6.4962    6.3765 C   0  0  0  0  0  0  0  0  0  0  0  0
  -14.0233   -6.0479    7.2908 C   0  0  0  0  0  0  0  0  0  0  0  0
  -11.7694   -7.7456    6.5747 C   0  0  0  0  0  0  0  0  0  0  0  0
  -12.3472   -9.0257    6.9969 C   0  0  0  0  0  0  0  0  0  0  0  0
  -11.8716  -10.2540    6.6796 C   0  0  0  0  0  0  0  0  0  0  0  0
  -12.4935  -11.3915    7.1340 C   0  0  0  0  0  0  0  0  0  0  0  0
  -13.6212  -11.3374    7.9275 C   0  0  0  0  0  0  0  0  0  0  0  0
  -14.1235  -10.1073    8.2634 C   0  0  0  0  0  0  0  0  0  0  0  0
  -13.4892   -8.9817    7.8004 C   0  0  0  0  0  0  0  0  0  0  0  0
 11 12  1  0  0  0
 12 13  2  0  0  0
 13 14  1  0  0  0
 14 15  2  0  0  0
 15 16  1  0  0  0
 16 17  2  0  0  0
 15  5  1  0  0  0
  5  6  2  0  0  0
  6  7  1  0  0  0
  7  8  2  0  0  0
  8  9  1  0  0  0
  9 10  2  0  0  0
  8  2  1  0  0  0
  2  3  2  0  0  0
  2  4  2  0  0  0
  2  1  1  0  0  0
  1 18  1  0  0  0
 18 19  1  0  0  0
 19 20  2  0  0  0
 20 21  1  0  0  0
 21 22  2  0  0  0
 22 23  1  0  0  0
 23 24  2  0  0  0
 24 25  1  0  0  0
 25 26  2  0  0  0
 26 27  1  0  0  0
 27 28  2  0  0  0
 28 29  1  0  0  0
 29 30  2  0  0  0
  1 31  1  0  0  0
 31 32  1  0  0  0
 32 33  2  0  0  0
 33 34  1  0  0  0
 34 35  2  0  0  0
 35 36  1  0  0  0
 36 37  2  0  0  0
 17 12  1  0  0  0
 10  5  1  0  0  0
 24 19  1  0  0  0
 30 25  1  0  0  0
 37 32  1  0  0  0
M  END
> <minimizedAffinity>
12.31940

> <CNNscore>
0.4399590194

> <CNNaffinity>
6.5378751755

> <CNN_VS>
2.8763971329

> <CNNaffinity_variance>
1.0833266973

$$$$
[H]c1c([H])c([H])c(-c2c([H])c([H])c([H])c([H])c2C([H])([H])N(C([H])([H])c2c([H])c([H])c([H])c([H])c2[H])S(=O)(=O)c2c([H])c([H])c(-c3c([H])c([H])c(Cl)c([H])c3[H])c([H])c2[H])c([H])c1[H]


 37 41  0  0  0  0  0  0  0  0999 V2000
  -10.0440   -8.5349    7.9188 N   0  0  0  0  0  0  0  0  0  0  0  0
  -11.1329   -9.5329    7.0409 S   0  0  0  0  0  0  0  0  0  0  0  0
  -11.6049  -10.6306    7.9859 O   0  0  0  0  0  0  0  0  0  0  0  0
  -10.4628  -10.2399    5.8995 O   0  0  0  0  0  0  0  0  0  0  0  0
  -14.8985   -7.3336    5.6679 C   0  0  0  0  0  0  0  0  0  0  0  0
  -14.6976   -8.6795    5.3444 C   0  0  0  0  0  0  0  0  0  0  0  0
  -13.5412   -9.3201    5.7753 C   0  0  0  0  0  0  0  0  0  0  0  0
  -12.5674   -8.6855    6.5168 C   0  0  0  0  0  0  0  0  0  0  0  0
  -12.7990   -7.3548    6.8188 C   0  0  0  0  0  0  0  0  0  0  0  0
  -13.9326   -6.6981    6.4057 C   0  0  0  0  0  0  0  0  0  0  0  0
  -19.8731   -4.5282    3.8324 Cl  0  0  0  0  0  0  0  0  0  0  0  0
  -18.4353   -5.3918    4.3620 C   0  0  0  0  0  0  0  0  0  0  0  0
  -17.3507   -4.6315    4.7909 C   0  0  0  0  0  0  0  0  0  0  0  0
  -16.2018   -5.2746    5.2148 C   0  0  0  0  0  0  0  0  0  0  0  0
  -16.1094   -6.6505    5.2209 C   0  0  0  0  0  0  0  0  0  0  0  0
  -17.2186   -7.3734    4.7834 C   0  0  0  0  0  0  0  0  0  0  0  0
  -18.3689   -6.7669    4.3582 C   0  0  0  0  0  0  0  0  0  0  0  0
   -8.7227   -9.1355    7.8400 C   0  0  0  0  0  0  0  0  0  0  0  0
   -7.6760   -8.2210    8.3402 C   0  0  0  0  0  0  0  0  0  0  0  0
   -7.4980   -8.1191    9.7126 C   0  0  0  0  0  0  0  0  0  0  0  0
   -6.5135   -7.3129   10.1955 C   0  0  0  0  0  0  0  0  0  0  0  0
   -5.7146   -6.6159    9.3146 C   0  0  0  0  0  0  0  0  0  0  0  0
   -5.8767   -6.7045    7.9531 C   0  0  0  0  0  0  0  0  0  0  0  0
   -6.8958   -7.5384    7.4593 C   0  0  0  0  0  0  0  0  0  0  0  0
   -7.0075   -7.5433    6.0165 C   0  0  0  0  0  0  0  0  0  0  0  0
   -6.7279   -8.7260    5.3214 C   0  0  0  0  0  0  0  0  0  0  0  0
   -6.7847   -8.7956    3.9454 C   0  0  0  0  0  0  0  0  0  0  0  0
   -7.1229   -7.6886    3.1993 C   0  0  0  0  0  0  0  0  0  0  0  0
   -7.3998   -6.5198    3.8679 C   0  0  0  0  0  0  0  0  0  0  0  0
   -7.3416   -6.4513    5.2615 C   0  0  0  0  0  0  0  0  0  0  0  0
  -10.4156   -8.4192    9.3057 C   0  0  0  0  0  0  0  0  0  0  0  0
  -11.2523   -7.2495    9.5933 C   0  0  0  0  0  0  0  0  0  0  0  0
  -10.8599   -5.9550    9.5161 C   0  0  0  0  0  0  0  0  0  0  0  0
  -11.7317   -4.9340    9.8068 C   0  0  0  0  0  0  0  0  0  0  0  0
  -13.0359   -5.1761   10.1875 C   0  0  0  0  0  0  0  0  0  0  0  0
  -13.4589   -6.4769   10.2736 C   0  0  0  0  0  0  0  0  0  0  0  0
  -12.5742   -7.4840    9.9796 C   0  0  0  0  0  0  0  0  0  0  0  0
 11 12  1  0  0  0
 12 13  2  0  0  0
 13 14  1  0  0  0
 14 15  2  0  0  0
 15 16  1  0  0  0
 16 17  2  0  0  0
 15  5  1  0  0  0
  5  6  2  0  0  0
  6  7  1  0  0  0
  7  8  2  0  0  0
  8  9  1  0  0  0
  9 10  2  0  0  0
  8  2  1  0  0  0
  2  3  2  0  0  0
  2  4  2  0  0  0
  2  1  1  0  0  0
  1 18  1  0  0  0
 18 19  1  0  0  0
 19 20  2  0  0  0
 20 21  1  0  0  0
 21 22  2  0  0  0
 22 23  1  0  0  0
 23 24  2  0  0  0
 24 25  1  0  0  0
 25 26  2  0  0  0
 26 27  1  0  0  0
 27 28  2  0  0  0
 28 29  1  0  0  0
 29 30  2  0  0  0
  1 31  1  0  0  0
 31 32  1  0  0  0
 32 33  2  0  0  0
 33 34  1  0  0  0
 34 35  2  0  0  0
 35 36  1  0  0  0
 36 37  2  0  0  0
 17 12  1  0  0  0
 10  5  1  0  0  0
 24 19  1  0  0  0
 30 25  1  0  0  0
 37 32  1  0  0  0
M  END
> <minimizedAffinity>
0.49326

> <CNNscore>
0.3728634417

> <CNNaffinity>
7.0276517868

> <CNN_VS>
2.6203544140

> <CNNaffinity_variance>
0.4253358841

$$$$
[H]c1c([H])c([H])c(-c2c([H])c([H])c([H])c([H])c2C([H])([H])N(C([H])([H])c2c([H])c([H])c([H])c([H])c2[H])S(=O)(=O)c2c([H])c([H])c(-c3c([H])c([H])c(Cl)c([H])c3[H])c([H])c2[H])c([H])c1[H]


 37 41  0  0  0  0  0  0  0  0999 V2000
   -8.9816   -6.8847    8.4943 N   0  0  0  0  0  0  0  0  0  0  0  0
  -10.3264   -6.1010    9.2222 S   0  0  0  0  0  0  0  0  0  0  0  0
  -10.1860   -4.6093    8.9466 O   0  0  0  0  0  0  0  0  0  0  0  0
  -10.3259   -6.2399   10.7163 O   0  0  0  0  0  0  0  0  0  0  0  0
  -14.3420   -7.3576    7.4339 C   0  0  0  0  0  0  0  0  0  0  0  0
  -14.2564   -6.9073    8.7554 C   0  0  0  0  0  0  0  0  0  0  0  0
  -13.0203   -6.5338    9.2709 C   0  0  0  0  0  0  0  0  0  0  0  0
  -11.8565   -6.5859    8.5336 C   0  0  0  0  0  0  0  0  0  0  0  0
  -11.9781   -7.0358    7.2304 C   0  0  0  0  0  0  0  0  0  0  0  0
  -13.1869   -7.4108    6.6963 C   0  0  0  0  0  0  0  0  0  0  0  0
  -19.6539   -8.9782    5.1661 Cl  0  0  0  0  0  0  0  0  0  0  0  0
  -18.1169   -8.4964    5.8726 C   0  0  0  0  0  0  0  0  0  0  0  0
  -17.0018   -8.4864    5.0391 C   0  0  0  0  0  0  0  0  0  0  0  0
  -15.7751   -8.1134    5.5583 C   0  0  0  0  0  0  0  0  0  0  0  0
  -15.6350   -7.7524    6.8818 C   0  0  0  0  0  0  0  0  0  0  0  0
  -16.7771   -7.7763    7.6813 C   0  0  0  0  0  0  0  0  0  0  0  0
  -18.0042   -8.1403    7.1976 C   0  0  0  0  0  0  0  0  0  0  0  0
   -7.9685   -5.8781    8.2238 C   0  0  0  0  0  0  0  0  0  0  0  0
   -6.7685   -6.4659    7.5941 C   0  0  0  0  0  0  0  0  0  0  0  0
   -6.8799   -6.9478    6.2977 C   0  0  0  0  0  0  0  0  0  0  0  0
   -5.7779   -7.4578    5.6829 C   0  0  0  0  0  0  0  0  0  0  0  0
   -4.5763   -7.4850    6.3577 C   0  0  0  0  0  0  0  0  0  0  0  0
   -4.4477   -7.0125    7.6414 C   0  0  0  0  0  0  0  0  0  0  0  0
   -5.5895   -6.4873    8.2725 C   0  0  0  0  0  0  0  0  0  0  0  0
   -5.3616   -6.0426    9.6306 C   0  0  0  0  0  0  0  0  0  0  0  0
   -6.0813   -6.6464   10.6688 C   0  0  0  0  0  0  0  0  0  0  0  0
   -5.9375   -6.2530   11.9826 C   0  0  0  0  0  0  0  0  0  0  0  0
   -5.0692   -5.2392   12.3214 C   0  0  0  0  0  0  0  0  0  0  0  0
   -4.3559   -4.6363   11.3126 C   0  0  0  0  0  0  0  0  0  0  0  0
   -4.5032   -5.0361    9.9827 C   0  0  0  0  0  0  0  0  0  0  0  0
   -9.3363   -7.5265    7.2544 C   0  0  0  0  0  0  0  0  0  0  0  0
   -9.0375   -8.9621    7.2303 C   0  0  0  0  0  0  0  0  0  0  0  0
   -7.9790   -9.5624    7.8260 C   0  0  0  0  0  0  0  0  0  0  0  0
   -7.7974  -10.9214    7.7406 C   0  0  0  0  0  0  0  0  0  0  0  0
   -8.6760  -11.7316    7.0510 C   0  0  0  0  0  0  0  0  0  0  0  0
   -9.7556  -11.1500    6.4389 C   0  0  0  0  0  0  0  0  0  0  0  0
   -9.9210   -9.7909    6.5346 C   0  0  0  0  0  0  0  0  0  0  0  0
 11 12  1  0  0  0
 12 13  2  0  0  0
 13 14  1  0  0  0
 14 15  2  0  0  0
 15 16  1  0  0  0
 16 17  2  0  0  0
 15  5  1  0  0  0
  5  6  2  0  0  0
  6  7  1  0  0  0
  7  8  2  0  0  0
  8  9  1  0  0  0
  9 10  2  0  0  0
  8  2  1  0  0  0
  2  3  2  0  0  0
  2  4  2  0  0  0
  2  1  1  0  0  0
  1 18  1  0  0  0
 18 19  1  0  0  0
 19 20  2  0  0  0
 20 21  1  0  0  0
 21 22  2  0  0  0
 22 23  1  0  0  0
 23 24  2  0  0  0
 24 25  1  0  0  0
 25 26  2  0  0  0
 26 27  1  0  0  0
 27 28  2  0  0  0
 28 29  1  0  0  0
 29 30  2  0  0  0
  1 31  1  0  0  0
 31 32  1  0  0  0
 32 33  2  0  0  0
 33 34  1  0  0  0
 34 35  2  0  0  0
 35 36  1  0  0  0
 36 37  2  0  0  0
 17 12  1  0  0  0
 10  5  1  0  0  0
 24 19  1  0  0  0
 30 25  1  0  0  0
 37 32  1  0  0  0
M  END
> <minimizedAffinity>
0.02385

> <CNNscore>
0.3687751293

> <CNNaffinity>
6.8548517227

> <CNN_VS>
2.5278987885

> <CNNaffinity_variance>
0.4485823214

$$$$
[H]c1c([H])c([H])c(-c2c([H])c([H])c([H])c([H])c2C([H])([H])N(C([H])([H])c2c([H])c([H])c([H])c([H])c2[H])S(=O)(=O)c2c([H])c([H])c(-c3c([H])c([H])c(Cl)c([H])c3[H])c([H])c2[H])c([H])c1[H]


 37 41  0  0  0  0  0  0  0  0999 V2000
   -4.1826   -5.3072    7.2293 N   0  0  0  0  0  0  0  0  0  0  0  0
   -4.6214   -6.9397    6.9213 S   0  0  0  0  0  0  0  0  0  0  0  0
   -3.8557   -7.8097    7.9101 O   0  0  0  0  0  0  0  0  0  0  0  0
   -4.1903   -7.3975    5.5589 O   0  0  0  0  0  0  0  0  0  0  0  0
   -9.0637   -7.7561    7.6295 C   0  0  0  0  0  0  0  0  0  0  0  0
   -8.6384   -6.5468    7.0697 C   0  0  0  0  0  0  0  0  0  0  0  0
   -7.2802   -6.3278    6.8683 C   0  0  0  0  0  0  0  0  0  0  0  0
   -6.3165   -7.2570    7.1979 C   0  0  0  0  0  0  0  0  0  0  0  0
   -6.7728   -8.4417    7.7491 C   0  0  0  0  0  0  0  0  0  0  0  0
   -8.1086   -8.6837    7.9587 C   0  0  0  0  0  0  0  0  0  0  0  0
  -14.9131   -8.7471    8.5173 Cl  0  0  0  0  0  0  0  0  0  0  0  0
  -13.1949   -8.4979    8.2352 C   0  0  0  0  0  0  0  0  0  0  0  0
  -12.6306   -7.3171    8.7103 C   0  0  0  0  0  0  0  0  0  0  0  0
  -11.2822   -7.0848    8.5075 C   0  0  0  0  0  0  0  0  0  0  0  0
  -10.4877   -7.9971    7.8455 C   0  0  0  0  0  0  0  0  0  0  0  0
  -11.0932   -9.1661    7.3862 C   0  0  0  0  0  0  0  0  0  0  0  0
  -12.4239   -9.4251    7.5711 C   0  0  0  0  0  0  0  0  0  0  0  0
   -4.1486   -4.6045    5.9574 C   0  0  0  0  0  0  0  0  0  0  0  0
   -3.2824   -3.4094    6.0163 C   0  0  0  0  0  0  0  0  0  0  0  0
   -3.5728   -2.4373    6.9629 C   0  0  0  0  0  0  0  0  0  0  0  0
   -2.7652   -1.3462    7.0621 C   0  0  0  0  0  0  0  0  0  0  0  0
   -1.6777   -1.2288    6.2233 C   0  0  0  0  0  0  0  0  0  0  0  0
   -1.3753   -2.1812    5.2802 C   0  0  0  0  0  0  0  0  0  0  0  0
   -2.2133   -3.3063    5.1813 C   0  0  0  0  0  0  0  0  0  0  0  0
   -1.8314   -4.2374    4.1415 C   0  0  0  0  0  0  0  0  0  0  0  0
   -1.9518   -3.8424    2.8036 C   0  0  0  0  0  0  0  0  0  0  0  0
   -1.6351   -4.6875    1.7610 C   0  0  0  0  0  0  0  0  0  0  0  0
   -1.1839   -5.9656    2.0048 C   0  0  0  0  0  0  0  0  0  0  0  0
   -1.0610   -6.3679    3.3136 C   0  0  0  0  0  0  0  0  0  0  0  0
   -1.3824   -5.5106    4.3680 C   0  0  0  0  0  0  0  0  0  0  0  0
   -2.8858   -5.2037    7.8479 C   0  0  0  0  0  0  0  0  0  0  0  0
   -2.9394   -5.1049    9.3101 C   0  0  0  0  0  0  0  0  0  0  0  0
   -1.8878   -5.2394   10.1536 C   0  0  0  0  0  0  0  0  0  0  0  0
   -2.0528   -5.1245   11.5125 C   0  0  0  0  0  0  0  0  0  0  0  0
   -3.2857   -4.8689   12.0773 C   0  0  0  0  0  0  0  0  0  0  0  0
   -4.3667   -4.7283   11.2467 C   0  0  0  0  0  0  0  0  0  0  0  0
   -4.1831   -4.8464    9.8917 C   0  0  0  0  0  0  0  0  0  0  0  0
 11 12  1  0  0  0
 12 13  2  0  0  0
 13 14  1  0  0  0
 14 15  2  0  0  0
 15 16  1  0  0  0
 16 17  2  0  0  0
 15  5  1  0  0  0
  5  6  2  0  0  0
  6  7  1  0  0  0
  7  8  2  0  0  0
  8  9  1  0  0  0
  9 10  2  0  0  0
  8  2  1  0  0  0
  2  3  2  0  0  0
  2  4  2  0  0  0
  2  1  1  0  0  0
  1 18  1  0  0  0
 18 19  1  0  0  0
 19 20  2  0  0  0
 20 21  1  0  0  0
 21 22  2  0  0  0
 22 23  1  0  0  0
 23 24  2  0  0  0
 24 25  1  0  0  0
 25 26  2  0  0  0
 26 27  1  0  0  0
 27 28  2  0  0  0
 28 29  1  0  0  0
 29 30  2  0  0  0
  1 31  1  0  0  0
 31 32  1  0  0  0
 32 33  2  0  0  0
 33 34  1  0  0  0
 34 35  2  0  0  0
 35 36  1  0  0  0
 36 37  2  0  0  0
 17 12  1  0  0  0
 10  5  1  0  0  0
 24 19  1  0  0  0
 30 25  1  0  0  0
 37 32  1  0  0  0
M  END
> <minimizedAffinity>
-7.34890

> <CNNscore>
0.3559883237

> <CNNaffinity>
6.4293808937

> <CNN_VS>
2.2887845039

> <CNNaffinity_variance>
0.1027781963

$$$$
[H]c1c([H])c([H])c(-c2c([H])c([H])c([H])c([H])c2C([H])([H])N(C([H])([H])c2c([H])c([H])c([H])c([H])c2[H])S(=O)(=O)c2c([H])c([H])c(-c3c([H])c([H])c(Cl)c([H])c3[H])c([H])c2[H])c([H])c1[H]


 37 41  0  0  0  0  0  0  0  0999 V2000
   -8.9812   -8.1617    8.4201 N   0  0  0  0  0  0  0  0  0  0  0  0
   -9.8005   -6.6616    8.5968 S   0  0  0  0  0  0  0  0  0  0  0  0
   -8.9919   -5.6117    7.8454 O   0  0  0  0  0  0  0  0  0  0  0  0
   -9.8400   -6.1994   10.0239 O   0  0  0  0  0  0  0  0  0  0  0  0
  -13.9604   -6.6748    6.7002 C   0  0  0  0  0  0  0  0  0  0  0  0
  -12.8138   -6.8182    5.9120 C   0  0  0  0  0  0  0  0  0  0  0  0
  -11.5626   -6.8085    6.5184 C   0  0  0  0  0  0  0  0  0  0  0  0
  -11.3926   -6.6623    7.8787 C   0  0  0  0  0  0  0  0  0  0  0  0
  -12.5481   -6.5232    8.6277 C   0  0  0  0  0  0  0  0  0  0  0  0
  -13.7963   -6.5293    8.0541 C   0  0  0  0  0  0  0  0  0  0  0  0
  -19.3795   -6.7114    4.1278 Cl  0  0  0  0  0  0  0  0  0  0  0  0
  -17.7802   -6.6617    4.8582 C   0  0  0  0  0  0  0  0  0  0  0  0
  -17.4528   -7.6733    5.7570 C   0  0  0  0  0  0  0  0  0  0  0  0
  -16.2042   -7.6683    6.3524 C   0  0  0  0  0  0  0  0  0  0  0  0
  -15.2797   -6.6836    6.0742 C   0  0  0  0  0  0  0  0  0  0  0  0
  -15.6487   -5.6898    5.1686 C   0  0  0  0  0  0  0  0  0  0  0  0
  -16.8754   -5.6670    4.5632 C   0  0  0  0  0  0  0  0  0  0  0  0
   -7.6131   -7.8806    8.0178 C   0  0  0  0  0  0  0  0  0  0  0  0
   -6.8334   -7.2759    9.1171 C   0  0  0  0  0  0  0  0  0  0  0  0
   -7.1906   -7.5886   10.4210 C   0  0  0  0  0  0  0  0  0  0  0  0
   -6.4620   -7.0747   11.4494 C   0  0  0  0  0  0  0  0  0  0  0  0
   -5.3867   -6.2567   11.1764 C   0  0  0  0  0  0  0  0  0  0  0  0
   -5.0189   -5.9363    9.8920 C   0  0  0  0  0  0  0  0  0  0  0  0
   -5.7754   -6.4693    8.8329 C   0  0  0  0  0  0  0  0  0  0  0  0
   -5.3301   -6.0523    7.5208 C   0  0  0  0  0  0  0  0  0  0  0  0
   -4.2258   -5.1971    7.4224 C   0  0  0  0  0  0  0  0  0  0  0  0
   -3.7650   -4.7357    6.2075 C   0  0  0  0  0  0  0  0  0  0  0  0
   -4.3845   -5.1059    5.0345 C   0  0  0  0  0  0  0  0  0  0  0  0
   -5.4705   -5.9449    5.1152 C   0  0  0  0  0  0  0  0  0  0  0  0
   -5.9357   -6.4109    6.3467 C   0  0  0  0  0  0  0  0  0  0  0  0
   -9.5936   -8.9972    7.4191 C   0  0  0  0  0  0  0  0  0  0  0  0
  -10.9578   -9.4154    7.7584 C   0  0  0  0  0  0  0  0  0  0  0  0
  -11.5183   -9.3696    8.9909 C   0  0  0  0  0  0  0  0  0  0  0  0
  -12.8112   -9.7866    9.1950 C   0  0  0  0  0  0  0  0  0  0  0  0
  -13.5928  -10.2669    8.1641 C   0  0  0  0  0  0  0  0  0  0  0  0
  -13.0502  -10.3240    6.9068 C   0  0  0  0  0  0  0  0  0  0  0  0
  -11.7570   -9.9033    6.7216 C   0  0  0  0  0  0  0  0  0  0  0  0
 11 12  1  0  0  0
 12 13  2  0  0  0
 13 14  1  0  0  0
 14 15  2  0  0  0
 15 16  1  0  0  0
 16 17  2  0  0  0
 15  5  1  0  0  0
  5  6  2  0  0  0
  6  7  1  0  0  0
  7  8  2  0  0  0
  8  9  1  0  0  0
  9 10  2  0  0  0
  8  2  1  0  0  0
  2  3  2  0  0  0
  2  4  2  0  0  0
  2  1  1  0  0  0
  1 18  1  0  0  0
 18 19  1  0  0  0
 19 20  2  0  0  0
 20 21  1  0  0  0
 21 22  2  0  0  0
 22 23  1  0  0  0
 23 24  2  0  0  0
 24 25  1  0  0  0
 25 26  2  0  0  0
 26 27  1  0  0  0
 27 28  2  0  0  0
 28 29  1  0  0  0
 29 30  2  0  0  0
  1 31  1  0  0  0
 31 32  1  0  0  0
 32 33  2  0  0  0
 33 34  1  0  0  0
 34 35  2  0  0  0
 35 36  1  0  0  0
 36 37  2  0  0  0
 17 12  1  0  0  0
 10  5  1  0  0  0
 24 19  1  0  0  0
 30 25  1  0  0  0
 37 32  1  0  0  0
M  END
> <minimizedAffinity>
0.34341

> <CNNscore>
0.3476176262

> <CNNaffinity>
6.7200155258

> <CNN_VS>
2.3359959126

> <CNNaffinity_variance>
0.3786767125

$$$$
[H]c1c([H])c([H])c(-c2c([H])c([H])c([H])c([H])c2C([H])([H])N(C([H])([H])c2c([H])c([H])c([H])c([H])c2[H])S(=O)(=O)c2c([H])c([H])c(-c3c([H])c([H])c(Cl)c([H])c3[H])c([H])c2[H])c([H])c1[H]


 37 41  0  0  0  0  0  0  0  0999 V2000
   -3.8498   -5.6244    6.5166 N   0  0  0  0  0  0  0  0  0  0  0  0
   -4.3044   -7.2398    6.8863 S   0  0  0  0  0  0  0  0  0  0  0  0
   -3.6052   -7.6222    8.1846 O   0  0  0  0  0  0  0  0  0  0  0  0
   -3.8159   -8.2178    5.8584 O   0  0  0  0  0  0  0  0  0  0  0  0
   -8.7827   -7.7210    7.6707 C   0  0  0  0  0  0  0  0  0  0  0  0
   -7.8659   -8.6587    8.1573 C   0  0  0  0  0  0  0  0  0  0  0  0
   -6.5104   -8.4853    7.9005 C   0  0  0  0  0  0  0  0  0  0  0  0
   -6.0169   -7.4191    7.1792 C   0  0  0  0  0  0  0  0  0  0  0  0
   -6.9518   -6.5110    6.7134 C   0  0  0  0  0  0  0  0  0  0  0  0
   -8.2964   -6.6583    6.9528 C   0  0  0  0  0  0  0  0  0  0  0  0
  -14.6408   -8.4260    8.7530 Cl  0  0  0  0  0  0  0  0  0  0  0  0
  -12.9259   -8.1757    8.4527 C   0  0  0  0  0  0  0  0  0  0  0  0
  -12.2125   -9.2288    7.8866 C   0  0  0  0  0  0  0  0  0  0  0  0
  -10.8615   -9.0702    7.6356 C   0  0  0  0  0  0  0  0  0  0  0  0
  -10.2087   -7.8928    7.9344 C   0  0  0  0  0  0  0  0  0  0  0  0
  -10.9608   -6.8640    8.5001 C   0  0  0  0  0  0  0  0  0  0  0  0
  -12.2981   -6.9898    8.7604 C   0  0  0  0  0  0  0  0  0  0  0  0
   -2.4020   -5.5829    6.3950 C   0  0  0  0  0  0  0  0  0  0  0  0
   -1.9719   -5.5880    4.9818 C   0  0  0  0  0  0  0  0  0  0  0  0
   -1.4616   -6.7671    4.4579 C   0  0  0  0  0  0  0  0  0  0  0  0
   -1.0957   -6.8068    3.1475 C   0  0  0  0  0  0  0  0  0  0  0  0
   -1.2393   -5.6785    2.3688 C   0  0  0  0  0  0  0  0  0  0  0  0
   -1.7424   -4.5026    2.8707 C   0  0  0  0  0  0  0  0  0  0  0  0
   -2.1183   -4.4667    4.2255 C   0  0  0  0  0  0  0  0  0  0  0  0
   -2.6082   -3.1791    4.6684 C   0  0  0  0  0  0  0  0  0  0  0  0
   -1.7133   -2.2867    5.2711 C   0  0  0  0  0  0  0  0  0  0  0  0
   -2.1162   -1.0557    5.7438 C   0  0  0  0  0  0  0  0  0  0  0  0
   -3.4303   -0.6579    5.6374 C   0  0  0  0  0  0  0  0  0  0  0  0
   -4.3210   -1.5238    5.0483 C   0  0  0  0  0  0  0  0  0  0  0  0
   -3.9109   -2.7702    4.5703 C   0  0  0  0  0  0  0  0  0  0  0  0
   -4.2525   -4.7007    7.5461 C   0  0  0  0  0  0  0  0  0  0  0  0
   -3.1306   -4.1579    8.3189 C   0  0  0  0  0  0  0  0  0  0  0  0
   -2.0587   -4.8588    8.7609 C   0  0  0  0  0  0  0  0  0  0  0  0
   -1.0600   -4.2453    9.4774 C   0  0  0  0  0  0  0  0  0  0  0  0
   -1.1008   -2.8991    9.7778 C   0  0  0  0  0  0  0  0  0  0  0  0
   -2.1741   -2.1664    9.3427 C   0  0  0  0  0  0  0  0  0  0  0  0
   -3.1625   -2.7959    8.6283 C   0  0  0  0  0  0  0  0  0  0  0  0
 11 12  1  0  0  0
 12 13  2  0  0  0
 13 14  1  0  0  0
 14 15  2  0  0  0
 15 16  1  0  0  0
 16 17  2  0  0  0
 15  5  1  0  0  0
  5  6  2  0  0  0
  6  7  1  0  0  0
  7  8  2  0  0  0
  8  9  1  0  0  0
  9 10  2  0  0  0
  8  2  1  0  0  0
  2  3  2  0  0  0
  2  4  2  0  0  0
  2  1  1  0  0  0
  1 18  1  0  0  0
 18 19  1  0  0  0
 19 20  2  0  0  0
 20 21  1  0  0  0
 21 22  2  0  0  0
 22 23  1  0  0  0
 23 24  2  0  0  0
 24 25  1  0  0  0
 25 26  2  0  0  0
 26 27  1  0  0  0
 27 28  2  0  0  0
 28 29  1  0  0  0
 29 30  2  0  0  0
  1 31  1  0  0  0
 31 32  1  0  0  0
 32 33  2  0  0  0
 33 34  1  0  0  0
 34 35  2  0  0  0
 35 36  1  0  0  0
 36 37  2  0  0  0
 17 12  1  0  0  0
 10  5  1  0  0  0
 24 19  1  0  0  0
 30 25  1  0  0  0
 37 32  1  0  0  0
M  END
> <minimizedAffinity>
-7.01591

> <CNNscore>
0.3455977738

> <CNNaffinity>
6.3563699722

> <CNN_VS>
2.1967473030

> <CNNaffinity_variance>
0.0945692211

$$$$
[H]c1c([H])c([H])c(-c2c([H])c([H])c([H])c([H])c2C([H])([H])N(C([H])([H])c2c([H])c([H])c([H])c([H])c2[H])S(=O)(=O)c2c([H])c([H])c(-c3c([H])c([H])c(Cl)c([H])c3[H])c([H])c2[H])c([H])c1[H]


 37 41  0  0  0  0  0  0  0  0999 V2000
   -8.8587   -8.1109    8.7001 N   0  0  0  0  0  0  0  0  0  0  0  0
   -9.3663   -9.1315    7.4142 S   0  0  0  0  0  0  0  0  0  0  0  0
   -9.2833  -10.5679    7.9150 O   0  0  0  0  0  0  0  0  0  0  0  0
   -8.4443   -9.0594    6.2325 O   0  0  0  0  0  0  0  0  0  0  0  0
  -13.7235   -8.4641    6.2012 C   0  0  0  0  0  0  0  0  0  0  0  0
  -13.2232   -9.7565    6.3913 C   0  0  0  0  0  0  0  0  0  0  0  0
  -11.8930   -9.9267    6.7585 C   0  0  0  0  0  0  0  0  0  0  0  0
  -11.0288   -8.8693    6.9474 C   0  0  0  0  0  0  0  0  0  0  0  0
  -11.5572   -7.6052    6.7511 C   0  0  0  0  0  0  0  0  0  0  0  0
  -12.8675   -7.4089    6.3883 C   0  0  0  0  0  0  0  0  0  0  0  0
  -19.4562   -7.6814    4.6173 Cl  0  0  0  0  0  0  0  0  0  0  0  0
  -17.7662   -7.9269    5.0386 C   0  0  0  0  0  0  0  0  0  0  0  0
  -17.3731   -7.6002    6.3336 C   0  0  0  0  0  0  0  0  0  0  0  0
  -16.0520   -7.7792    6.7027 C   0  0  0  0  0  0  0  0  0  0  0  0
  -15.1190   -8.2733    5.8156 C   0  0  0  0  0  0  0  0  0  0  0  0
  -15.5552   -8.5876    4.5291 C   0  0  0  0  0  0  0  0  0  0  0  0
  -16.8546   -8.4220    4.1337 C   0  0  0  0  0  0  0  0  0  0  0  0
   -7.5471   -8.5596    9.1374 C   0  0  0  0  0  0  0  0  0  0  0  0
   -6.6390   -7.4235    9.3957 C   0  0  0  0  0  0  0  0  0  0  0  0
   -6.4014   -7.0630   10.7144 C   0  0  0  0  0  0  0  0  0  0  0  0
   -5.5375   -6.0448   10.9781 C   0  0  0  0  0  0  0  0  0  0  0  0
   -4.9172   -5.3940    9.9333 C   0  0  0  0  0  0  0  0  0  0  0  0
   -5.1407   -5.7372    8.6218 C   0  0  0  0  0  0  0  0  0  0  0  0
   -6.0347   -6.7895    8.3547 C   0  0  0  0  0  0  0  0  0  0  0  0
   -6.2272   -7.0575    6.9458 C   0  0  0  0  0  0  0  0  0  0  0  0
   -5.5783   -8.1578    6.3726 C   0  0  0  0  0  0  0  0  0  0  0  0
   -5.6919   -8.4557    5.0311 C   0  0  0  0  0  0  0  0  0  0  0  0
   -6.4580   -7.6698    4.1993 C   0  0  0  0  0  0  0  0  0  0  0  0
   -7.1010   -6.5854    4.7477 C   0  0  0  0  0  0  0  0  0  0  0  0
   -6.9844   -6.2853    6.1065 C   0  0  0  0  0  0  0  0  0  0  0  0
   -9.7617   -8.1646    9.8212 C   0  0  0  0  0  0  0  0  0  0  0  0
  -10.8064   -7.1361    9.7828 C   0  0  0  0  0  0  0  0  0  0  0  0
  -12.1358   -7.3494    9.9338 C   0  0  0  0  0  0  0  0  0  0  0  0
  -13.0289   -6.3069    9.8822 C   0  0  0  0  0  0  0  0  0  0  0  0
  -12.6183   -5.0057    9.6762 C   0  0  0  0  0  0  0  0  0  0  0  0
  -11.2787   -4.7619    9.5202 C   0  0  0  0  0  0  0  0  0  0  0  0
  -10.4010   -5.8155    9.5746 C   0  0  0  0  0  0  0  0  0  0  0  0
 11 12  1  0  0  0
 12 13  2  0  0  0
 13 14  1  0  0  0
 14 15  2  0  0  0
 15 16  1  0  0  0
 16 17  2  0  0  0
 15  5  1  0  0  0
  5  6  2  0  0  0
  6  7  1  0  0  0
  7  8  2  0  0  0
  8  9  1  0  0  0
  9 10  2  0  0  0
  8  2  1  0  0  0
  2  3  2  0  0  0
  2  4  2  0  0  0
  2  1  1  0  0  0
  1 18  1  0  0  0
 18 19  1  0  0  0
 19 20  2  0  0  0
 20 21  1  0  0  0
 21 22  2  0  0  0
 22 23  1  0  0  0
 23 24  2  0  0  0
 24 25  1  0  0  0
 25 26  2  0  0  0
 26 27  1  0  0  0
 27 28  2  0  0  0
 28 29  1  0  0  0
 29 30  2  0  0  0
  1 31  1  0  0  0
 31 32  1  0  0  0
 32 33  2  0  0  0
 33 34  1  0  0  0
 34 35  2  0  0  0
 35 36  1  0  0  0
 36 37  2  0  0  0
 17 12  1  0  0  0
 10  5  1  0  0  0
 24 19  1  0  0  0
 30 25  1  0  0  0
 37 32  1  0  0  0
M  END
> <minimizedAffinity>
2.87767

> <CNNscore>
0.3335047066

> <CNNaffinity>
6.7613182068

> <CNN_VS>
2.2549314499

> <CNNaffinity_variance>
0.4568517208

$$$$
[H]c1c([H])c([H])c(-c2c([H])c([H])c([H])c([H])c2C([H])([H])N(C([H])([H])c2c([H])c([H])c([H])c([H])c2[H])S(=O)(=O)c2c([H])c([H])c(-c3c([H])c([H])c(Cl)c([H])c3[H])c([H])c2[H])c([H])c1[H]


 37 41  0  0  0  0  0  0  0  0999 V2000
   -8.1455   -7.5659    8.0300 N   0  0  0  0  0  0  0  0  0  0  0  0
   -8.8051   -8.9823    7.3147 S   0  0  0  0  0  0  0  0  0  0  0  0
   -8.7304  -10.0929    8.3548 O   0  0  0  0  0  0  0  0  0  0  0  0
   -7.9918   -9.4625    6.1486 O   0  0  0  0  0  0  0  0  0  0  0  0
  -13.2252   -8.5641    6.2240 C   0  0  0  0  0  0  0  0  0  0  0  0
  -12.6479   -9.8257    6.4014 C   0  0  0  0  0  0  0  0  0  0  0  0
  -11.3005   -9.9199    6.7312 C   0  0  0  0  0  0  0  0  0  0  0  0
  -10.4921   -8.8151    6.8946 C   0  0  0  0  0  0  0  0  0  0  0  0
  -11.0961   -7.5833    6.7118 C   0  0  0  0  0  0  0  0  0  0  0  0
  -12.4250   -7.4620    6.3858 C   0  0  0  0  0  0  0  0  0  0  0  0
  -19.0350   -8.1090    4.8012 Cl  0  0  0  0  0  0  0  0  0  0  0  0
  -17.3228   -8.2585    5.1752 C   0  0  0  0  0  0  0  0  0  0  0  0
  -16.9107   -7.8950    6.4544 C   0  0  0  0  0  0  0  0  0  0  0  0
  -15.5718   -7.9983    6.7863 C   0  0  0  0  0  0  0  0  0  0  0  0
  -14.6395   -8.4530    5.8776 C   0  0  0  0  0  0  0  0  0  0  0  0
  -15.0951   -8.8063    4.6081 C   0  0  0  0  0  0  0  0  0  0  0  0
  -16.4123   -8.7155    4.2493 C   0  0  0  0  0  0  0  0  0  0  0  0
   -6.6970   -7.6854    8.0078 C   0  0  0  0  0  0  0  0  0  0  0  0
   -6.0651   -6.8682    9.0636 C   0  0  0  0  0  0  0  0  0  0  0  0
   -6.6403   -6.8727   10.3263 C   0  0  0  0  0  0  0  0  0  0  0  0
   -6.0530   -6.1585   11.3251 C   0  0  0  0  0  0  0  0  0  0  0  0
   -4.9015   -5.4474   11.0637 C   0  0  0  0  0  0  0  0  0  0  0  0
   -4.3184   -5.4313    9.8198 C   0  0  0  0  0  0  0  0  0  0  0  0
   -4.9296   -6.1702    8.7910 C   0  0  0  0  0  0  0  0  0  0  0  0
   -4.2598   -6.0679    7.5124 C   0  0  0  0  0  0  0  0  0  0  0  0
   -4.6967   -5.1034    6.5962 C   0  0  0  0  0  0  0  0  0  0  0  0
   -4.1253   -4.9692    5.3485 C   0  0  0  0  0  0  0  0  0  0  0  0
   -3.0920   -5.7910    4.9568 C   0  0  0  0  0  0  0  0  0  0  0  0
   -2.6525   -6.7433    5.8455 C   0  0  0  0  0  0  0  0  0  0  0  0
   -3.2326   -6.8777    7.1087 C   0  0  0  0  0  0  0  0  0  0  0  0
   -8.5735   -7.4007    9.3955 C   0  0  0  0  0  0  0  0  0  0  0  0
   -9.9698   -6.9713    9.5248 C   0  0  0  0  0  0  0  0  0  0  0  0
  -11.0349   -7.7847    9.7237 C   0  0  0  0  0  0  0  0  0  0  0  0
  -12.3047   -7.2720    9.8332 C   0  0  0  0  0  0  0  0  0  0  0  0
  -12.5530   -5.9174    9.7468 C   0  0  0  0  0  0  0  0  0  0  0  0
  -11.4932   -5.0719    9.5458 C   0  0  0  0  0  0  0  0  0  0  0  0
  -10.2317   -5.6018    9.4387 C   0  0  0  0  0  0  0  0  0  0  0  0
 11 12  1  0  0  0
 12 13  2  0  0  0
 13 14  1  0  0  0
 14 15  2  0  0  0
 15 16  1  0  0  0
 16 17  2  0  0  0
 15  5  1  0  0  0
  5  6  2  0  0  0
  6  7  1  0  0  0
  7  8  2  0  0  0
  8  9  1  0  0  0
  9 10  2  0  0  0
  8  2  1  0  0  0
  2  3  2  0  0  0
  2  4  2  0  0  0
  2  1  1  0  0  0
  1 18  1  0  0  0
 18 19  1  0  0  0
 19 20  2  0  0  0
 20 21  1  0  0  0
 21 22  2  0  0  0
 22 23  1  0  0  0
 23 24  2  0  0  0
 24 25  1  0  0  0
 25 26  2  0  0  0
 26 27  1  0  0  0
 27 28  2  0  0  0
 28 29  1  0  0  0
 29 30  2  0  0  0
  1 31  1  0  0  0
 31 32  1  0  0  0
 32 33  2  0  0  0
 33 34  1  0  0  0
 34 35  2  0  0  0
 35 36  1  0  0  0
 36 37  2  0  0  0
 17 12  1  0  0  0
 10  5  1  0  0  0
 24 19  1  0  0  0
 30 25  1  0  0  0
 37 32  1  0  0  0
M  END
> <minimizedAffinity>
-1.08562

> <CNNscore>
0.3267819285

> <CNNaffinity>
6.6361284256

> <CNN_VS>
2.1685669422

> <CNNaffinity_variance>
0.3153327405

$$$$
[H]/C(=C1/C([H])([H])c2c([H])c([H])c(F)c([H])c2S1(=O)=O)c1c(C([H])([H])[H])c(C([H])([H])[H])c([H])n1[H]


 21 23  0  0  0  0  0  0  0  0999 V2000
  -14.9944   -8.6297    5.7713 C   0  0  0  0  0  0  0  0  0  0  0  0
  -14.4655   -8.4006    6.9289 C   0  0  0  0  0  0  0  0  0  0  0  0
  -14.8783   -7.5294    8.0053 C   0  0  0  0  0  0  0  0  0  0  0  0
  -13.6967   -7.0591    8.7471 C   0  0  0  0  0  0  0  0  0  0  0  0
  -13.6340   -5.9324    9.5726 C   0  0  0  0  0  0  0  0  0  0  0  0
  -12.4887   -5.5885   10.2199 C   0  0  0  0  0  0  0  0  0  0  0  0
  -11.3661   -6.3730   10.0543 C   0  0  0  0  0  0  0  0  0  0  0  0
  -10.2089   -6.0449   10.6944 F   0  0  0  0  0  0  0  0  0  0  0  0
  -11.3844   -7.4831    9.2559 C   0  0  0  0  0  0  0  0  0  0  0  0
  -12.5635   -7.7996    8.6166 C   0  0  0  0  0  0  0  0  0  0  0  0
  -12.9731   -9.1242    7.5143 S   0  0  0  0  0  0  0  0  0  0  0  0
  -13.2628  -10.3868    8.2404 O   0  0  0  0  0  0  0  0  0  0  0  0
  -11.9493   -9.2650    6.4327 O   0  0  0  0  0  0  0  0  0  0  0  0
  -18.4788   -5.5230    3.9676 C   0  0  0  0  0  0  0  0  0  0  0  0
  -17.8054   -6.7491    4.4199 C   0  0  0  0  0  0  0  0  0  0  0  0
  -18.2795   -8.0362    4.4692 C   0  0  0  0  0  0  0  0  0  0  0  0
  -17.2988   -8.8151    4.9503 N   0  0  0  0  0  0  0  0  0  0  0  0
  -16.1949   -8.0540    5.2138 C   0  0  0  0  0  0  0  0  0  0  0  0
  -16.4879   -6.7763    4.8944 C   0  0  0  0  0  0  0  0  0  0  0  0
  -15.6401   -5.5747    5.0278 C   0  0  0  0  0  0  0  0  0  0  0  0
  -17.3687   -9.8402    5.1003 H   0  0  0  0  0  0  0  0  0  0  0  0
 14 15  1  0  0  0
 15 16  2  0  0  0
 16 17  1  0  0  0
 17 18  1  0  0  0
 18  1  1  0  0  0
  1  2  2  0  0  0
  2  3  1  0  0  0
  3  4  1  0  0  0
  4  5  2  0  0  0
  5  6  1  0  0  0
  6  7  2  0  0  0
  7  8  1  0  0  0
  7  9  1  0  0  0
  9 10  2  0  0  0
 10 11  1  0  0  0
 11 12  2  0  0  0
 11 13  2  0  0  0
 18 19  2  0  0  0
 19 20  1  0  0  0
 19 15  1  0  0  0
 11  2  1  0  0  0
 10  4  1  0  0  0
 17 21  1  0  0  0
M  END
> <minimizedAffinity>
-9.31562

> <CNNscore>
0.6594789028

> <CNNaffinity>
6.4383301735

> <CNN_VS>
4.2459430695

> <CNNaffinity_variance>
0.0570399687

$$$$
[H]/C(=C1/C([H])([H])c2c([H])c([H])c(F)c([H])c2S1(=O)=O)c1c(C([H])([H])[H])c(C([H])([H])[H])c([H])n1[H]


 21 23  0  0  0  0  0  0  0  0999 V2000
  -15.3056   -7.1220    3.3112 C   0  0  0  0  0  0  0  0  0  0  0  0
  -14.8493   -6.8444    4.4889 C   0  0  0  0  0  0  0  0  0  0  0  0
  -13.5294   -6.9997    5.0562 C   0  0  0  0  0  0  0  0  0  0  0  0
  -13.6346   -7.2402    6.5049 C   0  0  0  0  0  0  0  0  0  0  0  0
  -12.6554   -7.8161    7.3200 C   0  0  0  0  0  0  0  0  0  0  0  0
  -12.8525   -7.9879    8.6543 C   0  0  0  0  0  0  0  0  0  0  0  0
  -14.0480   -7.5830    9.2109 C   0  0  0  0  0  0  0  0  0  0  0  0
  -14.2646   -7.7468   10.5461 F   0  0  0  0  0  0  0  0  0  0  0  0
  -15.0322   -7.0156    8.4495 C   0  0  0  0  0  0  0  0  0  0  0  0
  -14.7955   -6.8577    7.1011 C   0  0  0  0  0  0  0  0  0  0  0  0
  -15.8071   -6.1885    5.8103 S   0  0  0  0  0  0  0  0  0  0  0  0
  -15.7721   -4.7041    5.7848 O   0  0  0  0  0  0  0  0  0  0  0  0
  -17.1871   -6.7644    5.8501 O   0  0  0  0  0  0  0  0  0  0  0  0
  -12.6389  -10.0656    0.2665 C   0  0  0  0  0  0  0  0  0  0  0  0
  -13.3977   -8.9159    0.7800 C   0  0  0  0  0  0  0  0  0  0  0  0
  -13.6933   -7.7234    0.1681 C   0  0  0  0  0  0  0  0  0  0  0  0
  -14.4131   -6.9890    1.0298 N   0  0  0  0  0  0  0  0  0  0  0  0
  -14.5901   -7.6861    2.1917 C   0  0  0  0  0  0  0  0  0  0  0  0
  -13.9699   -8.8769    2.0579 C   0  0  0  0  0  0  0  0  0  0  0  0
  -13.8458   -9.9682    3.0448 C   0  0  0  0  0  0  0  0  0  0  0  0
  -14.7793   -6.0355    0.8423 H   0  0  0  0  0  0  0  0  0  0  0  0
 14 15  1  0  0  0
 15 16  2  0  0  0
 16 17  1  0  0  0
 17 18  1  0  0  0
 18  1  1  0  0  0
  1  2  2  0  0  0
  2  3  1  0  0  0
  3  4  1  0  0  0
  4  5  2  0  0  0
  5  6  1  0  0  0
  6  7  2  0  0  0
  7  8  1  0  0  0
  7  9  1  0  0  0
  9 10  2  0  0  0
 10 11  1  0  0  0
 11 12  2  0  0  0
 11 13  2  0  0  0
 18 19  2  0  0  0
 19 20  1  0  0  0
 19 15  1  0  0  0
 11  2  1  0  0  0
 10  4  1  0  0  0
 17 21  1  0  0  0
M  END
> <minimizedAffinity>
21.92731

> <CNNscore>
0.4900329709

> <CNNaffinity>
6.1592354774

> <CNN_VS>
3.0182285309

> <CNNaffinity_variance>
1.0123350620

$$$$
[H]/C(=C1/C([H])([H])c2c([H])c([H])c(F)c([H])c2S1(=O)=O)c1c(C([H])([H])[H])c(C([H])([H])[H])c([H])n1[H]


 21 23  0  0  0  0  0  0  0  0999 V2000
  -11.9026   -8.2210    7.9188 C   0  0  0  0  0  0  0  0  0  0  0  0
  -13.0068   -8.4210    7.2763 C   0  0  0  0  0  0  0  0  0  0  0  0
  -13.2917   -9.2146    6.1029 C   0  0  0  0  0  0  0  0  0  0  0  0
  -14.4047   -8.6114    5.3512 C   0  0  0  0  0  0  0  0  0  0  0  0
  -14.7102   -8.8358    4.0054 C   0  0  0  0  0  0  0  0  0  0  0  0
  -15.7700   -8.2298    3.4067 C   0  0  0  0  0  0  0  0  0  0  0  0
  -16.5582   -7.3750    4.1492 C   0  0  0  0  0  0  0  0  0  0  0  0
  -17.6246   -6.7581    3.5672 F   0  0  0  0  0  0  0  0  0  0  0  0
  -16.2943   -7.1278    5.4680 C   0  0  0  0  0  0  0  0  0  0  0  0
  -15.2118   -7.7606    6.0398 C   0  0  0  0  0  0  0  0  0  0  0  0
  -14.5541   -7.6901    7.6830 S   0  0  0  0  0  0  0  0  0  0  0  0
  -15.3041   -8.5609    8.6234 O   0  0  0  0  0  0  0  0  0  0  0  0
  -14.4081   -6.2757    8.1476 O   0  0  0  0  0  0  0  0  0  0  0  0
   -7.0232   -8.8328    6.9892 C   0  0  0  0  0  0  0  0  0  0  0  0
   -8.4507   -9.1235    7.1874 C   0  0  0  0  0  0  0  0  0  0  0  0
   -9.1163  -10.3208    7.1022 C   0  0  0  0  0  0  0  0  0  0  0  0
  -10.4104  -10.0893    7.3698 N   0  0  0  0  0  0  0  0  0  0  0  0
  -10.5957   -8.7603    7.6281 C   0  0  0  0  0  0  0  0  0  0  0  0
   -9.3987   -8.1473    7.5192 C   0  0  0  0  0  0  0  0  0  0  0  0
   -9.0795   -6.7137    7.6718 C   0  0  0  0  0  0  0  0  0  0  0  0
  -11.1574  -10.8105    7.3785 H   0  0  0  0  0  0  0  0  0  0  0  0
 14 15  1  0  0  0
 15 16  2  0  0  0
 16 17  1  0  0  0
 17 18  1  0  0  0
 18  1  1  0  0  0
  1  2  2  0  0  0
  2  3  1  0  0  0
  3  4  1  0  0  0
  4  5  2  0  0  0
  5  6  1  0  0  0
  6  7  2  0  0  0
  7  8  1  0  0  0
  7  9  1  0  0  0
  9 10  2  0  0  0
 10 11  1  0  0  0
 11 12  2  0  0  0
 11 13  2  0  0  0
 18 19  2  0  0  0
 19 20  1  0  0  0
 19 15  1  0  0  0
 11  2  1  0  0  0
 10  4  1  0  0  0
 17 21  1  0  0  0
M  END
> <minimizedAffinity>
-9.26110

> <CNNscore>
0.4596673846

> <CNNaffinity>
6.1379261017

> <CNN_VS>
2.8214044571

> <CNNaffinity_variance>
0.0613707080

$$$$
[H]/C(=C1/C([H])([H])c2c([H])c([H])c(F)c([H])c2S1(=O)=O)c1c(C([H])([H])[H])c(C([H])([H])[H])c([H])n1[H]


 21 23  0  0  0  0  0  0  0  0999 V2000
  -13.4673   -7.5650    8.6954 C   0  0  0  0  0  0  0  0  0  0  0  0
  -12.6251   -8.4892    8.3656 C   0  0  0  0  0  0  0  0  0  0  0  0
  -11.2713   -8.7399    8.8041 C   0  0  0  0  0  0  0  0  0  0  0  0
  -10.5060   -9.3775    7.7199 C   0  0  0  0  0  0  0  0  0  0  0  0
   -9.1132   -9.4159    7.6037 C   0  0  0  0  0  0  0  0  0  0  0  0
   -8.5041  -10.0399    6.5604 C   0  0  0  0  0  0  0  0  0  0  0  0
   -9.2834  -10.6471    5.5975 C   0  0  0  0  0  0  0  0  0  0  0  0
   -8.6918  -11.2774    4.5443 F   0  0  0  0  0  0  0  0  0  0  0  0
  -10.6488  -10.6326    5.6730 C   0  0  0  0  0  0  0  0  0  0  0  0
  -11.2297   -9.9906    6.7453 C   0  0  0  0  0  0  0  0  0  0  0  0
  -12.9301   -9.7519    7.1799 S   0  0  0  0  0  0  0  0  0  0  0  0
  -13.5121  -10.9484    7.8393 O   0  0  0  0  0  0  0  0  0  0  0  0
  -13.7226   -9.2539    6.0129 O   0  0  0  0  0  0  0  0  0  0  0  0
  -11.6321   -3.7648   11.3857 C   0  0  0  0  0  0  0  0  0  0  0  0
  -12.5398   -4.8090   10.8884 C   0  0  0  0  0  0  0  0  0  0  0  0
  -13.7976   -5.1484   11.3204 C   0  0  0  0  0  0  0  0  0  0  0  0
  -14.2331   -6.1612   10.5560 N   0  0  0  0  0  0  0  0  0  0  0  0
  -13.2780   -6.4847    9.6338 C   0  0  0  0  0  0  0  0  0  0  0  0
  -12.2251   -5.6626    9.8235 C   0  0  0  0  0  0  0  0  0  0  0  0
  -10.9355   -5.6348    9.1048 C   0  0  0  0  0  0  0  0  0  0  0  0
  -15.1555   -6.6286   10.6514 H   0  0  0  0  0  0  0  0  0  0  0  0
 14 15  1  0  0  0
 15 16  2  0  0  0
 16 17  1  0  0  0
 17 18  1  0  0  0
 18  1  1  0  0  0
  1  2  2  0  0  0
  2  3  1  0  0  0
  3  4  1  0  0  0
  4  5  2  0  0  0
  5  6  1  0  0  0
  6  7  2  0  0  0
  7  8  1  0  0  0
  7  9  1  0  0  0
  9 10  2  0  0  0
 10 11  1  0  0  0
 11 12  2  0  0  0
 11 13  2  0  0  0
 18 19  2  0  0  0
 19 20  1  0  0  0
 19 15  1  0  0  0
 11  2  1  0  0  0
 10  4  1  0  0  0
 17 21  1  0  0  0
M  END
> <minimizedAffinity>
2.83667

> <CNNscore>
0.4487048090

> <CNNaffinity>
5.6912326813

> <CNN_VS>
2.5536835194

> <CNNaffinity_variance>
0.6216831207

$$$$
[H]/C(=C1/C([H])([H])c2c([H])c([H])c(F)c([H])c2S1(=O)=O)c1c(C([H])([H])[H])c(C([H])([H])[H])c([H])n1[H]


 21 23  0  0  0  0  0  0  0  0999 V2000
   -9.1712   -7.0516    7.0701 C   0  0  0  0  0  0  0  0  0  0  0  0
   -7.8863   -7.1393    7.1863 C   0  0  0  0  0  0  0  0  0  0  0  0
   -7.0392   -7.1699    8.3565 C   0  0  0  0  0  0  0  0  0  0  0  0
   -5.7313   -6.5719    8.0410 C   0  0  0  0  0  0  0  0  0  0  0  0
   -4.8098   -6.0666    8.9632 C   0  0  0  0  0  0  0  0  0  0  0  0
   -3.6219   -5.5388    8.5644 C   0  0  0  0  0  0  0  0  0  0  0  0
   -3.3246   -5.5036    7.2177 C   0  0  0  0  0  0  0  0  0  0  0  0
   -2.1394   -4.9786    6.7981 F   0  0  0  0  0  0  0  0  0  0  0  0
   -4.1978   -5.9869    6.2827 C   0  0  0  0  0  0  0  0  0  0  0  0
   -5.3916   -6.5144    6.7254 C   0  0  0  0  0  0  0  0  0  0  0  0
   -6.7570   -7.2138    5.8400 S   0  0  0  0  0  0  0  0  0  0  0  0
   -6.5085   -8.6258    5.4532 O   0  0  0  0  0  0  0  0  0  0  0  0
   -7.1722   -6.3350    4.7028 O   0  0  0  0  0  0  0  0  0  0  0  0
  -13.0519   -7.7982   10.1408 C   0  0  0  0  0  0  0  0  0  0  0  0
  -11.8604   -7.1993    9.5219 C   0  0  0  0  0  0  0  0  0  0  0  0
  -11.1852   -6.0534    9.8607 C   0  0  0  0  0  0  0  0  0  0  0  0
  -10.1572   -5.9176    9.0093 N   0  0  0  0  0  0  0  0  0  0  0  0
  -10.1539   -6.9578    8.1232 C   0  0  0  0  0  0  0  0  0  0  0  0
  -11.1977   -7.7587    8.4220 C   0  0  0  0  0  0  0  0  0  0  0  0
  -11.6403   -8.9905    7.7386 C   0  0  0  0  0  0  0  0  0  0  0  0
   -9.4694   -5.1397    9.0218 H   0  0  0  0  0  0  0  0  0  0  0  0
 14 15  1  0  0  0
 15 16  2  0  0  0
 16 17  1  0  0  0
 17 18  1  0  0  0
 18  1  1  0  0  0
  1  2  2  0  0  0
  2  3  1  0  0  0
  3  4  1  0  0  0
  4  5  2  0  0  0
  5  6  1  0  0  0
  6  7  2  0  0  0
  7  8  1  0  0  0
  7  9  1  0  0  0
  9 10  2  0  0  0
 10 11  1  0  0  0
 11 12  2  0  0  0
 11 13  2  0  0  0
 18 19  2  0  0  0
 19 20  1  0  0  0
 19 15  1  0  0  0
 11  2  1  0  0  0
 10  4  1  0  0  0
 17 21  1  0  0  0
M  END
> <minimizedAffinity>
-7.80547

> <CNNscore>
0.3934944868

> <CNNaffinity>
5.4232125282

> <CNN_VS>
2.1340041161

> <CNNaffinity_variance>
0.1664380878

$$$$
[H]/C(=C1/C([H])([H])c2c([H])c([H])c(F)c([H])c2S1(=O)=O)c1c(C([H])([H])[H])c(C([H])([H])[H])c([H])n1[H]


 21 23  0  0  0  0  0  0  0  0999 V2000
  -14.8398   -8.5253    6.7955 C   0  0  0  0  0  0  0  0  0  0  0  0
  -13.7182   -8.3444    7.4130 C   0  0  0  0  0  0  0  0  0  0  0  0
  -12.9824   -7.1368    7.7102 C   0  0  0  0  0  0  0  0  0  0  0  0
  -11.5402   -7.4296    7.7533 C   0  0  0  0  0  0  0  0  0  0  0  0
  -10.5042   -6.5003    7.6185 C   0  0  0  0  0  0  0  0  0  0  0  0
   -9.1992   -6.8771    7.6803 C   0  0  0  0  0  0  0  0  0  0  0  0
   -8.8965   -8.2080    7.8805 C   0  0  0  0  0  0  0  0  0  0  0  0
   -7.5948   -8.6054    7.9452 F   0  0  0  0  0  0  0  0  0  0  0  0
   -9.8793   -9.1492    8.0171 C   0  0  0  0  0  0  0  0  0  0  0  0
  -11.1900   -8.7290    7.9491 C   0  0  0  0  0  0  0  0  0  0  0  0
  -12.7108   -9.6295    8.0667 S   0  0  0  0  0  0  0  0  0  0  0  0
  -13.0858   -9.9123    9.4754 O   0  0  0  0  0  0  0  0  0  0  0  0
  -12.6933  -10.8391    7.1866 O   0  0  0  0  0  0  0  0  0  0  0  0
  -16.7469   -4.7683    4.0946 C   0  0  0  0  0  0  0  0  0  0  0  0
  -16.6264   -5.8611    5.0708 C   0  0  0  0  0  0  0  0  0  0  0  0
  -17.5581   -6.3478    5.9534 C   0  0  0  0  0  0  0  0  0  0  0  0
  -16.9890   -7.3530    6.6358 N   0  0  0  0  0  0  0  0  0  0  0  0
  -15.7023   -7.5270    6.2098 C   0  0  0  0  0  0  0  0  0  0  0  0
  -15.4592   -6.6153    5.2454 C   0  0  0  0  0  0  0  0  0  0  0  0
  -14.2093   -6.3758    4.4966 C   0  0  0  0  0  0  0  0  0  0  0  0
  -17.4554   -7.9128    7.3756 H   0  0  0  0  0  0  0  0  0  0  0  0
 14 15  1  0  0  0
 15 16  2  0  0  0
 16 17  1  0  0  0
 17 18  1  0  0  0
 18  1  1  0  0  0
  1  2  2  0  0  0
  2  3  1  0  0  0
  3  4  1  0  0  0
  4  5  2  0  0  0
  5  6  1  0  0  0
  6  7  2  0  0  0
  7  8  1  0  0  0
  7  9  1  0  0  0
  9 10  2  0  0  0
 10 11  1  0  0  0
 11 12  2  0  0  0
 11 13  2  0  0  0
 18 19  2  0  0  0
 19 20  1  0  0  0
 19 15  1  0  0  0
 11  2  1  0  0  0
 10  4  1  0  0  0
 17 21  1  0  0  0
M  END
> <minimizedAffinity>
-6.27185

> <CNNscore>
0.3098973632

> <CNNaffinity>
6.1399297714

> <CNN_VS>
1.9027479887

> <CNNaffinity_variance>
0.1065058857

$$$$
[H]/C(=C1/C([H])([H])c2c([H])c([H])c(F)c([H])c2S1(=O)=O)c1c(C([H])([H])[H])c(C([H])([H])[H])c([H])n1[H]


 21 23  0  0  0  0  0  0  0  0999 V2000
  -10.5230   -8.7662    8.1229 C   0  0  0  0  0  0  0  0  0  0  0  0
   -9.2356   -8.6537    8.1660 C   0  0  0  0  0  0  0  0  0  0  0  0
   -8.3856   -7.7614    8.9206 C   0  0  0  0  0  0  0  0  0  0  0  0
   -7.1476   -7.4975    8.1688 C   0  0  0  0  0  0  0  0  0  0  0  0
   -6.2799   -6.4177    8.3588 C   0  0  0  0  0  0  0  0  0  0  0  0
   -5.1542   -6.2705    7.6106 C   0  0  0  0  0  0  0  0  0  0  0  0
   -4.8669   -7.2111    6.6432 C   0  0  0  0  0  0  0  0  0  0  0  0
   -3.7436   -7.0810    5.8830 F   0  0  0  0  0  0  0  0  0  0  0  0
   -5.6888   -8.2820    6.4247 C   0  0  0  0  0  0  0  0  0  0  0  0
   -6.8202   -8.3973    7.2030 C   0  0  0  0  0  0  0  0  0  0  0  0
   -8.1093   -9.6120    7.2138 S   0  0  0  0  0  0  0  0  0  0  0  0
   -7.7179  -10.8365    7.9571 O   0  0  0  0  0  0  0  0  0  0  0  0
   -8.6170   -9.8751    5.8314 O   0  0  0  0  0  0  0  0  0  0  0  0
  -13.0413   -5.1593   10.5093 C   0  0  0  0  0  0  0  0  0  0  0  0
  -12.6855   -6.4677    9.9410 C   0  0  0  0  0  0  0  0  0  0  0  0
  -13.3778   -7.6522    9.9801 C   0  0  0  0  0  0  0  0  0  0  0  0
  -12.6564   -8.5695    9.3183 N   0  0  0  0  0  0  0  0  0  0  0  0
  -11.5065   -7.9992    8.8496 C   0  0  0  0  0  0  0  0  0  0  0  0
  -11.5052   -6.7032    9.2246 C   0  0  0  0  0  0  0  0  0  0  0  0
  -10.4703   -5.6763    8.9903 C   0  0  0  0  0  0  0  0  0  0  0  0
  -12.9302   -9.5621    9.1837 H   0  0  0  0  0  0  0  0  0  0  0  0
 14 15  1  0  0  0
 15 16  2  0  0  0
 16 17  1  0  0  0
 17 18  1  0  0  0
 18  1  1  0  0  0
  1  2  2  0  0  0
  2  3  1  0  0  0
  3  4  1  0  0  0
  4  5  2  0  0  0
  5  6  1  0  0  0
  6  7  2  0  0  0
  7  8  1  0  0  0
  7  9  1  0  0  0
  9 10  2  0  0  0
 10 11  1  0  0  0
 11 12  2  0  0  0
 11 13  2  0  0  0
 18 19  2  0  0  0
 19 20  1  0  0  0
 19 15  1  0  0  0
 11  2  1  0  0  0
 10  4  1  0  0  0
 17 21  1  0  0  0
M  END
> <minimizedAffinity>
-6.20709

> <CNNscore>
0.2868532538

> <CNNaffinity>
5.4385199547

> <CNN_VS>
1.5600571632

> <CNNaffinity_variance>
0.1348615885

$$$$
[H]/C(=C1/C([H])([H])c2c([H])c([H])c(F)c([H])c2S1(=O)=O)c1c(C([H])([H])[H])c(C([H])([H])[H])c([H])n1[H]


 21 23  0  0  0  0  0  0  0  0999 V2000
  -10.4252   -7.3895    8.5570 C   0  0  0  0  0  0  0  0  0  0  0  0
  -11.5661   -7.9050    8.2335 C   0  0  0  0  0  0  0  0  0  0  0  0
  -11.9889   -8.6006    7.0396 C   0  0  0  0  0  0  0  0  0  0  0  0
  -13.4238   -8.3662    6.8078 C   0  0  0  0  0  0  0  0  0  0  0  0
  -14.1014   -8.5242    5.5950 C   0  0  0  0  0  0  0  0  0  0  0  0
  -15.4360   -8.2861    5.4903 C   0  0  0  0  0  0  0  0  0  0  0  0
  -16.1321   -7.8792    6.6097 C   0  0  0  0  0  0  0  0  0  0  0  0
  -17.4700   -7.6354    6.5251 F   0  0  0  0  0  0  0  0  0  0  0  0
  -15.5079   -7.7122    7.8149 C   0  0  0  0  0  0  0  0  0  0  0  0
  -14.1545   -7.9636    7.8818 C   0  0  0  0  0  0  0  0  0  0  0  0
  -13.0132   -7.8528    9.2318 S   0  0  0  0  0  0  0  0  0  0  0  0
  -13.0736   -9.0454   10.1146 O   0  0  0  0  0  0  0  0  0  0  0  0
  -13.1555   -6.5515    9.9558 O   0  0  0  0  0  0  0  0  0  0  0  0
   -6.2485   -8.6046    6.0820 C   0  0  0  0  0  0  0  0  0  0  0  0
   -7.3327   -7.8119    6.6801 C   0  0  0  0  0  0  0  0  0  0  0  0
   -7.5192   -6.4521    6.6818 C   0  0  0  0  0  0  0  0  0  0  0  0
   -8.6543   -6.1958    7.3495 N   0  0  0  0  0  0  0  0  0  0  0  0
   -9.2082   -7.3681    7.7811 C   0  0  0  0  0  0  0  0  0  0  0  0
   -8.4070   -8.3765    7.3792 C   0  0  0  0  0  0  0  0  0  0  0  0
   -8.5536   -9.8251    7.6254 C   0  0  0  0  0  0  0  0  0  0  0  0
   -9.0508   -5.2503    7.5138 H   0  0  0  0  0  0  0  0  0  0  0  0
 14 15  1  0  0  0
 15 16  2  0  0  0
 16 17  1  0  0  0
 17 18  1  0  0  0
 18  1  1  0  0  0
  1  2  2  0  0  0
  2  3  1  0  0  0
  3  4  1  0  0  0
  4  5  2  0  0  0
  5  6  1  0  0  0
  6  7  2  0  0  0
  7  8  1  0  0  0
  7  9  1  0  0  0
  9 10  2  0  0  0
 10 11  1  0  0  0
 11 12  2  0  0  0
 11 13  2  0  0  0
 18 19  2  0  0  0
 19 20  1  0  0  0
 19 15  1  0  0  0
 11  2  1  0  0  0
 10  4  1  0  0  0
 17 21  1  0  0  0
M  END
> <minimizedAffinity>
-8.84773

> <CNNscore>
0.2716234028

> <CNNaffinity>
5.9376306534

> <CNN_VS>
1.6127994061

> <CNNaffinity_variance>
0.1056934372

$$$$
[H]/C(=C1/C([H])([H])c2c([H])c([H])c(F)c([H])c2S1(=O)=O)c1c(C([H])([H])[H])c(C([H])([H])[H])c([H])n1[H]


 21 23  0  0  0  0  0  0  0  0999 V2000
   -6.0389   -7.6732    7.9477 C   0  0  0  0  0  0  0  0  0  0  0  0
   -7.3116   -7.6856    7.7191 C   0  0  0  0  0  0  0  0  0  0  0  0
   -8.2807   -6.6142    7.6882 C   0  0  0  0  0  0  0  0  0  0  0  0
   -9.5998   -7.1232    8.0985 C   0  0  0  0  0  0  0  0  0  0  0  0
  -10.6713   -6.3575    8.5680 C   0  0  0  0  0  0  0  0  0  0  0  0
  -11.8549   -6.9294    8.9160 C   0  0  0  0  0  0  0  0  0  0  0  0
  -11.9957   -8.2969    8.8011 C   0  0  0  0  0  0  0  0  0  0  0  0
  -13.1738   -8.8887    9.1449 F   0  0  0  0  0  0  0  0  0  0  0  0
  -10.9728   -9.0825    8.3466 C   0  0  0  0  0  0  0  0  0  0  0  0
   -9.7887   -8.4667    8.0034 C   0  0  0  0  0  0  0  0  0  0  0  0
   -8.2622   -9.1300    7.3975 S   0  0  0  0  0  0  0  0  0  0  0  0
   -8.3102   -9.4011    5.9382 O   0  0  0  0  0  0  0  0  0  0  0  0
   -7.8149  -10.2973    8.2192 O   0  0  0  0  0  0  0  0  0  0  0  0
   -2.7814   -3.8800    7.7321 C   0  0  0  0  0  0  0  0  0  0  0  0
   -3.7600   -4.8481    8.2483 C   0  0  0  0  0  0  0  0  0  0  0  0
   -4.2653   -4.9842    9.5171 C   0  0  0  0  0  0  0  0  0  0  0  0
   -5.1339   -6.0065    9.5040 N   0  0  0  0  0  0  0  0  0  0  0  0
   -5.2011   -6.5364    8.2462 C   0  0  0  0  0  0  0  0  0  0  0  0
   -4.3598   -5.8363    7.4573 C   0  0  0  0  0  0  0  0  0  0  0  0
   -4.0513   -6.0404    6.0278 C   0  0  0  0  0  0  0  0  0  0  0  0
   -5.6725   -6.3441   10.3251 H   0  0  0  0  0  0  0  0  0  0  0  0
 14 15  1  0  0  0
 15 16  2  0  0  0
 16 17  1  0  0  0
 17 18  1  0  0  0
 18  1  1  0  0  0
  1  2  2  0  0  0
  2  3  1  0  0  0
  3  4  1  0  0  0
  4  5  2  0  0  0
  5  6  1  0  0  0
  6  7  2  0  0  0
  7  8  1  0  0  0
  7  9  1  0  0  0
  9 10  2  0  0  0
 10 11  1  0  0  0
 11 12  2  0  0  0
 11 13  2  0  0  0
 18 19  2  0  0  0
 19 20  1  0  0  0
 19 15  1  0  0  0
 11  2  1  0  0  0
 10  4  1  0  0  0
 17 21  1  0  0  0
M  END
> <minimizedAffinity>
-6.44588

> <CNNscore>
0.2679623067

> <CNNaffinity>
5.1592664719

> <CNN_VS>
1.3824889660

> <CNNaffinity_variance>
0.2201106548

$$$$
[H]c1c([H])c([H])c(-c2c([H])c([H])c(C(=O)N([H])c3c([H])c([H])c(OC([H])([H])[H])c(F)c3[H])n2-c2c([H])c([H])c(F)c([H])c2OC([H])([H])C([H])([H])OC([H])([H])C([H])([H])OC([H])([H])C([H])([H])[H])c([H])c1[H]


 40 43  0  0  0  0  0  0  0  0999 V2000
  -14.6068   -8.3537    4.6084 N   0  0  0  0  0  0  0  0  0  0  0  0
  -14.8079   -9.1179    5.7101 C   0  0  0  0  0  0  0  0  0  0  0  0
  -14.6175  -10.4356    5.2691 C   0  0  0  0  0  0  0  0  0  0  0  0
  -14.3149  -10.3994    3.9394 C   0  0  0  0  0  0  0  0  0  0  0  0
  -14.3070   -9.0712    3.5096 C   0  0  0  0  0  0  0  0  0  0  0  0
  -13.9143   -6.2556    5.5961 C   0  0  0  0  0  0  0  0  0  0  0  0
  -13.9878   -4.8833    5.6271 C   0  0  0  0  0  0  0  0  0  0  0  0
  -14.8033   -4.1591    4.7438 C   0  0  0  0  0  0  0  0  0  0  0  0
  -14.8464   -2.8029    4.8069 F   0  0  0  0  0  0  0  0  0  0  0  0
  -15.5582   -4.8526    3.8124 C   0  0  0  0  0  0  0  0  0  0  0  0
  -15.4877   -6.2314    3.7789 C   0  0  0  0  0  0  0  0  0  0  0  0
  -14.6903   -6.9450    4.6412 C   0  0  0  0  0  0  0  0  0  0  0  0
  -13.1155   -6.9519    6.4652 O   0  0  0  0  0  0  0  0  0  0  0  0
  -11.8782   -6.7737    6.9768 C   0  0  0  0  0  0  0  0  0  0  0  0
  -11.4426   -7.7114    8.0722 C   0  0  0  0  0  0  0  0  0  0  0  0
  -10.2865   -8.3750    7.6033 O   0  0  0  0  0  0  0  0  0  0  0  0
   -9.4334   -7.3575    7.1370 C   0  0  0  0  0  0  0  0  0  0  0  0
   -8.0156   -7.8657    7.2035 C   0  0  0  0  0  0  0  0  0  0  0  0
   -7.1319   -6.9093    7.6196 O   0  0  0  0  0  0  0  0  0  0  0  0
   -5.2714   -8.1510    6.9848 C   0  0  0  0  0  0  0  0  0  0  0  0
   -6.0161   -6.8410    6.8068 C   0  0  0  0  0  0  0  0  0  0  0  0
  -13.9687   -8.7157    2.1338 C   0  0  0  0  0  0  0  0  0  0  0  0
  -13.3117   -9.6601    1.3662 C   0  0  0  0  0  0  0  0  0  0  0  0
  -12.9735   -9.4861    0.0452 C   0  0  0  0  0  0  0  0  0  0  0  0
  -13.3079   -8.3001   -0.5535 C   0  0  0  0  0  0  0  0  0  0  0  0
  -13.9578   -7.3220    0.1422 C   0  0  0  0  0  0  0  0  0  0  0  0
  -14.2782   -7.5526    1.4834 C   0  0  0  0  0  0  0  0  0  0  0  0
  -15.1076   -8.8140    7.0889 C   0  0  0  0  0  0  0  0  0  0  0  0
  -16.2786   -8.3179    7.3064 O   0  0  0  0  0  0  0  0  0  0  0  0
  -14.3511   -8.9636    8.2518 N   0  0  0  0  0  0  0  0  0  0  0  0
  -13.3989   -9.3812    8.2005 H   0  0  0  0  0  0  0  0  0  0  0  0
  -14.7534   -8.6052    9.5766 C   0  0  0  0  0  0  0  0  0  0  0  0
  -15.5307   -9.5413   10.2767 C   0  0  0  0  0  0  0  0  0  0  0  0
  -15.9371   -9.2820   11.5649 C   0  0  0  0  0  0  0  0  0  0  0  0
  -15.5851   -8.0944   12.1881 C   0  0  0  0  0  0  0  0  0  0  0  0
  -14.8259   -7.1530   11.5388 C   0  0  0  0  0  0  0  0  0  0  0  0
  -14.4571   -5.9827   12.1014 F   0  0  0  0  0  0  0  0  0  0  0  0
  -14.4306   -7.4524   10.2293 C   0  0  0  0  0  0  0  0  0  0  0  0
  -15.9817   -7.7982   13.4962 O   0  0  0  0  0  0  0  0  0  0  0  0
  -16.6762   -8.7379   14.2822 C   0  0  0  0  0  0  0  0  0  0  0  0
 20 21  1  0  0  0
 21 19  1  0  0  0
 19 18  1  0  0  0
 18 17  1  0  0  0
 17 16  1  0  0  0
 16 15  1  0  0  0
 15 14  1  0  0  0
 14 13  1  0  0  0
 13  6  1  0  0  0
  6  7  2  0  0  0
  7  8  1  0  0  0
  8  9  1  0  0  0
  8 10  2  0  0  0
 10 11  1  0  0  0
 11 12  2  0  0  0
 12  1  1  0  0  0
  1  2  1  0  0  0
  2  3  2  0  0  0
  3  4  1  0  0  0
  4  5  2  0  0  0
  5 22  1  0  0  0
 22 23  2  0  0  0
 23 24  1  0  0  0
 24 25  2  0  0  0
 25 26  1  0  0  0
 26 27  2  0  0  0
  2 28  1  0  0  0
 28 29  2  0  0  0
 28 30  1  0  0  0
 30 32  1  0  0  0
 32 33  2  0  0  0
 33 34  1  0  0  0
 34 35  2  0  0  0
 35 39  1  0  0  0
 39 40  1  0  0  0
 35 36  1  0  0  0
 36 37  1  0  0  0
 36 38  2  0  0  0
 12  6  1  0  0  0
  5  1  1  0  0  0
 27 22  1  0  0  0
 38 32  1  0  0  0
 30 31  1  0  0  0
M  END
> <minimizedAffinity>
30.46739

> <CNNscore>
0.4241870642

> <CNNaffinity>
7.0412359238

> <CNN_VS>
2.9868011475

> <CNNaffinity_variance>
0.9059406519

$$$$
[H]c1c([H])c([H])c(-c2c([H])c([H])c(C(=O)N([H])c3c([H])c([H])c(OC([H])([H])[H])c(F)c3[H])n2-c2c([H])c([H])c(F)c([H])c2OC([H])([H])C([H])([H])OC([H])([H])C([H])([H])OC([H])([H])C([H])([H])[H])c([H])c1[H]


 40 43  0  0  0  0  0  0  0  0999 V2000
  -13.1028   -7.3742    7.2946 N   0  0  0  0  0  0  0  0  0  0  0  0
  -11.9846   -6.9488    6.6569 C   0  0  0  0  0  0  0  0  0  0  0  0
  -12.4569   -6.1610    5.5970 C   0  0  0  0  0  0  0  0  0  0  0  0
  -13.8201   -6.1517    5.6488 C   0  0  0  0  0  0  0  0  0  0  0  0
  -14.2404   -6.9262    6.7316 C   0  0  0  0  0  0  0  0  0  0  0  0
  -13.2685   -9.5749    8.2878 C   0  0  0  0  0  0  0  0  0  0  0  0
  -13.2129  -10.3740    9.4050 C   0  0  0  0  0  0  0  0  0  0  0  0
  -12.9479   -9.8551   10.6817 C   0  0  0  0  0  0  0  0  0  0  0  0
  -12.9005  -10.6796   11.7601 F   0  0  0  0  0  0  0  0  0  0  0  0
  -12.7370   -8.4929   10.8175 C   0  0  0  0  0  0  0  0  0  0  0  0
  -12.7930   -7.6868    9.6976 C   0  0  0  0  0  0  0  0  0  0  0  0
  -13.0515   -8.1902    8.4452 C   0  0  0  0  0  0  0  0  0  0  0  0
  -13.5300  -10.0931    7.0464 O   0  0  0  0  0  0  0  0  0  0  0  0
  -13.1194   -9.8158    5.7898 C   0  0  0  0  0  0  0  0  0  0  0  0
  -14.1115   -9.1539    4.8698 C   0  0  0  0  0  0  0  0  0  0  0  0
  -14.6713  -10.1771    4.0718 O   0  0  0  0  0  0  0  0  0  0  0  0
  -15.5856   -9.5301    3.2199 C   0  0  0  0  0  0  0  0  0  0  0  0
  -16.2085   -8.3870    3.9802 C   0  0  0  0  0  0  0  0  0  0  0  0
  -17.5737   -8.4527    4.0056 O   0  0  0  0  0  0  0  0  0  0  0  0
  -17.1783   -6.3197    3.1688 C   0  0  0  0  0  0  0  0  0  0  0  0
  -18.1577   -7.4776    3.2191 C   0  0  0  0  0  0  0  0  0  0  0  0
  -15.6552   -7.0656    7.0673 C   0  0  0  0  0  0  0  0  0  0  0  0
  -16.5549   -6.2306    6.4301 C   0  0  0  0  0  0  0  0  0  0  0  0
  -17.9171   -6.2790    6.6078 C   0  0  0  0  0  0  0  0  0  0  0  0
  -18.4200   -7.2149    7.4727 C   0  0  0  0  0  0  0  0  0  0  0  0
  -17.5918   -8.0730    8.1366 C   0  0  0  0  0  0  0  0  0  0  0  0
  -16.2142   -7.9801    7.9175 C   0  0  0  0  0  0  0  0  0  0  0  0
  -10.5732   -7.1290    6.8992 C   0  0  0  0  0  0  0  0  0  0  0  0
  -10.2119   -8.3276    7.2115 O   0  0  0  0  0  0  0  0  0  0  0  0
   -9.5073   -6.2296    6.8541 N   0  0  0  0  0  0  0  0  0  0  0  0
   -9.6767   -5.2384    6.5849 H   0  0  0  0  0  0  0  0  0  0  0  0
   -8.1366   -6.5250    7.1353 C   0  0  0  0  0  0  0  0  0  0  0  0
   -7.8464   -7.0225    8.4156 C   0  0  0  0  0  0  0  0  0  0  0  0
   -6.5556   -7.3538    8.7560 C   0  0  0  0  0  0  0  0  0  0  0  0
   -5.5253   -7.2009    7.8406 C   0  0  0  0  0  0  0  0  0  0  0  0
   -5.7666   -6.7183    6.5784 C   0  0  0  0  0  0  0  0  0  0  0  0
   -4.7991   -6.5515    5.6520 F   0  0  0  0  0  0  0  0  0  0  0  0
   -7.0926   -6.3925    6.2683 C   0  0  0  0  0  0  0  0  0  0  0  0
   -4.2017   -7.5272    8.1535 O   0  0  0  0  0  0  0  0  0  0  0  0
   -3.2647   -6.5349    8.5006 C   0  0  0  0  0  0  0  0  0  0  0  0
 20 21  1  0  0  0
 21 19  1  0  0  0
 19 18  1  0  0  0
 18 17  1  0  0  0
 17 16  1  0  0  0
 16 15  1  0  0  0
 15 14  1  0  0  0
 14 13  1  0  0  0
 13  6  1  0  0  0
  6  7  2  0  0  0
  7  8  1  0  0  0
  8  9  1  0  0  0
  8 10  2  0  0  0
 10 11  1  0  0  0
 11 12  2  0  0  0
 12  1  1  0  0  0
  1  2  1  0  0  0
  2  3  2  0  0  0
  3  4  1  0  0  0
  4  5  2  0  0  0
  5 22  1  0  0  0
 22 23  2  0  0  0
 23 24  1  0  0  0
 24 25  2  0  0  0
 25 26  1  0  0  0
 26 27  2  0  0  0
  2 28  1  0  0  0
 28 29  2  0  0  0
 28 30  1  0  0  0
 30 32  1  0  0  0
 32 33  2  0  0  0
 33 34  1  0  0  0
 34 35  2  0  0  0
 35 39  1  0  0  0
 39 40  1  0  0  0
 35 36  1  0  0  0
 36 37  1  0  0  0
 36 38  2  0  0  0
 12  6  1  0  0  0
  5  1  1  0  0  0
 27 22  1  0  0  0
 38 32  1  0  0  0
 30 31  1  0  0  0
M  END
> <minimizedAffinity>
5.75590

> <CNNscore>
0.4027394354

> <CNNaffinity>
6.9612493515

> <CNN_VS>
2.8035695553

> <CNNaffinity_variance>
0.3586322069

$$$$
[H]c1c([H])c([H])c(-c2c([H])c([H])c(C(=O)N([H])c3c([H])c([H])c(OC([H])([H])[H])c(F)c3[H])n2-c2c([H])c([H])c(F)c([H])c2OC([H])([H])C([H])([H])OC([H])([H])C([H])([H])OC([H])([H])C([H])([H])[H])c([H])c1[H]


 40 43  0  0  0  0  0  0  0  0999 V2000
  -13.8863   -6.4557    6.4107 N   0  0  0  0  0  0  0  0  0  0  0  0
  -12.6393   -6.5845    5.8944 C   0  0  0  0  0  0  0  0  0  0  0  0
  -12.7085   -5.9656    4.6377 C   0  0  0  0  0  0  0  0  0  0  0  0
  -13.9789   -5.5006    4.4622 C   0  0  0  0  0  0  0  0  0  0  0  0
  -14.7382   -5.8111    5.5917 C   0  0  0  0  0  0  0  0  0  0  0  0
  -14.8603   -8.1986    7.7784 C   0  0  0  0  0  0  0  0  0  0  0  0
  -15.1879   -8.6782    9.0244 C   0  0  0  0  0  0  0  0  0  0  0  0
  -14.9110   -7.9595   10.1976 C   0  0  0  0  0  0  0  0  0  0  0  0
  -15.2503   -8.4698   11.4098 F   0  0  0  0  0  0  0  0  0  0  0  0
  -14.2884   -6.7267   10.0933 C   0  0  0  0  0  0  0  0  0  0  0  0
  -13.9586   -6.2412    8.8432 C   0  0  0  0  0  0  0  0  0  0  0  0
  -14.2270   -6.9414    7.6915 C   0  0  0  0  0  0  0  0  0  0  0  0
  -15.1375   -8.9090    6.6397 O   0  0  0  0  0  0  0  0  0  0  0  0
  -14.4002   -9.5889    5.7348 C   0  0  0  0  0  0  0  0  0  0  0  0
  -14.2326   -8.9666    4.3735 C   0  0  0  0  0  0  0  0  0  0  0  0
  -14.6687   -9.9256    3.4317 O   0  0  0  0  0  0  0  0  0  0  0  0
  -16.0333   -9.6524    3.2229 C   0  0  0  0  0  0  0  0  0  0  0  0
  -16.4078   -8.4590    4.0646 C   0  0  0  0  0  0  0  0  0  0  0  0
  -17.7603   -8.3093    4.1945 O   0  0  0  0  0  0  0  0  0  0  0  0
  -17.2541   -6.7192    2.5754 C   0  0  0  0  0  0  0  0  0  0  0  0
  -18.3194   -7.6573    3.1116 C   0  0  0  0  0  0  0  0  0  0  0  0
  -16.1338   -5.3969    5.7113 C   0  0  0  0  0  0  0  0  0  0  0  0
  -16.4205   -4.0500    5.5826 C   0  0  0  0  0  0  0  0  0  0  0  0
  -17.6882   -3.5201    5.6232 C   0  0  0  0  0  0  0  0  0  0  0  0
  -18.7393   -4.3801    5.8030 C   0  0  0  0  0  0  0  0  0  0  0  0
  -18.5321   -5.7225    5.9370 C   0  0  0  0  0  0  0  0  0  0  0  0
  -17.2218   -6.2074    5.8872 C   0  0  0  0  0  0  0  0  0  0  0  0
  -11.4100   -7.1507    6.3958 C   0  0  0  0  0  0  0  0  0  0  0  0
  -10.3592   -6.4171    6.2466 O   0  0  0  0  0  0  0  0  0  0  0  0
  -11.1444   -8.3667    7.0266 N   0  0  0  0  0  0  0  0  0  0  0  0
  -11.9231   -9.0284    7.2252 H   0  0  0  0  0  0  0  0  0  0  0  0
   -9.8657   -8.8313    7.4676 C   0  0  0  0  0  0  0  0  0  0  0  0
   -9.5314  -10.1578    7.1525 C   0  0  0  0  0  0  0  0  0  0  0  0
   -8.3100  -10.6724    7.5199 C   0  0  0  0  0  0  0  0  0  0  0  0
   -7.3940   -9.8890    8.2056 C   0  0  0  0  0  0  0  0  0  0  0  0
   -7.6815   -8.5872    8.5324 C   0  0  0  0  0  0  0  0  0  0  0  0
   -6.8245   -7.7843    9.1981 F   0  0  0  0  0  0  0  0  0  0  0  0
   -8.9340   -8.0984    8.1413 C   0  0  0  0  0  0  0  0  0  0  0  0
   -6.1437  -10.3803    8.5950 O   0  0  0  0  0  0  0  0  0  0  0  0
   -5.7487  -11.6986    8.2964 C   0  0  0  0  0  0  0  0  0  0  0  0
 20 21  1  0  0  0
 21 19  1  0  0  0
 19 18  1  0  0  0
 18 17  1  0  0  0
 17 16  1  0  0  0
 16 15  1  0  0  0
 15 14  1  0  0  0
 14 13  1  0  0  0
 13  6  1  0  0  0
  6  7  2  0  0  0
  7  8  1  0  0  0
  8  9  1  0  0  0
  8 10  2  0  0  0
 10 11  1  0  0  0
 11 12  2  0  0  0
 12  1  1  0  0  0
  1  2  1  0  0  0
  2  3  2  0  0  0
  3  4  1  0  0  0
  4  5  2  0  0  0
  5 22  1  0  0  0
 22 23  2  0  0  0
 23 24  1  0  0  0
 24 25  2  0  0  0
 25 26  1  0  0  0
 26 27  2  0  0  0
  2 28  1  0  0  0
 28 29  2  0  0  0
 28 30  1  0  0  0
 30 32  1  0  0  0
 32 33  2  0  0  0
 33 34  1  0  0  0
 34 35  2  0  0  0
 35 39  1  0  0  0
 39 40  1  0  0  0
 35 36  1  0  0  0
 36 37  1  0  0  0
 36 38  2  0  0  0
 12  6  1  0  0  0
  5  1  1  0  0  0
 27 22  1  0  0  0
 38 32  1  0  0  0
 30 31  1  0  0  0
M  END
> <minimizedAffinity>
14.16021

> <CNNscore>
0.3808068931

> <CNNaffinity>
6.8791618347

> <CNN_VS>
2.6196322441

> <CNNaffinity_variance>
0.3255771101

$$$$
[H]c1c([H])c([H])c(-c2c([H])c([H])c(C(=O)N([H])c3c([H])c([H])c(OC([H])([H])[H])c(F)c3[H])n2-c2c([H])c([H])c(F)c([H])c2OC([H])([H])C([H])([H])OC([H])([H])C([H])([H])OC([H])([H])C([H])([H])[H])c([H])c1[H]


 40 43  0  0  0  0  0  0  0  0999 V2000
   -9.9247   -7.2636    8.1232 N   0  0  0  0  0  0  0  0  0  0  0  0
   -8.9542   -6.3374    7.9269 C   0  0  0  0  0  0  0  0  0  0  0  0
   -9.4273   -5.1841    8.5696 C   0  0  0  0  0  0  0  0  0  0  0  0
  -10.6449   -5.4701    9.1144 C   0  0  0  0  0  0  0  0  0  0  0  0
  -10.9700   -6.7981    8.8322 C   0  0  0  0  0  0  0  0  0  0  0  0
  -10.8812   -9.0990    6.8689 C   0  0  0  0  0  0  0  0  0  0  0  0
  -10.7771  -10.3830    6.3890 C   0  0  0  0  0  0  0  0  0  0  0  0
   -9.6532  -11.1851    6.6399 C   0  0  0  0  0  0  0  0  0  0  0  0
   -9.5893  -12.4488    6.1461 F   0  0  0  0  0  0  0  0  0  0  0  0
   -8.6172  -10.6635    7.3969 C   0  0  0  0  0  0  0  0  0  0  0  0
   -8.7185   -9.3743    7.8815 C   0  0  0  0  0  0  0  0  0  0  0  0
   -9.8167   -8.5848    7.6380 C   0  0  0  0  0  0  0  0  0  0  0  0
  -11.9849   -8.3260    6.6186 O   0  0  0  0  0  0  0  0  0  0  0  0
  -13.2352   -8.5642    6.1664 C   0  0  0  0  0  0  0  0  0  0  0  0
  -14.1510   -7.3783    6.0123 C   0  0  0  0  0  0  0  0  0  0  0  0
  -14.6729   -7.4356    4.7003 O   0  0  0  0  0  0  0  0  0  0  0  0
  -15.6772   -8.4206    4.7391 C   0  0  0  0  0  0  0  0  0  0  0  0
  -16.8414   -7.8741    5.5257 C   0  0  0  0  0  0  0  0  0  0  0  0
  -17.9787   -7.7632    4.7755 O   0  0  0  0  0  0  0  0  0  0  0  0
  -18.1487   -5.5005    4.2680 C   0  0  0  0  0  0  0  0  0  0  0  0
  -17.8258   -6.8796    3.7237 C   0  0  0  0  0  0  0  0  0  0  0  0
  -12.2024   -7.4048    9.3290 C   0  0  0  0  0  0  0  0  0  0  0  0
  -13.3359   -6.6141    9.3798 C   0  0  0  0  0  0  0  0  0  0  0  0
  -14.5743   -7.0594    9.7772 C   0  0  0  0  0  0  0  0  0  0  0  0
  -14.6970   -8.3724   10.1483 C   0  0  0  0  0  0  0  0  0  0  0  0
  -13.6211   -9.2119   10.1229 C   0  0  0  0  0  0  0  0  0  0  0  0
  -12.3851   -8.7062    9.7093 C   0  0  0  0  0  0  0  0  0  0  0  0
   -7.6652   -6.3711    7.2783 C   0  0  0  0  0  0  0  0  0  0  0  0
   -7.6925   -6.5021    5.9950 O   0  0  0  0  0  0  0  0  0  0  0  0
   -6.3712   -6.2835    7.7928 N   0  0  0  0  0  0  0  0  0  0  0  0
   -6.2281   -6.1476    8.8149 H   0  0  0  0  0  0  0  0  0  0  0  0
   -5.1549   -6.3485    7.0434 C   0  0  0  0  0  0  0  0  0  0  0  0
   -4.3451   -7.4768    7.2483 C   0  0  0  0  0  0  0  0  0  0  0  0
   -3.1710   -7.6257    6.5475 C   0  0  0  0  0  0  0  0  0  0  0  0
   -2.7721   -6.6648    5.6308 C   0  0  0  0  0  0  0  0  0  0  0  0
   -3.5352   -5.5472    5.4007 C   0  0  0  0  0  0  0  0  0  0  0  0
   -3.1909   -4.5842    4.5195 F   0  0  0  0  0  0  0  0  0  0  0  0
   -4.7235   -5.4307    6.1321 C   0  0  0  0  0  0  0  0  0  0  0  0
   -1.5844   -6.7839    4.9019 O   0  0  0  0  0  0  0  0  0  0  0  0
   -1.0712   -8.0437    4.5377 C   0  0  0  0  0  0  0  0  0  0  0  0
 20 21  1  0  0  0
 21 19  1  0  0  0
 19 18  1  0  0  0
 18 17  1  0  0  0
 17 16  1  0  0  0
 16 15  1  0  0  0
 15 14  1  0  0  0
 14 13  1  0  0  0
 13  6  1  0  0  0
  6  7  2  0  0  0
  7  8  1  0  0  0
  8  9  1  0  0  0
  8 10  2  0  0  0
 10 11  1  0  0  0
 11 12  2  0  0  0
 12  1  1  0  0  0
  1  2  1  0  0  0
  2  3  2  0  0  0
  3  4  1  0  0  0
  4  5  2  0  0  0
  5 22  1  0  0  0
 22 23  2  0  0  0
 23 24  1  0  0  0
 24 25  2  0  0  0
 25 26  1  0  0  0
 26 27  2  0  0  0
  2 28  1  0  0  0
 28 29  2  0  0  0
 28 30  1  0  0  0
 30 32  1  0  0  0
 32 33  2  0  0  0
 33 34  1  0  0  0
 34 35  2  0  0  0
 35 39  1  0  0  0
 39 40  1  0  0  0
 35 36  1  0  0  0
 36 37  1  0  0  0
 36 38  2  0  0  0
 12  6  1  0  0  0
  5  1  1  0  0  0
 27 22  1  0  0  0
 38 32  1  0  0  0
 30 31  1  0  0  0
M  END
> <minimizedAffinity>
-3.90698

> <CNNscore>
0.3163668513

> <CNNaffinity>
6.9907097816

> <CNN_VS>
2.2116289139

> <CNNaffinity_variance>
0.0428395942

$$$$
[H]c1c([H])c([H])c(-c2c([H])c([H])c(C(=O)N([H])c3c([H])c([H])c(OC([H])([H])[H])c(F)c3[H])n2-c2c([H])c([H])c(F)c([H])c2OC([H])([H])C([H])([H])OC([H])([H])C([H])([H])OC([H])([H])C([H])([H])[H])c([H])c1[H]


 40 43  0  0  0  0  0  0  0  0999 V2000
   -9.9240   -7.2631    8.1213 N   0  0  0  0  0  0  0  0  0  0  0  0
   -8.9470   -6.3445    7.9216 C   0  0  0  0  0  0  0  0  0  0  0  0
   -9.4071   -5.1888    8.5694 C   0  0  0  0  0  0  0  0  0  0  0  0
  -10.6239   -5.4660    9.1203 C   0  0  0  0  0  0  0  0  0  0  0  0
  -10.9614   -6.7906    8.8371 C   0  0  0  0  0  0  0  0  0  0  0  0
  -10.9199   -9.1019    6.9030 C   0  0  0  0  0  0  0  0  0  0  0  0
  -10.8292  -10.3857    6.4198 C   0  0  0  0  0  0  0  0  0  0  0  0
   -9.6942  -11.1840    6.6295 C   0  0  0  0  0  0  0  0  0  0  0  0
   -9.6443  -12.4477    6.1338 F   0  0  0  0  0  0  0  0  0  0  0  0
   -8.6329  -10.6589    7.3480 C   0  0  0  0  0  0  0  0  0  0  0  0
   -8.7206   -9.3699    7.8358 C   0  0  0  0  0  0  0  0  0  0  0  0
   -9.8296   -8.5840    7.6326 C   0  0  0  0  0  0  0  0  0  0  0  0
  -12.0344   -8.3325    6.6932 O   0  0  0  0  0  0  0  0  0  0  0  0
  -13.2655   -8.5536    6.1832 C   0  0  0  0  0  0  0  0  0  0  0  0
  -14.1784   -7.3639    6.0431 C   0  0  0  0  0  0  0  0  0  0  0  0
  -14.5782   -7.3155    4.6885 O   0  0  0  0  0  0  0  0  0  0  0  0
  -15.0299   -8.6132    4.3845 C   0  0  0  0  0  0  0  0  0  0  0  0
  -16.4946   -8.5316    4.0371 C   0  0  0  0  0  0  0  0  0  0  0  0
  -16.8589   -7.2974    3.5759 O   0  0  0  0  0  0  0  0  0  0  0  0
  -18.1111   -5.4622    4.2616 C   0  0  0  0  0  0  0  0  0  0  0  0
  -18.1382   -6.9506    3.9679 C   0  0  0  0  0  0  0  0  0  0  0  0
  -12.1960   -7.3883    9.3394 C   0  0  0  0  0  0  0  0  0  0  0  0
  -13.3198   -6.5852    9.4094 C   0  0  0  0  0  0  0  0  0  0  0  0
  -14.5593   -7.0203    9.8141 C   0  0  0  0  0  0  0  0  0  0  0  0
  -14.6938   -8.3357   10.1726 C   0  0  0  0  0  0  0  0  0  0  0  0
  -13.6281   -9.1872   10.1280 C   0  0  0  0  0  0  0  0  0  0  0  0
  -12.3903   -8.6914    9.7078 C   0  0  0  0  0  0  0  0  0  0  0  0
   -7.6620   -6.3873    7.2657 C   0  0  0  0  0  0  0  0  0  0  0  0
   -7.6978   -6.4606    5.9781 O   0  0  0  0  0  0  0  0  0  0  0  0
   -6.3641   -6.3605    7.7772 N   0  0  0  0  0  0  0  0  0  0  0  0
   -6.2132   -6.2740    8.8036 H   0  0  0  0  0  0  0  0  0  0  0  0
   -5.1529   -6.4280    7.0197 C   0  0  0  0  0  0  0  0  0  0  0  0
   -4.7102   -5.2350    6.4269 C   0  0  0  0  0  0  0  0  0  0  0  0
   -3.5412   -5.2114    5.7025 C   0  0  0  0  0  0  0  0  0  0  0  0
   -2.7857   -6.3639    5.5482 C   0  0  0  0  0  0  0  0  0  0  0  0
   -3.1831   -7.5506    6.1120 C   0  0  0  0  0  0  0  0  0  0  0  0
   -2.4835   -8.6987    5.9912 F   0  0  0  0  0  0  0  0  0  0  0  0
   -4.3777   -7.5356    6.8424 C   0  0  0  0  0  0  0  0  0  0  0  0
   -1.5930   -6.3757    4.8179 O   0  0  0  0  0  0  0  0  0  0  0  0
   -1.5482   -5.9379    3.4802 C   0  0  0  0  0  0  0  0  0  0  0  0
 20 21  1  0  0  0
 21 19  1  0  0  0
 19 18  1  0  0  0
 18 17  1  0  0  0
 17 16  1  0  0  0
 16 15  1  0  0  0
 15 14  1  0  0  0
 14 13  1  0  0  0
 13  6  1  0  0  0
  6  7  2  0  0  0
  7  8  1  0  0  0
  8  9  1  0  0  0
  8 10  2  0  0  0
 10 11  1  0  0  0
 11 12  2  0  0  0
 12  1  1  0  0  0
  1  2  1  0  0  0
  2  3  2  0  0  0
  3  4  1  0  0  0
  4  5  2  0  0  0
  5 22  1  0  0  0
 22 23  2  0  0  0
 23 24  1  0  0  0
 24 25  2  0  0  0
 25 26  1  0  0  0
 26 27  2  0  0  0
  2 28  1  0  0  0
 28 29  2  0  0  0
 28 30  1  0  0  0
 30 32  1  0  0  0
 32 33  2  0  0  0
 33 34  1  0  0  0
 34 35  2  0  0  0
 35 39  1  0  0  0
 39 40  1  0  0  0
 35 36  1  0  0  0
 36 37  1  0  0  0
 36 38  2  0  0  0
 12  6  1  0  0  0
  5  1  1  0  0  0
 27 22  1  0  0  0
 38 32  1  0  0  0
 30 31  1  0  0  0
M  END
> <minimizedAffinity>
-4.03040

> <CNNscore>
0.3103829622

> <CNNaffinity>
6.9954643250

> <CNN_VS>
2.1712729931

> <CNNaffinity_variance>
0.0601761863

$$$$
[H]c1c([H])c([H])c(-c2c([H])c([H])c(C(=O)N([H])c3c([H])c([H])c(OC([H])([H])[H])c(F)c3[H])n2-c2c([H])c([H])c(F)c([H])c2OC([H])([H])C([H])([H])OC([H])([H])C([H])([H])OC([H])([H])C([H])([H])[H])c([H])c1[H]


 40 43  0  0  0  0  0  0  0  0999 V2000
  -10.0683   -6.4113    7.2617 N   0  0  0  0  0  0  0  0  0  0  0  0
  -10.7808   -6.3065    6.1130 C   0  0  0  0  0  0  0  0  0  0  0  0
   -9.8139   -6.2348    5.0996 C   0  0  0  0  0  0  0  0  0  0  0  0
   -8.5819   -6.2992    5.6820 C   0  0  0  0  0  0  0  0  0  0  0  0
   -8.7368   -6.4113    7.0649 C   0  0  0  0  0  0  0  0  0  0  0  0
  -11.1032   -7.8073    8.9462 C   0  0  0  0  0  0  0  0  0  0  0  0
  -11.6997   -7.9255   10.1791 C   0  0  0  0  0  0  0  0  0  0  0  0
  -11.9010   -6.8203   11.0202 C   0  0  0  0  0  0  0  0  0  0  0  0
  -12.4936   -6.9805   12.2319 F   0  0  0  0  0  0  0  0  0  0  0  0
  -11.4852   -5.5709   10.5908 C   0  0  0  0  0  0  0  0  0  0  0  0
  -10.8864   -5.4480    9.3525 C   0  0  0  0  0  0  0  0  0  0  0  0
  -10.6864   -6.5272    8.5255 C   0  0  0  0  0  0  0  0  0  0  0  0
  -10.9136   -8.8939    8.1329 O   0  0  0  0  0  0  0  0  0  0  0  0
  -11.6797   -9.9311    7.7306 C   0  0  0  0  0  0  0  0  0  0  0  0
  -12.2519   -9.8675    6.3388 C   0  0  0  0  0  0  0  0  0  0  0  0
  -13.6557   -9.9602    6.4719 O   0  0  0  0  0  0  0  0  0  0  0  0
  -13.8910  -10.1361    7.8482 C   0  0  0  0  0  0  0  0  0  0  0  0
  -14.9917   -9.1923    8.2611 C   0  0  0  0  0  0  0  0  0  0  0  0
  -15.5694   -8.5584    7.1966 O   0  0  0  0  0  0  0  0  0  0  0  0
  -17.7090   -7.6600    7.3430 C   0  0  0  0  0  0  0  0  0  0  0  0
  -16.2310   -7.4046    7.5727 C   0  0  0  0  0  0  0  0  0  0  0  0
   -7.5855   -6.5457    7.9538 C   0  0  0  0  0  0  0  0  0  0  0  0
   -7.7142   -7.3711    9.0560 C   0  0  0  0  0  0  0  0  0  0  0  0
   -6.7040   -7.6321    9.9510 C   0  0  0  0  0  0  0  0  0  0  0  0
   -5.4882   -7.0368    9.7402 C   0  0  0  0  0  0  0  0  0  0  0  0
   -5.2878   -6.2102    8.6727 C   0  0  0  0  0  0  0  0  0  0  0  0
   -6.3501   -5.9804    7.7934 C   0  0  0  0  0  0  0  0  0  0  0  0
  -12.1934   -6.3000    5.8170 C   0  0  0  0  0  0  0  0  0  0  0  0
  -12.9576   -6.7669    6.7458 O   0  0  0  0  0  0  0  0  0  0  0  0
  -12.8981   -5.8709    4.6917 N   0  0  0  0  0  0  0  0  0  0  0  0
  -12.3861   -5.4491    3.8894 H   0  0  0  0  0  0  0  0  0  0  0  0
  -14.3146   -5.9324    4.5042 C   0  0  0  0  0  0  0  0  0  0  0  0
  -15.0305   -4.7402    4.6957 C   0  0  0  0  0  0  0  0  0  0  0  0
  -16.3930   -4.7108    4.5107 C   0  0  0  0  0  0  0  0  0  0  0  0
  -17.0767   -5.8566    4.1333 C   0  0  0  0  0  0  0  0  0  0  0  0
  -16.4142   -7.0424    3.9353 C   0  0  0  0  0  0  0  0  0  0  0  0
  -17.0335   -8.1842    3.5678 F   0  0  0  0  0  0  0  0  0  0  0  0
  -15.0280   -7.0334    4.1325 C   0  0  0  0  0  0  0  0  0  0  0  0
  -18.4615   -5.8625    3.9373 O   0  0  0  0  0  0  0  0  0  0  0  0
  -19.2529   -4.7446    4.2647 C   0  0  0  0  0  0  0  0  0  0  0  0
 20 21  1  0  0  0
 21 19  1  0  0  0
 19 18  1  0  0  0
 18 17  1  0  0  0
 17 16  1  0  0  0
 16 15  1  0  0  0
 15 14  1  0  0  0
 14 13  1  0  0  0
 13  6  1  0  0  0
  6  7  2  0  0  0
  7  8  1  0  0  0
  8  9  1  0  0  0
  8 10  2  0  0  0
 10 11  1  0  0  0
 11 12  2  0  0  0
 12  1  1  0  0  0
  1  2  1  0  0  0
  2  3  2  0  0  0
  3  4  1  0  0  0
  4  5  2  0  0  0
  5 22  1  0  0  0
 22 23  2  0  0  0
 23 24  1  0  0  0
 24 25  2  0  0  0
 25 26  1  0  0  0
 26 27  2  0  0  0
  2 28  1  0  0  0
 28 29  2  0  0  0
 28 30  1  0  0  0
 30 32  1  0  0  0
 32 33  2  0  0  0
 33 34  1  0  0  0
 34 35  2  0  0  0
 35 39  1  0  0  0
 39 40  1  0  0  0
 35 36  1  0  0  0
 36 37  1  0  0  0
 36 38  2  0  0  0
 12  6  1  0  0  0
  5  1  1  0  0  0
 27 22  1  0  0  0
 38 32  1  0  0  0
 30 31  1  0  0  0
M  END
> <minimizedAffinity>
9.60686

> <CNNscore>
0.3000217676

> <CNNaffinity>
6.6974248886

> <CNN_VS>
2.0093731880

> <CNNaffinity_variance>
0.1128804311

$$$$
[H]c1c([H])c([H])c(-c2c([H])c([H])c(C(=O)N([H])c3c([H])c([H])c(OC([H])([H])[H])c(F)c3[H])n2-c2c([H])c([H])c(F)c([H])c2OC([H])([H])C([H])([H])OC([H])([H])C([H])([H])OC([H])([H])C([H])([H])[H])c([H])c1[H]


 40 43  0  0  0  0  0  0  0  0999 V2000
  -14.6528   -7.9746    7.4867 N   0  0  0  0  0  0  0  0  0  0  0  0
  -14.7531   -7.2646    8.6373 C   0  0  0  0  0  0  0  0  0  0  0  0
  -16.0654   -6.7696    8.6371 C   0  0  0  0  0  0  0  0  0  0  0  0
  -16.6824   -7.2013    7.4995 C   0  0  0  0  0  0  0  0  0  0  0  0
  -15.7848   -7.9719    6.7584 C   0  0  0  0  0  0  0  0  0  0  0  0
  -12.4952   -7.9485    6.3906 C   0  0  0  0  0  0  0  0  0  0  0  0
  -11.3413   -8.6072    6.0381 C   0  0  0  0  0  0  0  0  0  0  0  0
  -11.1119   -9.9481    6.3825 C   0  0  0  0  0  0  0  0  0  0  0  0
   -9.9571  -10.5619    6.0156 F   0  0  0  0  0  0  0  0  0  0  0  0
  -12.0822  -10.6278    7.1001 C   0  0  0  0  0  0  0  0  0  0  0  0
  -13.2433   -9.9698    7.4553 C   0  0  0  0  0  0  0  0  0  0  0  0
  -13.4723   -8.6566    7.1209 C   0  0  0  0  0  0  0  0  0  0  0  0
  -12.7086   -6.6392    6.0469 O   0  0  0  0  0  0  0  0  0  0  0  0
  -12.9622   -5.9836    4.8934 C   0  0  0  0  0  0  0  0  0  0  0  0
  -14.4058   -5.8173    4.4971 C   0  0  0  0  0  0  0  0  0  0  0  0
  -14.7237   -4.4530    4.6827 O   0  0  0  0  0  0  0  0  0  0  0  0
  -16.0546   -4.3155    4.2464 C   0  0  0  0  0  0  0  0  0  0  0  0
  -16.9634   -4.7728    5.3589 C   0  0  0  0  0  0  0  0  0  0  0  0
  -18.1430   -5.2875    4.8979 O   0  0  0  0  0  0  0  0  0  0  0  0
  -17.8786   -6.5461    2.9609 C   0  0  0  0  0  0  0  0  0  0  0  0
  -18.2540   -5.1880    3.5238 C   0  0  0  0  0  0  0  0  0  0  0  0
  -16.1797   -8.6102    5.5053 C   0  0  0  0  0  0  0  0  0  0  0  0
  -15.1819   -8.9363    4.6048 C   0  0  0  0  0  0  0  0  0  0  0  0
  -15.3966   -9.5820    3.4104 C   0  0  0  0  0  0  0  0  0  0  0  0
  -16.6827   -9.9265    3.0876 C   0  0  0  0  0  0  0  0  0  0  0  0
  -17.7183   -9.6370    3.9283 C   0  0  0  0  0  0  0  0  0  0  0  0
  -17.4426   -8.9796    5.1308 C   0  0  0  0  0  0  0  0  0  0  0  0
  -13.8461   -7.0119    9.7313 C   0  0  0  0  0  0  0  0  0  0  0  0
  -13.9808   -7.7861   10.7546 O   0  0  0  0  0  0  0  0  0  0  0  0
  -12.8295   -6.0690    9.8875 N   0  0  0  0  0  0  0  0  0  0  0  0
  -12.6117   -5.4085    9.1128 H   0  0  0  0  0  0  0  0  0  0  0  0
  -11.9989   -5.9010   11.0395 C   0  0  0  0  0  0  0  0  0  0  0  0
  -10.6707   -6.3427   10.9317 C   0  0  0  0  0  0  0  0  0  0  0  0
   -9.8015   -6.1945   11.9873 C   0  0  0  0  0  0  0  0  0  0  0  0
  -10.2249   -5.6079   13.1703 C   0  0  0  0  0  0  0  0  0  0  0  0
  -11.5149   -5.1623   13.3164 C   0  0  0  0  0  0  0  0  0  0  0  0
  -11.9753   -4.5848   14.4464 F   0  0  0  0  0  0  0  0  0  0  0  0
  -12.3703   -5.3297   12.2205 C   0  0  0  0  0  0  0  0  0  0  0  0
   -9.3681   -5.4422   14.2633 O   0  0  0  0  0  0  0  0  0  0  0  0
   -8.3577   -4.4613   14.2605 C   0  0  0  0  0  0  0  0  0  0  0  0
 20 21  1  0  0  0
 21 19  1  0  0  0
 19 18  1  0  0  0
 18 17  1  0  0  0
 17 16  1  0  0  0
 16 15  1  0  0  0
 15 14  1  0  0  0
 14 13  1  0  0  0
 13  6  1  0  0  0
  6  7  2  0  0  0
  7  8  1  0  0  0
  8  9  1  0  0  0
  8 10  2  0  0  0
 10 11  1  0  0  0
 11 12  2  0  0  0
 12  1  1  0  0  0
  1  2  1  0  0  0
  2  3  2  0  0  0
  3  4  1  0  0  0
  4  5  2  0  0  0
  5 22  1  0  0  0
 22 23  2  0  0  0
 23 24  1  0  0  0
 24 25  2  0  0  0
 25 26  1  0  0  0
 26 27  2  0  0  0
  2 28  1  0  0  0
 28 29  2  0  0  0
 28 30  1  0  0  0
 30 32  1  0  0  0
 32 33  2  0  0  0
 33 34  1  0  0  0
 34 35  2  0  0  0
 35 39  1  0  0  0
 39 40  1  0  0  0
 35 36  1  0  0  0
 36 37  1  0  0  0
 36 38  2  0  0  0
 12  6  1  0  0  0
  5  1  1  0  0  0
 27 22  1  0  0  0
 38 32  1  0  0  0
 30 31  1  0  0  0
M  END
> <minimizedAffinity>
11.05772

> <CNNscore>
0.2974866331

> <CNNaffinity>
6.7924776077

> <CNN_VS>
2.0206713676

> <CNNaffinity_variance>
0.1774064600

$$$$
[H]c1c([H])c([H])c(-c2c([H])c([H])c(C(=O)N([H])c3c([H])c([H])c(OC([H])([H])[H])c(F)c3[H])n2-c2c([H])c([H])c(F)c([H])c2OC([H])([H])C([H])([H])OC([H])([H])C([H])([H])OC([H])([H])C([H])([H])[H])c([H])c1[H]


 40 43  0  0  0  0  0  0  0  0999 V2000
   -9.7839   -7.1231    7.8148 N   0  0  0  0  0  0  0  0  0  0  0  0
   -8.7989   -6.2199    7.5864 C   0  0  0  0  0  0  0  0  0  0  0  0
   -9.2840   -5.0198    8.1262 C   0  0  0  0  0  0  0  0  0  0  0  0
  -10.5225   -5.2576    8.6465 C   0  0  0  0  0  0  0  0  0  0  0  0
  -10.8492   -6.6006    8.4503 C   0  0  0  0  0  0  0  0  0  0  0  0
   -8.4955   -9.1716    7.7854 C   0  0  0  0  0  0  0  0  0  0  0  0
   -8.3841  -10.4919    7.4194 C   0  0  0  0  0  0  0  0  0  0  0  0
   -9.3966  -11.1589    6.7127 C   0  0  0  0  0  0  0  0  0  0  0  0
   -9.2474  -12.4650    6.3709 F   0  0  0  0  0  0  0  0  0  0  0  0
  -10.5439  -10.4610    6.3734 C   0  0  0  0  0  0  0  0  0  0  0  0
  -10.6591   -9.1342    6.7385 C   0  0  0  0  0  0  0  0  0  0  0  0
   -9.6707   -8.4768    7.4311 C   0  0  0  0  0  0  0  0  0  0  0  0
   -7.4989   -8.5306    8.4740 O   0  0  0  0  0  0  0  0  0  0  0  0
   -7.2801   -8.2215    9.7705 C   0  0  0  0  0  0  0  0  0  0  0  0
   -6.0088   -7.4837   10.0992 C   0  0  0  0  0  0  0  0  0  0  0  0
   -6.3910   -6.2611   10.6960 O   0  0  0  0  0  0  0  0  0  0  0  0
   -5.9182   -6.3263   12.0199 C   0  0  0  0  0  0  0  0  0  0  0  0
   -5.0497   -5.1194   12.2687 C   0  0  0  0  0  0  0  0  0  0  0  0
   -4.5700   -4.5681   11.1134 O   0  0  0  0  0  0  0  0  0  0  0  0
   -2.8737   -4.9935    9.5812 C   0  0  0  0  0  0  0  0  0  0  0  0
   -3.1934   -4.6561   11.0256 C   0  0  0  0  0  0  0  0  0  0  0  0
  -12.1037   -7.1616    8.9456 C   0  0  0  0  0  0  0  0  0  0  0  0
  -12.4360   -6.9309   10.2681 C   0  0  0  0  0  0  0  0  0  0  0  0
  -13.6031   -7.3533   10.8590 C   0  0  0  0  0  0  0  0  0  0  0  0
  -14.4982   -8.0491   10.0899 C   0  0  0  0  0  0  0  0  0  0  0  0
  -14.2375   -8.3135    8.7764 C   0  0  0  0  0  0  0  0  0  0  0  0
  -13.0351   -7.8595    8.2265 C   0  0  0  0  0  0  0  0  0  0  0  0
   -7.4883   -6.3090    6.9884 C   0  0  0  0  0  0  0  0  0  0  0  0
   -7.4607   -6.7393    5.7723 O   0  0  0  0  0  0  0  0  0  0  0  0
   -6.2224   -6.0070    7.4916 N   0  0  0  0  0  0  0  0  0  0  0  0
   -6.1254   -5.6245    8.4549 H   0  0  0  0  0  0  0  0  0  0  0  0
   -4.9784   -6.1555    6.8017 C   0  0  0  0  0  0  0  0  0  0  0  0
   -4.2835   -7.3586    7.0024 C   0  0  0  0  0  0  0  0  0  0  0  0
   -3.0916   -7.5884    6.3556 C   0  0  0  0  0  0  0  0  0  0  0  0
   -2.5613   -6.6363    5.4983 C   0  0  0  0  0  0  0  0  0  0  0  0
   -3.2094   -5.4472    5.2743 C   0  0  0  0  0  0  0  0  0  0  0  0
   -2.7352   -4.4893    4.4498 F   0  0  0  0  0  0  0  0  0  0  0  0
   -4.4200   -5.2493    5.9496 C   0  0  0  0  0  0  0  0  0  0  0  0
   -1.3517   -6.8368    4.8253 O   0  0  0  0  0  0  0  0  0  0  0  0
   -1.3126   -7.0363    3.4318 C   0  0  0  0  0  0  0  0  0  0  0  0
 20 21  1  0  0  0
 21 19  1  0  0  0
 19 18  1  0  0  0
 18 17  1  0  0  0
 17 16  1  0  0  0
 16 15  1  0  0  0
 15 14  1  0  0  0
 14 13  1  0  0  0
 13  6  1  0  0  0
  6  7  2  0  0  0
  7  8  1  0  0  0
  8  9  1  0  0  0
  8 10  2  0  0  0
 10 11  1  0  0  0
 11 12  2  0  0  0
 12  1  1  0  0  0
  1  2  1  0  0  0
  2  3  2  0  0  0
  3  4  1  0  0  0
  4  5  2  0  0  0
  5 22  1  0  0  0
 22 23  2  0  0  0
 23 24  1  0  0  0
 24 25  2  0  0  0
 25 26  1  0  0  0
 26 27  2  0  0  0
  2 28  1  0  0  0
 28 29  2  0  0  0
 28 30  1  0  0  0
 30 32  1  0  0  0
 32 33  2  0  0  0
 33 34  1  0  0  0
 34 35  2  0  0  0
 35 39  1  0  0  0
 39 40  1  0  0  0
 35 36  1  0  0  0
 36 37  1  0  0  0
 36 38  2  0  0  0
 12  6  1  0  0  0
  5  1  1  0  0  0
 27 22  1  0  0  0
 38 32  1  0  0  0
 30 31  1  0  0  0
M  END
> <minimizedAffinity>
-0.14655

> <CNNscore>
0.2893788218

> <CNNaffinity>
6.5576219559

> <CNN_VS>
1.8976368904

> <CNNaffinity_variance>
0.1810235232

$$$$
[H]c1c([H])c([H])c(-c2c([H])c([H])c(C(=O)N([H])c3c([H])c([H])c(OC([H])([H])[H])c(F)c3[H])n2-c2c([H])c([H])c(F)c([H])c2OC([H])([H])C([H])([H])OC([H])([H])C([H])([H])OC([H])([H])C([H])([H])[H])c([H])c1[H]


 40 43  0  0  0  0  0  0  0  0999 V2000
  -10.0116   -6.8520    8.0050 N   0  0  0  0  0  0  0  0  0  0  0  0
  -10.6848   -7.2588    6.9007 C   0  0  0  0  0  0  0  0  0  0  0  0
   -9.7001   -7.8038    6.0639 C   0  0  0  0  0  0  0  0  0  0  0  0
   -8.4971   -7.6991    6.6988 C   0  0  0  0  0  0  0  0  0  0  0  0
   -8.6884   -7.0905    7.9405 C   0  0  0  0  0  0  0  0  0  0  0  0
  -11.3938   -7.0921    9.9771 C   0  0  0  0  0  0  0  0  0  0  0  0
  -12.0219   -6.5176   11.0565 C   0  0  0  0  0  0  0  0  0  0  0  0
  -11.9526   -5.1399   11.3146 C   0  0  0  0  0  0  0  0  0  0  0  0
  -12.5872   -4.6121   12.3934 F   0  0  0  0  0  0  0  0  0  0  0  0
  -11.2279   -4.3352   10.4510 C   0  0  0  0  0  0  0  0  0  0  0  0
  -10.5963   -4.9085    9.3650 C   0  0  0  0  0  0  0  0  0  0  0  0
  -10.6606   -6.2571    9.1084 C   0  0  0  0  0  0  0  0  0  0  0  0
  -11.4703   -8.4387    9.7345 O   0  0  0  0  0  0  0  0  0  0  0  0
  -12.4027   -9.2633    9.2101 C   0  0  0  0  0  0  0  0  0  0  0  0
  -13.8478   -8.9078    9.4427 C   0  0  0  0  0  0  0  0  0  0  0  0
  -14.5401   -9.2202    8.2510 O   0  0  0  0  0  0  0  0  0  0  0  0
  -13.7288  -10.1540    7.5800 C   0  0  0  0  0  0  0  0  0  0  0  0
  -14.4022  -10.5129    6.2798 C   0  0  0  0  0  0  0  0  0  0  0  0
  -14.2213   -9.5636    5.3129 O   0  0  0  0  0  0  0  0  0  0  0  0
  -14.7571   -8.7733    3.1929 C   0  0  0  0  0  0  0  0  0  0  0  0
  -15.2583   -9.5454    4.3992 C   0  0  0  0  0  0  0  0  0  0  0  0
   -7.5798   -6.8848    8.8691 C   0  0  0  0  0  0  0  0  0  0  0  0
   -7.7732   -7.2356   10.1928 C   0  0  0  0  0  0  0  0  0  0  0  0
   -6.8083   -7.1446   11.1677 C   0  0  0  0  0  0  0  0  0  0  0  0
   -5.5724   -6.6758   10.8076 C   0  0  0  0  0  0  0  0  0  0  0  0
   -5.3088   -6.3111    9.5190 C   0  0  0  0  0  0  0  0  0  0  0  0
   -6.3270   -6.4249    8.5678 C   0  0  0  0  0  0  0  0  0  0  0  0
  -12.0793   -7.2515    6.5283 C   0  0  0  0  0  0  0  0  0  0  0  0
  -12.4594   -8.2313    5.7798 O   0  0  0  0  0  0  0  0  0  0  0  0
  -13.1118   -6.3652    6.8370 N   0  0  0  0  0  0  0  0  0  0  0  0
  -12.9272   -5.5508    7.4587 H   0  0  0  0  0  0  0  0  0  0  0  0
  -14.4670   -6.4534    6.3887 C   0  0  0  0  0  0  0  0  0  0  0  0
  -14.7678   -5.8447    5.1601 C   0  0  0  0  0  0  0  0  0  0  0  0
  -16.0429   -5.9063    4.6481 C   0  0  0  0  0  0  0  0  0  0  0  0
  -17.0468   -6.5692    5.3378 C   0  0  0  0  0  0  0  0  0  0  0  0
  -16.7942   -7.1779    6.5419 C   0  0  0  0  0  0  0  0  0  0  0  0
  -17.7361   -7.8352    7.2512 F   0  0  0  0  0  0  0  0  0  0  0  0
  -15.4847   -7.0946    7.0308 C   0  0  0  0  0  0  0  0  0  0  0  0
  -18.3539   -6.6505    4.8469 O   0  0  0  0  0  0  0  0  0  0  0  0
  -18.8943   -5.6388    4.0300 C   0  0  0  0  0  0  0  0  0  0  0  0
 20 21  1  0  0  0
 21 19  1  0  0  0
 19 18  1  0  0  0
 18 17  1  0  0  0
 17 16  1  0  0  0
 16 15  1  0  0  0
 15 14  1  0  0  0
 14 13  1  0  0  0
 13  6  1  0  0  0
  6  7  2  0  0  0
  7  8  1  0  0  0
  8  9  1  0  0  0
  8 10  2  0  0  0
 10 11  1  0  0  0
 11 12  2  0  0  0
 12  1  1  0  0  0
  1  2  1  0  0  0
  2  3  2  0  0  0
  3  4  1  0  0  0
  4  5  2  0  0  0
  5 22  1  0  0  0
 22 23  2  0  0  0
 23 24  1  0  0  0
 24 25  2  0  0  0
 25 26  1  0  0  0
 26 27  2  0  0  0
  2 28  1  0  0  0
 28 29  2  0  0  0
 28 30  1  0  0  0
 30 32  1  0  0  0
 32 33  2  0  0  0
 33 34  1  0  0  0
 34 35  2  0  0  0
 35 39  1  0  0  0
 39 40  1  0  0  0
 35 36  1  0  0  0
 36 37  1  0  0  0
 36 38  2  0  0  0
 12  6  1  0  0  0
  5  1  1  0  0  0
 27 22  1  0  0  0
 38 32  1  0  0  0
 30 31  1  0  0  0
M  END
> <minimizedAffinity>
7.98207

> <CNNscore>
0.2860284746

> <CNNaffinity>
6.8363699913

> <CNN_VS>
1.9553965330

> <CNNaffinity_variance>
0.2906273305

$$$$
[H]Oc1c([H])c([H])c(C([H])([H])C([H])([H])N([H])C(=O)N([H])c2c([H])c([H])c([H])c(Cl)c2[H])c([H])c1-c1c([H])c([H])c(Oc2nnnn2C([H])([H])[H])c([H])c1Cl


 37 40  0  0  0  0  0  0  0  0999 V2000
  -10.3098   -7.5990    8.3764 C   0  0  0  0  0  0  0  0  0  0  0  0
  -10.8248   -6.4500    8.9343 C   0  0  0  0  0  0  0  0  0  0  0  0
  -10.0703   -5.2738    8.8486 O   0  0  0  0  0  0  0  0  0  0  0  0
  -12.0567   -6.4767    9.5586 C   0  0  0  0  0  0  0  0  0  0  0  0
  -12.7777   -7.6685    9.6229 C   0  0  0  0  0  0  0  0  0  0  0  0
  -12.2704   -8.8218    9.0679 C   0  0  0  0  0  0  0  0  0  0  0  0
  -11.0451   -8.7708    8.4532 C   0  0  0  0  0  0  0  0  0  0  0  0
  -10.3593   -4.3954    9.2206 H   0  0  0  0  0  0  0  0  0  0  0  0
   -6.4833   -7.5341    6.4433 C   0  0  0  0  0  0  0  0  0  0  0  0
   -7.0706   -6.3989    6.9577 C   0  0  0  0  0  0  0  0  0  0  0  0
   -8.3010   -6.4137    7.5789 C   0  0  0  0  0  0  0  0  0  0  0  0
   -9.0084   -7.6017    7.7110 C   0  0  0  0  0  0  0  0  0  0  0  0
   -8.4218   -8.7382    7.1966 C   0  0  0  0  0  0  0  0  0  0  0  0
   -9.2836  -10.2558    7.3449 Cl  0  0  0  0  0  0  0  0  0  0  0  0
   -7.1804   -8.7165    6.5712 C   0  0  0  0  0  0  0  0  0  0  0  0
   -5.2462   -7.4328    5.8358 O   0  0  0  0  0  0  0  0  0  0  0  0
   -3.7959   -4.7985    5.4560 C   0  0  0  0  0  0  0  0  0  0  0  0
   -3.4395   -5.9035    6.3034 N   0  0  0  0  0  0  0  0  0  0  0  0
   -2.3657   -5.9602    7.0999 N   0  0  0  0  0  0  0  0  0  0  0  0
   -2.3305   -7.1111    7.7433 N   0  0  0  0  0  0  0  0  0  0  0  0
   -3.3998   -7.7842    7.3422 N   0  0  0  0  0  0  0  0  0  0  0  0
   -4.0888   -7.0582    6.4605 C   0  0  0  0  0  0  0  0  0  0  0  0
  -12.9739  -10.1355    9.0928 C   0  0  0  0  0  0  0  0  0  0  0  0
  -13.6685  -10.3899    7.7906 C   0  0  0  0  0  0  0  0  0  0  0  0
  -14.8355   -9.5879    7.5602 N   0  0  0  0  0  0  0  0  0  0  0  0
  -14.8938   -8.5536    6.5579 C   0  0  0  0  0  0  0  0  0  0  0  0
  -13.8318   -8.3851    5.8795 O   0  0  0  0  0  0  0  0  0  0  0  0
  -16.0804   -7.8305    6.4077 N   0  0  0  0  0  0  0  0  0  0  0  0
  -15.6811   -9.7468    8.1302 H   0  0  0  0  0  0  0  0  0  0  0  0
  -16.8679   -8.1332    7.0855 H   0  0  0  0  0  0  0  0  0  0  0  0
  -16.3588   -6.7823    5.5030 C   0  0  0  0  0  0  0  0  0  0  0  0
  -17.5866   -6.7944    4.8502 C   0  0  0  0  0  0  0  0  0  0  0  0
  -17.9260   -5.8041    3.9627 C   0  0  0  0  0  0  0  0  0  0  0  0
  -17.0545   -4.7817    3.7051 C   0  0  0  0  0  0  0  0  0  0  0  0
  -15.8326   -4.7351    4.3305 C   0  0  0  0  0  0  0  0  0  0  0  0
  -14.6970   -3.4503    4.0292 Cl  0  0  0  0  0  0  0  0  0  0  0  0
  -15.5219   -5.7593    5.2264 C   0  0  0  0  0  0  0  0  0  0  0  0
 17 18  1  0  0  0
 18 19  1  0  0  0
 19 20  2  0  0  0
 20 21  1  0  0  0
 21 22  2  0  0  0
 22 16  1  0  0  0
 16  9  1  0  0  0
  9 10  2  0  0  0
 10 11  1  0  0  0
 11 12  2  0  0  0
 12 13  1  0  0  0
 13 14  1  0  0  0
 13 15  2  0  0  0
 12  1  1  0  0  0
  1  2  2  0  0  0
  2  3  1  0  0  0
  2  4  1  0  0  0
  4  5  2  0  0  0
  5  6  1  0  0  0
  6 23  1  0  0  0
 23 24  1  0  0  0
 24 25  1  0  0  0
 25 26  1  0  0  0
 26 27  2  0  0  0
 26 28  1  0  0  0
 28 31  1  0  0  0
 31 32  2  0  0  0
 32 33  1  0  0  0
 33 34  2  0  0  0
 34 35  1  0  0  0
 35 36  1  0  0  0
 35 37  2  0  0  0
  6  7  2  0  0  0
 22 18  1  0  0  0
 15  9  1  0  0  0
  7  1  1  0  0  0
 37 31  1  0  0  0
  3  8  1  0  0  0
 25 29  1  0  0  0
 28 30  1  0  0  0
M  END
> <minimizedAffinity>
-10.33878

> <CNNscore>
0.7043402195

> <CNNaffinity>
7.8065886497

> <CNN_VS>
5.4984941483

> <CNNaffinity_variance>
0.0801457316

$$$$
[H]Oc1c([H])c([H])c(C([H])([H])C([H])([H])N([H])C(=O)N([H])c2c([H])c([H])c([H])c(Cl)c2[H])c([H])c1-c1c([H])c([H])c(Oc2nnnn2C([H])([H])[H])c([H])c1Cl


 37 40  0  0  0  0  0  0  0  0999 V2000
  -10.9678   -6.6652   12.5447 C   0  0  0  0  0  0  0  0  0  0  0  0
  -11.8591   -7.4555   13.2359 C   0  0  0  0  0  0  0  0  0  0  0  0
  -11.6676   -7.6255   14.6123 O   0  0  0  0  0  0  0  0  0  0  0  0
  -12.9096   -8.0571   12.5707 C   0  0  0  0  0  0  0  0  0  0  0  0
  -13.0662   -7.8630   11.1989 C   0  0  0  0  0  0  0  0  0  0  0  0
  -12.1798   -7.0746   10.5000 C   0  0  0  0  0  0  0  0  0  0  0  0
  -11.1444   -6.4876   11.1820 C   0  0  0  0  0  0  0  0  0  0  0  0
  -12.2589   -8.1765   15.1955 H   0  0  0  0  0  0  0  0  0  0  0  0
   -7.6284   -4.8084   14.4898 C   0  0  0  0  0  0  0  0  0  0  0  0
   -7.4847   -5.8853   13.6425 C   0  0  0  0  0  0  0  0  0  0  0  0
   -8.5548   -6.4869   13.0156 C   0  0  0  0  0  0  0  0  0  0  0  0
   -9.8457   -6.0174   13.2212 C   0  0  0  0  0  0  0  0  0  0  0  0
   -9.9907   -4.9400   14.0688 C   0  0  0  0  0  0  0  0  0  0  0  0
  -11.6038   -4.3191   14.3522 Cl  0  0  0  0  0  0  0  0  0  0  0  0
   -8.9072   -4.3376   14.6980 C   0  0  0  0  0  0  0  0  0  0  0  0
   -6.5031   -4.2631   15.0782 O   0  0  0  0  0  0  0  0  0  0  0  0
   -4.6399   -4.0037   12.7015 C   0  0  0  0  0  0  0  0  0  0  0  0
   -4.4085   -4.6723   13.9526 N   0  0  0  0  0  0  0  0  0  0  0  0
   -3.2882   -5.3192   14.2952 N   0  0  0  0  0  0  0  0  0  0  0  0
   -3.3996   -5.8205   15.5101 N   0  0  0  0  0  0  0  0  0  0  0  0
   -4.6092   -5.4812   15.9334 N   0  0  0  0  0  0  0  0  0  0  0  0
   -5.2392   -4.7781   14.9911 C   0  0  0  0  0  0  0  0  0  0  0  0
  -12.2738   -6.8158    9.0352 C   0  0  0  0  0  0  0  0  0  0  0  0
  -11.9272   -8.0468    8.2559 C   0  0  0  0  0  0  0  0  0  0  0  0
  -12.8093   -8.3398    7.1631 N   0  0  0  0  0  0  0  0  0  0  0  0
  -13.8023   -7.4117    6.6833 C   0  0  0  0  0  0  0  0  0  0  0  0
  -13.8572   -6.2995    7.2968 O   0  0  0  0  0  0  0  0  0  0  0  0
  -14.6108   -7.7901    5.6078 N   0  0  0  0  0  0  0  0  0  0  0  0
  -12.7422   -9.2533    6.6876 H   0  0  0  0  0  0  0  0  0  0  0  0
  -14.4003   -8.7813    5.2278 H   0  0  0  0  0  0  0  0  0  0  0  0
  -15.6393   -7.0512    4.9825 C   0  0  0  0  0  0  0  0  0  0  0  0
  -15.9423   -7.3488    3.6584 C   0  0  0  0  0  0  0  0  0  0  0  0
  -16.9340   -6.6748    2.9908 C   0  0  0  0  0  0  0  0  0  0  0  0
  -17.6452   -5.6922    3.6231 C   0  0  0  0  0  0  0  0  0  0  0  0
  -17.3752   -5.3700    4.9306 C   0  0  0  0  0  0  0  0  0  0  0  0
  -18.2586   -4.1261    5.7695 Cl  0  0  0  0  0  0  0  0  0  0  0  0
  -16.3599   -6.0762    5.5774 C   0  0  0  0  0  0  0  0  0  0  0  0
 17 18  1  0  0  0
 18 19  1  0  0  0
 19 20  2  0  0  0
 20 21  1  0  0  0
 21 22  2  0  0  0
 22 16  1  0  0  0
 16  9  1  0  0  0
  9 10  2  0  0  0
 10 11  1  0  0  0
 11 12  2  0  0  0
 12 13  1  0  0  0
 13 14  1  0  0  0
 13 15  2  0  0  0
 12  1  1  0  0  0
  1  2  2  0  0  0
  2  3  1  0  0  0
  2  4  1  0  0  0
  4  5  2  0  0  0
  5  6  1  0  0  0
  6 23  1  0  0  0
 23 24  1  0  0  0
 24 25  1  0  0  0
 25 26  1  0  0  0
 26 27  2  0  0  0
 26 28  1  0  0  0
 28 31  1  0  0  0
 31 32  2  0  0  0
 32 33  1  0  0  0
 33 34  2  0  0  0
 34 35  1  0  0  0
 35 36  1  0  0  0
 35 37  2  0  0  0
  6  7  2  0  0  0
 22 18  1  0  0  0
 15  9  1  0  0  0
  7  1  1  0  0  0
 37 31  1  0  0  0
  3  8  1  0  0  0
 25 29  1  0  0  0
 28 30  1  0  0  0
M  END
> <minimizedAffinity>
16.54219

> <CNNscore>
0.5486144423

> <CNNaffinity>
6.9837846756

> <CNN_VS>
3.8314051628

> <CNNaffinity_variance>
2.9558651447

$$$$
[H]Oc1c([H])c([H])c(C([H])([H])C([H])([H])N([H])C(=O)N([H])c2c([H])c([H])c([H])c(Cl)c2[H])c([H])c1-c1c([H])c([H])c(Oc2nnnn2C([H])([H])[H])c([H])c1Cl


 37 40  0  0  0  0  0  0  0  0999 V2000
  -11.4850   -5.9316   11.8406 C   0  0  0  0  0  0  0  0  0  0  0  0
  -10.1378   -6.0390   11.5756 C   0  0  0  0  0  0  0  0  0  0  0  0
   -9.7432   -6.6188   10.3639 O   0  0  0  0  0  0  0  0  0  0  0  0
   -9.2139   -5.5803   12.4942 C   0  0  0  0  0  0  0  0  0  0  0  0
   -9.6472   -5.0086   13.6899 C   0  0  0  0  0  0  0  0  0  0  0  0
  -10.9921   -4.8974   13.9631 C   0  0  0  0  0  0  0  0  0  0  0  0
  -11.8908   -5.3599   13.0357 C   0  0  0  0  0  0  0  0  0  0  0  0
   -8.7942   -6.7386   10.0839 H   0  0  0  0  0  0  0  0  0  0  0  0
  -14.4177   -7.4023    9.0802 C   0  0  0  0  0  0  0  0  0  0  0  0
  -13.7694   -8.2235    9.9767 C   0  0  0  0  0  0  0  0  0  0  0  0
  -12.8248   -7.7564   10.8653 C   0  0  0  0  0  0  0  0  0  0  0  0
  -12.4858   -6.4097   10.8886 C   0  0  0  0  0  0  0  0  0  0  0  0
  -13.1337   -5.5871    9.9920 C   0  0  0  0  0  0  0  0  0  0  0  0
  -12.7330   -3.8820    9.9920 Cl  0  0  0  0  0  0  0  0  0  0  0  0
  -14.0855   -6.0645    9.0983 C   0  0  0  0  0  0  0  0  0  0  0  0
  -15.3525   -7.9508    8.2230 O   0  0  0  0  0  0  0  0  0  0  0  0
  -12.9459   -8.9007    6.6440 C   0  0  0  0  0  0  0  0  0  0  0  0
  -14.1985   -8.3965    6.1514 N   0  0  0  0  0  0  0  0  0  0  0  0
  -14.5290   -8.2550    4.8624 N   0  0  0  0  0  0  0  0  0  0  0  0
  -15.7494   -7.7669    4.7513 N   0  0  0  0  0  0  0  0  0  0  0  0
  -16.1883   -7.6010    5.9911 N   0  0  0  0  0  0  0  0  0  0  0  0
  -15.2502   -7.9818    6.8595 C   0  0  0  0  0  0  0  0  0  0  0  0
  -11.5395   -4.3012   15.2146 C   0  0  0  0  0  0  0  0  0  0  0  0
  -11.0142   -2.9131   15.4146 C   0  0  0  0  0  0  0  0  0  0  0  0
   -9.8180   -2.8261   16.2018 N   0  0  0  0  0  0  0  0  0  0  0  0
   -8.6418   -2.1138   15.7691 C   0  0  0  0  0  0  0  0  0  0  0  0
   -8.7233   -1.5602   14.6276 O   0  0  0  0  0  0  0  0  0  0  0  0
   -7.5275   -2.0833   16.6122 N   0  0  0  0  0  0  0  0  0  0  0  0
   -9.7820   -3.2895   17.1232 H   0  0  0  0  0  0  0  0  0  0  0  0
   -7.6662   -2.6182   17.5428 H   0  0  0  0  0  0  0  0  0  0  0  0
   -6.2808   -1.4565   16.3939 C   0  0  0  0  0  0  0  0  0  0  0  0
   -5.2354   -2.2363   15.9117 C   0  0  0  0  0  0  0  0  0  0  0  0
   -3.9989   -1.6917   15.6709 C   0  0  0  0  0  0  0  0  0  0  0  0
   -3.7746   -0.3625   15.9034 C   0  0  0  0  0  0  0  0  0  0  0  0
   -4.7824    0.4401   16.3794 C   0  0  0  0  0  0  0  0  0  0  0  0
   -4.5359    2.1359   16.6872 Cl  0  0  0  0  0  0  0  0  0  0  0  0
   -6.0262   -0.1484   16.6127 C   0  0  0  0  0  0  0  0  0  0  0  0
 17 18  1  0  0  0
 18 19  1  0  0  0
 19 20  2  0  0  0
 20 21  1  0  0  0
 21 22  2  0  0  0
 22 16  1  0  0  0
 16  9  1  0  0  0
  9 10  2  0  0  0
 10 11  1  0  0  0
 11 12  2  0  0  0
 12 13  1  0  0  0
 13 14  1  0  0  0
 13 15  2  0  0  0
 12  1  1  0  0  0
  1  2  2  0  0  0
  2  3  1  0  0  0
  2  4  1  0  0  0
  4  5  2  0  0  0
  5  6  1  0  0  0
  6 23  1  0  0  0
 23 24  1  0  0  0
 24 25  1  0  0  0
 25 26  1  0  0  0
 26 27  2  0  0  0
 26 28  1  0  0  0
 28 31  1  0  0  0
 31 32  2  0  0  0
 32 33  1  0  0  0
 33 34  2  0  0  0
 34 35  1  0  0  0
 35 36  1  0  0  0
 35 37  2  0  0  0
  6  7  2  0  0  0
 22 18  1  0  0  0
 15  9  1  0  0  0
  7  1  1  0  0  0
 37 31  1  0  0  0
  3  8  1  0  0  0
 25 29  1  0  0  0
 28 30  1  0  0  0
M  END
> <minimizedAffinity>
7.30955

> <CNNscore>
0.4925912619

> <CNNaffinity>
6.4149384499

> <CNN_VS>
3.1599426270

> <CNNaffinity_variance>
1.4379119873

$$$$
[H]Oc1c([H])c([H])c(C([H])([H])C([H])([H])N([H])C(=O)N([H])c2c([H])c([H])c([H])c(Cl)c2[H])c([H])c1-c1c([H])c([H])c(Oc2nnnn2C([H])([H])[H])c([H])c1Cl


 37 40  0  0  0  0  0  0  0  0999 V2000
  -10.1576   -7.4556    8.4098 C   0  0  0  0  0  0  0  0  0  0  0  0
  -11.0545   -8.4607    8.1235 C   0  0  0  0  0  0  0  0  0  0  0  0
  -10.7219   -9.3835    7.1247 O   0  0  0  0  0  0  0  0  0  0  0  0
  -12.2475   -8.5403    8.8152 C   0  0  0  0  0  0  0  0  0  0  0  0
  -12.5421   -7.6017    9.8034 C   0  0  0  0  0  0  0  0  0  0  0  0
  -11.6512   -6.5935   10.0960 C   0  0  0  0  0  0  0  0  0  0  0  0
  -10.4729   -6.5349    9.3959 C   0  0  0  0  0  0  0  0  0  0  0  0
  -11.3046  -10.1435    6.8485 H   0  0  0  0  0  0  0  0  0  0  0  0
   -6.4568   -7.0645    6.2805 C   0  0  0  0  0  0  0  0  0  0  0  0
   -7.4951   -6.1720    6.1274 C   0  0  0  0  0  0  0  0  0  0  0  0
   -8.6875   -6.2936    6.8083 C   0  0  0  0  0  0  0  0  0  0  0  0
   -8.8883   -7.3450    7.6934 C   0  0  0  0  0  0  0  0  0  0  0  0
   -7.8501   -8.2387    7.8472 C   0  0  0  0  0  0  0  0  0  0  0  0
   -8.0660   -9.5778    8.9556 Cl  0  0  0  0  0  0  0  0  0  0  0  0
   -6.6499   -8.1104    7.1575 C   0  0  0  0  0  0  0  0  0  0  0  0
   -5.2936   -6.8700    5.5601 O   0  0  0  0  0  0  0  0  0  0  0  0
   -2.9987   -7.2749    7.4984 C   0  0  0  0  0  0  0  0  0  0  0  0
   -3.3104   -6.1153    6.7085 N   0  0  0  0  0  0  0  0  0  0  0  0
   -2.6140   -4.9725    6.6931 N   0  0  0  0  0  0  0  0  0  0  0  0
   -3.1650   -4.1093    5.8619 N   0  0  0  0  0  0  0  0  0  0  0  0
   -4.2227   -4.7227    5.3497 N   0  0  0  0  0  0  0  0  0  0  0  0
   -4.3252   -5.9515    5.8583 C   0  0  0  0  0  0  0  0  0  0  0  0
  -11.8873   -5.5512   11.1348 C   0  0  0  0  0  0  0  0  0  0  0  0
  -11.0851   -5.8383   12.3663 C   0  0  0  0  0  0  0  0  0  0  0  0
   -9.6636   -5.8521   12.1733 N   0  0  0  0  0  0  0  0  0  0  0  0
   -8.7230   -5.6029   13.2368 C   0  0  0  0  0  0  0  0  0  0  0  0
   -9.2328   -5.3612   14.3761 O   0  0  0  0  0  0  0  0  0  0  0  0
   -7.3562   -5.6442   12.9474 N   0  0  0  0  0  0  0  0  0  0  0  0
   -9.2807   -6.0482   11.2352 H   0  0  0  0  0  0  0  0  0  0  0  0
   -7.1330   -5.8692   11.9127 H   0  0  0  0  0  0  0  0  0  0  0  0
   -6.2687   -5.4300   13.8228 C   0  0  0  0  0  0  0  0  0  0  0  0
   -6.1843   -4.2011   14.4679 C   0  0  0  0  0  0  0  0  0  0  0  0
   -5.1577   -3.9270   15.3366 C   0  0  0  0  0  0  0  0  0  0  0  0
   -4.1944   -4.8664   15.5830 C   0  0  0  0  0  0  0  0  0  0  0  0
   -4.2439   -6.0919   14.9650 C   0  0  0  0  0  0  0  0  0  0  0  0
   -3.0371   -7.3133   15.2531 Cl  0  0  0  0  0  0  0  0  0  0  0  0
   -5.3021   -6.3350   14.0880 C   0  0  0  0  0  0  0  0  0  0  0  0
 17 18  1  0  0  0
 18 19  1  0  0  0
 19 20  2  0  0  0
 20 21  1  0  0  0
 21 22  2  0  0  0
 22 16  1  0  0  0
 16  9  1  0  0  0
  9 10  2  0  0  0
 10 11  1  0  0  0
 11 12  2  0  0  0
 12 13  1  0  0  0
 13 14  1  0  0  0
 13 15  2  0  0  0
 12  1  1  0  0  0
  1  2  2  0  0  0
  2  3  1  0  0  0
  2  4  1  0  0  0
  4  5  2  0  0  0
  5  6  1  0  0  0
  6 23  1  0  0  0
 23 24  1  0  0  0
 24 25  1  0  0  0
 25 26  1  0  0  0
 26 27  2  0  0  0
 26 28  1  0  0  0
 28 31  1  0  0  0
 31 32  2  0  0  0
 32 33  1  0  0  0
 33 34  2  0  0  0
 34 35  1  0  0  0
 35 36  1  0  0  0
 35 37  2  0  0  0
  6  7  2  0  0  0
 22 18  1  0  0  0
 15  9  1  0  0  0
  7  1  1  0  0  0
 37 31  1  0  0  0
  3  8  1  0  0  0
 25 29  1  0  0  0
 28 30  1  0  0  0
M  END
> <minimizedAffinity>
-2.83183

> <CNNscore>
0.4914272428

> <CNNaffinity>
6.8306274414

> <CNN_VS>
3.3567564487

> <CNNaffinity_variance>
0.1637666076

$$$$
[H]Oc1c([H])c([H])c(C([H])([H])C([H])([H])N([H])C(=O)N([H])c2c([H])c([H])c([H])c(Cl)c2[H])c([H])c1-c1c([H])c([H])c(Oc2nnnn2C([H])([H])[H])c([H])c1Cl


 37 40  0  0  0  0  0  0  0  0999 V2000
   -5.9997   -7.9065    6.7198 C   0  0  0  0  0  0  0  0  0  0  0  0
   -6.5896   -6.8118    7.3115 C   0  0  0  0  0  0  0  0  0  0  0  0
   -7.9459   -6.5714    7.0612 O   0  0  0  0  0  0  0  0  0  0  0  0
   -5.8457   -5.9830    8.1287 C   0  0  0  0  0  0  0  0  0  0  0  0
   -4.4970   -6.2566    8.3534 C   0  0  0  0  0  0  0  0  0  0  0  0
   -3.8992   -7.3488    7.7658 C   0  0  0  0  0  0  0  0  0  0  0  0
   -4.6582   -8.1573    6.9583 C   0  0  0  0  0  0  0  0  0  0  0  0
   -8.4586   -5.8072    7.4440 H   0  0  0  0  0  0  0  0  0  0  0  0
   -8.1857  -10.5116    4.1087 C   0  0  0  0  0  0  0  0  0  0  0  0
   -7.1557   -9.7127    3.6625 C   0  0  0  0  0  0  0  0  0  0  0  0
   -6.4504   -8.8724    4.4971 C   0  0  0  0  0  0  0  0  0  0  0  0
   -6.7611   -8.8002    5.8490 C   0  0  0  0  0  0  0  0  0  0  0  0
   -7.7916   -9.5989    6.2965 C   0  0  0  0  0  0  0  0  0  0  0  0
   -8.2119   -9.5357    7.9957 Cl  0  0  0  0  0  0  0  0  0  0  0  0
   -8.4989  -10.4444    5.4495 C   0  0  0  0  0  0  0  0  0  0  0  0
   -8.8418  -11.3265    3.2058 O   0  0  0  0  0  0  0  0  0  0  0  0
   -7.6088  -11.3998    0.4378 C   0  0  0  0  0  0  0  0  0  0  0  0
   -7.7562  -12.4737    1.3817 N   0  0  0  0  0  0  0  0  0  0  0  0
   -7.3589  -13.7376    1.1927 N   0  0  0  0  0  0  0  0  0  0  0  0
   -7.6408  -14.4716    2.2518 N   0  0  0  0  0  0  0  0  0  0  0  0
   -8.2236  -13.6529    3.1164 N   0  0  0  0  0  0  0  0  0  0  0  0
   -8.3016  -12.4262    2.5982 C   0  0  0  0  0  0  0  0  0  0  0  0
   -2.4659   -7.7124    7.9523 C   0  0  0  0  0  0  0  0  0  0  0  0
   -1.5889   -6.8847    7.0644 C   0  0  0  0  0  0  0  0  0  0  0  0
   -2.2653   -5.8432    6.3461 N   0  0  0  0  0  0  0  0  0  0  0  0
   -1.9981   -4.4422    6.5551 C   0  0  0  0  0  0  0  0  0  0  0  0
   -1.1162   -4.1754    7.4311 O   0  0  0  0  0  0  0  0  0  0  0  0
   -2.7075   -3.5037    5.8005 N   0  0  0  0  0  0  0  0  0  0  0  0
   -2.9789   -6.0922    5.6435 H   0  0  0  0  0  0  0  0  0  0  0  0
   -3.4134   -3.9413    5.1067 H   0  0  0  0  0  0  0  0  0  0  0  0
   -2.6129   -2.0951    5.8409 C   0  0  0  0  0  0  0  0  0  0  0  0
   -1.3569   -1.5218    5.6747 C   0  0  0  0  0  0  0  0  0  0  0  0
   -1.1924   -0.1595    5.6965 C   0  0  0  0  0  0  0  0  0  0  0  0
   -2.2703    0.6617    5.8834 C   0  0  0  0  0  0  0  0  0  0  0  0
   -3.5267    0.1328    6.0510 C   0  0  0  0  0  0  0  0  0  0  0  0
   -4.9229    1.1448    6.2909 Cl  0  0  0  0  0  0  0  0  0  0  0  0
   -3.6557   -1.2567    6.0232 C   0  0  0  0  0  0  0  0  0  0  0  0
 17 18  1  0  0  0
 18 19  1  0  0  0
 19 20  2  0  0  0
 20 21  1  0  0  0
 21 22  2  0  0  0
 22 16  1  0  0  0
 16  9  1  0  0  0
  9 10  2  0  0  0
 10 11  1  0  0  0
 11 12  2  0  0  0
 12 13  1  0  0  0
 13 14  1  0  0  0
 13 15  2  0  0  0
 12  1  1  0  0  0
  1  2  2  0  0  0
  2  3  1  0  0  0
  2  4  1  0  0  0
  4  5  2  0  0  0
  5  6  1  0  0  0
  6 23  1  0  0  0
 23 24  1  0  0  0
 24 25  1  0  0  0
 25 26  1  0  0  0
 26 27  2  0  0  0
 26 28  1  0  0  0
 28 31  1  0  0  0
 31 32  2  0  0  0
 32 33  1  0  0  0
 33 34  2  0  0  0
 34 35  1  0  0  0
 35 36  1  0  0  0
 35 37  2  0  0  0
  6  7  2  0  0  0
 22 18  1  0  0  0
 15  9  1  0  0  0
  7  1  1  0  0  0
 37 31  1  0  0  0
  3  8  1  0  0  0
 25 29  1  0  0  0
 28 30  1  0  0  0
M  END
> <minimizedAffinity>
3.87717

> <CNNscore>
0.4731309414

> <CNNaffinity>
6.3152441978

> <CNN_VS>
2.9879374504

> <CNNaffinity_variance>
1.0449289083

$$$$
[H]Oc1c([H])c([H])c(C([H])([H])C([H])([H])N([H])C(=O)N([H])c2c([H])c([H])c([H])c(Cl)c2[H])c([H])c1-c1c([H])c([H])c(Oc2nnnn2C([H])([H])[H])c([H])c1Cl


 37 40  0  0  0  0  0  0  0  0999 V2000
   -9.3602   -7.6569    7.8690 C   0  0  0  0  0  0  0  0  0  0  0  0
   -9.8556   -6.5347    8.4949 C   0  0  0  0  0  0  0  0  0  0  0  0
   -9.0002   -5.4408    8.6727 O   0  0  0  0  0  0  0  0  0  0  0  0
  -11.1665   -6.5075    8.9294 C   0  0  0  0  0  0  0  0  0  0  0  0
  -11.9871   -7.6176    8.7334 C   0  0  0  0  0  0  0  0  0  0  0  0
  -11.5000   -8.7438    8.1087 C   0  0  0  0  0  0  0  0  0  0  0  0
  -10.1950   -8.7474    7.6858 C   0  0  0  0  0  0  0  0  0  0  0  0
   -9.2674   -4.5873    9.1125 H   0  0  0  0  0  0  0  0  0  0  0  0
   -5.2894   -7.8850    6.5426 C   0  0  0  0  0  0  0  0  0  0  0  0
   -5.7610   -8.6182    7.6094 C   0  0  0  0  0  0  0  0  0  0  0  0
   -7.0683   -8.5478    8.0410 C   0  0  0  0  0  0  0  0  0  0  0  0
   -7.9770   -7.7156    7.4001 C   0  0  0  0  0  0  0  0  0  0  0  0
   -7.5062   -6.9814    6.3326 C   0  0  0  0  0  0  0  0  0  0  0  0
   -8.6232   -5.9209    5.4986 Cl  0  0  0  0  0  0  0  0  0  0  0  0
   -6.1865   -7.0570    5.9022 C   0  0  0  0  0  0  0  0  0  0  0  0
   -3.9639   -8.0141    6.1737 O   0  0  0  0  0  0  0  0  0  0  0  0
   -1.5812   -9.5325    7.2712 C   0  0  0  0  0  0  0  0  0  0  0  0
   -1.8481   -8.1214    7.3286 N   0  0  0  0  0  0  0  0  0  0  0  0
   -1.0602   -7.2016    7.8979 N   0  0  0  0  0  0  0  0  0  0  0  0
   -1.5931   -6.0011    7.7771 N   0  0  0  0  0  0  0  0  0  0  0  0
   -2.7323   -6.1737    7.1216 N   0  0  0  0  0  0  0  0  0  0  0  0
   -2.9026   -7.4664    6.8401 C   0  0  0  0  0  0  0  0  0  0  0  0
  -12.3076   -9.9715    7.8603 C   0  0  0  0  0  0  0  0  0  0  0  0
  -13.6777   -9.8332    8.4488 C   0  0  0  0  0  0  0  0  0  0  0  0
  -14.7462   -9.7922    7.4923 N   0  0  0  0  0  0  0  0  0  0  0  0
  -15.1523   -8.5845    6.8181 C   0  0  0  0  0  0  0  0  0  0  0  0
  -14.5016   -7.5370    7.1273 O   0  0  0  0  0  0  0  0  0  0  0  0
  -16.2025   -8.6501    5.8982 N   0  0  0  0  0  0  0  0  0  0  0  0
  -15.2576  -10.6593    7.2652 H   0  0  0  0  0  0  0  0  0  0  0  0
  -16.6209   -9.6410    5.7793 H   0  0  0  0  0  0  0  0  0  0  0  0
  -16.7632   -7.6038    5.1329 C   0  0  0  0  0  0  0  0  0  0  0  0
  -16.8523   -7.7793    3.7564 C   0  0  0  0  0  0  0  0  0  0  0  0
  -17.3917   -6.8066    2.9524 C   0  0  0  0  0  0  0  0  0  0  0  0
  -17.8538   -5.6403    3.4976 C   0  0  0  0  0  0  0  0  0  0  0  0
  -17.7832   -5.4303    4.8531 C   0  0  0  0  0  0  0  0  0  0  0  0
  -18.3610   -3.9597    5.5843 Cl  0  0  0  0  0  0  0  0  0  0  0  0
  -17.2283   -6.4414    5.6391 C   0  0  0  0  0  0  0  0  0  0  0  0
 17 18  1  0  0  0
 18 19  1  0  0  0
 19 20  2  0  0  0
 20 21  1  0  0  0
 21 22  2  0  0  0
 22 16  1  0  0  0
 16  9  1  0  0  0
  9 10  2  0  0  0
 10 11  1  0  0  0
 11 12  2  0  0  0
 12 13  1  0  0  0
 13 14  1  0  0  0
 13 15  2  0  0  0
 12  1  1  0  0  0
  1  2  2  0  0  0
  2  3  1  0  0  0
  2  4  1  0  0  0
  4  5  2  0  0  0
  5  6  1  0  0  0
  6 23  1  0  0  0
 23 24  1  0  0  0
 24 25  1  0  0  0
 25 26  1  0  0  0
 26 27  2  0  0  0
 26 28  1  0  0  0
 28 31  1  0  0  0
 31 32  2  0  0  0
 32 33  1  0  0  0
 33 34  2  0  0  0
 34 35  1  0  0  0
 35 36  1  0  0  0
 35 37  2  0  0  0
  6  7  2  0  0  0
 22 18  1  0  0  0
 15  9  1  0  0  0
  7  1  1  0  0  0
 37 31  1  0  0  0
  3  8  1  0  0  0
 25 29  1  0  0  0
 28 30  1  0  0  0
M  END
> <minimizedAffinity>
-7.39105

> <CNNscore>
0.4698853791

> <CNNaffinity>
7.3892984390

> <CNN_VS>
3.4721233845

> <CNNaffinity_variance>
0.3281619549

$$$$
[H]Oc1c([H])c([H])c(C([H])([H])C([H])([H])N([H])C(=O)N([H])c2c([H])c([H])c([H])c(Cl)c2[H])c([H])c1-c1c([H])c([H])c(Oc2nnnn2C([H])([H])[H])c([H])c1Cl


 37 40  0  0  0  0  0  0  0  0999 V2000
  -13.6155   -7.6338    8.0375 C   0  0  0  0  0  0  0  0  0  0  0  0
  -14.7406   -7.5361    7.2493 C   0  0  0  0  0  0  0  0  0  0  0  0
  -15.9552   -8.0050    7.7641 O   0  0  0  0  0  0  0  0  0  0  0  0
  -14.6535   -6.9863    5.9852 C   0  0  0  0  0  0  0  0  0  0  0  0
  -13.4250   -6.5304    5.5086 C   0  0  0  0  0  0  0  0  0  0  0  0
  -12.2951   -6.6242    6.2898 C   0  0  0  0  0  0  0  0  0  0  0  0
  -12.4062   -7.1739    7.5417 C   0  0  0  0  0  0  0  0  0  0  0  0
  -16.8205   -7.9763    7.2702 H   0  0  0  0  0  0  0  0  0  0  0  0
  -13.8375   -9.2731   11.9931 C   0  0  0  0  0  0  0  0  0  0  0  0
  -14.3475   -8.0327   11.6776 C   0  0  0  0  0  0  0  0  0  0  0  0
  -14.2778   -7.5002   10.4081 C   0  0  0  0  0  0  0  0  0  0  0  0
  -13.6766   -8.2125    9.3783 C   0  0  0  0  0  0  0  0  0  0  0  0
  -13.1658   -9.4536    9.6928 C   0  0  0  0  0  0  0  0  0  0  0  0
  -12.4007  -10.3822    8.4199 Cl  0  0  0  0  0  0  0  0  0  0  0  0
  -13.2395   -9.9851   10.9753 C   0  0  0  0  0  0  0  0  0  0  0  0
  -13.9491   -9.7339   13.2911 O   0  0  0  0  0  0  0  0  0  0  0  0
  -13.1982  -12.6503   12.9480 C   0  0  0  0  0  0  0  0  0  0  0  0
  -12.6294  -11.6776   13.8404 N   0  0  0  0  0  0  0  0  0  0  0  0
  -11.6330  -11.9018   14.7052 N   0  0  0  0  0  0  0  0  0  0  0  0
  -11.3479  -10.8013   15.3739 N   0  0  0  0  0  0  0  0  0  0  0  0
  -12.1797   -9.8745   14.9194 N   0  0  0  0  0  0  0  0  0  0  0  0
  -12.9706  -10.3956   13.9803 C   0  0  0  0  0  0  0  0  0  0  0  0
  -10.9453   -6.1626    5.8579 C   0  0  0  0  0  0  0  0  0  0  0  0
   -9.9045   -6.5557    6.8604 C   0  0  0  0  0  0  0  0  0  0  0  0
   -8.5668   -6.1537    6.5335 N   0  0  0  0  0  0  0  0  0  0  0  0
   -7.4067   -6.6284    7.2454 C   0  0  0  0  0  0  0  0  0  0  0  0
   -7.6397   -7.4350    8.2002 O   0  0  0  0  0  0  0  0  0  0  0  0
   -6.1444   -6.1809    6.8460 N   0  0  0  0  0  0  0  0  0  0  0  0
   -8.4108   -5.4946    5.7548 H   0  0  0  0  0  0  0  0  0  0  0  0
   -6.1660   -5.4964    6.0080 H   0  0  0  0  0  0  0  0  0  0  0  0
   -4.8849   -6.5077    7.3953 C   0  0  0  0  0  0  0  0  0  0  0  0
   -4.3860   -5.6964    8.4085 C   0  0  0  0  0  0  0  0  0  0  0  0
   -3.1717   -5.9587    8.9918 C   0  0  0  0  0  0  0  0  0  0  0  0
   -2.4280   -7.0311    8.5820 C   0  0  0  0  0  0  0  0  0  0  0  0
   -2.8873   -7.8555    7.5842 C   0  0  0  0  0  0  0  0  0  0  0  0
   -1.9701   -9.2300    7.0358 Cl  0  0  0  0  0  0  0  0  0  0  0  0
   -4.1261   -7.5578    7.0143 C   0  0  0  0  0  0  0  0  0  0  0  0
 17 18  1  0  0  0
 18 19  1  0  0  0
 19 20  2  0  0  0
 20 21  1  0  0  0
 21 22  2  0  0  0
 22 16  1  0  0  0
 16  9  1  0  0  0
  9 10  2  0  0  0
 10 11  1  0  0  0
 11 12  2  0  0  0
 12 13  1  0  0  0
 13 14  1  0  0  0
 13 15  2  0  0  0
 12  1  1  0  0  0
  1  2  2  0  0  0
  2  3  1  0  0  0
  2  4  1  0  0  0
  4  5  2  0  0  0
  5  6  1  0  0  0
  6 23  1  0  0  0
 23 24  1  0  0  0
 24 25  1  0  0  0
 25 26  1  0  0  0
 26 27  2  0  0  0
 26 28  1  0  0  0
 28 31  1  0  0  0
 31 32  2  0  0  0
 32 33  1  0  0  0
 33 34  2  0  0  0
 34 35  1  0  0  0
 35 36  1  0  0  0
 35 37  2  0  0  0
  6  7  2  0  0  0
 22 18  1  0  0  0
 15  9  1  0  0  0
  7  1  1  0  0  0
 37 31  1  0  0  0
  3  8  1  0  0  0
 25 29  1  0  0  0
 28 30  1  0  0  0
M  END
> <minimizedAffinity>
17.51275

> <CNNscore>
0.4282487929

> <CNNaffinity>
6.7469725609

> <CNN_VS>
2.8893828392

> <CNNaffinity_variance>
2.2056365013

$$$$
[H]Oc1c([H])c([H])c(C([H])([H])C([H])([H])N([H])C(=O)N([H])c2c([H])c([H])c([H])c(Cl)c2[H])c([H])c1-c1c([H])c([H])c(Oc2nnnn2C([H])([H])[H])c([H])c1Cl


 37 40  0  0  0  0  0  0  0  0999 V2000
   -5.7321   -7.7526    6.6524 C   0  0  0  0  0  0  0  0  0  0  0  0
   -6.1947   -6.5157    7.0431 C   0  0  0  0  0  0  0  0  0  0  0  0
   -7.4944   -6.1463    6.6769 O   0  0  0  0  0  0  0  0  0  0  0  0
   -5.3821   -5.6742    7.7778 C   0  0  0  0  0  0  0  0  0  0  0  0
   -4.0932   -6.0790    8.1229 C   0  0  0  0  0  0  0  0  0  0  0  0
   -3.6226   -7.3138    7.7363 C   0  0  0  0  0  0  0  0  0  0  0  0
   -4.4478   -8.1321    7.0075 C   0  0  0  0  0  0  0  0  0  0  0  0
   -7.9160   -5.2746    6.9135 H   0  0  0  0  0  0  0  0  0  0  0  0
   -8.1411  -10.4122    4.3059 C   0  0  0  0  0  0  0  0  0  0  0  0
   -7.1242   -9.6601    3.7595 C   0  0  0  0  0  0  0  0  0  0  0  0
   -6.3476   -8.8025    4.5088 C   0  0  0  0  0  0  0  0  0  0  0  0
   -6.5683   -8.6635    5.8730 C   0  0  0  0  0  0  0  0  0  0  0  0
   -7.5855   -9.4155    6.4208 C   0  0  0  0  0  0  0  0  0  0  0  0
   -7.8935   -9.2675    8.1387 Cl  0  0  0  0  0  0  0  0  0  0  0  0
   -8.3652  -10.2787    5.6595 C   0  0  0  0  0  0  0  0  0  0  0  0
   -8.8726  -11.2486    3.4843 O   0  0  0  0  0  0  0  0  0  0  0  0
   -7.7399  -11.4882    0.6831 C   0  0  0  0  0  0  0  0  0  0  0  0
   -7.9016  -12.5156    1.6750 N   0  0  0  0  0  0  0  0  0  0  0  0
   -7.5668  -13.8027    1.5258 N   0  0  0  0  0  0  0  0  0  0  0  0
   -7.8440  -14.4803    2.6229 N   0  0  0  0  0  0  0  0  0  0  0  0
   -8.3603  -13.6022    3.4714 N   0  0  0  0  0  0  0  0  0  0  0  0
   -8.4022  -12.3950    2.9056 C   0  0  0  0  0  0  0  0  0  0  0  0
   -2.2604   -7.8234    8.0620 C   0  0  0  0  0  0  0  0  0  0  0  0
   -1.4775   -6.7969    8.8210 C   0  0  0  0  0  0  0  0  0  0  0  0
   -2.2432   -6.0168    9.7501 N   0  0  0  0  0  0  0  0  0  0  0  0
   -2.0051   -6.0298   11.1717 C   0  0  0  0  0  0  0  0  0  0  0  0
   -1.0639   -6.7889   11.5644 O   0  0  0  0  0  0  0  0  0  0  0  0
   -2.8033   -5.2292   11.9934 N   0  0  0  0  0  0  0  0  0  0  0  0
   -3.0033   -5.4127    9.4002 H   0  0  0  0  0  0  0  0  0  0  0  0
   -3.5489   -4.6562   11.4577 H   0  0  0  0  0  0  0  0  0  0  0  0
   -2.7510   -5.0892   13.3978 C   0  0  0  0  0  0  0  0  0  0  0  0
   -1.6775   -4.3936   13.9433 C   0  0  0  0  0  0  0  0  0  0  0  0
   -1.5662   -4.2142   15.2994 C   0  0  0  0  0  0  0  0  0  0  0  0
   -2.5176   -4.7209   16.1417 C   0  0  0  0  0  0  0  0  0  0  0  0
   -3.5925   -5.4134   15.6404 C   0  0  0  0  0  0  0  0  0  0  0  0
   -4.8237   -6.0728   16.6799 Cl  0  0  0  0  0  0  0  0  0  0  0  0
   -3.6723   -5.5763   14.2566 C   0  0  0  0  0  0  0  0  0  0  0  0
 17 18  1  0  0  0
 18 19  1  0  0  0
 19 20  2  0  0  0
 20 21  1  0  0  0
 21 22  2  0  0  0
 22 16  1  0  0  0
 16  9  1  0  0  0
  9 10  2  0  0  0
 10 11  1  0  0  0
 11 12  2  0  0  0
 12 13  1  0  0  0
 13 14  1  0  0  0
 13 15  2  0  0  0
 12  1  1  0  0  0
  1  2  2  0  0  0
  2  3  1  0  0  0
  2  4  1  0  0  0
  4  5  2  0  0  0
  5  6  1  0  0  0
  6 23  1  0  0  0
 23 24  1  0  0  0
 24 25  1  0  0  0
 25 26  1  0  0  0
 26 27  2  0  0  0
 26 28  1  0  0  0
 28 31  1  0  0  0
 31 32  2  0  0  0
 32 33  1  0  0  0
 33 34  2  0  0  0
 34 35  1  0  0  0
 35 36  1  0  0  0
 35 37  2  0  0  0
  6  7  2  0  0  0
 22 18  1  0  0  0
 15  9  1  0  0  0
  7  1  1  0  0  0
 37 31  1  0  0  0
  3  8  1  0  0  0
 25 29  1  0  0  0
 28 30  1  0  0  0
M  END
> <minimizedAffinity>
3.84038

> <CNNscore>
0.4271678030

> <CNNaffinity>
5.8911767006

> <CNN_VS>
2.5165209770

> <CNNaffinity_variance>
0.8329479098

$$$$
[H]Oc1c([H])c([H])c(C([H])([H])C([H])([H])N([H])C(=O)N([H])c2c([H])c([H])c([H])c(Cl)c2[H])c([H])c1-c1c([H])c([H])c(Oc2nnnn2C([H])([H])[H])c([H])c1Cl


 37 40  0  0  0  0  0  0  0  0999 V2000
   -6.7766   -7.6320    6.0011 C   0  0  0  0  0  0  0  0  0  0  0  0
   -7.0487   -6.3138    5.7096 C   0  0  0  0  0  0  0  0  0  0  0  0
   -7.7129   -6.0216    4.5123 O   0  0  0  0  0  0  0  0  0  0  0  0
   -6.6684   -5.3186    6.5887 C   0  0  0  0  0  0  0  0  0  0  0  0
   -6.0087   -5.6507    7.7714 C   0  0  0  0  0  0  0  0  0  0  0  0
   -5.7325   -6.9659    8.0708 C   0  0  0  0  0  0  0  0  0  0  0  0
   -6.1199   -7.9367    7.1825 C   0  0  0  0  0  0  0  0  0  0  0  0
   -7.9532   -5.1007    4.2161 H   0  0  0  0  0  0  0  0  0  0  0  0
   -7.8659  -10.7582    3.2765 C   0  0  0  0  0  0  0  0  0  0  0  0
   -6.9880   -9.7529    2.9347 C   0  0  0  0  0  0  0  0  0  0  0  0
   -6.6353   -8.7447    3.8061 C   0  0  0  0  0  0  0  0  0  0  0  0
   -7.1652   -8.7063    5.0894 C   0  0  0  0  0  0  0  0  0  0  0  0
   -8.0439   -9.7116    5.4325 C   0  0  0  0  0  0  0  0  0  0  0  0
   -8.7325   -9.6972    7.0429 Cl  0  0  0  0  0  0  0  0  0  0  0  0
   -8.3955  -10.7257    4.5489 C   0  0  0  0  0  0  0  0  0  0  0  0
   -8.1664  -11.7322    2.3434 O   0  0  0  0  0  0  0  0  0  0  0  0
   -8.4673  -13.8668    0.2126 C   0  0  0  0  0  0  0  0  0  0  0  0
   -8.1417  -14.0285    1.6032 N   0  0  0  0  0  0  0  0  0  0  0  0
   -7.9066  -15.1936    2.2183 N   0  0  0  0  0  0  0  0  0  0  0  0
   -7.6365  -14.9940    3.4938 N   0  0  0  0  0  0  0  0  0  0  0  0
   -7.7038  -13.6830    3.6785 N   0  0  0  0  0  0  0  0  0  0  0  0
   -8.0123  -13.0782    2.5303 C   0  0  0  0  0  0  0  0  0  0  0  0
   -5.0322   -7.4068    9.3104 C   0  0  0  0  0  0  0  0  0  0  0  0
   -3.8017   -6.5860    9.5448 C   0  0  0  0  0  0  0  0  0  0  0  0
   -3.8258   -5.2775    8.9572 N   0  0  0  0  0  0  0  0  0  0  0  0
   -3.3071   -4.1076    9.6207 C   0  0  0  0  0  0  0  0  0  0  0  0
   -2.8219   -4.3027   10.7795 O   0  0  0  0  0  0  0  0  0  0  0  0
   -3.3724   -2.8773    8.9608 N   0  0  0  0  0  0  0  0  0  0  0  0
   -4.2297   -5.1512    8.0159 H   0  0  0  0  0  0  0  0  0  0  0  0
   -3.8230   -2.9294    7.9782 H   0  0  0  0  0  0  0  0  0  0  0  0
   -2.9339   -1.6145    9.4166 C   0  0  0  0  0  0  0  0  0  0  0  0
   -1.5785   -1.4526    9.6820 C   0  0  0  0  0  0  0  0  0  0  0  0
   -1.0821   -0.2511   10.1217 C   0  0  0  0  0  0  0  0  0  0  0  0
   -1.9200    0.8142   10.3068 C   0  0  0  0  0  0  0  0  0  0  0  0
   -3.2648    0.6932   10.0551 C   0  0  0  0  0  0  0  0  0  0  0  0
   -4.3627    2.0259   10.2781 Cl  0  0  0  0  0  0  0  0  0  0  0  0
   -3.7336   -0.5435    9.6094 C   0  0  0  0  0  0  0  0  0  0  0  0
 17 18  1  0  0  0
 18 19  1  0  0  0
 19 20  2  0  0  0
 20 21  1  0  0  0
 21 22  2  0  0  0
 22 16  1  0  0  0
 16  9  1  0  0  0
  9 10  2  0  0  0
 10 11  1  0  0  0
 11 12  2  0  0  0
 12 13  1  0  0  0
 13 14  1  0  0  0
 13 15  2  0  0  0
 12  1  1  0  0  0
  1  2  2  0  0  0
  2  3  1  0  0  0
  2  4  1  0  0  0
  4  5  2  0  0  0
  5  6  1  0  0  0
  6 23  1  0  0  0
 23 24  1  0  0  0
 24 25  1  0  0  0
 25 26  1  0  0  0
 26 27  2  0  0  0
 26 28  1  0  0  0
 28 31  1  0  0  0
 31 32  2  0  0  0
 32 33  1  0  0  0
 33 34  2  0  0  0
 34 35  1  0  0  0
 35 36  1  0  0  0
 35 37  2  0  0  0
  6  7  2  0  0  0
 22 18  1  0  0  0
 15  9  1  0  0  0
  7  1  1  0  0  0
 37 31  1  0  0  0
  3  8  1  0  0  0
 25 29  1  0  0  0
 28 30  1  0  0  0
M  END
> <minimizedAffinity>
12.13933

> <CNNscore>
0.4125719666

> <CNNaffinity>
5.8994383812

> <CNN_VS>
2.4339427948

> <CNNaffinity_variance>
1.9436689615

$$$$
[H]c1c([H])c([H])c([C@@]23C([H])([H])C(C([H])([H])[H])(C([H])([H])[H])O[C@@]2([H])[C@@]([H])(C([H])([H])c2nc4c([H])c([H])c([H])c([H])c4c([H])c2[H])C3([H])[H])c([H])c1[H]


 26 30  0  0  0  0  0  0  0  0999 V2000
  -14.1933  -10.0545    4.8222 C   0  0  0  0  0  0  0  0  0  0  0  0
  -14.7519   -8.6286    4.7330 C   0  0  0  0  0  0  0  0  0  0  0  0
  -14.5630   -8.1465    3.3677 C   0  0  0  0  0  0  0  0  0  0  0  0
  -14.0759   -7.8222    5.7104 O   0  0  0  0  0  0  0  0  0  0  0  0
  -14.8232   -8.1655    6.7178 C   0  0  0  0  0  0  0  0  0  0  0  0
  -15.0854   -7.8518    8.0762 C   0  0  0  0  0  0  0  0  0  0  0  0
  -16.4234   -7.3963    7.5816 C   0  0  0  0  0  0  0  0  0  0  0  0
  -16.1189   -7.5790    6.2029 C   0  0  0  0  0  0  0  0  0  0  0  0
  -16.2231   -8.6841    5.2354 C   0  0  0  0  0  0  0  0  0  0  0  0
  -16.1981   -6.3757    5.3970 C   0  0  0  0  0  0  0  0  0  0  0  0
  -17.3149   -6.1819    4.6035 C   0  0  0  0  0  0  0  0  0  0  0  0
  -17.4810   -5.0575    3.7849 C   0  0  0  0  0  0  0  0  0  0  0  0
  -16.5249   -4.0961    3.7452 C   0  0  0  0  0  0  0  0  0  0  0  0
  -15.4006   -4.2466    4.5177 C   0  0  0  0  0  0  0  0  0  0  0  0
  -15.2607   -5.3646    5.3156 C   0  0  0  0  0  0  0  0  0  0  0  0
  -14.0868   -7.0315    8.7290 C   0  0  0  0  0  0  0  0  0  0  0  0
  -12.6642   -7.3384    8.6226 C   0  0  0  0  0  0  0  0  0  0  0  0
  -11.7638   -6.3469    9.0398 C   0  0  0  0  0  0  0  0  0  0  0  0
  -10.4026   -6.4459    8.9125 C   0  0  0  0  0  0  0  0  0  0  0  0
   -9.8623   -7.5982    8.3348 C   0  0  0  0  0  0  0  0  0  0  0  0
   -8.4956   -7.7194    8.1705 C   0  0  0  0  0  0  0  0  0  0  0  0
   -7.9992   -8.8579    7.5760 C   0  0  0  0  0  0  0  0  0  0  0  0
   -8.8697   -9.8409    7.1627 C   0  0  0  0  0  0  0  0  0  0  0  0
  -10.2305   -9.7068    7.3318 C   0  0  0  0  0  0  0  0  0  0  0  0
  -10.7572   -8.5592    7.9347 C   0  0  0  0  0  0  0  0  0  0  0  0
  -12.1107   -8.4297    8.0760 N   0  0  0  0  0  0  0  0  0  0  0  0
  1  2  1  0  0  0
  2  3  1  0  0  0
  2  4  1  0  0  0
  4  5  1  0  0  0
  5  6  1  0  0  0
  6 16  1  0  0  0
 16 17  1  0  0  0
 17 18  2  0  0  0
 18 19  1  0  0  0
 19 20  2  0  0  0
 20 21  1  0  0  0
 21 22  2  0  0  0
 22 23  1  0  0  0
 23 24  2  0  0  0
 24 25  1  0  0  0
 25 26  2  0  0  0
  6  7  1  0  0  0
  7  8  1  0  0  0
  8  9  1  0  0  0
  8 10  1  0  0  0
 10 11  2  0  0  0
 11 12  1  0  0  0
 12 13  2  0  0  0
 13 14  1  0  0  0
 14 15  2  0  0  0
  9  2  1  0  0  0
 15 10  1  0  0  0
  8  5  1  0  0  0
 26 17  1  0  0  0
 25 20  1  0  0  0
M  END
> <minimizedAffinity>
-9.11594

> <CNNscore>
0.5051277280

> <CNNaffinity>
6.8923292160

> <CNN_VS>
3.4815065861

> <CNNaffinity_variance>
0.0479138121

$$$$
[H]c1c([H])c([H])c([C@@]23C([H])([H])C(C([H])([H])[H])(C([H])([H])[H])O[C@@]2([H])[C@@]([H])(C([H])([H])c2nc4c([H])c([H])c([H])c([H])c4c([H])c2[H])C3([H])[H])c([H])c1[H]


 26 30  0  0  0  0  0  0  0  0999 V2000
   -1.9991   -8.3964    5.6083 C   0  0  0  0  0  0  0  0  0  0  0  0
   -2.5395   -7.3594    6.6014 C   0  0  0  0  0  0  0  0  0  0  0  0
   -1.4213   -6.8594    7.3963 C   0  0  0  0  0  0  0  0  0  0  0  0
   -3.5549   -7.9902    7.3972 O   0  0  0  0  0  0  0  0  0  0  0  0
   -4.5224   -7.8322    6.5428 C   0  0  0  0  0  0  0  0  0  0  0  0
   -5.9269   -7.9736    6.4020 C   0  0  0  0  0  0  0  0  0  0  0  0
   -5.9389   -6.4806    6.2876 C   0  0  0  0  0  0  0  0  0  0  0  0
   -4.5518   -6.3200    6.5651 C   0  0  0  0  0  0  0  0  0  0  0  0
   -3.3117   -6.2942    5.7715 C   0  0  0  0  0  0  0  0  0  0  0  0
   -4.2537   -5.5226    7.7394 C   0  0  0  0  0  0  0  0  0  0  0  0
   -3.4852   -4.3820    7.5883 C   0  0  0  0  0  0  0  0  0  0  0  0
   -3.1373   -3.5512    8.6609 C   0  0  0  0  0  0  0  0  0  0  0  0
   -3.5565   -3.8475    9.9165 C   0  0  0  0  0  0  0  0  0  0  0  0
   -4.3227   -4.9691   10.1124 C   0  0  0  0  0  0  0  0  0  0  0  0
   -4.6514   -5.7720    9.0384 C   0  0  0  0  0  0  0  0  0  0  0  0
   -6.5785   -8.7611    7.4274 C   0  0  0  0  0  0  0  0  0  0  0  0
   -8.0028   -8.6131    7.7081 C   0  0  0  0  0  0  0  0  0  0  0  0
   -8.8590   -9.6054    7.2080 C   0  0  0  0  0  0  0  0  0  0  0  0
  -10.2255   -9.5574    7.3041 C   0  0  0  0  0  0  0  0  0  0  0  0
  -10.8182   -8.4607    7.9362 C   0  0  0  0  0  0  0  0  0  0  0  0
  -12.1939   -8.3703    8.0289 C   0  0  0  0  0  0  0  0  0  0  0  0
  -12.7446   -7.2644    8.6371 C   0  0  0  0  0  0  0  0  0  0  0  0
  -11.9178   -6.2827    9.1345 C   0  0  0  0  0  0  0  0  0  0  0  0
  -10.5474   -6.3850    9.0344 C   0  0  0  0  0  0  0  0  0  0  0  0
   -9.9657   -7.5004    8.4218 C   0  0  0  0  0  0  0  0  0  0  0  0
   -8.6055   -7.5783    8.3097 N   0  0  0  0  0  0  0  0  0  0  0  0
  1  2  1  0  0  0
  2  3  1  0  0  0
  2  4  1  0  0  0
  4  5  1  0  0  0
  5  6  1  0  0  0
  6 16  1  0  0  0
 16 17  1  0  0  0
 17 18  2  0  0  0
 18 19  1  0  0  0
 19 20  2  0  0  0
 20 21  1  0  0  0
 21 22  2  0  0  0
 22 23  1  0  0  0
 23 24  2  0  0  0
 24 25  1  0  0  0
 25 26  2  0  0  0
  6  7  1  0  0  0
  7  8  1  0  0  0
  8  9  1  0  0  0
  8 10  1  0  0  0
 10 11  2  0  0  0
 11 12  1  0  0  0
 12 13  2  0  0  0
 13 14  1  0  0  0
 14 15  2  0  0  0
  9  2  1  0  0  0
 15 10  1  0  0  0
  8  5  1  0  0  0
 26 17  1  0  0  0
 25 20  1  0  0  0
M  END
> <minimizedAffinity>
-8.52893

> <CNNscore>
0.4800284207

> <CNNaffinity>
6.0018110275

> <CNN_VS>
2.8810398579

> <CNNaffinity_variance>
0.0393912718

$$$$
[H]c1c([H])c([H])c([C@@]23C([H])([H])C(C([H])([H])[H])(C([H])([H])[H])O[C@@]2([H])[C@@]([H])(C([H])([H])c2nc4c([H])c([H])c([H])c([H])c4c([H])c2[H])C3([H])[H])c([H])c1[H]


 26 30  0  0  0  0  0  0  0  0999 V2000
   -4.1351   -5.5528   10.3641 C   0  0  0  0  0  0  0  0  0  0  0  0
   -3.8877   -5.4408    8.8542 C   0  0  0  0  0  0  0  0  0  0  0  0
   -3.0098   -4.2985    8.6167 C   0  0  0  0  0  0  0  0  0  0  0  0
   -5.1606   -5.3144    8.2014 O   0  0  0  0  0  0  0  0  0  0  0  0
   -5.4302   -6.5862    8.1702 C   0  0  0  0  0  0  0  0  0  0  0  0
   -6.3522   -7.5230    7.6368 C   0  0  0  0  0  0  0  0  0  0  0  0
   -5.1892   -8.0213    6.8359 C   0  0  0  0  0  0  0  0  0  0  0  0
   -4.2936   -7.0000    7.2620 C   0  0  0  0  0  0  0  0  0  0  0  0
   -3.3498   -6.8205    8.3779 C   0  0  0  0  0  0  0  0  0  0  0  0
   -3.7660   -6.1690    6.1967 C   0  0  0  0  0  0  0  0  0  0  0  0
   -2.4616   -6.3718    5.7823 C   0  0  0  0  0  0  0  0  0  0  0  0
   -1.8593   -5.6168    4.7678 C   0  0  0  0  0  0  0  0  0  0  0  0
   -2.5574   -4.6365    4.1419 C   0  0  0  0  0  0  0  0  0  0  0  0
   -3.8556   -4.4019    4.5200 C   0  0  0  0  0  0  0  0  0  0  0  0
   -4.4259   -5.1597    5.5232 C   0  0  0  0  0  0  0  0  0  0  0  0
   -7.5778   -6.9593    7.1110 C   0  0  0  0  0  0  0  0  0  0  0  0
   -8.8674   -7.2270    7.7392 C   0  0  0  0  0  0  0  0  0  0  0  0
   -9.4885   -8.4458    7.4287 C   0  0  0  0  0  0  0  0  0  0  0  0
  -10.7407   -8.7990    7.8601 C   0  0  0  0  0  0  0  0  0  0  0  0
  -11.4555   -7.9025    8.6594 C   0  0  0  0  0  0  0  0  0  0  0  0
  -12.7296   -8.2181    9.0915 C   0  0  0  0  0  0  0  0  0  0  0  0
  -13.4142   -7.3013    9.8576 C   0  0  0  0  0  0  0  0  0  0  0  0
  -12.8176   -6.1014   10.1724 C   0  0  0  0  0  0  0  0  0  0  0  0
  -11.5469   -5.7990    9.7341 C   0  0  0  0  0  0  0  0  0  0  0  0
  -10.8319   -6.7159    8.9557 C   0  0  0  0  0  0  0  0  0  0  0  0
   -9.5807   -6.3937    8.5092 N   0  0  0  0  0  0  0  0  0  0  0  0
  1  2  1  0  0  0
  2  3  1  0  0  0
  2  4  1  0  0  0
  4  5  1  0  0  0
  5  6  1  0  0  0
  6 16  1  0  0  0
 16 17  1  0  0  0
 17 18  2  0  0  0
 18 19  1  0  0  0
 19 20  2  0  0  0
 20 21  1  0  0  0
 21 22  2  0  0  0
 22 23  1  0  0  0
 23 24  2  0  0  0
 24 25  1  0  0  0
 25 26  2  0  0  0
  6  7  1  0  0  0
  7  8  1  0  0  0
  8  9  1  0  0  0
  8 10  1  0  0  0
 10 11  2  0  0  0
 11 12  1  0  0  0
 12 13  2  0  0  0
 13 14  1  0  0  0
 14 15  2  0  0  0
  9  2  1  0  0  0
 15 10  1  0  0  0
  8  5  1  0  0  0
 26 17  1  0  0  0
 25 20  1  0  0  0
M  END
> <minimizedAffinity>
-8.39334

> <CNNscore>
0.4715514183

> <CNNaffinity>
6.0672163963

> <CNN_VS>
2.8610045910

> <CNNaffinity_variance>
0.1867135316

$$$$
[H]c1c([H])c([H])c([C@@]23C([H])([H])C(C([H])([H])[H])(C([H])([H])[H])O[C@@]2([H])[C@@]([H])(C([H])([H])c2nc4c([H])c([H])c([H])c([H])c4c([H])c2[H])C3([H])[H])c([H])c1[H]


 26 30  0  0  0  0  0  0  0  0999 V2000
   -6.8322   -5.5654    5.0726 C   0  0  0  0  0  0  0  0  0  0  0  0
   -7.1506   -6.8677    5.8182 C   0  0  0  0  0  0  0  0  0  0  0  0
   -6.5895   -7.9807    5.0576 C   0  0  0  0  0  0  0  0  0  0  0  0
   -8.5757   -6.9568    5.9727 O   0  0  0  0  0  0  0  0  0  0  0  0
   -8.6498   -6.2074    7.0329 C   0  0  0  0  0  0  0  0  0  0  0  0
   -9.5528   -5.7742    8.0375 C   0  0  0  0  0  0  0  0  0  0  0  0
   -8.6860   -6.5554    8.9760 C   0  0  0  0  0  0  0  0  0  0  0  0
   -7.8575   -7.1052    7.9571 C   0  0  0  0  0  0  0  0  0  0  0  0
   -6.6188   -6.7021    7.2706 C   0  0  0  0  0  0  0  0  0  0  0  0
   -7.8658   -8.5536    7.8807 C   0  0  0  0  0  0  0  0  0  0  0  0
   -6.7666   -9.2484    8.3532 C   0  0  0  0  0  0  0  0  0  0  0  0
   -6.6761  -10.6457    8.3165 C   0  0  0  0  0  0  0  0  0  0  0  0
   -7.6935  -11.3813    7.8030 C   0  0  0  0  0  0  0  0  0  0  0  0
   -8.8045  -10.7334    7.3243 C   0  0  0  0  0  0  0  0  0  0  0  0
   -8.8688   -9.3550    7.3714 C   0  0  0  0  0  0  0  0  0  0  0  0
  -10.9533   -6.0153    7.7609 C   0  0  0  0  0  0  0  0  0  0  0  0
  -11.7763   -6.8216    8.6563 C   0  0  0  0  0  0  0  0  0  0  0  0
  -11.6584   -8.2155    8.5506 C   0  0  0  0  0  0  0  0  0  0  0  0
  -12.4314   -9.1048    9.2509 C   0  0  0  0  0  0  0  0  0  0  0  0
  -13.4001   -8.6097   10.1285 C   0  0  0  0  0  0  0  0  0  0  0  0
  -14.2117   -9.4792   10.8320 C   0  0  0  0  0  0  0  0  0  0  0  0
  -15.1714   -8.9567   11.6698 C   0  0  0  0  0  0  0  0  0  0  0  0
  -15.2985   -7.5910   11.7859 C   0  0  0  0  0  0  0  0  0  0  0  0
  -14.4832   -6.7353   11.0779 C   0  0  0  0  0  0  0  0  0  0  0  0
  -13.5002   -7.2437   10.2218 C   0  0  0  0  0  0  0  0  0  0  0  0
  -12.7130   -6.3832    9.5086 N   0  0  0  0  0  0  0  0  0  0  0  0
  1  2  1  0  0  0
  2  3  1  0  0  0
  2  4  1  0  0  0
  4  5  1  0  0  0
  5  6  1  0  0  0
  6 16  1  0  0  0
 16 17  1  0  0  0
 17 18  2  0  0  0
 18 19  1  0  0  0
 19 20  2  0  0  0
 20 21  1  0  0  0
 21 22  2  0  0  0
 22 23  1  0  0  0
 23 24  2  0  0  0
 24 25  1  0  0  0
 25 26  2  0  0  0
  6  7  1  0  0  0
  7  8  1  0  0  0
  8  9  1  0  0  0
  8 10  1  0  0  0
 10 11  2  0  0  0
 11 12  1  0  0  0
 12 13  2  0  0  0
 13 14  1  0  0  0
 14 15  2  0  0  0
  9  2  1  0  0  0
 15 10  1  0  0  0
  8  5  1  0  0  0
 26 17  1  0  0  0
 25 20  1  0  0  0
M  END
> <minimizedAffinity>
9.99762

> <CNNscore>
0.4478819966

> <CNNaffinity>
6.2336626053

> <CNN_VS>
2.7919452190

> <CNNaffinity_variance>
1.4565782547

$$$$
[H]c1c([H])c([H])c([C@@]23C([H])([H])C(C([H])([H])[H])(C([H])([H])[H])O[C@@]2([H])[C@@]([H])(C([H])([H])c2nc4c([H])c([H])c([H])c([H])c4c([H])c2[H])C3([H])[H])c([H])c1[H]


 26 30  0  0  0  0  0  0  0  0999 V2000
  -15.8924   -9.1730    2.6712 C   0  0  0  0  0  0  0  0  0  0  0  0
  -14.8879   -8.8045    3.7705 C   0  0  0  0  0  0  0  0  0  0  0  0
  -13.7242   -9.6768    3.6397 C   0  0  0  0  0  0  0  0  0  0  0  0
  -15.5469   -8.9361    5.0398 O   0  0  0  0  0  0  0  0  0  0  0  0
  -16.1188   -7.7683    5.0237 C   0  0  0  0  0  0  0  0  0  0  0  0
  -16.8642   -6.8748    5.8350 C   0  0  0  0  0  0  0  0  0  0  0  0
  -15.6591   -5.9902    5.7483 C   0  0  0  0  0  0  0  0  0  0  0  0
  -14.8557   -6.9367    5.0517 C   0  0  0  0  0  0  0  0  0  0  0  0
  -14.6106   -7.2794    3.6407 C   0  0  0  0  0  0  0  0  0  0  0  0
  -13.6427   -7.3315    5.7421 C   0  0  0  0  0  0  0  0  0  0  0  0
  -13.4878   -8.6580    6.1037 C   0  0  0  0  0  0  0  0  0  0  0  0
  -12.3576   -9.1356    6.7793 C   0  0  0  0  0  0  0  0  0  0  0  0
  -11.3509   -8.2879    7.1076 C   0  0  0  0  0  0  0  0  0  0  0  0
  -11.4617   -6.9632    6.7666 C   0  0  0  0  0  0  0  0  0  0  0  0
  -12.5864   -6.5174    6.1015 C   0  0  0  0  0  0  0  0  0  0  0  0
  -17.4227   -7.4487    7.0413 C   0  0  0  0  0  0  0  0  0  0  0  0
  -16.5710   -7.8492    8.1564 C   0  0  0  0  0  0  0  0  0  0  0  0
  -17.0945   -8.7921    9.0536 C   0  0  0  0  0  0  0  0  0  0  0  0
  -16.4584   -9.1947   10.1990 C   0  0  0  0  0  0  0  0  0  0  0  0
  -15.2116   -8.6429   10.5066 C   0  0  0  0  0  0  0  0  0  0  0  0
  -14.5546   -9.0098   11.6656 C   0  0  0  0  0  0  0  0  0  0  0  0
  -13.3390   -8.4286   11.9492 C   0  0  0  0  0  0  0  0  0  0  0  0
  -12.8111   -7.5029   11.0779 C   0  0  0  0  0  0  0  0  0  0  0  0
  -13.4772   -7.1453    9.9261 C   0  0  0  0  0  0  0  0  0  0  0  0
  -14.7130   -7.7240    9.6169 C   0  0  0  0  0  0  0  0  0  0  0  0
  -15.3733   -7.3435    8.4820 N   0  0  0  0  0  0  0  0  0  0  0  0
  1  2  1  0  0  0
  2  3  1  0  0  0
  2  4  1  0  0  0
  4  5  1  0  0  0
  5  6  1  0  0  0
  6 16  1  0  0  0
 16 17  1  0  0  0
 17 18  2  0  0  0
 18 19  1  0  0  0
 19 20  2  0  0  0
 20 21  1  0  0  0
 21 22  2  0  0  0
 22 23  1  0  0  0
 23 24  2  0  0  0
 24 25  1  0  0  0
 25 26  2  0  0  0
  6  7  1  0  0  0
  7  8  1  0  0  0
  8  9  1  0  0  0
  8 10  1  0  0  0
 10 11  2  0  0  0
 11 12  1  0  0  0
 12 13  2  0  0  0
 13 14  1  0  0  0
 14 15  2  0  0  0
  9  2  1  0  0  0
 15 10  1  0  0  0
  8  5  1  0  0  0
 26 17  1  0  0  0
 25 20  1  0  0  0
M  END
> <minimizedAffinity>
11.54453

> <CNNscore>
0.3970634043

> <CNNaffinity>
6.3601050377

> <CNN_VS>
2.5253648758

> <CNNaffinity_variance>
0.5511420369

$$$$
[H]c1c([H])c([H])c([C@@]23C([H])([H])C(C([H])([H])[H])(C([H])([H])[H])O[C@@]2([H])[C@@]([H])(C([H])([H])c2nc4c([H])c([H])c([H])c([H])c4c([H])c2[H])C3([H])[H])c([H])c1[H]


 26 30  0  0  0  0  0  0  0  0999 V2000
  -13.2907  -10.5562    7.1572 C   0  0  0  0  0  0  0  0  0  0  0  0
  -13.8568   -9.2239    6.6493 C   0  0  0  0  0  0  0  0  0  0  0  0
  -14.3898   -9.4341    5.3062 C   0  0  0  0  0  0  0  0  0  0  0  0
  -12.8041   -8.2478    6.6878 O   0  0  0  0  0  0  0  0  0  0  0  0
  -12.9370   -7.9463    7.9458 C   0  0  0  0  0  0  0  0  0  0  0  0
  -12.4921   -7.0273    8.9306 C   0  0  0  0  0  0  0  0  0  0  0  0
  -13.9096   -6.5445    8.9395 C   0  0  0  0  0  0  0  0  0  0  0  0
  -14.3316   -7.3673    7.8570 C   0  0  0  0  0  0  0  0  0  0  0  0
  -14.8766   -8.7277    7.7139 C   0  0  0  0  0  0  0  0  0  0  0  0
  -14.8357   -6.6459    6.7041 C   0  0  0  0  0  0  0  0  0  0  0  0
  -16.1798   -6.7506    6.3926 C   0  0  0  0  0  0  0  0  0  0  0  0
  -16.7600   -6.0994    5.2966 C   0  0  0  0  0  0  0  0  0  0  0  0
  -15.9999   -5.3229    4.4845 C   0  0  0  0  0  0  0  0  0  0  0  0
  -14.6616   -5.1893    4.7572 C   0  0  0  0  0  0  0  0  0  0  0  0
  -14.1139   -5.8422    5.8434 C   0  0  0  0  0  0  0  0  0  0  0  0
  -11.3232   -6.2510    8.5739 C   0  0  0  0  0  0  0  0  0  0  0  0
  -10.1225   -6.8872    8.0421 C   0  0  0  0  0  0  0  0  0  0  0  0
   -9.9574   -8.2562    8.2998 C   0  0  0  0  0  0  0  0  0  0  0  0
   -8.8410   -8.9717    7.9525 C   0  0  0  0  0  0  0  0  0  0  0  0
   -7.7946   -8.3130    7.3009 C   0  0  0  0  0  0  0  0  0  0  0  0
   -6.6457   -9.0000    6.9581 C   0  0  0  0  0  0  0  0  0  0  0  0
   -5.6250   -8.3142    6.3384 C   0  0  0  0  0  0  0  0  0  0  0  0
   -5.7724   -6.9708    6.0770 C   0  0  0  0  0  0  0  0  0  0  0  0
   -6.9231   -6.2977    6.4251 C   0  0  0  0  0  0  0  0  0  0  0  0
   -7.9738   -6.9744    7.0542 C   0  0  0  0  0  0  0  0  0  0  0  0
   -9.1007   -6.2894    7.4139 N   0  0  0  0  0  0  0  0  0  0  0  0
  1  2  1  0  0  0
  2  3  1  0  0  0
  2  4  1  0  0  0
  4  5  1  0  0  0
  5  6  1  0  0  0
  6 16  1  0  0  0
 16 17  1  0  0  0
 17 18  2  0  0  0
 18 19  1  0  0  0
 19 20  2  0  0  0
 20 21  1  0  0  0
 21 22  2  0  0  0
 22 23  1  0  0  0
 23 24  2  0  0  0
 24 25  1  0  0  0
 25 26  2  0  0  0
  6  7  1  0  0  0
  7  8  1  0  0  0
  8  9  1  0  0  0
  8 10  1  0  0  0
 10 11  2  0  0  0
 11 12  1  0  0  0
 12 13  2  0  0  0
 13 14  1  0  0  0
 14 15  2  0  0  0
  9  2  1  0  0  0
 15 10  1  0  0  0
  8  5  1  0  0  0
 26 17  1  0  0  0
 25 20  1  0  0  0
M  END
> <minimizedAffinity>
-9.20385

> <CNNscore>
0.3599826992

> <CNNaffinity>
6.7502427101

> <CNN_VS>
2.4299705029

> <CNNaffinity_variance>
0.0446289852

$$$$
[H]c1c([H])c([H])c([C@@]23C([H])([H])C(C([H])([H])[H])(C([H])([H])[H])O[C@@]2([H])[C@@]([H])(C([H])([H])c2nc4c([H])c([H])c([H])c([H])c4c([H])c2[H])C3([H])[H])c([H])c1[H]


 26 30  0  0  0  0  0  0  0  0999 V2000
  -13.4591  -10.2259   11.7741 C   0  0  0  0  0  0  0  0  0  0  0  0
  -13.1086   -8.8462   11.2023 C   0  0  0  0  0  0  0  0  0  0  0  0
  -12.6960   -7.9836   12.3058 C   0  0  0  0  0  0  0  0  0  0  0  0
  -14.2589   -8.3479   10.5015 O   0  0  0  0  0  0  0  0  0  0  0  0
  -14.0331   -8.9834    9.3896 C   0  0  0  0  0  0  0  0  0  0  0  0
  -14.4787   -9.0844    8.0467 C   0  0  0  0  0  0  0  0  0  0  0  0
  -13.1343   -8.5286    7.6915 C   0  0  0  0  0  0  0  0  0  0  0  0
  -12.7327   -8.2958    9.0373 C   0  0  0  0  0  0  0  0  0  0  0  0
  -12.0496   -9.0723   10.0855 C   0  0  0  0  0  0  0  0  0  0  0  0
  -12.4383   -6.9114    9.3544 C   0  0  0  0  0  0  0  0  0  0  0  0
  -13.4899   -6.0588    9.6399 C   0  0  0  0  0  0  0  0  0  0  0  0
  -13.3094   -4.7048    9.9499 C   0  0  0  0  0  0  0  0  0  0  0  0
  -12.0617   -4.1735    9.9820 C   0  0  0  0  0  0  0  0  0  0  0  0
  -10.9886   -4.9835    9.7069 C   0  0  0  0  0  0  0  0  0  0  0  0
  -11.1935   -6.3147    9.4034 C   0  0  0  0  0  0  0  0  0  0  0  0
  -15.7611   -8.4722    7.7692 C   0  0  0  0  0  0  0  0  0  0  0  0
  -15.9315   -7.5339    6.6648 C   0  0  0  0  0  0  0  0  0  0  0  0
  -14.8487   -6.6927    6.3684 C   0  0  0  0  0  0  0  0  0  0  0  0
  -14.8880   -5.6963    5.4279 C   0  0  0  0  0  0  0  0  0  0  0  0
  -16.0706   -5.4930    4.7112 C   0  0  0  0  0  0  0  0  0  0  0  0
  -16.1508   -4.4818    3.7727 C   0  0  0  0  0  0  0  0  0  0  0  0
  -17.3388   -4.2946    3.1021 C   0  0  0  0  0  0  0  0  0  0  0  0
  -18.4100   -5.1130    3.3803 C   0  0  0  0  0  0  0  0  0  0  0  0
  -18.3167   -6.1169    4.3193 C   0  0  0  0  0  0  0  0  0  0  0  0
  -17.1192   -6.3265    5.0119 C   0  0  0  0  0  0  0  0  0  0  0  0
  -17.0474   -7.3119    5.9567 N   0  0  0  0  0  0  0  0  0  0  0  0
  1  2  1  0  0  0
  2  3  1  0  0  0
  2  4  1  0  0  0
  4  5  1  0  0  0
  5  6  1  0  0  0
  6 16  1  0  0  0
 16 17  1  0  0  0
 17 18  2  0  0  0
 18 19  1  0  0  0
 19 20  2  0  0  0
 20 21  1  0  0  0
 21 22  2  0  0  0
 22 23  1  0  0  0
 23 24  2  0  0  0
 24 25  1  0  0  0
 25 26  2  0  0  0
  6  7  1  0  0  0
  7  8  1  0  0  0
  8  9  1  0  0  0
  8 10  1  0  0  0
 10 11  2  0  0  0
 11 12  1  0  0  0
 12 13  2  0  0  0
 13 14  1  0  0  0
 14 15  2  0  0  0
  9  2  1  0  0  0
 15 10  1  0  0  0
  8  5  1  0  0  0
 26 17  1  0  0  0
 25 20  1  0  0  0
M  END
> <minimizedAffinity>
3.56732

> <CNNscore>
0.3497127593

> <CNNaffinity>
6.5164337158

> <CNN_VS>
2.2788801193

> <CNNaffinity_variance>
0.2645505369

$$$$
[H]c1c([H])c([H])c([C@@]23C([H])([H])C(C([H])([H])[H])(C([H])([H])[H])O[C@@]2([H])[C@@]([H])(C([H])([H])c2nc4c([H])c([H])c([H])c([H])c4c([H])c2[H])C3([H])[H])c([H])c1[H]


 26 30  0  0  0  0  0  0  0  0999 V2000
  -11.2480   -9.3938    8.4734 C   0  0  0  0  0  0  0  0  0  0  0  0
  -10.0639   -8.9838    7.5884 C   0  0  0  0  0  0  0  0  0  0  0  0
   -9.9549   -9.9444    6.4941 C   0  0  0  0  0  0  0  0  0  0  0  0
   -8.8875   -8.9356    8.4108 O   0  0  0  0  0  0  0  0  0  0  0  0
   -9.0902   -7.7387    8.8771 C   0  0  0  0  0  0  0  0  0  0  0  0
   -8.4738   -6.7153    9.6420 C   0  0  0  0  0  0  0  0  0  0  0  0
   -8.4817   -5.9312    8.3662 C   0  0  0  0  0  0  0  0  0  0  0  0
   -8.9720   -6.9993    7.5628 C   0  0  0  0  0  0  0  0  0  0  0  0
  -10.2988   -7.5038    7.1711 C   0  0  0  0  0  0  0  0  0  0  0  0
   -8.0914   -7.4038    6.4837 C   0  0  0  0  0  0  0  0  0  0  0  0
   -7.9624   -6.5712    5.3862 C   0  0  0  0  0  0  0  0  0  0  0  0
   -7.1438   -6.8765    4.2914 C   0  0  0  0  0  0  0  0  0  0  0  0
   -6.4310   -8.0304    4.2741 C   0  0  0  0  0  0  0  0  0  0  0  0
   -6.5275   -8.8856    5.3431 C   0  0  0  0  0  0  0  0  0  0  0  0
   -7.3420   -8.5618    6.4098 C   0  0  0  0  0  0  0  0  0  0  0  0
   -7.3044   -7.1194   10.3939 C   0  0  0  0  0  0  0  0  0  0  0  0
   -5.9887   -6.5540   10.1135 C   0  0  0  0  0  0  0  0  0  0  0  0
   -5.3885   -5.7975   11.1311 C   0  0  0  0  0  0  0  0  0  0  0  0
   -4.2036   -5.1236   10.9869 C   0  0  0  0  0  0  0  0  0  0  0  0
   -3.5397   -5.1837    9.7584 C   0  0  0  0  0  0  0  0  0  0  0  0
   -2.3553   -4.4966    9.5727 C   0  0  0  0  0  0  0  0  0  0  0  0
   -1.7404   -4.5588    8.3422 C   0  0  0  0  0  0  0  0  0  0  0  0
   -2.3159   -5.2983    7.3340 C   0  0  0  0  0  0  0  0  0  0  0  0
   -3.4979   -5.9779    7.5323 C   0  0  0  0  0  0  0  0  0  0  0  0
   -4.1396   -5.9303    8.7748 C   0  0  0  0  0  0  0  0  0  0  0  0
   -5.3232   -6.5913    8.9509 N   0  0  0  0  0  0  0  0  0  0  0  0
  1  2  1  0  0  0
  2  3  1  0  0  0
  2  4  1  0  0  0
  4  5  1  0  0  0
  5  6  1  0  0  0
  6 16  1  0  0  0
 16 17  1  0  0  0
 17 18  2  0  0  0
 18 19  1  0  0  0
 19 20  2  0  0  0
 20 21  1  0  0  0
 21 22  2  0  0  0
 22 23  1  0  0  0
 23 24  2  0  0  0
 24 25  1  0  0  0
 25 26  2  0  0  0
  6  7  1  0  0  0
  7  8  1  0  0  0
  8  9  1  0  0  0
  8 10  1  0  0  0
 10 11  2  0  0  0
 11 12  1  0  0  0
 12 13  2  0  0  0
 13 14  1  0  0  0
 14 15  2  0  0  0
  9  2  1  0  0  0
 15 10  1  0  0  0
  8  5  1  0  0  0
 26 17  1  0  0  0
 25 20  1  0  0  0
M  END
> <minimizedAffinity>
4.77180

> <CNNscore>
0.3361847997

> <CNNaffinity>
5.4748954773

> <CNN_VS>
1.8405766487

> <CNNaffinity_variance>
0.4858681560

$$$$
[H]c1c([H])c([H])c([C@@]23C([H])([H])C(C([H])([H])[H])(C([H])([H])[H])O[C@@]2([H])[C@@]([H])(C([H])([H])c2nc4c([H])c([H])c([H])c([H])c4c([H])c2[H])C3([H])[H])c([H])c1[H]


 26 30  0  0  0  0  0  0  0  0999 V2000
  -13.7353   -7.4344    9.9717 C   0  0  0  0  0  0  0  0  0  0  0  0
  -12.3792   -7.4088    9.2549 C   0  0  0  0  0  0  0  0  0  0  0  0
  -11.5960   -6.3008    9.7945 C   0  0  0  0  0  0  0  0  0  0  0  0
  -12.6219   -7.2887    7.8445 O   0  0  0  0  0  0  0  0  0  0  0  0
  -12.8312   -8.5540    7.6291 C   0  0  0  0  0  0  0  0  0  0  0  0
  -13.0165   -9.4970    6.5856 C   0  0  0  0  0  0  0  0  0  0  0  0
  -11.7054  -10.0634    7.0355 C   0  0  0  0  0  0  0  0  0  0  0  0
  -11.4460   -9.0412    7.9918 C   0  0  0  0  0  0  0  0  0  0  0  0
  -11.7531   -8.8236    9.4154 C   0  0  0  0  0  0  0  0  0  0  0  0
  -10.2337   -8.2803    7.7566 C   0  0  0  0  0  0  0  0  0  0  0  0
   -9.0333   -8.7850    8.2242 C   0  0  0  0  0  0  0  0  0  0  0  0
   -7.8112   -8.1222    8.0539 C   0  0  0  0  0  0  0  0  0  0  0  0
   -7.7660   -6.9316    7.4054 C   0  0  0  0  0  0  0  0  0  0  0  0
   -8.9332   -6.3945    6.9232 C   0  0  0  0  0  0  0  0  0  0  0  0
  -10.1249   -7.0675    7.1047 C   0  0  0  0  0  0  0  0  0  0  0  0
  -13.3071   -8.9346    5.2835 C   0  0  0  0  0  0  0  0  0  0  0  0
  -14.6097   -8.3499    4.9824 C   0  0  0  0  0  0  0  0  0  0  0  0
  -15.4856   -9.1122    4.1952 C   0  0  0  0  0  0  0  0  0  0  0  0
  -16.7009   -8.6630    3.7478 C   0  0  0  0  0  0  0  0  0  0  0  0
  -17.1079   -7.3699    4.0880 C   0  0  0  0  0  0  0  0  0  0  0  0
  -18.3168   -6.8783    3.6336 C   0  0  0  0  0  0  0  0  0  0  0  0
  -18.6754   -5.5917    3.9682 C   0  0  0  0  0  0  0  0  0  0  0  0
  -17.8276   -4.8315    4.7416 C   0  0  0  0  0  0  0  0  0  0  0  0
  -16.6245   -5.3338    5.1873 C   0  0  0  0  0  0  0  0  0  0  0  0
  -16.2401   -6.6389    4.8608 C   0  0  0  0  0  0  0  0  0  0  0  0
  -15.0338   -7.1167    5.2912 N   0  0  0  0  0  0  0  0  0  0  0  0
  1  2  1  0  0  0
  2  3  1  0  0  0
  2  4  1  0  0  0
  4  5  1  0  0  0
  5  6  1  0  0  0
  6 16  1  0  0  0
 16 17  1  0  0  0
 17 18  2  0  0  0
 18 19  1  0  0  0
 19 20  2  0  0  0
 20 21  1  0  0  0
 21 22  2  0  0  0
 22 23  1  0  0  0
 23 24  2  0  0  0
 24 25  1  0  0  0
 25 26  2  0  0  0
  6  7  1  0  0  0
  7  8  1  0  0  0
  8  9  1  0  0  0
  8 10  1  0  0  0
 10 11  2  0  0  0
 11 12  1  0  0  0
 12 13  2  0  0  0
 13 14  1  0  0  0
 14 15  2  0  0  0
  9  2  1  0  0  0
 15 10  1  0  0  0
  8  5  1  0  0  0
 26 17  1  0  0  0
 25 20  1  0  0  0
M  END
> <minimizedAffinity>
-10.04546

> <CNNscore>
0.2786369026

> <CNNaffinity>
6.7459459305

> <CNN_VS>
1.8796694279

> <CNNaffinity_variance>
0.0225103088

$$$$
[H]c1c([H])c(N(C([H])([H])[H])C([H])([H])[H])c([H])c([H])c1-c1nc(C([H])([H])[H])c2c(n1)C([H])([H])C([H])([H])[C@@]([H])(C([H])([H])[H])N(C1([H])C([H])([H])C1([H])[H])C([H])([H])C2([H])[H]


 26 29  0  0  0  0  0  0  0  0999 V2000
   -6.5640   -8.5855    5.4751 C   0  0  0  0  0  0  0  0  0  0  0  0
   -6.4085   -8.8081    4.1717 N   0  0  0  0  0  0  0  0  0  0  0  0
   -7.2146   -9.6797    3.5333 C   0  0  0  0  0  0  0  0  0  0  0  0
   -6.7794   -9.6950    2.1133 C   0  0  0  0  0  0  0  0  0  0  0  0
   -6.3133  -11.1156    1.8325 C   0  0  0  0  0  0  0  0  0  0  0  0
   -7.5289  -11.9727    1.4985 C   0  0  0  0  0  0  0  0  0  0  0  0
   -7.5236  -13.2507    2.3017 C   0  0  0  0  0  0  0  0  0  0  0  0
   -8.7338  -11.2458    1.5177 N   0  0  0  0  0  0  0  0  0  0  0  0
   -9.6739  -11.4491    2.5353 C   0  0  0  0  0  0  0  0  0  0  0  0
   -9.2473  -11.3236    3.9436 C   0  0  0  0  0  0  0  0  0  0  0  0
   -8.2129  -10.3453    4.2536 C   0  0  0  0  0  0  0  0  0  0  0  0
   -8.3724  -10.1128    5.6063 C   0  0  0  0  0  0  0  0  0  0  0  0
   -9.3922  -10.7703    6.4373 C   0  0  0  0  0  0  0  0  0  0  0  0
   -7.5277   -9.2276    6.1720 N   0  0  0  0  0  0  0  0  0  0  0  0
   -4.1205   -5.8209    7.5507 C   0  0  0  0  0  0  0  0  0  0  0  0
   -4.2040   -7.1245    8.0002 C   0  0  0  0  0  0  0  0  0  0  0  0
   -5.0045   -8.0209    7.3160 C   0  0  0  0  0  0  0  0  0  0  0  0
   -5.7158   -7.6519    6.2065 C   0  0  0  0  0  0  0  0  0  0  0  0
   -5.6062   -6.3457    5.7908 C   0  0  0  0  0  0  0  0  0  0  0  0
   -4.8188   -5.4061    6.4388 C   0  0  0  0  0  0  0  0  0  0  0  0
   -2.0181   -4.5042    7.6711 C   0  0  0  0  0  0  0  0  0  0  0  0
   -3.3099   -4.8989    8.2375 N   0  0  0  0  0  0  0  0  0  0  0  0
   -3.7559   -4.3358    9.5138 C   0  0  0  0  0  0  0  0  0  0  0  0
   -9.4234  -11.2669    0.2317 C   0  0  0  0  0  0  0  0  0  0  0  0
  -10.3595  -12.3541   -0.0963 C   0  0  0  0  0  0  0  0  0  0  0  0
  -10.8477  -10.9114    0.1239 C   0  0  0  0  0  0  0  0  0  0  0  0
 21 22  1  0  0  0
 22 23  1  0  0  0
 22 15  1  0  0  0
 15 16  2  0  0  0
 16 17  1  0  0  0
 17 18  2  0  0  0
 18 19  1  0  0  0
 19 20  2  0  0  0
 18  1  1  0  0  0
  1  2  2  0  0  0
  2  3  1  0  0  0
  3  4  1  0  0  0
  4  5  1  0  0  0
  5  6  1  0  0  0
  6  7  1  0  0  0
  6  8  1  0  0  0
  8  9  1  0  0  0
  9 10  1  0  0  0
 10 11  1  0  0  0
 11 12  1  0  0  0
 12 13  1  0  0  0
 12 14  2  0  0  0
  8 24  1  0  0  0
 24 25  1  0  0  0
 25 26  1  0  0  0
 20 15  1  0  0  0
 14  1  1  0  0  0
 26 24  1  0  0  0
 11  3  2  0  0  0
M  END
> <minimizedAffinity>
29.31828

> <CNNscore>
0.5136959553

> <CNNaffinity>
5.9968099594

> <CNN_VS>
3.0805370808

> <CNNaffinity_variance>
0.6482696533

$$$$
[H]c1c([H])c(N(C([H])([H])[H])C([H])([H])[H])c([H])c([H])c1-c1nc(C([H])([H])[H])c2c(n1)C([H])([H])C([H])([H])[C@@]([H])(C([H])([H])[H])N(C1([H])C([H])([H])C1([H])[H])C([H])([H])C2([H])[H]


 26 29  0  0  0  0  0  0  0  0999 V2000
   -9.3703   -7.4948    7.8765 C   0  0  0  0  0  0  0  0  0  0  0  0
  -10.2274   -8.2250    7.1661 N   0  0  0  0  0  0  0  0  0  0  0  0
  -11.5546   -8.0851    7.3557 C   0  0  0  0  0  0  0  0  0  0  0  0
  -12.2166   -9.0314    6.4216 C   0  0  0  0  0  0  0  0  0  0  0  0
  -12.9807  -10.0162    7.2936 C   0  0  0  0  0  0  0  0  0  0  0  0
  -14.3244   -9.4001    7.6661 C   0  0  0  0  0  0  0  0  0  0  0  0
  -14.5735   -9.5092    9.1509 C   0  0  0  0  0  0  0  0  0  0  0  0
  -14.5145   -8.1220    7.1086 N   0  0  0  0  0  0  0  0  0  0  0  0
  -14.4934   -6.9798    7.9182 C   0  0  0  0  0  0  0  0  0  0  0  0
  -13.3247   -6.7363    8.7876 C   0  0  0  0  0  0  0  0  0  0  0  0
  -12.0193   -7.1671    8.3042 C   0  0  0  0  0  0  0  0  0  0  0  0
  -11.1279   -6.4103    9.0405 C   0  0  0  0  0  0  0  0  0  0  0  0
  -11.5304   -5.4268   10.0571 C   0  0  0  0  0  0  0  0  0  0  0  0
   -9.8176   -6.6078    8.7929 N   0  0  0  0  0  0  0  0  0  0  0  0
   -5.1702   -7.7932    7.4385 C   0  0  0  0  0  0  0  0  0  0  0  0
   -5.9944   -8.4560    6.5499 C   0  0  0  0  0  0  0  0  0  0  0  0
   -7.3652   -8.3529    6.7004 C   0  0  0  0  0  0  0  0  0  0  0  0
   -7.9271   -7.6126    7.7051 C   0  0  0  0  0  0  0  0  0  0  0  0
   -7.0731   -6.9680    8.5689 C   0  0  0  0  0  0  0  0  0  0  0  0
   -5.6922   -7.0371    8.4641 C   0  0  0  0  0  0  0  0  0  0  0  0
   -2.9014   -7.0162    8.0849 C   0  0  0  0  0  0  0  0  0  0  0  0
   -3.7739   -7.8898    7.2967 N   0  0  0  0  0  0  0  0  0  0  0  0
   -3.1950   -8.8601    6.3650 C   0  0  0  0  0  0  0  0  0  0  0  0
  -15.6834   -8.0572    6.2373 C   0  0  0  0  0  0  0  0  0  0  0  0
  -15.8226   -6.9718    5.2533 C   0  0  0  0  0  0  0  0  0  0  0  0
  -15.5971   -8.4299    4.8160 C   0  0  0  0  0  0  0  0  0  0  0  0
 21 22  1  0  0  0
 22 23  1  0  0  0
 22 15  1  0  0  0
 15 16  2  0  0  0
 16 17  1  0  0  0
 17 18  2  0  0  0
 18 19  1  0  0  0
 19 20  2  0  0  0
 18  1  1  0  0  0
  1  2  2  0  0  0
  2  3  1  0  0  0
  3  4  1  0  0  0
  4  5  1  0  0  0
  5  6  1  0  0  0
  6  7  1  0  0  0
  6  8  1  0  0  0
  8  9  1  0  0  0
  9 10  1  0  0  0
 10 11  1  0  0  0
 11 12  1  0  0  0
 12 13  1  0  0  0
 12 14  2  0  0  0
  8 24  1  0  0  0
 24 25  1  0  0  0
 25 26  1  0  0  0
 20 15  1  0  0  0
 14  1  1  0  0  0
 26 24  1  0  0  0
 11  3  2  0  0  0
M  END
> <minimizedAffinity>
-6.98711

> <CNNscore>
0.4495964646

> <CNNaffinity>
6.9225144386

> <CNN_VS>
3.1123380661

> <CNNaffinity_variance>
0.0315922238

$$$$
[H]c1c([H])c(N(C([H])([H])[H])C([H])([H])[H])c([H])c([H])c1-c1nc(C([H])([H])[H])c2c(n1)C([H])([H])C([H])([H])[C@@]([H])(C([H])([H])[H])N(C1([H])C([H])([H])C1([H])[H])C([H])([H])C2([H])[H]


 26 29  0  0  0  0  0  0  0  0999 V2000
   -7.3663   -6.4419    7.3833 C   0  0  0  0  0  0  0  0  0  0  0  0
   -8.0614   -7.0819    8.3213 N   0  0  0  0  0  0  0  0  0  0  0  0
   -9.3894   -7.2609    8.1754 C   0  0  0  0  0  0  0  0  0  0  0  0
   -9.8511   -7.9971    9.3799 C   0  0  0  0  0  0  0  0  0  0  0  0
  -10.8369   -7.0758   10.0826 C   0  0  0  0  0  0  0  0  0  0  0  0
  -12.2048   -7.2321    9.4283 C   0  0  0  0  0  0  0  0  0  0  0  0
  -12.7992   -5.8851    9.0950 C   0  0  0  0  0  0  0  0  0  0  0  0
  -12.2080   -8.1750    8.3836 N   0  0  0  0  0  0  0  0  0  0  0  0
  -12.3319   -7.7633    7.0510 C   0  0  0  0  0  0  0  0  0  0  0  0
  -11.3907   -6.7573    6.5189 C   0  0  0  0  0  0  0  0  0  0  0  0
  -10.0266   -6.7681    7.0311 C   0  0  0  0  0  0  0  0  0  0  0  0
   -9.3032   -6.1039    6.0589 C   0  0  0  0  0  0  0  0  0  0  0  0
   -9.8933   -5.5532    4.8296 C   0  0  0  0  0  0  0  0  0  0  0  0
   -7.9804   -5.9654    6.2777 N   0  0  0  0  0  0  0  0  0  0  0  0
   -3.1897   -5.8022    7.6451 C   0  0  0  0  0  0  0  0  0  0  0  0
   -3.9076   -6.0786    8.7925 C   0  0  0  0  0  0  0  0  0  0  0  0
   -5.2715   -6.2863    8.6977 C   0  0  0  0  0  0  0  0  0  0  0  0
   -5.9290   -6.2255    7.4989 C   0  0  0  0  0  0  0  0  0  0  0  0
   -5.1793   -5.9479    6.3801 C   0  0  0  0  0  0  0  0  0  0  0  0
   -3.8101   -5.7314    6.4179 C   0  0  0  0  0  0  0  0  0  0  0  0
   -1.0651   -5.1336    6.5461 C   0  0  0  0  0  0  0  0  0  0  0  0
   -1.8017   -5.5887    7.7276 N   0  0  0  0  0  0  0  0  0  0  0  0
   -1.0960   -5.8203    8.9898 C   0  0  0  0  0  0  0  0  0  0  0  0
  -13.1366   -9.2751    8.6224 C   0  0  0  0  0  0  0  0  0  0  0  0
  -14.5448   -9.1674    8.2084 C   0  0  0  0  0  0  0  0  0  0  0  0
  -13.5788  -10.1519    7.5259 C   0  0  0  0  0  0  0  0  0  0  0  0
 21 22  1  0  0  0
 22 23  1  0  0  0
 22 15  1  0  0  0
 15 16  2  0  0  0
 16 17  1  0  0  0
 17 18  2  0  0  0
 18 19  1  0  0  0
 19 20  2  0  0  0
 18  1  1  0  0  0
  1  2  2  0  0  0
  2  3  1  0  0  0
  3  4  1  0  0  0
  4  5  1  0  0  0
  5  6  1  0  0  0
  6  7  1  0  0  0
  6  8  1  0  0  0
  8  9  1  0  0  0
  9 10  1  0  0  0
 10 11  1  0  0  0
 11 12  1  0  0  0
 12 13  1  0  0  0
 12 14  2  0  0  0
  8 24  1  0  0  0
 24 25  1  0  0  0
 25 26  1  0  0  0
 20 15  1  0  0  0
 14  1  1  0  0  0
 26 24  1  0  0  0
 11  3  2  0  0  0
M  END
> <minimizedAffinity>
5.28993

> <CNNscore>
0.3643633425

> <CNNaffinity>
6.1333374977

> <CNN_VS>
2.2347633839

> <CNNaffinity_variance>
0.5370883346

$$$$
[H]c1c([H])c(N(C([H])([H])[H])C([H])([H])[H])c([H])c([H])c1-c1nc(C([H])([H])[H])c2c(n1)C([H])([H])C([H])([H])[C@@]([H])(C([H])([H])[H])N(C1([H])C([H])([H])C1([H])[H])C([H])([H])C2([H])[H]


 26 29  0  0  0  0  0  0  0  0999 V2000
   -6.0327   -7.4988    7.7534 C   0  0  0  0  0  0  0  0  0  0  0  0
   -5.6429   -6.4281    8.4422 N   0  0  0  0  0  0  0  0  0  0  0  0
   -4.3473   -6.0564    8.4389 C   0  0  0  0  0  0  0  0  0  0  0  0
   -4.2535   -4.8450    9.2932 C   0  0  0  0  0  0  0  0  0  0  0  0
   -3.3396   -5.2176   10.4509 C   0  0  0  0  0  0  0  0  0  0  0  0
   -1.8915   -5.0498   10.0052 C   0  0  0  0  0  0  0  0  0  0  0  0
   -1.0784   -6.2755   10.3445 C   0  0  0  0  0  0  0  0  0  0  0  0
   -1.7759   -4.5892    8.6805 N   0  0  0  0  0  0  0  0  0  0  0  0
   -1.3146   -5.4384    7.6673 C   0  0  0  0  0  0  0  0  0  0  0  0
   -1.9863   -6.7365    7.4559 C   0  0  0  0  0  0  0  0  0  0  0  0
   -3.4202   -6.8059    7.7061 C   0  0  0  0  0  0  0  0  0  0  0  0
   -3.8269   -7.9169    6.9920 C   0  0  0  0  0  0  0  0  0  0  0  0
   -2.9197   -8.7602    6.1992 C   0  0  0  0  0  0  0  0  0  0  0  0
   -5.1385   -8.2236    7.0452 N   0  0  0  0  0  0  0  0  0  0  0  0
  -10.0910   -8.7023    7.6914 C   0  0  0  0  0  0  0  0  0  0  0  0
   -9.0998   -9.6460    7.5029 C   0  0  0  0  0  0  0  0  0  0  0  0
   -7.7768   -9.2440    7.5248 C   0  0  0  0  0  0  0  0  0  0  0  0
   -7.4230   -7.9376    7.7280 C   0  0  0  0  0  0  0  0  0  0  0  0
   -8.4385   -7.0287    7.9115 C   0  0  0  0  0  0  0  0  0  0  0  0
   -9.7807   -7.3770    7.8991 C   0  0  0  0  0  0  0  0  0  0  0  0
  -12.3111   -8.7692    8.8027 C   0  0  0  0  0  0  0  0  0  0  0  0
  -11.4408   -9.0979    7.6713 N   0  0  0  0  0  0  0  0  0  0  0  0
  -11.9738   -9.8352    6.5237 C   0  0  0  0  0  0  0  0  0  0  0  0
   -1.0637   -3.3188    8.5874 C   0  0  0  0  0  0  0  0  0  0  0  0
   -1.7955   -2.0696    8.3232 C   0  0  0  0  0  0  0  0  0  0  0  0
   -1.1167   -2.3328    9.6790 C   0  0  0  0  0  0  0  0  0  0  0  0
 21 22  1  0  0  0
 22 23  1  0  0  0
 22 15  1  0  0  0
 15 16  2  0  0  0
 16 17  1  0  0  0
 17 18  2  0  0  0
 18 19  1  0  0  0
 19 20  2  0  0  0
 18  1  1  0  0  0
  1  2  2  0  0  0
  2  3  1  0  0  0
  3  4  1  0  0  0
  4  5  1  0  0  0
  5  6  1  0  0  0
  6  7  1  0  0  0
  6  8  1  0  0  0
  8  9  1  0  0  0
  9 10  1  0  0  0
 10 11  1  0  0  0
 11 12  1  0  0  0
 12 13  1  0  0  0
 12 14  2  0  0  0
  8 24  1  0  0  0
 24 25  1  0  0  0
 25 26  1  0  0  0
 20 15  1  0  0  0
 14  1  1  0  0  0
 26 24  1  0  0  0
 11  3  2  0  0  0
M  END
> <minimizedAffinity>
-6.37466

> <CNNscore>
0.3481152356

> <CNNaffinity>
5.7575225830

> <CNN_VS>
2.0042812824

> <CNNaffinity_variance>
0.0674768612

$$$$
[H]c1c([H])c(N(C([H])([H])[H])C([H])([H])[H])c([H])c([H])c1-c1nc(C([H])([H])[H])c2c(n1)C([H])([H])C([H])([H])[C@@]([H])(C([H])([H])[H])N(C1([H])C([H])([H])C1([H])[H])C([H])([H])C2([H])[H]


 26 29  0  0  0  0  0  0  0  0999 V2000
   -5.7933   -7.2826    6.6143 C   0  0  0  0  0  0  0  0  0  0  0  0
   -5.5047   -6.1170    6.0390 N   0  0  0  0  0  0  0  0  0  0  0  0
   -4.2274   -5.8088    5.7385 C   0  0  0  0  0  0  0  0  0  0  0  0
   -4.2533   -4.4591    5.1189 C   0  0  0  0  0  0  0  0  0  0  0  0
   -3.4387   -3.5603    6.0369 C   0  0  0  0  0  0  0  0  0  0  0  0
   -1.9619   -3.7200    5.6942 C   0  0  0  0  0  0  0  0  0  0  0  0
   -1.1434   -3.9616    6.9393 C   0  0  0  0  0  0  0  0  0  0  0  0
   -1.7395   -4.6191    4.6346 N   0  0  0  0  0  0  0  0  0  0  0  0
   -1.1585   -5.8710    4.8709 C   0  0  0  0  0  0  0  0  0  0  0  0
   -1.7643   -6.7664    5.8769 C   0  0  0  0  0  0  0  0  0  0  0  0
   -3.2121   -6.7244    6.0369 C   0  0  0  0  0  0  0  0  0  0  0  0
   -3.5138   -7.9335    6.6341 C   0  0  0  0  0  0  0  0  0  0  0  0
   -2.5096   -8.9495    6.9834 C   0  0  0  0  0  0  0  0  0  0  0  0
   -4.8137   -8.1678    6.9031 N   0  0  0  0  0  0  0  0  0  0  0  0
   -9.7796   -8.3006    7.6114 C   0  0  0  0  0  0  0  0  0  0  0  0
   -8.8535   -9.3048    7.4054 C   0  0  0  0  0  0  0  0  0  0  0  0
   -7.5536   -8.9631    7.0802 C   0  0  0  0  0  0  0  0  0  0  0  0
   -7.1599   -7.6581    6.9569 C   0  0  0  0  0  0  0  0  0  0  0  0
   -8.1110   -6.6880    7.1696 C   0  0  0  0  0  0  0  0  0  0  0  0
   -9.4275   -6.9744    7.4978 C   0  0  0  0  0  0  0  0  0  0  0  0
  -11.7912   -9.7005    7.2086 C   0  0  0  0  0  0  0  0  0  0  0  0
  -11.1054   -8.6346    7.9427 N   0  0  0  0  0  0  0  0  0  0  0  0
  -11.7971   -7.9195    9.0174 C   0  0  0  0  0  0  0  0  0  0  0  0
   -1.0644   -3.9956    3.5010 C   0  0  0  0  0  0  0  0  0  0  0  0
   -1.5219   -4.2517    2.1258 C   0  0  0  0  0  0  0  0  0  0  0  0
   -1.6717   -2.8661    2.7784 C   0  0  0  0  0  0  0  0  0  0  0  0
 21 22  1  0  0  0
 22 23  1  0  0  0
 22 15  1  0  0  0
 15 16  2  0  0  0
 16 17  1  0  0  0
 17 18  2  0  0  0
 18 19  1  0  0  0
 19 20  2  0  0  0
 18  1  1  0  0  0
  1  2  2  0  0  0
  2  3  1  0  0  0
  3  4  1  0  0  0
  4  5  1  0  0  0
  5  6  1  0  0  0
  6  7  1  0  0  0
  6  8  1  0  0  0
  8  9  1  0  0  0
  9 10  1  0  0  0
 10 11  1  0  0  0
 11 12  1  0  0  0
 12 13  1  0  0  0
 12 14  2  0  0  0
  8 24  1  0  0  0
 24 25  1  0  0  0
 25 26  1  0  0  0
 20 15  1  0  0  0
 14  1  1  0  0  0
 26 24  1  0  0  0
 11  3  2  0  0  0
M  END
> <minimizedAffinity>
-6.92034

> <CNNscore>
0.3474506140

> <CNNaffinity>
5.7786231041

> <CNN_VS>
2.0077860355

> <CNNaffinity_variance>
0.0105374036

$$$$
[H]c1c([H])c(N(C([H])([H])[H])C([H])([H])[H])c([H])c([H])c1-c1nc(C([H])([H])[H])c2c(n1)C([H])([H])C([H])([H])[C@@]([H])(C([H])([H])[H])N(C1([H])C([H])([H])C1([H])[H])C([H])([H])C2([H])[H]


 26 29  0  0  0  0  0  0  0  0999 V2000
  -12.8923   -8.1910    6.2629 C   0  0  0  0  0  0  0  0  0  0  0  0
  -13.4929   -7.0028    6.2744 N   0  0  0  0  0  0  0  0  0  0  0  0
  -14.7138   -6.8565    5.7223 C   0  0  0  0  0  0  0  0  0  0  0  0
  -15.0896   -5.4306    5.9005 C   0  0  0  0  0  0  0  0  0  0  0  0
  -15.2405   -4.8582    4.4991 C   0  0  0  0  0  0  0  0  0  0  0  0
  -16.6356   -5.1904    3.9822 C   0  0  0  0  0  0  0  0  0  0  0  0
  -16.5687   -5.7841    2.5959 C   0  0  0  0  0  0  0  0  0  0  0  0
  -17.4096   -5.9056    4.9148 N   0  0  0  0  0  0  0  0  0  0  0  0
  -17.7106   -7.2570    4.7056 C   0  0  0  0  0  0  0  0  0  0  0  0
  -16.6085   -8.2101    4.4651 C   0  0  0  0  0  0  0  0  0  0  0  0
  -15.3403   -7.9636    5.1391 C   0  0  0  0  0  0  0  0  0  0  0  0
  -14.7151   -9.1958    5.1281 C   0  0  0  0  0  0  0  0  0  0  0  0
  -15.3003  -10.4077    4.5352 C   0  0  0  0  0  0  0  0  0  0  0  0
  -13.4962   -9.2610    5.7000 N   0  0  0  0  0  0  0  0  0  0  0  0
   -9.0607   -8.8556    7.9359 C   0  0  0  0  0  0  0  0  0  0  0  0
   -9.6585   -7.6183    8.0781 C   0  0  0  0  0  0  0  0  0  0  0  0
  -10.9103   -7.4101    7.5285 C   0  0  0  0  0  0  0  0  0  0  0  0
  -11.5725   -8.3957    6.8480 C   0  0  0  0  0  0  0  0  0  0  0  0
  -10.9442   -9.6130    6.7281 C   0  0  0  0  0  0  0  0  0  0  0  0
   -9.6906   -9.8761    7.2592 C   0  0  0  0  0  0  0  0  0  0  0  0
   -7.2113  -10.4271    8.4638 C   0  0  0  0  0  0  0  0  0  0  0  0
   -7.7875   -9.0807    8.4901 N   0  0  0  0  0  0  0  0  0  0  0  0
   -7.0409   -7.9732    9.0908 C   0  0  0  0  0  0  0  0  0  0  0  0
  -18.6350   -5.2042    5.2836 C   0  0  0  0  0  0  0  0  0  0  0  0
  -18.6165   -3.7568    5.5491 C   0  0  0  0  0  0  0  0  0  0  0  0
  -19.3384   -4.3402    4.3217 C   0  0  0  0  0  0  0  0  0  0  0  0
 21 22  1  0  0  0
 22 23  1  0  0  0
 22 15  1  0  0  0
 15 16  2  0  0  0
 16 17  1  0  0  0
 17 18  2  0  0  0
 18 19  1  0  0  0
 19 20  2  0  0  0
 18  1  1  0  0  0
  1  2  2  0  0  0
  2  3  1  0  0  0
  3  4  1  0  0  0
  4  5  1  0  0  0
  5  6  1  0  0  0
  6  7  1  0  0  0
  6  8  1  0  0  0
  8  9  1  0  0  0
  9 10  1  0  0  0
 10 11  1  0  0  0
 11 12  1  0  0  0
 12 13  1  0  0  0
 12 14  2  0  0  0
  8 24  1  0  0  0
 24 25  1  0  0  0
 25 26  1  0  0  0
 20 15  1  0  0  0
 14  1  1  0  0  0
 26 24  1  0  0  0
 11  3  2  0  0  0
M  END
> <minimizedAffinity>
0.31716

> <CNNscore>
0.3159373701

> <CNNaffinity>
6.5527052879

> <CNN_VS>
2.0702445507

> <CNNaffinity_variance>
0.5250082612

$$$$
[H]c1c([H])c(N(C([H])([H])[H])C([H])([H])[H])c([H])c([H])c1-c1nc(C([H])([H])[H])c2c(n1)C([H])([H])C([H])([H])[C@@]([H])(C([H])([H])[H])N(C1([H])C([H])([H])C1([H])[H])C([H])([H])C2([H])[H]


 26 29  0  0  0  0  0  0  0  0999 V2000
  -12.7995   -7.6776    6.5240 C   0  0  0  0  0  0  0  0  0  0  0  0
  -11.6789   -6.9629    6.4470 N   0  0  0  0  0  0  0  0  0  0  0  0
  -10.5095   -7.4918    6.8587 C   0  0  0  0  0  0  0  0  0  0  0  0
   -9.4746   -6.4486    6.6416 C   0  0  0  0  0  0  0  0  0  0  0  0
   -8.9183   -6.1167    8.0181 C   0  0  0  0  0  0  0  0  0  0  0  0
   -7.8491   -7.1430    8.3746 C   0  0  0  0  0  0  0  0  0  0  0  0
   -8.0781   -7.7003    9.7587 C   0  0  0  0  0  0  0  0  0  0  0  0
   -7.6447   -8.0964    7.3598 N   0  0  0  0  0  0  0  0  0  0  0  0
   -8.0609   -9.4222    7.5318 C   0  0  0  0  0  0  0  0  0  0  0  0
   -9.4670   -9.6932    7.8931 C   0  0  0  0  0  0  0  0  0  0  0  0
  -10.4869   -8.7957    7.3661 C   0  0  0  0  0  0  0  0  0  0  0  0
  -11.6512   -9.5357    7.4454 C   0  0  0  0  0  0  0  0  0  0  0  0
  -11.7168  -10.9092    7.9669 C   0  0  0  0  0  0  0  0  0  0  0  0
  -12.7793   -8.9371    7.0139 N   0  0  0  0  0  0  0  0  0  0  0  0
  -16.5704   -6.1869    5.3074 C   0  0  0  0  0  0  0  0  0  0  0  0
  -15.4188   -5.5933    4.8281 C   0  0  0  0  0  0  0  0  0  0  0  0
  -14.1913   -6.0869    5.2307 C   0  0  0  0  0  0  0  0  0  0  0  0
  -14.0864   -7.1466    6.0905 C   0  0  0  0  0  0  0  0  0  0  0  0
  -15.2556   -7.7098    6.5452 C   0  0  0  0  0  0  0  0  0  0  0  0
  -16.5120   -7.2553    6.1741 C   0  0  0  0  0  0  0  0  0  0  0  0
  -18.2710   -4.3778    5.3677 C   0  0  0  0  0  0  0  0  0  0  0  0
  -17.8255   -5.6946    4.9059 N   0  0  0  0  0  0  0  0  0  0  0  0
  -18.6833   -6.4952    4.0295 C   0  0  0  0  0  0  0  0  0  0  0  0
   -6.2748   -8.0969    6.8569 C   0  0  0  0  0  0  0  0  0  0  0  0
   -5.9992   -8.3831    5.4398 C   0  0  0  0  0  0  0  0  0  0  0  0
   -5.7620   -6.9857    6.0391 C   0  0  0  0  0  0  0  0  0  0  0  0
 21 22  1  0  0  0
 22 23  1  0  0  0
 22 15  1  0  0  0
 15 16  2  0  0  0
 16 17  1  0  0  0
 17 18  2  0  0  0
 18 19  1  0  0  0
 19 20  2  0  0  0
 18  1  1  0  0  0
  1  2  2  0  0  0
  2  3  1  0  0  0
  3  4  1  0  0  0
  4  5  1  0  0  0
  5  6  1  0  0  0
  6  7  1  0  0  0
  6  8  1  0  0  0
  8  9  1  0  0  0
  9 10  1  0  0  0
 10 11  1  0  0  0
 11 12  1  0  0  0
 12 13  1  0  0  0
 12 14  2  0  0  0
  8 24  1  0  0  0
 24 25  1  0  0  0
 25 26  1  0  0  0
 20 15  1  0  0  0
 14  1  1  0  0  0
 26 24  1  0  0  0
 11  3  2  0  0  0
M  END
> <minimizedAffinity>
0.75034

> <CNNscore>
0.3051206768

> <CNNaffinity>
6.6546020508

> <CNN_VS>
2.0304567814

> <CNNaffinity_variance>
1.0037105083

$$$$
[H]c1c([H])c(N(C([H])([H])[H])C([H])([H])[H])c([H])c([H])c1-c1nc(C([H])([H])[H])c2c(n1)C([H])([H])C([H])([H])[C@@]([H])(C([H])([H])[H])N(C1([H])C([H])([H])C1([H])[H])C([H])([H])C2([H])[H]


 26 29  0  0  0  0  0  0  0  0999 V2000
   -6.2361   -7.4516    7.7438 C   0  0  0  0  0  0  0  0  0  0  0  0
   -5.7901   -6.3665    8.3734 N   0  0  0  0  0  0  0  0  0  0  0  0
   -4.4805   -6.0506    8.3319 C   0  0  0  0  0  0  0  0  0  0  0  0
   -4.3214   -4.8045    9.1245 C   0  0  0  0  0  0  0  0  0  0  0  0
   -3.4037   -5.1594   10.2847 C   0  0  0  0  0  0  0  0  0  0  0  0
   -1.9579   -5.0746    9.8090 C   0  0  0  0  0  0  0  0  0  0  0  0
   -1.1905   -6.3159   10.1950 C   0  0  0  0  0  0  0  0  0  0  0  0
   -1.8465   -4.6835    8.4617 N   0  0  0  0  0  0  0  0  0  0  0  0
   -1.4387   -5.5992    7.4841 C   0  0  0  0  0  0  0  0  0  0  0  0
   -2.1674   -6.8764    7.3467 C   0  0  0  0  0  0  0  0  0  0  0  0
   -3.5983   -6.8730    7.6222 C   0  0  0  0  0  0  0  0  0  0  0  0
   -4.0632   -7.9988    6.9696 C   0  0  0  0  0  0  0  0  0  0  0  0
   -3.2059   -8.9168    6.2048 C   0  0  0  0  0  0  0  0  0  0  0  0
   -5.3852   -8.2468    7.0580 N   0  0  0  0  0  0  0  0  0  0  0  0
  -10.3044   -8.6219    7.7654 C   0  0  0  0  0  0  0  0  0  0  0  0
   -9.9541   -7.3745    8.2447 C   0  0  0  0  0  0  0  0  0  0  0  0
   -8.6228   -7.0005    8.2337 C   0  0  0  0  0  0  0  0  0  0  0  0
   -7.6436   -7.8319    7.7613 C   0  0  0  0  0  0  0  0  0  0  0  0
   -8.0327   -9.0649    7.2931 C   0  0  0  0  0  0  0  0  0  0  0  0
   -9.3524   -9.4906    7.2808 C   0  0  0  0  0  0  0  0  0  0  0  0
  -12.5551   -8.5076    8.8095 C   0  0  0  0  0  0  0  0  0  0  0  0
  -11.6551   -9.0149    7.7710 N   0  0  0  0  0  0  0  0  0  0  0  0
  -12.1597   -9.9273    6.7426 C   0  0  0  0  0  0  0  0  0  0  0  0
   -1.0839   -3.4504    8.2958 C   0  0  0  0  0  0  0  0  0  0  0  0
   -1.0629   -2.7535    6.9997 C   0  0  0  0  0  0  0  0  0  0  0  0
   -1.7545   -2.1416    8.2308 C   0  0  0  0  0  0  0  0  0  0  0  0
 21 22  1  0  0  0
 22 23  1  0  0  0
 22 15  1  0  0  0
 15 16  2  0  0  0
 16 17  1  0  0  0
 17 18  2  0  0  0
 18 19  1  0  0  0
 19 20  2  0  0  0
 18  1  1  0  0  0
  1  2  2  0  0  0
  2  3  1  0  0  0
  3  4  1  0  0  0
  4  5  1  0  0  0
  5  6  1  0  0  0
  6  7  1  0  0  0
  6  8  1  0  0  0
  8  9  1  0  0  0
  9 10  1  0  0  0
 10 11  1  0  0  0
 11 12  1  0  0  0
 12 13  1  0  0  0
 12 14  2  0  0  0
  8 24  1  0  0  0
 24 25  1  0  0  0
 25 26  1  0  0  0
 20 15  1  0  0  0
 14  1  1  0  0  0
 26 24  1  0  0  0
 11  3  2  0  0  0
M  END
> <minimizedAffinity>
-6.10502

> <CNNscore>
0.3008767068

> <CNNaffinity>
5.8098144531

> <CNN_VS>
1.7480378151

> <CNNaffinity_variance>
0.0768622905

$$$$
[H]c1c([H])c(N(C([H])([H])[H])C([H])([H])[H])c([H])c([H])c1-c1nc(C([H])([H])[H])c2c(n1)C([H])([H])C([H])([H])[C@@]([H])(C([H])([H])[H])N(C1([H])C([H])([H])C1([H])[H])C([H])([H])C2([H])[H]


 26 29  0  0  0  0  0  0  0  0999 V2000
  -14.4574   -7.6351    6.4279 C   0  0  0  0  0  0  0  0  0  0  0  0
  -13.7252   -8.1114    7.4327 N   0  0  0  0  0  0  0  0  0  0  0  0
  -13.2719   -7.2808    8.3926 C   0  0  0  0  0  0  0  0  0  0  0  0
  -12.5008   -8.1186    9.3463 C   0  0  0  0  0  0  0  0  0  0  0  0
  -11.0729   -7.5956    9.3047 C   0  0  0  0  0  0  0  0  0  0  0  0
  -10.9655   -6.3910   10.2326 C   0  0  0  0  0  0  0  0  0  0  0  0
  -10.2948   -5.2324    9.5352 C   0  0  0  0  0  0  0  0  0  0  0  0
  -12.1763   -6.0917   10.8844 N   0  0  0  0  0  0  0  0  0  0  0  0
  -12.9093   -4.9497   10.5395 C   0  0  0  0  0  0  0  0  0  0  0  0
  -13.2901   -4.7389    9.1283 C   0  0  0  0  0  0  0  0  0  0  0  0
  -13.5786   -5.9173    8.3212 C   0  0  0  0  0  0  0  0  0  0  0  0
  -14.3386   -5.4250    7.2774 C   0  0  0  0  0  0  0  0  0  0  0  0
  -14.7039   -4.0087    7.1249 C   0  0  0  0  0  0  0  0  0  0  0  0
  -14.7544   -6.3185    6.3576 N   0  0  0  0  0  0  0  0  0  0  0  0
  -15.8720  -10.1549    3.3342 C   0  0  0  0  0  0  0  0  0  0  0  0
  -16.7769   -9.4419    4.0965 C   0  0  0  0  0  0  0  0  0  0  0  0
  -16.3060   -8.6211    5.1049 C   0  0  0  0  0  0  0  0  0  0  0  0
  -14.9687   -8.4961    5.3680 C   0  0  0  0  0  0  0  0  0  0  0  0
  -14.1002   -9.2221    4.5874 C   0  0  0  0  0  0  0  0  0  0  0  0
  -14.5177  -10.0594    3.5639 C   0  0  0  0  0  0  0  0  0  0  0  0
  -16.7155  -10.4168    1.0129 C   0  0  0  0  0  0  0  0  0  0  0  0
  -16.3378  -10.9936    2.3053 N   0  0  0  0  0  0  0  0  0  0  0  0
  -16.4445  -12.4375    2.5253 C   0  0  0  0  0  0  0  0  0  0  0  0
  -12.0623   -6.1540   12.3380 C   0  0  0  0  0  0  0  0  0  0  0  0
  -10.7565   -5.9769   12.9933 C   0  0  0  0  0  0  0  0  0  0  0  0
  -11.8790   -4.9347   13.1418 C   0  0  0  0  0  0  0  0  0  0  0  0
 21 22  1  0  0  0
 22 23  1  0  0  0
 22 15  1  0  0  0
 15 16  2  0  0  0
 16 17  1  0  0  0
 17 18  2  0  0  0
 18 19  1  0  0  0
 19 20  2  0  0  0
 18  1  1  0  0  0
  1  2  2  0  0  0
  2  3  1  0  0  0
  3  4  1  0  0  0
  4  5  1  0  0  0
  5  6  1  0  0  0
  6  7  1  0  0  0
  6  8  1  0  0  0
  8  9  1  0  0  0
  9 10  1  0  0  0
 10 11  1  0  0  0
 11 12  1  0  0  0
 12 13  1  0  0  0
 12 14  2  0  0  0
  8 24  1  0  0  0
 24 25  1  0  0  0
 25 26  1  0  0  0
 20 15  1  0  0  0
 14  1  1  0  0  0
 26 24  1  0  0  0
 11  3  2  0  0  0
M  END
> <minimizedAffinity>
24.72302

> <CNNscore>
0.2896389961

> <CNNaffinity>
6.2873306274

> <CNN_VS>
1.8210561275

> <CNNaffinity_variance>
0.8344079852

$$$$
[H]OC(=O)N(C([H])([H])c1c([H])c([H])c(-c2c([H])c([H])c(Cl)c([H])c2[H])c([H])c1[H])C([H])([H])c1c([H])c([H])c([H])c(OC([H])([H])[H])c1[H]


 28 30  0  0  0  0  0  0  0  0999 V2000
   -8.1551  -12.8187    0.8444 N   0  0  0  0  0  0  0  0  0  0  0  0
   -9.1035  -13.7025    0.2977 C   0  0  0  0  0  0  0  0  0  0  0  0
   -8.9222  -15.0789    0.2985 O   0  0  0  0  0  0  0  0  0  0  0  0
  -10.1509  -13.2643   -0.2111 O   0  0  0  0  0  0  0  0  0  0  0  0
   -9.6841  -15.7397    0.3425 H   0  0  0  0  0  0  0  0  0  0  0  0
   -6.9298  -13.3089    1.4413 C   0  0  0  0  0  0  0  0  0  0  0  0
   -8.4348  -14.7386    4.5648 C   0  0  0  0  0  0  0  0  0  0  0  0
   -7.7025  -15.8999    4.6736 C   0  0  0  0  0  0  0  0  0  0  0  0
   -6.7288  -16.2355    3.7575 C   0  0  0  0  0  0  0  0  0  0  0  0
   -6.4604  -15.3980    2.6890 C   0  0  0  0  0  0  0  0  0  0  0  0
   -7.1799  -14.2347    2.5624 C   0  0  0  0  0  0  0  0  0  0  0  0
   -8.1440  -13.9194    3.4842 C   0  0  0  0  0  0  0  0  0  0  0  0
   -9.4341  -13.1740    6.1414 C   0  0  0  0  0  0  0  0  0  0  0  0
   -9.4088  -14.4213    5.4973 O   0  0  0  0  0  0  0  0  0  0  0  0
   -8.4059  -11.3937    0.8109 C   0  0  0  0  0  0  0  0  0  0  0  0
   -7.9680  -10.7202    2.0537 C   0  0  0  0  0  0  0  0  0  0  0  0
   -8.6668  -10.9074    3.2286 C   0  0  0  0  0  0  0  0  0  0  0  0
   -8.2385  -10.2650    4.3908 C   0  0  0  0  0  0  0  0  0  0  0  0
   -7.1333   -9.4401    4.4187 C   0  0  0  0  0  0  0  0  0  0  0  0
   -6.4526   -9.2733    3.2193 C   0  0  0  0  0  0  0  0  0  0  0  0
   -6.8620   -9.9006    2.0607 C   0  0  0  0  0  0  0  0  0  0  0  0
   -6.6708   -8.7606    5.6233 C   0  0  0  0  0  0  0  0  0  0  0  0
   -5.5077   -8.0180    5.6720 C   0  0  0  0  0  0  0  0  0  0  0  0
   -5.0915   -7.3824    6.8289 C   0  0  0  0  0  0  0  0  0  0  0  0
   -5.8447   -7.4761    7.9909 C   0  0  0  0  0  0  0  0  0  0  0  0
   -5.3165   -6.6706    9.4548 Cl  0  0  0  0  0  0  0  0  0  0  0  0
   -7.0053   -8.2126    7.9562 C   0  0  0  0  0  0  0  0  0  0  0  0
   -7.4014   -8.8379    6.7917 C   0  0  0  0  0  0  0  0  0  0  0  0
 13 14  1  0  0  0
 14  7  1  0  0  0
  7  8  2  0  0  0
  8  9  1  0  0  0
  9 10  2  0  0  0
 10 11  1  0  0  0
 11  6  1  0  0  0
  6  1  1  0  0  0
  1 15  1  0  0  0
 15 16  1  0  0  0
 16 17  2  0  0  0
 17 18  1  0  0  0
 18 19  2  0  0  0
 19 20  1  0  0  0
 20 21  2  0  0  0
 19 22  1  0  0  0
 22 23  2  0  0  0
 23 24  1  0  0  0
 24 25  2  0  0  0
 25 26  1  0  0  0
 25 27  1  0  0  0
 27 28  2  0  0  0
  1  2  1  0  0  0
  2  3  1  0  0  0
  2  4  2  0  0  0
 11 12  2  0  0  0
 12  7  1  0  0  0
 21 16  1  0  0  0
 28 22  1  0  0  0
  3  5  1  0  0  0
M  END
> <minimizedAffinity>
16.81581

> <CNNscore>
0.5503922105

> <CNNaffinity>
5.3894786835

> <CNN_VS>
2.9663271904

> <CNNaffinity_variance>
0.8267324567

$$$$
[H]OC(=O)N(C([H])([H])c1c([H])c([H])c(-c2c([H])c([H])c(Cl)c([H])c2[H])c([H])c1[H])C([H])([H])c1c([H])c([H])c([H])c(OC([H])([H])[H])c1[H]


 28 30  0  0  0  0  0  0  0  0999 V2000
  -14.2190   -8.5891    5.7581 N   0  0  0  0  0  0  0  0  0  0  0  0
  -13.8690   -9.9517    5.7775 C   0  0  0  0  0  0  0  0  0  0  0  0
  -14.1182  -10.7972    4.7050 O   0  0  0  0  0  0  0  0  0  0  0  0
  -13.3156  -10.4442    6.7771 O   0  0  0  0  0  0  0  0  0  0  0  0
  -13.5399  -11.5932    4.4789 H   0  0  0  0  0  0  0  0  0  0  0  0
  -14.8638   -7.9968    4.6042 C   0  0  0  0  0  0  0  0  0  0  0  0
  -17.5064   -5.3476    4.3524 C   0  0  0  0  0  0  0  0  0  0  0  0
  -18.0957   -5.4788    5.5902 C   0  0  0  0  0  0  0  0  0  0  0  0
  -17.6588   -6.4076    6.5102 C   0  0  0  0  0  0  0  0  0  0  0  0
  -16.5992   -7.2438    6.2051 C   0  0  0  0  0  0  0  0  0  0  0  0
  -15.9975   -7.1289    4.9756 C   0  0  0  0  0  0  0  0  0  0  0  0
  -16.4473   -6.1988    4.0748 C   0  0  0  0  0  0  0  0  0  0  0  0
  -17.1032   -3.8122    2.5051 C   0  0  0  0  0  0  0  0  0  0  0  0
  -17.9620   -4.4069    3.4432 O   0  0  0  0  0  0  0  0  0  0  0  0
  -13.9310   -7.7624    6.9106 C   0  0  0  0  0  0  0  0  0  0  0  0
  -12.4778   -7.6424    7.1627 C   0  0  0  0  0  0  0  0  0  0  0  0
  -11.8347   -8.5583    7.9698 C   0  0  0  0  0  0  0  0  0  0  0  0
  -10.4638   -8.4298    8.1954 C   0  0  0  0  0  0  0  0  0  0  0  0
   -9.7122   -7.4149    7.6405 C   0  0  0  0  0  0  0  0  0  0  0  0
  -10.3902   -6.5102    6.8332 C   0  0  0  0  0  0  0  0  0  0  0  0
  -11.7452   -6.6220    6.5994 C   0  0  0  0  0  0  0  0  0  0  0  0
   -8.2790   -7.2645    7.8647 C   0  0  0  0  0  0  0  0  0  0  0  0
   -7.5284   -6.2527    7.2997 C   0  0  0  0  0  0  0  0  0  0  0  0
   -6.1688   -6.1326    7.5293 C   0  0  0  0  0  0  0  0  0  0  0  0
   -5.5122   -7.0414    8.3473 C   0  0  0  0  0  0  0  0  0  0  0  0
   -3.7908   -6.8878    8.6373 Cl  0  0  0  0  0  0  0  0  0  0  0  0
   -6.2480   -8.0541    8.9164 C   0  0  0  0  0  0  0  0  0  0  0  0
   -7.6027   -8.1548    8.6739 C   0  0  0  0  0  0  0  0  0  0  0  0
 13 14  1  0  0  0
 14  7  1  0  0  0
  7  8  2  0  0  0
  8  9  1  0  0  0
  9 10  2  0  0  0
 10 11  1  0  0  0
 11  6  1  0  0  0
  6  1  1  0  0  0
  1 15  1  0  0  0
 15 16  1  0  0  0
 16 17  2  0  0  0
 17 18  1  0  0  0
 18 19  2  0  0  0
 19 20  1  0  0  0
 20 21  2  0  0  0
 19 22  1  0  0  0
 22 23  2  0  0  0
 23 24  1  0  0  0
 24 25  2  0  0  0
 25 26  1  0  0  0
 25 27  1  0  0  0
 27 28  2  0  0  0
  1  2  1  0  0  0
  2  3  1  0  0  0
  2  4  2  0  0  0
 11 12  2  0  0  0
 12  7  1  0  0  0
 21 16  1  0  0  0
 28 22  1  0  0  0
  3  5  1  0  0  0
M  END
> <minimizedAffinity>
4.15798

> <CNNscore>
0.4365511835

> <CNNaffinity>
6.4474630356

> <CNN_VS>
2.8146476746

> <CNNaffinity_variance>
3.4967925549

$$$$
[H]OC(=O)N(C([H])([H])c1c([H])c([H])c(-c2c([H])c([H])c(Cl)c([H])c2[H])c([H])c1[H])C([H])([H])c1c([H])c([H])c([H])c(OC([H])([H])[H])c1[H]


 28 30  0  0  0  0  0  0  0  0999 V2000
  -10.4343   -8.8237    7.4904 N   0  0  0  0  0  0  0  0  0  0  0  0
  -10.4293   -8.0393    8.6583 C   0  0  0  0  0  0  0  0  0  0  0  0
   -9.3589   -7.2243    9.0004 O   0  0  0  0  0  0  0  0  0  0  0  0
  -11.4045   -8.0563    9.4308 O   0  0  0  0  0  0  0  0  0  0  0  0
   -9.4585   -6.3660    9.5226 H   0  0  0  0  0  0  0  0  0  0  0  0
   -9.3089   -8.8179    6.5783 C   0  0  0  0  0  0  0  0  0  0  0  0
   -8.2956  -11.3784    4.0323 C   0  0  0  0  0  0  0  0  0  0  0  0
   -8.6582  -12.5306    4.6939 C   0  0  0  0  0  0  0  0  0  0  0  0
   -9.2250  -12.5015    5.9500 C   0  0  0  0  0  0  0  0  0  0  0  0
   -9.4465  -11.2923    6.5856 C   0  0  0  0  0  0  0  0  0  0  0  0
   -9.0918  -10.1314    5.9426 C   0  0  0  0  0  0  0  0  0  0  0  0
   -8.5293  -10.1821    4.6937 C   0  0  0  0  0  0  0  0  0  0  0  0
   -8.5133  -11.5408    1.6118 C   0  0  0  0  0  0  0  0  0  0  0  0
   -7.7273  -11.4313    2.7701 O   0  0  0  0  0  0  0  0  0  0  0  0
  -11.5829   -9.6523    7.1926 C   0  0  0  0  0  0  0  0  0  0  0  0
  -12.7353   -8.8577    6.7125 C   0  0  0  0  0  0  0  0  0  0  0  0
  -13.5158   -9.3232    5.6742 C   0  0  0  0  0  0  0  0  0  0  0  0
  -14.5989   -8.5608    5.2356 C   0  0  0  0  0  0  0  0  0  0  0  0
  -14.9291   -7.3465    5.8006 C   0  0  0  0  0  0  0  0  0  0  0  0
  -14.1233   -6.9071    6.8433 C   0  0  0  0  0  0  0  0  0  0  0  0
  -13.0484   -7.6478    7.2898 C   0  0  0  0  0  0  0  0  0  0  0  0
  -16.0570   -6.5359    5.3557 C   0  0  0  0  0  0  0  0  0  0  0  0
  -16.0633   -5.1562    5.4098 C   0  0  0  0  0  0  0  0  0  0  0  0
  -17.1474   -4.4105    4.9806 C   0  0  0  0  0  0  0  0  0  0  0  0
  -18.2765   -5.0402    4.4756 C   0  0  0  0  0  0  0  0  0  0  0  0
  -19.6482   -4.0947    3.9322 Cl  0  0  0  0  0  0  0  0  0  0  0  0
  -18.2834   -6.4139    4.4162 C   0  0  0  0  0  0  0  0  0  0  0  0
  -17.1914   -7.1375    4.8497 C   0  0  0  0  0  0  0  0  0  0  0  0
 13 14  1  0  0  0
 14  7  1  0  0  0
  7  8  2  0  0  0
  8  9  1  0  0  0
  9 10  2  0  0  0
 10 11  1  0  0  0
 11  6  1  0  0  0
  6  1  1  0  0  0
  1 15  1  0  0  0
 15 16  1  0  0  0
 16 17  2  0  0  0
 17 18  1  0  0  0
 18 19  2  0  0  0
 19 20  1  0  0  0
 20 21  2  0  0  0
 19 22  1  0  0  0
 22 23  2  0  0  0
 23 24  1  0  0  0
 24 25  2  0  0  0
 25 26  1  0  0  0
 25 27  1  0  0  0
 27 28  2  0  0  0
  1  2  1  0  0  0
  2  3  1  0  0  0
  2  4  2  0  0  0
 11 12  2  0  0  0
 12  7  1  0  0  0
 21 16  1  0  0  0
 28 22  1  0  0  0
  3  5  1  0  0  0
M  END
> <minimizedAffinity>
7.75617

> <CNNscore>
0.3949426115

> <CNNaffinity>
5.8417673111

> <CNN_VS>
2.3071627617

> <CNNaffinity_variance>
0.9921932220

$$$$
[H]OC(=O)N(C([H])([H])c1c([H])c([H])c(-c2c([H])c([H])c(Cl)c([H])c2[H])c([H])c1[H])C([H])([H])c1c([H])c([H])c([H])c(OC([H])([H])[H])c1[H]


 28 30  0  0  0  0  0  0  0  0999 V2000
   -3.8949   -6.5387    6.6844 N   0  0  0  0  0  0  0  0  0  0  0  0
   -2.9144   -6.9677    7.5976 C   0  0  0  0  0  0  0  0  0  0  0  0
   -2.1035   -6.0775    8.2885 O   0  0  0  0  0  0  0  0  0  0  0  0
   -2.7451   -8.1812    7.8141 O   0  0  0  0  0  0  0  0  0  0  0  0
   -1.7342   -6.2622    9.2097 H   0  0  0  0  0  0  0  0  0  0  0  0
   -4.1075   -5.1308    6.4186 C   0  0  0  0  0  0  0  0  0  0  0  0
   -3.3560   -3.0520    3.3888 C   0  0  0  0  0  0  0  0  0  0  0  0
   -2.3660   -3.8169    2.8131 C   0  0  0  0  0  0  0  0  0  0  0  0
   -1.9316   -4.9946    3.3825 C   0  0  0  0  0  0  0  0  0  0  0  0
   -2.4907   -5.4428    4.5664 C   0  0  0  0  0  0  0  0  0  0  0  0
   -3.4797   -4.6943    5.1568 C   0  0  0  0  0  0  0  0  0  0  0  0
   -3.8974   -3.5259    4.5744 C   0  0  0  0  0  0  0  0  0  0  0  0
   -4.0918   -0.7367    3.5636 C   0  0  0  0  0  0  0  0  0  0  0  0
   -3.7771   -1.8715    2.7989 O   0  0  0  0  0  0  0  0  0  0  0  0
   -4.7069   -7.5198    5.9968 C   0  0  0  0  0  0  0  0  0  0  0  0
   -6.0803   -7.5900    6.5435 C   0  0  0  0  0  0  0  0  0  0  0  0
   -6.4768   -8.6822    7.2876 C   0  0  0  0  0  0  0  0  0  0  0  0
   -7.7753   -8.7306    7.7959 C   0  0  0  0  0  0  0  0  0  0  0  0
   -8.6929   -7.7224    7.5852 C   0  0  0  0  0  0  0  0  0  0  0  0
   -8.2616   -6.6376    6.8323 C   0  0  0  0  0  0  0  0  0  0  0  0
   -6.9814   -6.5731    6.3220 C   0  0  0  0  0  0  0  0  0  0  0  0
  -10.0539   -7.7553    8.1083 C   0  0  0  0  0  0  0  0  0  0  0  0
  -10.9138   -8.8171    7.9093 C   0  0  0  0  0  0  0  0  0  0  0  0
  -12.2012   -8.8231    8.4173 C   0  0  0  0  0  0  0  0  0  0  0  0
  -12.6705   -7.7437    9.1528 C   0  0  0  0  0  0  0  0  0  0  0  0
  -14.3007   -7.7529    9.7955 Cl  0  0  0  0  0  0  0  0  0  0  0  0
  -11.8243   -6.6796    9.3583 C   0  0  0  0  0  0  0  0  0  0  0  0
  -10.5445   -6.6948    8.8427 C   0  0  0  0  0  0  0  0  0  0  0  0
 13 14  1  0  0  0
 14  7  1  0  0  0
  7  8  2  0  0  0
  8  9  1  0  0  0
  9 10  2  0  0  0
 10 11  1  0  0  0
 11  6  1  0  0  0
  6  1  1  0  0  0
  1 15  1  0  0  0
 15 16  1  0  0  0
 16 17  2  0  0  0
 17 18  1  0  0  0
 18 19  2  0  0  0
 19 20  1  0  0  0
 20 21  2  0  0  0
 19 22  1  0  0  0
 22 23  2  0  0  0
 23 24  1  0  0  0
 24 25  2  0  0  0
 25 26  1  0  0  0
 25 27  1  0  0  0
 27 28  2  0  0  0
  1  2  1  0  0  0
  2  3  1  0  0  0
  2  4  2  0  0  0
 11 12  2  0  0  0
 12  7  1  0  0  0
 21 16  1  0  0  0
 28 22  1  0  0  0
  3  5  1  0  0  0
M  END
> <minimizedAffinity>
-7.70500

> <CNNscore>
0.3849789202

> <CNNaffinity>
5.2550249100

> <CNN_VS>
2.0230739117

> <CNNaffinity_variance>
0.2962603569

$$$$
[H]OC(=O)N(C([H])([H])c1c([H])c([H])c(-c2c([H])c([H])c(Cl)c([H])c2[H])c([H])c1[H])C([H])([H])c1c([H])c([H])c([H])c(OC([H])([H])[H])c1[H]


 28 30  0  0  0  0  0  0  0  0999 V2000
   -4.0479   -7.3565    7.1243 N   0  0  0  0  0  0  0  0  0  0  0  0
   -2.8403   -7.9989    7.4539 C   0  0  0  0  0  0  0  0  0  0  0  0
   -1.9100   -7.4334    8.3153 O   0  0  0  0  0  0  0  0  0  0  0  0
   -2.5695   -9.1134    6.9717 O   0  0  0  0  0  0  0  0  0  0  0  0
   -1.2983   -7.9767    8.9067 H   0  0  0  0  0  0  0  0  0  0  0  0
   -4.3817   -6.0590    7.6750 C   0  0  0  0  0  0  0  0  0  0  0  0
   -2.7640   -2.8158    6.7109 C   0  0  0  0  0  0  0  0  0  0  0  0
   -2.9598   -2.8462    5.3481 C   0  0  0  0  0  0  0  0  0  0  0  0
   -3.6050   -3.8948    4.7282 C   0  0  0  0  0  0  0  0  0  0  0  0
   -4.0789   -4.9593    5.4749 C   0  0  0  0  0  0  0  0  0  0  0  0
   -3.8936   -4.9480    6.8359 C   0  0  0  0  0  0  0  0  0  0  0  0
   -3.2493   -3.8958    7.4330 C   0  0  0  0  0  0  0  0  0  0  0  0
   -2.3509   -1.4038    8.6521 C   0  0  0  0  0  0  0  0  0  0  0  0
   -2.1128   -1.7515    7.3128 O   0  0  0  0  0  0  0  0  0  0  0  0
   -4.9748   -8.0014    6.2190 C   0  0  0  0  0  0  0  0  0  0  0  0
   -6.3691   -7.9418    6.7112 C   0  0  0  0  0  0  0  0  0  0  0  0
   -7.1444   -6.8266    6.4685 C   0  0  0  0  0  0  0  0  0  0  0  0
   -8.4573   -6.7887    6.9394 C   0  0  0  0  0  0  0  0  0  0  0  0
   -9.0226   -7.8297    7.6462 C   0  0  0  0  0  0  0  0  0  0  0  0
   -8.2152   -8.9370    7.8732 C   0  0  0  0  0  0  0  0  0  0  0  0
   -6.9150   -8.9915    7.4149 C   0  0  0  0  0  0  0  0  0  0  0  0
  -10.3925   -7.8081    8.1461 C   0  0  0  0  0  0  0  0  0  0  0  0
  -10.9125   -6.7597    8.8789 C   0  0  0  0  0  0  0  0  0  0  0  0
  -12.2170   -6.7643    9.3414 C   0  0  0  0  0  0  0  0  0  0  0  0
  -13.0516   -7.8412    9.0767 C   0  0  0  0  0  0  0  0  0  0  0  0
  -14.7031   -7.8455    9.6627 Cl  0  0  0  0  0  0  0  0  0  0  0  0
  -12.5463   -8.8921    8.3480 C   0  0  0  0  0  0  0  0  0  0  0  0
  -11.2426   -8.8664    7.8966 C   0  0  0  0  0  0  0  0  0  0  0  0
 13 14  1  0  0  0
 14  7  1  0  0  0
  7  8  2  0  0  0
  8  9  1  0  0  0
  9 10  2  0  0  0
 10 11  1  0  0  0
 11  6  1  0  0  0
  6  1  1  0  0  0
  1 15  1  0  0  0
 15 16  1  0  0  0
 16 17  2  0  0  0
 17 18  1  0  0  0
 18 19  2  0  0  0
 19 20  1  0  0  0
 20 21  2  0  0  0
 19 22  1  0  0  0
 22 23  2  0  0  0
 23 24  1  0  0  0
 24 25  2  0  0  0
 25 26  1  0  0  0
 25 27  1  0  0  0
 27 28  2  0  0  0
  1  2  1  0  0  0
  2  3  1  0  0  0
  2  4  2  0  0  0
 11 12  2  0  0  0
 12  7  1  0  0  0
 21 16  1  0  0  0
 28 22  1  0  0  0
  3  5  1  0  0  0
M  END
> <minimizedAffinity>
-7.61526

> <CNNscore>
0.3837229908

> <CNNaffinity>
5.3409738541

> <CNN_VS>
2.0494544506

> <CNNaffinity_variance>
0.3328287005

$$$$
[H]OC(=O)N(C([H])([H])c1c([H])c([H])c(-c2c([H])c([H])c(Cl)c([H])c2[H])c([H])c1[H])C([H])([H])c1c([H])c([H])c([H])c(OC([H])([H])[H])c1[H]


 28 30  0  0  0  0  0  0  0  0999 V2000
   -3.5796   -6.6681    7.0172 N   0  0  0  0  0  0  0  0  0  0  0  0
   -2.5834   -7.4076    7.6806 C   0  0  0  0  0  0  0  0  0  0  0  0
   -1.6599   -6.8134    8.5300 O   0  0  0  0  0  0  0  0  0  0  0  0
   -2.5026   -8.6386    7.5197 O   0  0  0  0  0  0  0  0  0  0  0  0
   -1.2509   -7.2850    9.3234 H   0  0  0  0  0  0  0  0  0  0  0  0
   -3.6904   -5.2344    7.1912 C   0  0  0  0  0  0  0  0  0  0  0  0
   -2.8408   -3.4143   10.3583 C   0  0  0  0  0  0  0  0  0  0  0  0
   -3.6922   -4.0490   11.2352 C   0  0  0  0  0  0  0  0  0  0  0  0
   -4.5398   -5.0564   10.8268 C   0  0  0  0  0  0  0  0  0  0  0  0
   -4.5543   -5.4596    9.5031 C   0  0  0  0  0  0  0  0  0  0  0  0
   -3.7125   -4.8391    8.6124 C   0  0  0  0  0  0  0  0  0  0  0  0
   -2.8773   -3.8393    9.0387 C   0  0  0  0  0  0  0  0  0  0  0  0
   -2.3842   -1.4986   11.7917 C   0  0  0  0  0  0  0  0  0  0  0  0
   -1.9972   -2.4041   10.7908 O   0  0  0  0  0  0  0  0  0  0  0  0
   -4.5115   -7.3497    6.1445 C   0  0  0  0  0  0  0  0  0  0  0  0
   -5.8828   -7.3725    6.7005 C   0  0  0  0  0  0  0  0  0  0  0  0
   -6.1719   -8.1481    7.8044 C   0  0  0  0  0  0  0  0  0  0  0  0
   -7.4703   -8.1563    8.3154 C   0  0  0  0  0  0  0  0  0  0  0  0
   -8.4915   -7.4142    7.7593 C   0  0  0  0  0  0  0  0  0  0  0  0
   -8.1666   -6.6447    6.6494 C   0  0  0  0  0  0  0  0  0  0  0  0
   -6.8883   -6.6246    6.1308 C   0  0  0  0  0  0  0  0  0  0  0  0
   -9.8540   -7.4101    8.2793 C   0  0  0  0  0  0  0  0  0  0  0  0
  -10.3682   -6.3801    9.0417 C   0  0  0  0  0  0  0  0  0  0  0  0
  -11.6658   -6.4010    9.5228 C   0  0  0  0  0  0  0  0  0  0  0  0
  -12.4992   -7.4762    9.2473 C   0  0  0  0  0  0  0  0  0  0  0  0
  -14.1419   -7.5011    9.8568 Cl  0  0  0  0  0  0  0  0  0  0  0  0
  -11.9996   -8.5087    8.4890 C   0  0  0  0  0  0  0  0  0  0  0  0
  -10.7027   -8.4670    8.0195 C   0  0  0  0  0  0  0  0  0  0  0  0
 13 14  1  0  0  0
 14  7  1  0  0  0
  7  8  2  0  0  0
  8  9  1  0  0  0
  9 10  2  0  0  0
 10 11  1  0  0  0
 11  6  1  0  0  0
  6  1  1  0  0  0
  1 15  1  0  0  0
 15 16  1  0  0  0
 16 17  2  0  0  0
 17 18  1  0  0  0
 18 19  2  0  0  0
 19 20  1  0  0  0
 20 21  2  0  0  0
 19 22  1  0  0  0
 22 23  2  0  0  0
 23 24  1  0  0  0
 24 25  2  0  0  0
 25 26  1  0  0  0
 25 27  1  0  0  0
 27 28  2  0  0  0
  1  2  1  0  0  0
  2  3  1  0  0  0
  2  4  2  0  0  0
 11 12  2  0  0  0
 12  7  1  0  0  0
 21 16  1  0  0  0
 28 22  1  0  0  0
  3  5  1  0  0  0
M  END
> <minimizedAffinity>
-6.98441

> <CNNscore>
0.3722120225

> <CNNaffinity>
5.2405633926

> <CNN_VS>
1.9506007433

> <CNNaffinity_variance>
0.2524313331

$$$$
[H]OC(=O)N(C([H])([H])c1c([H])c([H])c(-c2c([H])c([H])c(Cl)c([H])c2[H])c([H])c1[H])C([H])([H])c1c([H])c([H])c([H])c(OC([H])([H])[H])c1[H]


 28 30  0  0  0  0  0  0  0  0999 V2000
  -13.9712   -9.3207    8.8848 N   0  0  0  0  0  0  0  0  0  0  0  0
  -14.7857   -8.6025    9.7792 C   0  0  0  0  0  0  0  0  0  0  0  0
  -14.3573   -8.2463   11.0508 O   0  0  0  0  0  0  0  0  0  0  0  0
  -15.9350   -8.2609    9.4468 O   0  0  0  0  0  0  0  0  0  0  0  0
  -14.6723   -7.4162   11.5312 H   0  0  0  0  0  0  0  0  0  0  0  0
  -12.6306   -9.7276    9.2527 C   0  0  0  0  0  0  0  0  0  0  0  0
  -10.6826   -6.5352    8.9714 C   0  0  0  0  0  0  0  0  0  0  0  0
   -9.7416   -6.9102    8.0384 C   0  0  0  0  0  0  0  0  0  0  0  0
   -9.7197   -8.1765    7.4945 C   0  0  0  0  0  0  0  0  0  0  0  0
  -10.6596   -9.1160    7.8806 C   0  0  0  0  0  0  0  0  0  0  0  0
  -11.6069   -8.7618    8.8101 C   0  0  0  0  0  0  0  0  0  0  0  0
  -11.6114   -7.4972    9.3390 C   0  0  0  0  0  0  0  0  0  0  0  0
  -11.6006   -4.8754   10.4995 C   0  0  0  0  0  0  0  0  0  0  0  0
  -10.6858   -5.2567    9.5049 O   0  0  0  0  0  0  0  0  0  0  0  0
  -14.4795   -9.6607    7.5731 C   0  0  0  0  0  0  0  0  0  0  0  0
  -14.7126   -8.4623    6.7367 C   0  0  0  0  0  0  0  0  0  0  0  0
  -13.6773   -7.5907    6.4679 C   0  0  0  0  0  0  0  0  0  0  0  0
  -13.9156   -6.4666    5.6764 C   0  0  0  0  0  0  0  0  0  0  0  0
  -15.1560   -6.1834    5.1435 C   0  0  0  0  0  0  0  0  0  0  0  0
  -16.1759   -7.0810    5.4332 C   0  0  0  0  0  0  0  0  0  0  0  0
  -15.9583   -8.1974    6.2139 C   0  0  0  0  0  0  0  0  0  0  0  0
  -15.4239   -5.0139    4.3144 C   0  0  0  0  0  0  0  0  0  0  0  0
  -14.5238   -3.9791    4.1548 C   0  0  0  0  0  0  0  0  0  0  0  0
  -14.8032   -2.8801    3.3613 C   0  0  0  0  0  0  0  0  0  0  0  0
  -16.0162   -2.7869    2.6934 C   0  0  0  0  0  0  0  0  0  0  0  0
  -16.3684   -1.3949    1.6888 Cl  0  0  0  0  0  0  0  0  0  0  0  0
  -16.9218   -3.8107    2.8436 C   0  0  0  0  0  0  0  0  0  0  0  0
  -16.6223   -4.8972    3.6397 C   0  0  0  0  0  0  0  0  0  0  0  0
 13 14  1  0  0  0
 14  7  1  0  0  0
  7  8  2  0  0  0
  8  9  1  0  0  0
  9 10  2  0  0  0
 10 11  1  0  0  0
 11  6  1  0  0  0
  6  1  1  0  0  0
  1 15  1  0  0  0
 15 16  1  0  0  0
 16 17  2  0  0  0
 17 18  1  0  0  0
 18 19  2  0  0  0
 19 20  1  0  0  0
 20 21  2  0  0  0
 19 22  1  0  0  0
 22 23  2  0  0  0
 23 24  1  0  0  0
 24 25  2  0  0  0
 25 26  1  0  0  0
 25 27  1  0  0  0
 27 28  2  0  0  0
  1  2  1  0  0  0
  2  3  1  0  0  0
  2  4  2  0  0  0
 11 12  2  0  0  0
 12  7  1  0  0  0
 21 16  1  0  0  0
 28 22  1  0  0  0
  3  5  1  0  0  0
M  END
> <minimizedAffinity>
1.39280

> <CNNscore>
0.3638194203

> <CNNaffinity>
6.0475840569

> <CNN_VS>
2.2002284527

> <CNNaffinity_variance>
0.6585322618

$$$$
[H]OC(=O)N(C([H])([H])c1c([H])c([H])c(-c2c([H])c([H])c(Cl)c([H])c2[H])c([H])c1[H])C([H])([H])c1c([H])c([H])c([H])c(OC([H])([H])[H])c1[H]


 28 30  0  0  0  0  0  0  0  0999 V2000
  -10.5284   -6.6589    9.0980 N   0  0  0  0  0  0  0  0  0  0  0  0
  -11.4027   -5.9207    9.9165 C   0  0  0  0  0  0  0  0  0  0  0  0
  -12.5312   -5.2865    9.4149 O   0  0  0  0  0  0  0  0  0  0  0  0
  -11.1825   -5.8149   11.1365 O   0  0  0  0  0  0  0  0  0  0  0  0
  -13.3733   -5.1430    9.9528 H   0  0  0  0  0  0  0  0  0  0  0  0
  -10.7672   -6.7939    7.6757 C   0  0  0  0  0  0  0  0  0  0  0  0
  -13.7846   -8.4049    6.1378 C   0  0  0  0  0  0  0  0  0  0  0  0
  -13.7375   -9.6368    6.7517 C   0  0  0  0  0  0  0  0  0  0  0  0
  -12.7491   -9.9629    7.6555 C   0  0  0  0  0  0  0  0  0  0  0  0
  -11.7646   -9.0432    7.9718 C   0  0  0  0  0  0  0  0  0  0  0  0
  -11.7937   -7.8086    7.3703 C   0  0  0  0  0  0  0  0  0  0  0  0
  -12.7853   -7.5041    6.4742 C   0  0  0  0  0  0  0  0  0  0  0  0
  -16.0227   -7.5774    5.6492 C   0  0  0  0  0  0  0  0  0  0  0  0
  -14.7874   -8.0988    5.2325 O   0  0  0  0  0  0  0  0  0  0  0  0
   -9.3688   -7.2955    9.6850 C   0  0  0  0  0  0  0  0  0  0  0  0
   -8.1705   -7.1753    8.8251 C   0  0  0  0  0  0  0  0  0  0  0  0
   -7.3222   -6.0958    8.9626 C   0  0  0  0  0  0  0  0  0  0  0  0
   -6.1966   -5.9997    8.1437 C   0  0  0  0  0  0  0  0  0  0  0  0
   -5.8894   -6.9479    7.1901 C   0  0  0  0  0  0  0  0  0  0  0  0
   -6.7637   -8.0215    7.0777 C   0  0  0  0  0  0  0  0  0  0  0  0
   -7.8813   -8.1326    7.8790 C   0  0  0  0  0  0  0  0  0  0  0  0
   -4.7178   -6.8645    6.3255 C   0  0  0  0  0  0  0  0  0  0  0  0
   -3.7944   -7.8839    6.2048 C   0  0  0  0  0  0  0  0  0  0  0  0
   -2.6907   -7.7791    5.3762 C   0  0  0  0  0  0  0  0  0  0  0  0
   -2.4789   -6.6269    4.6319 C   0  0  0  0  0  0  0  0  0  0  0  0
   -1.0812   -6.4958    3.5830 Cl  0  0  0  0  0  0  0  0  0  0  0  0
   -3.3910   -5.6040    4.7428 C   0  0  0  0  0  0  0  0  0  0  0  0
   -4.4844   -5.7301    5.5750 C   0  0  0  0  0  0  0  0  0  0  0  0
 13 14  1  0  0  0
 14  7  1  0  0  0
  7  8  2  0  0  0
  8  9  1  0  0  0
  9 10  2  0  0  0
 10 11  1  0  0  0
 11  6  1  0  0  0
  6  1  1  0  0  0
  1 15  1  0  0  0
 15 16  1  0  0  0
 16 17  2  0  0  0
 17 18  1  0  0  0
 18 19  2  0  0  0
 19 20  1  0  0  0
 20 21  2  0  0  0
 19 22  1  0  0  0
 22 23  2  0  0  0
 23 24  1  0  0  0
 24 25  2  0  0  0
 25 26  1  0  0  0
 25 27  1  0  0  0
 27 28  2  0  0  0
  1  2  1  0  0  0
  2  3  1  0  0  0
  2  4  2  0  0  0
 11 12  2  0  0  0
 12  7  1  0  0  0
 21 16  1  0  0  0
 28 22  1  0  0  0
  3  5  1  0  0  0
M  END
> <minimizedAffinity>
-0.34046

> <CNNscore>
0.3508971632

> <CNNaffinity>
5.7605524063

> <CNN_VS>
2.0213615894

> <CNNaffinity_variance>
1.4401527643

$$$$
[H]OC(=O)N(C([H])([H])c1c([H])c([H])c(-c2c([H])c([H])c(Cl)c([H])c2[H])c([H])c1[H])C([H])([H])c1c([H])c([H])c([H])c(OC([H])([H])[H])c1[H]


 28 30  0  0  0  0  0  0  0  0999 V2000
  -14.1236   -9.1885    1.6569 N   0  0  0  0  0  0  0  0  0  0  0  0
  -13.3457   -9.5066    0.5286 C   0  0  0  0  0  0  0  0  0  0  0  0
  -13.7391  -10.4618   -0.3988 O   0  0  0  0  0  0  0  0  0  0  0  0
  -12.2626   -8.9280    0.3286 O   0  0  0  0  0  0  0  0  0  0  0  0
  -13.4926  -10.4215   -1.3769 H   0  0  0  0  0  0  0  0  0  0  0  0
  -15.3873   -9.8507    1.9075 C   0  0  0  0  0  0  0  0  0  0  0  0
  -17.6979   -9.0843    4.7604 C   0  0  0  0  0  0  0  0  0  0  0  0
  -16.8329   -9.2472    5.8196 C   0  0  0  0  0  0  0  0  0  0  0  0
  -15.5136   -9.6010    5.6347 C   0  0  0  0  0  0  0  0  0  0  0  0
  -15.0200   -9.8040    4.3579 C   0  0  0  0  0  0  0  0  0  0  0  0
  -15.8667   -9.6466    3.2877 C   0  0  0  0  0  0  0  0  0  0  0  0
  -17.1754   -9.2944    3.4930 C   0  0  0  0  0  0  0  0  0  0  0  0
  -19.5049   -8.4123    6.2488 C   0  0  0  0  0  0  0  0  0  0  0  0
  -19.0202   -8.7283    4.9696 O   0  0  0  0  0  0  0  0  0  0  0  0
  -13.6550   -8.1822    2.5855 C   0  0  0  0  0  0  0  0  0  0  0  0
  -14.7546   -7.3259    3.0830 C   0  0  0  0  0  0  0  0  0  0  0  0
  -14.7255   -6.8375    4.3731 C   0  0  0  0  0  0  0  0  0  0  0  0
  -15.7707   -6.0307    4.8244 C   0  0  0  0  0  0  0  0  0  0  0  0
  -16.8462   -5.6951    4.0285 C   0  0  0  0  0  0  0  0  0  0  0  0
  -16.8444   -6.2032    2.7356 C   0  0  0  0  0  0  0  0  0  0  0  0
  -15.8194   -7.0023    2.2727 C   0  0  0  0  0  0  0  0  0  0  0  0
  -17.9473   -4.8535    4.4826 C   0  0  0  0  0  0  0  0  0  0  0  0
  -19.2673   -5.0975    4.1590 C   0  0  0  0  0  0  0  0  0  0  0  0
  -20.2939   -4.2826    4.6037 C   0  0  0  0  0  0  0  0  0  0  0  0
  -20.0195   -3.1796    5.4003 C   0  0  0  0  0  0  0  0  0  0  0  0
  -21.3204   -2.1491    5.9628 Cl  0  0  0  0  0  0  0  0  0  0  0  0
  -18.7090   -2.9252    5.7299 C   0  0  0  0  0  0  0  0  0  0  0  0
  -17.7012   -3.7510    5.2755 C   0  0  0  0  0  0  0  0  0  0  0  0
 13 14  1  0  0  0
 14  7  1  0  0  0
  7  8  2  0  0  0
  8  9  1  0  0  0
  9 10  2  0  0  0
 10 11  1  0  0  0
 11  6  1  0  0  0
  6  1  1  0  0  0
  1 15  1  0  0  0
 15 16  1  0  0  0
 16 17  2  0  0  0
 17 18  1  0  0  0
 18 19  2  0  0  0
 19 20  1  0  0  0
 20 21  2  0  0  0
 19 22  1  0  0  0
 22 23  2  0  0  0
 23 24  1  0  0  0
 24 25  2  0  0  0
 25 26  1  0  0  0
 25 27  1  0  0  0
 27 28  2  0  0  0
  1  2  1  0  0  0
  2  3  1  0  0  0
  2  4  2  0  0  0
 11 12  2  0  0  0
 12  7  1  0  0  0
 21 16  1  0  0  0
 28 22  1  0  0  0
  3  5  1  0  0  0
M  END
> <minimizedAffinity>
29.38140

> <CNNscore>
0.3414122164

> <CNNaffinity>
5.7126951218

> <CNN_VS>
1.9503839016

> <CNNaffinity_variance>
0.8254407048

$$$$
[H]c1nc2c(c(N([H])[H])n1)C([H])([H])C([H])([H])N(S(=O)(=O)c1c([H])c([H])c(C(F)(F)F)c([H])c1[H])c1c([H])c([H])c([H])c([H])c1-2


 31 34  0  0  0  0  0  0  0  0999 V2000
  -12.3731   -8.9144    8.4300 N   0  0  0  0  0  0  0  0  0  0  0  0
  -13.1101   -8.5936    9.6779 C   0  0  0  0  0  0  0  0  0  0  0  0
  -13.6453   -7.2021    9.7037 C   0  0  0  0  0  0  0  0  0  0  0  0
  -12.6091   -6.1434    9.8393 C   0  0  0  0  0  0  0  0  0  0  0  0
  -13.0436   -5.0772   10.6084 C   0  0  0  0  0  0  0  0  0  0  0  0
  -14.3654   -5.1842   11.1258 N   0  0  0  0  0  0  0  0  0  0  0  0
  -12.2472   -4.0091   10.8481 N   0  0  0  0  0  0  0  0  0  0  0  0
  -11.0195   -3.9616   10.3445 C   0  0  0  0  0  0  0  0  0  0  0  0
  -10.5797   -4.9896    9.5919 N   0  0  0  0  0  0  0  0  0  0  0  0
  -11.3320   -6.0578    9.3327 C   0  0  0  0  0  0  0  0  0  0  0  0
  -10.6585   -7.0432    8.5010 C   0  0  0  0  0  0  0  0  0  0  0  0
   -9.4194   -6.6418    8.0651 C   0  0  0  0  0  0  0  0  0  0  0  0
   -8.6647   -7.4753    7.2668 C   0  0  0  0  0  0  0  0  0  0  0  0
   -9.1388   -8.7246    6.8943 C   0  0  0  0  0  0  0  0  0  0  0  0
  -10.3821   -9.1497    7.3227 C   0  0  0  0  0  0  0  0  0  0  0  0
  -11.1274   -8.3120    8.1159 C   0  0  0  0  0  0  0  0  0  0  0  0
  -14.4434   -5.2862   12.1565 H   0  0  0  0  0  0  0  0  0  0  0  0
  -15.1377   -5.1609   10.4600 H   0  0  0  0  0  0  0  0  0  0  0  0
  -13.1243   -9.9938    7.3606 S   0  0  0  0  0  0  0  0  0  0  0  0
  -13.8272  -11.1743    7.8314 O   0  0  0  0  0  0  0  0  0  0  0  0
  -12.1287  -10.3921    6.2502 O   0  0  0  0  0  0  0  0  0  0  0  0
  -16.2902   -7.6343    5.0214 C   0  0  0  0  0  0  0  0  0  0  0  0
  -16.3542   -7.7523    6.3901 C   0  0  0  0  0  0  0  0  0  0  0  0
  -15.3984   -8.4460    7.0931 C   0  0  0  0  0  0  0  0  0  0  0  0
  -14.3235   -9.0597    6.4757 C   0  0  0  0  0  0  0  0  0  0  0  0
  -14.2892   -8.9178    5.0865 C   0  0  0  0  0  0  0  0  0  0  0  0
  -15.2408   -8.2286    4.3757 C   0  0  0  0  0  0  0  0  0  0  0  0
  -16.8804   -6.6261    2.9800 F   0  0  0  0  0  0  0  0  0  0  0  0
  -17.3473   -6.8854    4.2491 C   0  0  0  0  0  0  0  0  0  0  0  0
  -18.4927   -7.6434    4.1452 F   0  0  0  0  0  0  0  0  0  0  0  0
  -17.7119   -5.7327    4.9157 F   0  0  0  0  0  0  0  0  0  0  0  0
 28 29  1  0  0  0
 29 30  1  0  0  0
 29 31  1  0  0  0
 29 22  1  0  0  0
 22 23  2  0  0  0
 23 24  1  0  0  0
 24 25  2  0  0  0
 25 26  1  0  0  0
 26 27  2  0  0  0
 25 19  1  0  0  0
 19 20  2  0  0  0
 19 21  2  0  0  0
 19  1  1  0  0  0
  1  2  1  0  0  0
  2  3  1  0  0  0
  3  4  1  0  0  0
  4  5  2  0  0  0
  5  6  1  0  0  0
  5  7  1  0  0  0
  7  8  2  0  0  0
  8  9  1  0  0  0
  9 10  2  0  0  0
 10 11  1  0  0  0
 11 12  2  0  0  0
 12 13  1  0  0  0
 13 14  2  0  0  0
 14 15  1  0  0  0
 15 16  2  0  0  0
 27 22  1  0  0  0
 16  1  1  0  0  0
 10  4  1  0  0  0
 16 11  1  0  0  0
  6 17  1  0  0  0
  6 18  1  0  0  0
M  END
> <minimizedAffinity>
-4.04519

> <CNNscore>
0.5433380604

> <CNNaffinity>
7.2862968445

> <CNN_VS>
3.9589223862

> <CNNaffinity_variance>
0.3961027563

$$$$
[H]c1nc2c(c(N([H])[H])n1)C([H])([H])C([H])([H])N(S(=O)(=O)c1c([H])c([H])c(C(F)(F)F)c([H])c1[H])c1c([H])c([H])c([H])c([H])c1-2


 31 34  0  0  0  0  0  0  0  0999 V2000
   -9.6629   -7.0310    8.0903 N   0  0  0  0  0  0  0  0  0  0  0  0
   -9.3837   -8.4694    7.8530 C   0  0  0  0  0  0  0  0  0  0  0  0
  -10.4280   -9.1430    7.0289 C   0  0  0  0  0  0  0  0  0  0  0  0
  -11.7326   -9.3327    7.7180 C   0  0  0  0  0  0  0  0  0  0  0  0
  -12.3477  -10.5210    7.3624 C   0  0  0  0  0  0  0  0  0  0  0  0
  -11.6382  -11.3322    6.4324 N   0  0  0  0  0  0  0  0  0  0  0  0
  -13.5471  -10.8771    7.8794 N   0  0  0  0  0  0  0  0  0  0  0  0
  -14.1650  -10.0850    8.7476 C   0  0  0  0  0  0  0  0  0  0  0  0
  -13.5822   -8.9232    9.1045 N   0  0  0  0  0  0  0  0  0  0  0  0
  -12.4037   -8.5367    8.6187 C   0  0  0  0  0  0  0  0  0  0  0  0
  -11.9648   -7.2510    9.1387 C   0  0  0  0  0  0  0  0  0  0  0  0
  -12.8888   -6.6409    9.9514 C   0  0  0  0  0  0  0  0  0  0  0  0
  -12.6087   -5.4147   10.5165 C   0  0  0  0  0  0  0  0  0  0  0  0
  -11.3977   -4.7815   10.2778 C   0  0  0  0  0  0  0  0  0  0  0  0
  -10.4526   -5.3777    9.4647 C   0  0  0  0  0  0  0  0  0  0  0  0
  -10.7412   -6.5982    8.9047 C   0  0  0  0  0  0  0  0  0  0  0  0
  -11.2757  -12.2337    6.7992 H   0  0  0  0  0  0  0  0  0  0  0  0
  -11.5278  -10.9773    5.4825 H   0  0  0  0  0  0  0  0  0  0  0  0
   -8.6649   -5.9212    7.2870 S   0  0  0  0  0  0  0  0  0  0  0  0
   -8.4518   -4.5764    7.7928 O   0  0  0  0  0  0  0  0  0  0  0  0
   -9.0639   -5.8572    5.7972 O   0  0  0  0  0  0  0  0  0  0  0  0
   -4.5149   -7.8779    7.1829 C   0  0  0  0  0  0  0  0  0  0  0  0
   -5.4862   -8.2144    6.2693 C   0  0  0  0  0  0  0  0  0  0  0  0
   -6.7244   -7.6181    6.2902 C   0  0  0  0  0  0  0  0  0  0  0  0
   -7.0664   -6.6519    7.2190 C   0  0  0  0  0  0  0  0  0  0  0  0
   -6.0559   -6.3336    8.1293 C   0  0  0  0  0  0  0  0  0  0  0  0
   -4.8169   -6.9256    8.1173 C   0  0  0  0  0  0  0  0  0  0  0  0
   -2.4148   -8.0252    6.1340 F   0  0  0  0  0  0  0  0  0  0  0  0
   -3.1614   -8.5432    7.1686 C   0  0  0  0  0  0  0  0  0  0  0  0
   -2.4955   -8.3013    8.3498 F   0  0  0  0  0  0  0  0  0  0  0  0
   -3.2941   -9.9145    7.0794 F   0  0  0  0  0  0  0  0  0  0  0  0
 28 29  1  0  0  0
 29 30  1  0  0  0
 29 31  1  0  0  0
 29 22  1  0  0  0
 22 23  2  0  0  0
 23 24  1  0  0  0
 24 25  2  0  0  0
 25 26  1  0  0  0
 26 27  2  0  0  0
 25 19  1  0  0  0
 19 20  2  0  0  0
 19 21  2  0  0  0
 19  1  1  0  0  0
  1  2  1  0  0  0
  2  3  1  0  0  0
  3  4  1  0  0  0
  4  5  2  0  0  0
  5  6  1  0  0  0
  5  7  1  0  0  0
  7  8  2  0  0  0
  8  9  1  0  0  0
  9 10  2  0  0  0
 10 11  1  0  0  0
 11 12  2  0  0  0
 12 13  1  0  0  0
 13 14  2  0  0  0
 14 15  1  0  0  0
 15 16  2  0  0  0
 27 22  1  0  0  0
 16  1  1  0  0  0
 10  4  1  0  0  0
 16 11  1  0  0  0
  6 17  1  0  0  0
  6 18  1  0  0  0
M  END
> <minimizedAffinity>
1.39867

> <CNNscore>
0.4283428192

> <CNNaffinity>
6.5767641068

> <CNN_VS>
2.8171095848

> <CNNaffinity_variance>
0.6211749315

$$$$
[H]c1nc2c(c(N([H])[H])n1)C([H])([H])C([H])([H])N(S(=O)(=O)c1c([H])c([H])c(C(F)(F)F)c([H])c1[H])c1c([H])c([H])c([H])c([H])c1-2


 31 34  0  0  0  0  0  0  0  0999 V2000
  -14.4536   -6.9647    6.0932 N   0  0  0  0  0  0  0  0  0  0  0  0
  -13.8371   -8.2402    5.6502 C   0  0  0  0  0  0  0  0  0  0  0  0
  -14.1893   -9.3976    6.5218 C   0  0  0  0  0  0  0  0  0  0  0  0
  -13.5672   -9.3664    7.8727 C   0  0  0  0  0  0  0  0  0  0  0  0
  -13.2259  -10.6300    8.3243 C   0  0  0  0  0  0  0  0  0  0  0  0
  -13.5152  -11.7046    7.4366 N   0  0  0  0  0  0  0  0  0  0  0  0
  -12.6494  -10.8149    9.5351 N   0  0  0  0  0  0  0  0  0  0  0  0
  -12.3970   -9.7765   10.3231 C   0  0  0  0  0  0  0  0  0  0  0  0
  -12.7237   -8.5389    9.9011 N   0  0  0  0  0  0  0  0  0  0  0  0
  -13.2922   -8.3149    8.7176 C   0  0  0  0  0  0  0  0  0  0  0  0
  -13.5588   -6.9067    8.4687 C   0  0  0  0  0  0  0  0  0  0  0  0
  -13.2639   -6.0932    9.5353 C   0  0  0  0  0  0  0  0  0  0  0  0
  -13.4667   -4.7323    9.4427 C   0  0  0  0  0  0  0  0  0  0  0  0
  -13.9664   -4.1652    8.2795 C   0  0  0  0  0  0  0  0  0  0  0  0
  -14.2685   -4.9644    7.1934 C   0  0  0  0  0  0  0  0  0  0  0  0
  -14.0650   -6.3189    7.2954 C   0  0  0  0  0  0  0  0  0  0  0  0
  -12.6933  -12.1949    7.0331 H   0  0  0  0  0  0  0  0  0  0  0  0
  -14.4960  -11.9152    7.2521 H   0  0  0  0  0  0  0  0  0  0  0  0
  -15.6961   -6.3441    5.1216 S   0  0  0  0  0  0  0  0  0  0  0  0
  -15.5949   -6.3168    3.6730 O   0  0  0  0  0  0  0  0  0  0  0  0
  -16.1031   -4.9478    5.6390 O   0  0  0  0  0  0  0  0  0  0  0  0
  -19.3779   -8.9343    6.0144 C   0  0  0  0  0  0  0  0  0  0  0  0
  -18.6693   -8.3279    7.0251 C   0  0  0  0  0  0  0  0  0  0  0  0
  -17.5755   -7.5397    6.7578 C   0  0  0  0  0  0  0  0  0  0  0  0
  -17.1255   -7.3078    5.4706 C   0  0  0  0  0  0  0  0  0  0  0  0
  -17.8695   -7.9371    4.4698 C   0  0  0  0  0  0  0  0  0  0  0  0
  -18.9622   -8.7279    4.7276 C   0  0  0  0  0  0  0  0  0  0  0  0
  -21.6851   -9.0191    6.4639 F   0  0  0  0  0  0  0  0  0  0  0  0
  -20.5692   -9.8110    6.3093 C   0  0  0  0  0  0  0  0  0  0  0  0
  -20.7942  -10.6815    5.2659 F   0  0  0  0  0  0  0  0  0  0  0  0
  -20.3315  -10.5981    7.4183 F   0  0  0  0  0  0  0  0  0  0  0  0
 28 29  1  0  0  0
 29 30  1  0  0  0
 29 31  1  0  0  0
 29 22  1  0  0  0
 22 23  2  0  0  0
 23 24  1  0  0  0
 24 25  2  0  0  0
 25 26  1  0  0  0
 26 27  2  0  0  0
 25 19  1  0  0  0
 19 20  2  0  0  0
 19 21  2  0  0  0
 19  1  1  0  0  0
  1  2  1  0  0  0
  2  3  1  0  0  0
  3  4  1  0  0  0
  4  5  2  0  0  0
  5  6  1  0  0  0
  5  7  1  0  0  0
  7  8  2  0  0  0
  8  9  1  0  0  0
  9 10  2  0  0  0
 10 11  1  0  0  0
 11 12  2  0  0  0
 12 13  1  0  0  0
 13 14  2  0  0  0
 14 15  1  0  0  0
 15 16  2  0  0  0
 27 22  1  0  0  0
 16  1  1  0  0  0
 10  4  1  0  0  0
 16 11  1  0  0  0
  6 17  1  0  0  0
  6 18  1  0  0  0
M  END
> <minimizedAffinity>
14.01150

> <CNNscore>
0.4085957706

> <CNNaffinity>
6.3892388344

> <CNN_VS>
2.6106159687

> <CNNaffinity_variance>
0.6734566092

$$$$
[H]c1nc2c(c(N([H])[H])n1)C([H])([H])C([H])([H])N(S(=O)(=O)c1c([H])c([H])c(C(F)(F)F)c([H])c1[H])c1c([H])c([H])c([H])c([H])c1-2


 31 34  0  0  0  0  0  0  0  0999 V2000
   -9.6896   -7.0430    8.1080 N   0  0  0  0  0  0  0  0  0  0  0  0
   -9.4311   -8.4880    7.8886 C   0  0  0  0  0  0  0  0  0  0  0  0
  -10.4580   -9.1456    7.0304 C   0  0  0  0  0  0  0  0  0  0  0  0
  -11.7904   -9.3052    7.6724 C   0  0  0  0  0  0  0  0  0  0  0  0
  -12.4160  -10.4831    7.3008 C   0  0  0  0  0  0  0  0  0  0  0  0
  -11.6895  -11.3137    6.4015 N   0  0  0  0  0  0  0  0  0  0  0  0
  -13.6403  -10.8121    7.7755 N   0  0  0  0  0  0  0  0  0  0  0  0
  -14.2733  -10.0026    8.6163 C   0  0  0  0  0  0  0  0  0  0  0  0
  -13.6806   -8.8506    8.9882 N   0  0  0  0  0  0  0  0  0  0  0  0
  -12.4777   -8.4906    8.5437 C   0  0  0  0  0  0  0  0  0  0  0  0
  -12.0322   -7.2108    9.0728 C   0  0  0  0  0  0  0  0  0  0  0  0
  -12.9727   -6.5776    9.8479 C   0  0  0  0  0  0  0  0  0  0  0  0
  -12.6886   -5.3538   10.4165 C   0  0  0  0  0  0  0  0  0  0  0  0
  -11.4573   -4.7463   10.2188 C   0  0  0  0  0  0  0  0  0  0  0  0
  -10.4954   -5.3661    9.4439 C   0  0  0  0  0  0  0  0  0  0  0  0
  -10.7880   -6.5839    8.8801 C   0  0  0  0  0  0  0  0  0  0  0  0
  -11.3589  -12.2201    6.7861 H   0  0  0  0  0  0  0  0  0  0  0  0
  -11.5375  -10.9668    5.4546 H   0  0  0  0  0  0  0  0  0  0  0  0
   -8.6409   -5.9581    7.3358 S   0  0  0  0  0  0  0  0  0  0  0  0
   -8.3995   -4.6238    7.8564 O   0  0  0  0  0  0  0  0  0  0  0  0
   -9.0037   -5.8720    5.8379 O   0  0  0  0  0  0  0  0  0  0  0  0
   -4.5026   -7.9351    7.1676 C   0  0  0  0  0  0  0  0  0  0  0  0
   -4.8230   -7.0318    8.1540 C   0  0  0  0  0  0  0  0  0  0  0  0
   -6.0670   -6.4505    8.2141 C   0  0  0  0  0  0  0  0  0  0  0  0
   -7.0638   -6.7359    7.2986 C   0  0  0  0  0  0  0  0  0  0  0  0
   -6.7045   -7.6582    6.3129 C   0  0  0  0  0  0  0  0  0  0  0  0
   -5.4636   -8.2422    6.2438 C   0  0  0  0  0  0  0  0  0  0  0  0
   -2.2386   -7.7745    7.7848 F   0  0  0  0  0  0  0  0  0  0  0  0
   -3.1326   -8.5614    7.0937 C   0  0  0  0  0  0  0  0  0  0  0  0
   -3.1458   -9.8131    7.6684 F   0  0  0  0  0  0  0  0  0  0  0  0
   -2.7536   -8.7491    5.7794 F   0  0  0  0  0  0  0  0  0  0  0  0
 28 29  1  0  0  0
 29 30  1  0  0  0
 29 31  1  0  0  0
 29 22  1  0  0  0
 22 23  2  0  0  0
 23 24  1  0  0  0
 24 25  2  0  0  0
 25 26  1  0  0  0
 26 27  2  0  0  0
 25 19  1  0  0  0
 19 20  2  0  0  0
 19 21  2  0  0  0
 19  1  1  0  0  0
  1  2  1  0  0  0
  2  3  1  0  0  0
  3  4  1  0  0  0
  4  5  2  0  0  0
  5  6  1  0  0  0
  5  7  1  0  0  0
  7  8  2  0  0  0
  8  9  1  0  0  0
  9 10  2  0  0  0
 10 11  1  0  0  0
 11 12  2  0  0  0
 12 13  1  0  0  0
 13 14  2  0  0  0
 14 15  1  0  0  0
 15 16  2  0  0  0
 27 22  1  0  0  0
 16  1  1  0  0  0
 10  4  1  0  0  0
 16 11  1  0  0  0
  6 17  1  0  0  0
  6 18  1  0  0  0
M  END
> <minimizedAffinity>
0.71011

> <CNNscore>
0.4030854404

> <CNNaffinity>
6.5871763229

> <CNN_VS>
2.6551947594

> <CNNaffinity_variance>
0.5277093053

$$$$
[H]c1nc2c(c(N([H])[H])n1)C([H])([H])C([H])([H])N(S(=O)(=O)c1c([H])c([H])c(C(F)(F)F)c([H])c1[H])c1c([H])c([H])c([H])c([H])c1-2


 31 34  0  0  0  0  0  0  0  0999 V2000
  -12.8790   -8.1016    7.4018 N   0  0  0  0  0  0  0  0  0  0  0  0
  -11.8157   -8.2331    8.4290 C   0  0  0  0  0  0  0  0  0  0  0  0
  -12.2942   -7.9437    9.8112 C   0  0  0  0  0  0  0  0  0  0  0  0
  -12.6073   -6.5127   10.0704 C   0  0  0  0  0  0  0  0  0  0  0  0
  -12.2793   -6.1272   11.3591 C   0  0  0  0  0  0  0  0  0  0  0  0
  -11.7084   -7.1386   12.1823 N   0  0  0  0  0  0  0  0  0  0  0  0
  -12.4902   -4.8622   11.7926 N   0  0  0  0  0  0  0  0  0  0  0  0
  -13.0221   -3.9554   10.9817 C   0  0  0  0  0  0  0  0  0  0  0  0
  -13.3495   -4.3127    9.7240 N   0  0  0  0  0  0  0  0  0  0  0  0
  -13.1583   -5.5463    9.2595 C   0  0  0  0  0  0  0  0  0  0  0  0
  -13.5840   -5.7094    7.8780 C   0  0  0  0  0  0  0  0  0  0  0  0
  -14.1868   -4.5931    7.3518 C   0  0  0  0  0  0  0  0  0  0  0  0
  -14.6418   -4.6027    6.0501 C   0  0  0  0  0  0  0  0  0  0  0  0
  -14.4983   -5.7303    5.2548 C   0  0  0  0  0  0  0  0  0  0  0  0
  -13.8933   -6.8641    5.7630 C   0  0  0  0  0  0  0  0  0  0  0  0
  -13.4450   -6.8458    7.0611 C   0  0  0  0  0  0  0  0  0  0  0  0
  -10.7129   -7.0027   12.4453 H   0  0  0  0  0  0  0  0  0  0  0  0
  -12.3034   -7.9224   12.4504 H   0  0  0  0  0  0  0  0  0  0  0  0
  -13.4338   -9.5388    6.6948 S   0  0  0  0  0  0  0  0  0  0  0  0
  -13.7186  -10.7223    7.4872 O   0  0  0  0  0  0  0  0  0  0  0  0
  -12.5170   -9.9158    5.5116 O   0  0  0  0  0  0  0  0  0  0  0  0
  -17.3592   -8.4160    4.5990 C   0  0  0  0  0  0  0  0  0  0  0  0
  -16.3086   -8.9642    3.9012 C   0  0  0  0  0  0  0  0  0  0  0  0
  -15.1381   -9.3148    4.5305 C   0  0  0  0  0  0  0  0  0  0  0  0
  -14.9464   -9.1424    5.8895 C   0  0  0  0  0  0  0  0  0  0  0  0
  -16.0341   -8.5856    6.5664 C   0  0  0  0  0  0  0  0  0  0  0  0
  -17.2064   -8.2304    5.9457 C   0  0  0  0  0  0  0  0  0  0  0  0
  -19.6829   -8.7419    4.4348 F   0  0  0  0  0  0  0  0  0  0  0  0
  -18.6380   -8.0180    3.9053 C   0  0  0  0  0  0  0  0  0  0  0  0
  -18.8930   -6.6786    4.1010 F   0  0  0  0  0  0  0  0  0  0  0  0
  -18.5247   -8.1892    2.5401 F   0  0  0  0  0  0  0  0  0  0  0  0
 28 29  1  0  0  0
 29 30  1  0  0  0
 29 31  1  0  0  0
 29 22  1  0  0  0
 22 23  2  0  0  0
 23 24  1  0  0  0
 24 25  2  0  0  0
 25 26  1  0  0  0
 26 27  2  0  0  0
 25 19  1  0  0  0
 19 20  2  0  0  0
 19 21  2  0  0  0
 19  1  1  0  0  0
  1  2  1  0  0  0
  2  3  1  0  0  0
  3  4  1  0  0  0
  4  5  2  0  0  0
  5  6  1  0  0  0
  5  7  1  0  0  0
  7  8  2  0  0  0
  8  9  1  0  0  0
  9 10  2  0  0  0
 10 11  1  0  0  0
 11 12  2  0  0  0
 12 13  1  0  0  0
 13 14  2  0  0  0
 14 15  1  0  0  0
 15 16  2  0  0  0
 27 22  1  0  0  0
 16  1  1  0  0  0
 10  4  1  0  0  0
 16 11  1  0  0  0
  6 17  1  0  0  0
  6 18  1  0  0  0
M  END
> <minimizedAffinity>
8.55882

> <CNNscore>
0.3659526706

> <CNNaffinity>
6.3874039650

> <CNN_VS>
2.3374874592

> <CNNaffinity_variance>
0.5262652040

$$$$
[H]c1nc2c(c(N([H])[H])n1)C([H])([H])C([H])([H])N(S(=O)(=O)c1c([H])c([H])c(C(F)(F)F)c([H])c1[H])c1c([H])c([H])c([H])c([H])c1-2


 31 34  0  0  0  0  0  0  0  0999 V2000
  -10.0673   -7.4984    8.2450 N   0  0  0  0  0  0  0  0  0  0  0  0
   -9.0940   -6.8813    9.1805 C   0  0  0  0  0  0  0  0  0  0  0  0
   -7.8937   -6.3214    8.4956 C   0  0  0  0  0  0  0  0  0  0  0  0
   -6.9689   -7.3427    7.9349 C   0  0  0  0  0  0  0  0  0  0  0  0
   -5.6413   -6.9633    8.0372 C   0  0  0  0  0  0  0  0  0  0  0  0
   -5.4028   -5.7016    8.6517 N   0  0  0  0  0  0  0  0  0  0  0  0
   -4.6435   -7.7563    7.5808 N   0  0  0  0  0  0  0  0  0  0  0  0
   -4.9210   -8.9270    7.0191 C   0  0  0  0  0  0  0  0  0  0  0  0
   -6.2078   -9.3124    6.9093 N   0  0  0  0  0  0  0  0  0  0  0  0
   -7.2179   -8.5616    7.3453 C   0  0  0  0  0  0  0  0  0  0  0  0
   -8.5202   -9.1709    7.1243 C   0  0  0  0  0  0  0  0  0  0  0  0
   -8.4645  -10.3519    6.4254 C   0  0  0  0  0  0  0  0  0  0  0  0
   -9.6242  -11.0421    6.1420 C   0  0  0  0  0  0  0  0  0  0  0  0
  -10.8576  -10.5605    6.5558 C   0  0  0  0  0  0  0  0  0  0  0  0
  -10.9372   -9.3751    7.2617 C   0  0  0  0  0  0  0  0  0  0  0  0
   -9.7771   -8.6937    7.5377 C   0  0  0  0  0  0  0  0  0  0  0  0
   -4.9257   -5.7279    9.5739 H   0  0  0  0  0  0  0  0  0  0  0  0
   -5.7174   -4.8671    8.1569 H   0  0  0  0  0  0  0  0  0  0  0  0
  -11.5269   -6.6689    8.0115 S   0  0  0  0  0  0  0  0  0  0  0  0
  -12.2235   -6.6877    6.7371 O   0  0  0  0  0  0  0  0  0  0  0  0
  -11.3719   -5.2114    8.4957 O   0  0  0  0  0  0  0  0  0  0  0  0
  -14.4384   -8.3905   11.1133 C   0  0  0  0  0  0  0  0  0  0  0  0
  -14.6362   -7.1464   10.5615 C   0  0  0  0  0  0  0  0  0  0  0  0
  -13.7732   -6.6361    9.6214 C   0  0  0  0  0  0  0  0  0  0  0  0
  -12.6660   -7.3345    9.1747 C   0  0  0  0  0  0  0  0  0  0  0  0
  -12.4973   -8.5941    9.7545 C   0  0  0  0  0  0  0  0  0  0  0  0
  -13.3531   -9.1111   10.6958 C   0  0  0  0  0  0  0  0  0  0  0  0
  -16.0432   -7.9019   12.7620 F   0  0  0  0  0  0  0  0  0  0  0  0
  -15.3776   -8.9438   12.1556 C   0  0  0  0  0  0  0  0  0  0  0  0
  -16.3086   -9.7734   11.5705 F   0  0  0  0  0  0  0  0  0  0  0  0
  -14.6907   -9.7228   13.0652 F   0  0  0  0  0  0  0  0  0  0  0  0
 28 29  1  0  0  0
 29 30  1  0  0  0
 29 31  1  0  0  0
 29 22  1  0  0  0
 22 23  2  0  0  0
 23 24  1  0  0  0
 24 25  2  0  0  0
 25 26  1  0  0  0
 26 27  2  0  0  0
 25 19  1  0  0  0
 19 20  2  0  0  0
 19 21  2  0  0  0
 19  1  1  0  0  0
  1  2  1  0  0  0
  2  3  1  0  0  0
  3  4  1  0  0  0
  4  5  2  0  0  0
  5  6  1  0  0  0
  5  7  1  0  0  0
  7  8  2  0  0  0
  8  9  1  0  0  0
  9 10  2  0  0  0
 10 11  1  0  0  0
 11 12  2  0  0  0
 12 13  1  0  0  0
 13 14  2  0  0  0
 14 15  1  0  0  0
 15 16  2  0  0  0
 27 22  1  0  0  0
 16  1  1  0  0  0
 10  4  1  0  0  0
 16 11  1  0  0  0
  6 17  1  0  0  0
  6 18  1  0  0  0
M  END
> <minimizedAffinity>
8.48127

> <CNNscore>
0.3614323437

> <CNNaffinity>
5.9813642502

> <CNN_VS>
2.1618585587

> <CNNaffinity_variance>
0.6117812395

$$$$
[H]c1nc2c(c(N([H])[H])n1)C([H])([H])C([H])([H])N(S(=O)(=O)c1c([H])c([H])c(C(F)(F)F)c([H])c1[H])c1c([H])c([H])c([H])c([H])c1-2


 31 34  0  0  0  0  0  0  0  0999 V2000
  -10.6147   -7.5286    8.6703 N   0  0  0  0  0  0  0  0  0  0  0  0
  -10.8938   -8.7684    7.9033 C   0  0  0  0  0  0  0  0  0  0  0  0
  -11.7554   -8.5390    6.7081 C   0  0  0  0  0  0  0  0  0  0  0  0
  -13.1716   -8.2082    7.0208 C   0  0  0  0  0  0  0  0  0  0  0  0
  -14.0539   -8.7485    6.1007 C   0  0  0  0  0  0  0  0  0  0  0  0
  -13.4661   -9.5111    5.0522 N   0  0  0  0  0  0  0  0  0  0  0  0
  -15.3898   -8.5583    6.2081 N   0  0  0  0  0  0  0  0  0  0  0  0
  -15.8868   -7.8413    7.2091 C   0  0  0  0  0  0  0  0  0  0  0  0
  -15.0431   -7.3060    8.1137 N   0  0  0  0  0  0  0  0  0  0  0  0
  -13.7231   -7.4695    8.0433 C   0  0  0  0  0  0  0  0  0  0  0  0
  -13.0064   -6.8051    9.1208 C   0  0  0  0  0  0  0  0  0  0  0  0
  -13.8156   -6.0607    9.9438 C   0  0  0  0  0  0  0  0  0  0  0  0
  -13.2725   -5.3745   11.0096 C   0  0  0  0  0  0  0  0  0  0  0  0
  -11.9106   -5.4250   11.2684 C   0  0  0  0  0  0  0  0  0  0  0  0
  -11.0778   -6.1691   10.4543 C   0  0  0  0  0  0  0  0  0  0  0  0
  -11.6274   -6.8476    9.3942 C   0  0  0  0  0  0  0  0  0  0  0  0
  -13.6671  -10.5300    5.0632 H   0  0  0  0  0  0  0  0  0  0  0  0
  -12.8889   -9.0156    4.3727 H   0  0  0  0  0  0  0  0  0  0  0  0
   -9.0327   -6.9254    8.5891 S   0  0  0  0  0  0  0  0  0  0  0  0
   -8.0711   -7.1512    9.6539 O   0  0  0  0  0  0  0  0  0  0  0  0
   -9.0740   -5.4228    8.2383 O   0  0  0  0  0  0  0  0  0  0  0  0
   -7.2244   -8.7854    4.8033 C   0  0  0  0  0  0  0  0  0  0  0  0
   -7.2861   -7.4216    4.9695 C   0  0  0  0  0  0  0  0  0  0  0  0
   -7.8137   -6.8637    6.1094 C   0  0  0  0  0  0  0  0  0  0  0  0
   -8.3077   -7.6298    7.1497 C   0  0  0  0  0  0  0  0  0  0  0  0
   -8.2272   -9.0097    6.9480 C   0  0  0  0  0  0  0  0  0  0  0  0
   -7.7038   -9.5758    5.8116 C   0  0  0  0  0  0  0  0  0  0  0  0
   -5.3340   -9.7103    3.7529 F   0  0  0  0  0  0  0  0  0  0  0  0
   -6.6587   -9.3968    3.5459 C   0  0  0  0  0  0  0  0  0  0  0  0
   -7.3355  -10.5537    3.2286 F   0  0  0  0  0  0  0  0  0  0  0  0
   -6.8311   -8.5471    2.4715 F   0  0  0  0  0  0  0  0  0  0  0  0
 28 29  1  0  0  0
 29 30  1  0  0  0
 29 31  1  0  0  0
 29 22  1  0  0  0
 22 23  2  0  0  0
 23 24  1  0  0  0
 24 25  2  0  0  0
 25 26  1  0  0  0
 26 27  2  0  0  0
 25 19  1  0  0  0
 19 20  2  0  0  0
 19 21  2  0  0  0
 19  1  1  0  0  0
  1  2  1  0  0  0
  2  3  1  0  0  0
  3  4  1  0  0  0
  4  5  2  0  0  0
  5  6  1  0  0  0
  5  7  1  0  0  0
  7  8  2  0  0  0
  8  9  1  0  0  0
  9 10  2  0  0  0
 10 11  1  0  0  0
 11 12  2  0  0  0
 12 13  1  0  0  0
 13 14  2  0  0  0
 14 15  1  0  0  0
 15 16  2  0  0  0
 27 22  1  0  0  0
 16  1  1  0  0  0
 10  4  1  0  0  0
 16 11  1  0  0  0
  6 17  1  0  0  0
  6 18  1  0  0  0
M  END
> <minimizedAffinity>
1.94024

> <CNNscore>
0.3115985394

> <CNNaffinity>
6.4769134521

> <CNN_VS>
2.0181968212

> <CNNaffinity_variance>
0.7091714144

$$$$
[H]c1nc2c(c(N([H])[H])n1)C([H])([H])C([H])([H])N(S(=O)(=O)c1c([H])c([H])c(C(F)(F)F)c([H])c1[H])c1c([H])c([H])c([H])c([H])c1-2


 31 34  0  0  0  0  0  0  0  0999 V2000
  -13.1359   -9.0076    7.1906 N   0  0  0  0  0  0  0  0  0  0  0  0
  -13.9991   -8.4877    8.2805 C   0  0  0  0  0  0  0  0  0  0  0  0
  -13.7959   -7.0352    8.5495 C   0  0  0  0  0  0  0  0  0  0  0  0
  -12.4942   -6.7004    9.1869 C   0  0  0  0  0  0  0  0  0  0  0  0
  -12.6036   -5.6573   10.0908 C   0  0  0  0  0  0  0  0  0  0  0  0
  -13.9082   -5.1109   10.2517 N   0  0  0  0  0  0  0  0  0  0  0  0
  -11.5284   -5.2003   10.7745 N   0  0  0  0  0  0  0  0  0  0  0  0
  -10.3335   -5.7490   10.5899 C   0  0  0  0  0  0  0  0  0  0  0  0
  -10.2072   -6.7644    9.7127 N   0  0  0  0  0  0  0  0  0  0  0  0
  -11.2398   -7.2427    9.0205 C   0  0  0  0  0  0  0  0  0  0  0  0
  -10.8758   -8.3361    8.1327 C   0  0  0  0  0  0  0  0  0  0  0  0
   -9.5282   -8.5995    8.1069 C   0  0  0  0  0  0  0  0  0  0  0  0
   -9.0373   -9.6111    7.3085 C   0  0  0  0  0  0  0  0  0  0  0  0
   -9.8894  -10.3756    6.5249 C   0  0  0  0  0  0  0  0  0  0  0  0
  -11.2491  -10.1291    6.5365 C   0  0  0  0  0  0  0  0  0  0  0  0
  -11.7286   -9.1184    7.3333 C   0  0  0  0  0  0  0  0  0  0  0  0
  -14.3570   -5.2697   11.1748 H   0  0  0  0  0  0  0  0  0  0  0  0
  -14.3136   -4.6125    9.4596 H   0  0  0  0  0  0  0  0  0  0  0  0
  -13.9079   -9.4065    5.7353 S   0  0  0  0  0  0  0  0  0  0  0  0
  -14.6577  -10.6406    5.5788 O   0  0  0  0  0  0  0  0  0  0  0  0
  -12.9106   -9.2545    4.5670 O   0  0  0  0  0  0  0  0  0  0  0  0
  -16.9006   -6.0506    4.8168 C   0  0  0  0  0  0  0  0  0  0  0  0
  -17.3259   -7.3065    5.1820 C   0  0  0  0  0  0  0  0  0  0  0  0
  -16.4304   -8.3080    5.4719 C   0  0  0  0  0  0  0  0  0  0  0  0
  -15.0615   -8.1173    5.4175 C   0  0  0  0  0  0  0  0  0  0  0  0
  -14.6657   -6.8304    5.0455 C   0  0  0  0  0  0  0  0  0  0  0  0
  -15.5531   -5.8243    4.7520 C   0  0  0  0  0  0  0  0  0  0  0  0
  -17.4141   -4.2393    3.4067 F   0  0  0  0  0  0  0  0  0  0  0  0
  -17.8838   -4.9562    4.4845 C   0  0  0  0  0  0  0  0  0  0  0  0
  -19.1064   -5.4951    4.1495 F   0  0  0  0  0  0  0  0  0  0  0  0
  -18.1094   -4.1539    5.5853 F   0  0  0  0  0  0  0  0  0  0  0  0
 28 29  1  0  0  0
 29 30  1  0  0  0
 29 31  1  0  0  0
 29 22  1  0  0  0
 22 23  2  0  0  0
 23 24  1  0  0  0
 24 25  2  0  0  0
 25 26  1  0  0  0
 26 27  2  0  0  0
 25 19  1  0  0  0
 19 20  2  0  0  0
 19 21  2  0  0  0
 19  1  1  0  0  0
  1  2  1  0  0  0
  2  3  1  0  0  0
  3  4  1  0  0  0
  4  5  2  0  0  0
  5  6  1  0  0  0
  5  7  1  0  0  0
  7  8  2  0  0  0
  8  9  1  0  0  0
  9 10  2  0  0  0
 10 11  1  0  0  0
 11 12  2  0  0  0
 12 13  1  0  0  0
 13 14  2  0  0  0
 14 15  1  0  0  0
 15 16  2  0  0  0
 27 22  1  0  0  0
 16  1  1  0  0  0
 10  4  1  0  0  0
 16 11  1  0  0  0
  6 17  1  0  0  0
  6 18  1  0  0  0
M  END
> <minimizedAffinity>
-4.78471

> <CNNscore>
0.2791007161

> <CNNaffinity>
6.7359085083

> <CNN_VS>
1.8799968958

> <CNNaffinity_variance>
0.2911843956

$$$$
[H]c1nc2c(c(N([H])[H])n1)C([H])([H])C([H])([H])N(S(=O)(=O)c1c([H])c([H])c(C(F)(F)F)c([H])c1[H])c1c([H])c([H])c([H])c([H])c1-2


 31 34  0  0  0  0  0  0  0  0999 V2000
   -3.6654   -7.8105    7.2806 N   0  0  0  0  0  0  0  0  0  0  0  0
   -4.4339   -9.0662    7.0918 C   0  0  0  0  0  0  0  0  0  0  0  0
   -5.8006   -8.8419    6.5393 C   0  0  0  0  0  0  0  0  0  0  0  0
   -6.7521   -8.1989    7.4848 C   0  0  0  0  0  0  0  0  0  0  0  0
   -8.0427   -8.6789    7.3405 C   0  0  0  0  0  0  0  0  0  0  0  0
   -8.2237   -9.6813    6.3461 N   0  0  0  0  0  0  0  0  0  0  0  0
   -9.0574   -8.2169    8.1083 N   0  0  0  0  0  0  0  0  0  0  0  0
   -8.8331   -7.2833    9.0253 C   0  0  0  0  0  0  0  0  0  0  0  0
   -7.5833   -6.8027    9.1791 N   0  0  0  0  0  0  0  0  0  0  0  0
   -6.5583   -7.2305    8.4439 C   0  0  0  0  0  0  0  0  0  0  0  0
   -5.3029   -6.5755    8.7772 C   0  0  0  0  0  0  0  0  0  0  0  0
   -5.4330   -5.5788    9.7132 C   0  0  0  0  0  0  0  0  0  0  0  0
   -4.3244   -4.8702   10.1262 C   0  0  0  0  0  0  0  0  0  0  0  0
   -3.0680   -5.1504    9.6091 C   0  0  0  0  0  0  0  0  0  0  0  0
   -2.9135   -6.1502    8.6676 C   0  0  0  0  0  0  0  0  0  0  0  0
   -4.0236   -6.8493    8.2609 C   0  0  0  0  0  0  0  0  0  0  0  0
   -8.4663  -10.6291    6.6947 H   0  0  0  0  0  0  0  0  0  0  0  0
   -8.0984   -9.4090    5.3712 H   0  0  0  0  0  0  0  0  0  0  0  0
   -2.3688   -7.5471    6.2211 S   0  0  0  0  0  0  0  0  0  0  0  0
   -2.1220   -8.4137    5.0819 O   0  0  0  0  0  0  0  0  0  0  0  0
   -1.0679   -7.3775    7.0345 O   0  0  0  0  0  0  0  0  0  0  0  0
   -2.9539   -3.3891    4.3689 C   0  0  0  0  0  0  0  0  0  0  0  0
   -4.0286   -4.1718    4.7207 C   0  0  0  0  0  0  0  0  0  0  0  0
   -3.8545   -5.4109    5.2893 C   0  0  0  0  0  0  0  0  0  0  0  0
   -2.6024   -5.9412    5.5426 C   0  0  0  0  0  0  0  0  0  0  0  0
   -1.5348   -5.1189    5.1749 C   0  0  0  0  0  0  0  0  0  0  0  0
   -1.6992   -3.8806    4.6044 C   0  0  0  0  0  0  0  0  0  0  0  0
   -2.0171   -1.7118    3.0119 F   0  0  0  0  0  0  0  0  0  0  0  0
   -3.1455   -2.0356    3.7315 C   0  0  0  0  0  0  0  0  0  0  0  0
   -4.2197   -2.0591    2.8696 F   0  0  0  0  0  0  0  0  0  0  0  0
   -3.4442   -1.0854    4.6875 F   0  0  0  0  0  0  0  0  0  0  0  0
 28 29  1  0  0  0
 29 30  1  0  0  0
 29 31  1  0  0  0
 29 22  1  0  0  0
 22 23  2  0  0  0
 23 24  1  0  0  0
 24 25  2  0  0  0
 25 26  1  0  0  0
 26 27  2  0  0  0
 25 19  1  0  0  0
 19 20  2  0  0  0
 19 21  2  0  0  0
 19  1  1  0  0  0
  1  2  1  0  0  0
  2  3  1  0  0  0
  3  4  1  0  0  0
  4  5  2  0  0  0
  5  6  1  0  0  0
  5  7  1  0  0  0
  7  8  2  0  0  0
  8  9  1  0  0  0
  9 10  2  0  0  0
 10 11  1  0  0  0
 11 12  2  0  0  0
 12 13  1  0  0  0
 13 14  2  0  0  0
 14 15  1  0  0  0
 15 16  2  0  0  0
 27 22  1  0  0  0
 16  1  1  0  0  0
 10  4  1  0  0  0
 16 11  1  0  0  0
  6 17  1  0  0  0
  6 18  1  0  0  0
M  END
> <minimizedAffinity>
-1.08424

> <CNNscore>
0.2579308450

> <CNNaffinity>
5.5914559364

> <CNN_VS>
1.4422090054

> <CNNaffinity_variance>
0.6915453076

$$$$
[H]C(=O)C1([H])c2c([H])c([H])c([H])c([H])c2[C@]2([H])C([H])([H])C([H])([H])[C@@]34C([H])([H])N(N([H])S(=O)(=O)C([H])([H])[H])C([H])([H])C([H])([H])C(=C([H])C(Br)=C([N+](=O)[O-])C([H])=C(C([H])([H])[H])C([H])(C1([H])[H])C([H])([H])C([H])([H])[C@]32[H])C([H])([H])C4([H])[H]


 41 45  0  0  0  0  0  0  0  0999 V2000
  -12.7933   -9.1699    4.9123 C   0  0  0  0  0  0  0  0  0  0  0  0
  -12.3509  -10.1999    5.8933 C   0  0  0  0  0  0  0  0  0  0  0  0
  -11.1702   -9.8112    6.7006 C   0  0  0  0  0  0  0  0  0  0  0  0
  -11.4959  -10.0764    8.1477 C   0  0  0  0  0  0  0  0  0  0  0  0
  -12.7665   -9.4858    8.6218 C   0  0  0  0  0  0  0  0  0  0  0  0
  -13.0877   -8.1412    8.0230 C   0  0  0  0  0  0  0  0  0  0  0  0
  -14.4960   -8.1723    7.6026 C   0  0  0  0  0  0  0  0  0  0  0  0
  -15.1448   -6.9939    8.3118 C   0  0  0  0  0  0  0  0  0  0  0  0
  -14.2220   -6.5288    9.3854 C   0  0  0  0  0  0  0  0  0  0  0  0
  -12.8250   -7.0014    8.9747 C   0  0  0  0  0  0  0  0  0  0  0  0
  -12.1354   -7.3636   10.2464 C   0  0  0  0  0  0  0  0  0  0  0  0
  -11.6532   -6.2047   10.9605 N   0  0  0  0  0  0  0  0  0  0  0  0
  -10.3393   -5.7776   10.6877 C   0  0  0  0  0  0  0  0  0  0  0  0
   -9.4615   -6.6459    9.9082 C   0  0  0  0  0  0  0  0  0  0  0  0
   -9.7154   -6.6308    8.3983 C   0  0  0  0  0  0  0  0  0  0  0  0
   -8.6568   -7.2275    7.8873 C   0  0  0  0  0  0  0  0  0  0  0  0
   -8.1416   -7.6083    6.6091 C   0  0  0  0  0  0  0  0  0  0  0  0
   -6.9595   -6.2060    5.7501 Br  0  0  0  0  0  0  0  0  0  0  0  0
   -8.1907   -8.7500    5.9297 C   0  0  0  0  0  0  0  0  0  0  0  0
   -8.7382  -10.0515    6.1534 C   0  0  0  0  0  0  0  0  0  0  0  0
   -9.9065  -10.5539    6.4628 C   0  0  0  0  0  0  0  0  0  0  0  0
  -10.0837  -12.0547    6.6518 C   0  0  0  0  0  0  0  0  0  0  0  0
  -12.1307   -5.8456    8.3424 C   0  0  0  0  0  0  0  0  0  0  0  0
  -10.8532   -6.0320    7.7054 C   0  0  0  0  0  0  0  0  0  0  0  0
  -14.8345   -8.1923    6.1565 C   0  0  0  0  0  0  0  0  0  0  0  0
  -16.1467   -7.6813    5.9545 C   0  0  0  0  0  0  0  0  0  0  0  0
  -16.7526   -7.5630    4.7367 C   0  0  0  0  0  0  0  0  0  0  0  0
  -16.0473   -7.9646    3.6334 C   0  0  0  0  0  0  0  0  0  0  0  0
  -14.7822   -8.4589    3.8228 C   0  0  0  0  0  0  0  0  0  0  0  0
  -14.1397   -8.5890    5.0736 C   0  0  0  0  0  0  0  0  0  0  0  0
   -7.5293   -8.6312    4.6086 N   0  0  0  0  0  0  0  0  0  0  0  0
   -7.0707   -9.8030    4.0821 O   0  0  0  0  0  0  0  0  0  0  0  0
   -7.4071   -7.5643    4.0401 O   0  0  0  0  0  0  0  0  0  0  0  0
  -13.2411   -9.4587    2.5998 O   0  0  0  0  0  0  0  0  0  0  0  0
  -12.5531   -9.7523    3.5513 C   0  0  0  0  0  0  0  0  0  0  0  0
  -11.8749   -6.4342   12.3241 N   0  0  0  0  0  0  0  0  0  0  0  0
  -12.8311   -6.7423   12.5227 H   0  0  0  0  0  0  0  0  0  0  0  0
  -11.3343   -5.1424   13.3127 S   0  0  0  0  0  0  0  0  0  0  0  0
   -9.8776   -5.5279   14.2116 C   0  0  0  0  0  0  0  0  0  0  0  0
  -12.3968   -4.7102   14.2564 O   0  0  0  0  0  0  0  0  0  0  0  0
  -11.0587   -3.9648   12.3900 O   0  0  0  0  0  0  0  0  0  0  0  0
 34 35  2  0  0  0
 35  1  1  0  0  0
  1  2  1  0  0  0
  2  3  1  0  0  0
  3  4  1  0  0  0
  4  5  1  0  0  0
  5  6  1  0  0  0
  6  7  1  0  0  0
  7  8  1  0  0  0
  8  9  1  0  0  0
 10  9  1  0  0  0
 10 11  1  0  0  0
 11 12  1  0  0  0
 12 13  1  0  0  0
 13 14  1  0  0  0
 14 15  1  0  0  0
 15 16  2  0  0  0
 16 17  1  0  0  0
 17 18  1  0  0  0
 17 19  2  0  0  0
 19 20  1  0  0  0
 20 21  2  0  0  0
 21 22  1  0  0  0
 19 31  1  0  0  0
 31 32  1  0  0  0
 31 33  2  0  0  0
 12 36  1  0  0  0
 36 38  1  0  0  0
 38 39  1  0  0  0
 38 40  2  0  0  0
 38 41  2  0  0  0
 10 23  1  0  0  0
 23 24  1  0  0  0
  7 25  1  0  0  0
 25 26  2  0  0  0
 26 27  1  0  0  0
 27 28  2  0  0  0
 28 29  1  0  0  0
 29 30  2  0  0  0
 30  1  1  0  0  0
 21  3  1  0  0  0
 30 25  1  0  0  0
 10  6  1  0  0  0
 24 15  1  0  0  0
 36 37  1  0  0  0
M  CHG 1  31   1
M  CHG 1  32  -1
M  END
> <minimizedAffinity>
22.24741

> <CNNscore>
0.4402671754

> <CNNaffinity>
7.4817543030

> <CNN_VS>
3.2939708233

> <CNNaffinity_variance>
0.8871091604

$$$$
[H]C(=O)C1([H])c2c([H])c([H])c([H])c([H])c2[C@]2([H])C([H])([H])C([H])([H])[C@@]34C([H])([H])N(N([H])S(=O)(=O)C([H])([H])[H])C([H])([H])C([H])([H])C(=C([H])C(Br)=C([N+](=O)[O-])C([H])=C(C([H])([H])[H])C([H])(C1([H])[H])C([H])([H])C([H])([H])[C@]32[H])C([H])([H])C4([H])[H]


 41 45  0  0  0  0  0  0  0  0999 V2000
  -11.9301   -9.2894    5.9084 C   0  0  0  0  0  0  0  0  0  0  0  0
  -11.1853  -10.3171    6.6882 C   0  0  0  0  0  0  0  0  0  0  0  0
   -9.7410  -10.4038    6.3663 C   0  0  0  0  0  0  0  0  0  0  0  0
   -8.9783  -10.3722    7.6653 C   0  0  0  0  0  0  0  0  0  0  0  0
   -9.3248   -9.2525    8.5676 C   0  0  0  0  0  0  0  0  0  0  0  0
   -9.6403   -7.9601    7.8605 C   0  0  0  0  0  0  0  0  0  0  0  0
  -10.8689   -7.4196    8.4599 C   0  0  0  0  0  0  0  0  0  0  0  0
  -10.4989   -6.0185    8.9206 C   0  0  0  0  0  0  0  0  0  0  0  0
   -9.0134   -5.9016    8.9152 C   0  0  0  0  0  0  0  0  0  0  0  0
   -8.5104   -6.9642    7.9345 C   0  0  0  0  0  0  0  0  0  0  0  0
   -7.2343   -7.4724    8.5152 C   0  0  0  0  0  0  0  0  0  0  0  0
   -6.1272   -6.5750    8.2815 N   0  0  0  0  0  0  0  0  0  0  0  0
   -5.3625   -6.7813    7.1171 C   0  0  0  0  0  0  0  0  0  0  0  0
   -5.5588   -8.0088    6.3510 C   0  0  0  0  0  0  0  0  0  0  0  0
   -6.8052   -8.0213    5.4618 C   0  0  0  0  0  0  0  0  0  0  0  0
   -6.6251   -9.0585    4.6684 C   0  0  0  0  0  0  0  0  0  0  0  0
   -7.2986   -9.7368    3.6052 C   0  0  0  0  0  0  0  0  0  0  0  0
   -6.8058   -9.0629    1.7600 Br  0  0  0  0  0  0  0  0  0  0  0  0
   -8.0939  -10.8020    3.5866 C   0  0  0  0  0  0  0  0  0  0  0  0
   -8.6045  -11.7153    4.5607 C   0  0  0  0  0  0  0  0  0  0  0  0
   -9.2661  -11.6361    5.6872 C   0  0  0  0  0  0  0  0  0  0  0  0
   -9.6079  -12.8909    6.4798 C   0  0  0  0  0  0  0  0  0  0  0  0
   -8.2326   -6.2814    6.6405 C   0  0  0  0  0  0  0  0  0  0  0  0
   -7.9011   -7.0558    5.4729 C   0  0  0  0  0  0  0  0  0  0  0  0
  -12.1333   -7.4214    7.6803 C   0  0  0  0  0  0  0  0  0  0  0  0
  -13.0116   -6.4158    8.1712 C   0  0  0  0  0  0  0  0  0  0  0  0
  -14.2531   -6.1578    7.6651 C   0  0  0  0  0  0  0  0  0  0  0  0
  -14.6820   -6.9209    6.6117 C   0  0  0  0  0  0  0  0  0  0  0  0
  -13.8394   -7.8924    6.1352 C   0  0  0  0  0  0  0  0  0  0  0  0
  -12.5530   -8.1737    6.6457 C   0  0  0  0  0  0  0  0  0  0  0  0
   -8.5823  -11.0982    2.2190 N   0  0  0  0  0  0  0  0  0  0  0  0
   -7.6806  -11.7145    1.4018 O   0  0  0  0  0  0  0  0  0  0  0  0
   -9.7060  -10.8105    1.8570 O   0  0  0  0  0  0  0  0  0  0  0  0
  -13.7015   -9.4666    4.3392 O   0  0  0  0  0  0  0  0  0  0  0  0
  -12.8913  -10.0378    5.0336 C   0  0  0  0  0  0  0  0  0  0  0  0
   -5.3480   -6.5636    9.4450 N   0  0  0  0  0  0  0  0  0  0  0  0
   -5.9124   -6.5950   10.2990 H   0  0  0  0  0  0  0  0  0  0  0  0
   -4.1568   -5.3310    9.4359 S   0  0  0  0  0  0  0  0  0  0  0  0
   -4.2137   -4.3098   10.8617 C   0  0  0  0  0  0  0  0  0  0  0  0
   -4.2701   -4.4866    8.2193 O   0  0  0  0  0  0  0  0  0  0  0  0
   -2.8042   -6.0236    9.3674 O   0  0  0  0  0  0  0  0  0  0  0  0
 34 35  2  0  0  0
 35  1  1  0  0  0
  1  2  1  0  0  0
  2  3  1  0  0  0
  3  4  1  0  0  0
  4  5  1  0  0  0
  5  6  1  0  0  0
  6  7  1  0  0  0
  7  8  1  0  0  0
  8  9  1  0  0  0
 10  9  1  0  0  0
 10 11  1  0  0  0
 11 12  1  0  0  0
 12 13  1  0  0  0
 13 14  1  0  0  0
 14 15  1  0  0  0
 15 16  2  0  0  0
 16 17  1  0  0  0
 17 18  1  0  0  0
 17 19  2  0  0  0
 19 20  1  0  0  0
 20 21  2  0  0  0
 21 22  1  0  0  0
 19 31  1  0  0  0
 31 32  1  0  0  0
 31 33  2  0  0  0
 12 36  1  0  0  0
 36 38  1  0  0  0
 38 39  1  0  0  0
 38 40  2  0  0  0
 38 41  2  0  0  0
 10 23  1  0  0  0
 23 24  1  0  0  0
  7 25  1  0  0  0
 25 26  2  0  0  0
 26 27  1  0  0  0
 27 28  2  0  0  0
 28 29  1  0  0  0
 29 30  2  0  0  0
 30  1  1  0  0  0
 21  3  1  0  0  0
 30 25  1  0  0  0
 10  6  1  0  0  0
 24 15  1  0  0  0
 36 37  1  0  0  0
M  CHG 1  31   1
M  CHG 1  32  -1
M  END
> <minimizedAffinity>
18.23909

> <CNNscore>
0.3330465257

> <CNNaffinity>
7.1302375793

> <CNN_VS>
2.3747007847

> <CNNaffinity_variance>
0.5248456001

$$$$
[H]C(=O)C1([H])c2c([H])c([H])c([H])c([H])c2[C@]2([H])C([H])([H])C([H])([H])[C@@]34C([H])([H])N(N([H])S(=O)(=O)C([H])([H])[H])C([H])([H])C([H])([H])C(=C([H])C(Br)=C([N+](=O)[O-])C([H])=C(C([H])([H])[H])C([H])(C1([H])[H])C([H])([H])C([H])([H])[C@]32[H])C([H])([H])C4([H])[H]


 41 45  0  0  0  0  0  0  0  0999 V2000
   -3.2820   -4.7937   10.2265 C   0  0  0  0  0  0  0  0  0  0  0  0
   -2.3507   -5.6727    9.4654 C   0  0  0  0  0  0  0  0  0  0  0  0
   -2.8080   -6.0120    8.0969 C   0  0  0  0  0  0  0  0  0  0  0  0
   -1.6655   -5.7449    7.1515 C   0  0  0  0  0  0  0  0  0  0  0  0
   -1.0606   -4.3998    7.2648 C   0  0  0  0  0  0  0  0  0  0  0  0
   -2.0445   -3.3003    7.5695 C   0  0  0  0  0  0  0  0  0  0  0  0
   -1.4690   -2.4812    8.6459 C   0  0  0  0  0  0  0  0  0  0  0  0
   -1.4472   -1.0644    8.0941 C   0  0  0  0  0  0  0  0  0  0  0  0
   -1.6612   -1.1332    6.6210 C   0  0  0  0  0  0  0  0  0  0  0  0
   -2.3750   -2.4621    6.3602 C   0  0  0  0  0  0  0  0  0  0  0  0
   -1.8365   -2.9571    5.0606 C   0  0  0  0  0  0  0  0  0  0  0  0
   -2.4323   -2.2888    3.9275 N   0  0  0  0  0  0  0  0  0  0  0  0
   -3.5820   -2.8741    3.3628 C   0  0  0  0  0  0  0  0  0  0  0  0
   -3.9628   -4.2225    3.7735 C   0  0  0  0  0  0  0  0  0  0  0  0
   -4.6607   -4.3090    5.1337 C   0  0  0  0  0  0  0  0  0  0  0  0
   -5.1636   -5.5273    5.1613 C   0  0  0  0  0  0  0  0  0  0  0  0
   -5.9184   -6.3661    6.0392 C   0  0  0  0  0  0  0  0  0  0  0  0
   -7.9217   -6.2460    5.7675 Br  0  0  0  0  0  0  0  0  0  0  0  0
   -5.5564   -7.2971    6.9165 C   0  0  0  0  0  0  0  0  0  0  0  0
   -4.3197   -7.8653    7.3543 C   0  0  0  0  0  0  0  0  0  0  0  0
   -3.1847   -7.4241    7.8338 C   0  0  0  0  0  0  0  0  0  0  0  0
   -2.0506   -8.3865    8.1611 C   0  0  0  0  0  0  0  0  0  0  0  0
   -3.8281   -2.1681    6.2185 C   0  0  0  0  0  0  0  0  0  0  0  0
   -4.7771   -3.2470    6.1297 C   0  0  0  0  0  0  0  0  0  0  0  0
   -2.0627   -2.5275   10.0067 C   0  0  0  0  0  0  0  0  0  0  0  0
   -1.7571   -1.3319   10.7143 C   0  0  0  0  0  0  0  0  0  0  0  0
   -2.1616   -1.0623   11.9902 C   0  0  0  0  0  0  0  0  0  0  0  0
   -2.9136   -2.0097   12.6328 C   0  0  0  0  0  0  0  0  0  0  0  0
   -3.2102   -3.1646   11.9554 C   0  0  0  0  0  0  0  0  0  0  0  0
   -2.8007   -3.4608   10.6367 C   0  0  0  0  0  0  0  0  0  0  0  0
   -6.7264   -7.8687    7.6243 N   0  0  0  0  0  0  0  0  0  0  0  0
   -7.2527   -8.9938    7.0603 O   0  0  0  0  0  0  0  0  0  0  0  0
   -7.1802   -7.3671    8.6337 O   0  0  0  0  0  0  0  0  0  0  0  0
   -4.9765   -5.6264   11.6641 O   0  0  0  0  0  0  0  0  0  0  0  0
   -3.8034   -5.6174   11.3661 C   0  0  0  0  0  0  0  0  0  0  0  0
   -1.4160   -2.0774    2.9875 N   0  0  0  0  0  0  0  0  0  0  0  0
   -0.7751   -1.3267    3.2604 H   0  0  0  0  0  0  0  0  0  0  0  0
   -2.0092   -1.9456    1.3847 S   0  0  0  0  0  0  0  0  0  0  0  0
   -2.2167   -3.5004    0.5985 C   0  0  0  0  0  0  0  0  0  0  0  0
   -1.1243   -1.0876    0.5557 O   0  0  0  0  0  0  0  0  0  0  0  0
   -3.3547   -1.2407    1.4676 O   0  0  0  0  0  0  0  0  0  0  0  0
 34 35  2  0  0  0
 35  1  1  0  0  0
  1  2  1  0  0  0
  2  3  1  0  0  0
  3  4  1  0  0  0
  4  5  1  0  0  0
  5  6  1  0  0  0
  6  7  1  0  0  0
  7  8  1  0  0  0
  8  9  1  0  0  0
 10  9  1  0  0  0
 10 11  1  0  0  0
 11 12  1  0  0  0
 12 13  1  0  0  0
 13 14  1  0  0  0
 14 15  1  0  0  0
 15 16  2  0  0  0
 16 17  1  0  0  0
 17 18  1  0  0  0
 17 19  2  0  0  0
 19 20  1  0  0  0
 20 21  2  0  0  0
 21 22  1  0  0  0
 19 31  1  0  0  0
 31 32  1  0  0  0
 31 33  2  0  0  0
 12 36  1  0  0  0
 36 38  1  0  0  0
 38 39  1  0  0  0
 38 40  2  0  0  0
 38 41  2  0  0  0
 10 23  1  0  0  0
 23 24  1  0  0  0
  7 25  1  0  0  0
 25 26  2  0  0  0
 26 27  1  0  0  0
 27 28  2  0  0  0
 28 29  1  0  0  0
 29 30  2  0  0  0
 30  1  1  0  0  0
 21  3  1  0  0  0
 30 25  1  0  0  0
 10  6  1  0  0  0
 24 15  1  0  0  0
 36 37  1  0  0  0
M  CHG 1  31   1
M  CHG 1  32  -1
M  END
> <minimizedAffinity>
-1.51020

> <CNNscore>
0.3278336823

> <CNNaffinity>
6.2040653229

> <CNN_VS>
2.0339016914

> <CNNaffinity_variance>
0.5909262896

$$$$
[H]C(=O)C1([H])c2c([H])c([H])c([H])c([H])c2[C@]2([H])C([H])([H])C([H])([H])[C@@]34C([H])([H])N(N([H])S(=O)(=O)C([H])([H])[H])C([H])([H])C([H])([H])C(=C([H])C(Br)=C([N+](=O)[O-])C([H])=C(C([H])([H])[H])C([H])(C1([H])[H])C([H])([H])C([H])([H])[C@]32[H])C([H])([H])C4([H])[H]


 41 45  0  0  0  0  0  0  0  0999 V2000
   -2.9882   -3.8339    7.7703 C   0  0  0  0  0  0  0  0  0  0  0  0
   -2.3540   -5.1719    7.9338 C   0  0  0  0  0  0  0  0  0  0  0  0
   -3.0885   -6.0932    8.8329 C   0  0  0  0  0  0  0  0  0  0  0  0
   -3.2402   -7.4101    8.1166 C   0  0  0  0  0  0  0  0  0  0  0  0
   -3.8111   -7.3200    6.7550 C   0  0  0  0  0  0  0  0  0  0  0  0
   -4.8713   -6.2616    6.5951 C   0  0  0  0  0  0  0  0  0  0  0  0
   -4.5688   -5.5189    5.3631 C   0  0  0  0  0  0  0  0  0  0  0  0
   -5.8322   -5.6187    4.5228 C   0  0  0  0  0  0  0  0  0  0  0  0
   -6.6929   -6.6905    5.0982 C   0  0  0  0  0  0  0  0  0  0  0  0
   -6.2660   -6.8340    6.5614 C   0  0  0  0  0  0  0  0  0  0  0  0
   -6.3781   -8.2887    6.8699 C   0  0  0  0  0  0  0  0  0  0  0  0
   -7.7420   -8.6963    7.1134 N   0  0  0  0  0  0  0  0  0  0  0  0
   -8.2008   -8.6566    8.4443 C   0  0  0  0  0  0  0  0  0  0  0  0
   -7.2338   -8.4541    9.5193 C   0  0  0  0  0  0  0  0  0  0  0  0
   -6.7660   -7.0075    9.7013 C   0  0  0  0  0  0  0  0  0  0  0  0
   -6.1562   -7.0103   10.8701 C   0  0  0  0  0  0  0  0  0  0  0  0
   -5.4630   -6.1029   11.7305 C   0  0  0  0  0  0  0  0  0  0  0  0
   -6.6554   -5.1839   13.0852 Br  0  0  0  0  0  0  0  0  0  0  0  0
   -4.1708   -5.8352   11.8924 C   0  0  0  0  0  0  0  0  0  0  0  0
   -2.9481   -6.3101   11.3239 C   0  0  0  0  0  0  0  0  0  0  0  0
   -2.4441   -6.4452   10.1236 C   0  0  0  0  0  0  0  0  0  0  0  0
   -1.0604   -7.0493    9.9232 C   0  0  0  0  0  0  0  0  0  0  0  0
   -7.2426   -6.0720    7.3880 C   0  0  0  0  0  0  0  0  0  0  0  0
   -7.0062   -5.8867    8.7961 C   0  0  0  0  0  0  0  0  0  0  0  0
   -4.0783   -4.1193    5.4464 C   0  0  0  0  0  0  0  0  0  0  0  0
   -4.3653   -3.4279    4.2368 C   0  0  0  0  0  0  0  0  0  0  0  0
   -4.0471   -2.1220    3.9971 C   0  0  0  0  0  0  0  0  0  0  0  0
   -3.4067   -1.4304    4.9909 C   0  0  0  0  0  0  0  0  0  0  0  0
   -3.1268   -2.0927    6.1587 C   0  0  0  0  0  0  0  0  0  0  0  0
   -3.4476   -3.4421    6.4243 C   0  0  0  0  0  0  0  0  0  0  0  0
   -3.9534   -4.7679   12.8974 N   0  0  0  0  0  0  0  0  0  0  0  0
   -3.7335   -3.5235   12.3838 O   0  0  0  0  0  0  0  0  0  0  0  0
   -3.9706   -4.9909   14.0918 O   0  0  0  0  0  0  0  0  0  0  0  0
   -2.1502   -2.5098    9.5526 O   0  0  0  0  0  0  0  0  0  0  0  0
   -2.0503   -2.8431    8.3933 C   0  0  0  0  0  0  0  0  0  0  0  0
   -7.9130   -9.9530    6.5198 N   0  0  0  0  0  0  0  0  0  0  0  0
   -7.4412  -10.0299    5.6142 H   0  0  0  0  0  0  0  0  0  0  0  0
   -9.5491  -10.4644    6.5043 S   0  0  0  0  0  0  0  0  0  0  0  0
  -10.6177   -9.3759    7.3714 C   0  0  0  0  0  0  0  0  0  0  0  0
   -9.6861  -11.8357    7.0582 O   0  0  0  0  0  0  0  0  0  0  0  0
   -9.9771  -10.5332    5.0461 O   0  0  0  0  0  0  0  0  0  0  0  0
 34 35  2  0  0  0
 35  1  1  0  0  0
  1  2  1  0  0  0
  2  3  1  0  0  0
  3  4  1  0  0  0
  4  5  1  0  0  0
  5  6  1  0  0  0
  6  7  1  0  0  0
  7  8  1  0  0  0
  8  9  1  0  0  0
 10  9  1  0  0  0
 10 11  1  0  0  0
 11 12  1  0  0  0
 12 13  1  0  0  0
 13 14  1  0  0  0
 14 15  1  0  0  0
 15 16  2  0  0  0
 16 17  1  0  0  0
 17 18  1  0  0  0
 17 19  2  0  0  0
 19 20  1  0  0  0
 20 21  2  0  0  0
 21 22  1  0  0  0
 19 31  1  0  0  0
 31 32  1  0  0  0
 31 33  2  0  0  0
 12 36  1  0  0  0
 36 38  1  0  0  0
 38 39  1  0  0  0
 38 40  2  0  0  0
 38 41  2  0  0  0
 10 23  1  0  0  0
 23 24  1  0  0  0
  7 25  1  0  0  0
 25 26  2  0  0  0
 26 27  1  0  0  0
 27 28  2  0  0  0
 28 29  1  0  0  0
 29 30  2  0  0  0
 30  1  1  0  0  0
 21  3  1  0  0  0
 30 25  1  0  0  0
 10  6  1  0  0  0
 24 15  1  0  0  0
 36 37  1  0  0  0
M  CHG 1  31   1
M  CHG 1  32  -1
M  END
> <minimizedAffinity>
5.50894

> <CNNscore>
0.3153423965

> <CNNaffinity>
6.5226807594

> <CNN_VS>
2.0568778515

> <CNNaffinity_variance>
0.6613575816

$$$$
[H]C(=O)C1([H])c2c([H])c([H])c([H])c([H])c2[C@]2([H])C([H])([H])C([H])([H])[C@@]34C([H])([H])N(N([H])S(=O)(=O)C([H])([H])[H])C([H])([H])C([H])([H])C(=C([H])C(Br)=C([N+](=O)[O-])C([H])=C(C([H])([H])[H])C([H])(C1([H])[H])C([H])([H])C([H])([H])[C@]32[H])C([H])([H])C4([H])[H]


 41 45  0  0  0  0  0  0  0  0999 V2000
  -13.0607   -9.1267    4.7692 C   0  0  0  0  0  0  0  0  0  0  0  0
  -12.6546  -10.1867    5.7338 C   0  0  0  0  0  0  0  0  0  0  0  0
  -11.6999   -9.7362    6.7743 C   0  0  0  0  0  0  0  0  0  0  0  0
  -12.2317  -10.1848    8.1107 C   0  0  0  0  0  0  0  0  0  0  0  0
  -13.6363   -9.8094    8.3835 C   0  0  0  0  0  0  0  0  0  0  0  0
  -14.0357   -8.4624    7.8399 C   0  0  0  0  0  0  0  0  0  0  0  0
  -15.3303   -8.6276    7.1634 C   0  0  0  0  0  0  0  0  0  0  0  0
  -16.2533   -7.6177    7.8272 C   0  0  0  0  0  0  0  0  0  0  0  0
  -15.6072   -7.1509    9.0862 C   0  0  0  0  0  0  0  0  0  0  0  0
  -14.1073   -7.4004    8.9081 C   0  0  0  0  0  0  0  0  0  0  0  0
  -13.6055   -7.7995   10.2546 C   0  0  0  0  0  0  0  0  0  0  0  0
  -13.4246   -6.6672   11.1325 N   0  0  0  0  0  0  0  0  0  0  0  0
  -12.1573   -6.0531   11.1426 C   0  0  0  0  0  0  0  0  0  0  0  0
  -11.0430   -6.7211   10.4763 C   0  0  0  0  0  0  0  0  0  0  0  0
  -11.0293   -6.5858    8.9512 C   0  0  0  0  0  0  0  0  0  0  0  0
   -9.8241   -6.9901    8.6023 C   0  0  0  0  0  0  0  0  0  0  0  0
   -9.0453   -7.1722    7.4172 C   0  0  0  0  0  0  0  0  0  0  0  0
   -7.9427   -5.5531    6.9031 Br  0  0  0  0  0  0  0  0  0  0  0  0
   -8.8127   -8.2366    6.6553 C   0  0  0  0  0  0  0  0  0  0  0  0
   -9.2006   -9.6125    6.6730 C   0  0  0  0  0  0  0  0  0  0  0  0
  -10.3216  -10.2864    6.7200 C   0  0  0  0  0  0  0  0  0  0  0  0
  -10.3143  -11.8089    6.7575 C   0  0  0  0  0  0  0  0  0  0  0  0
  -13.4846   -6.1087    8.5064 C   0  0  0  0  0  0  0  0  0  0  0  0
  -12.1022   -6.0679    8.1062 C   0  0  0  0  0  0  0  0  0  0  0  0
  -15.4053   -8.5439    5.6823 C   0  0  0  0  0  0  0  0  0  0  0  0
  -16.7212   -8.1842    5.2789 C   0  0  0  0  0  0  0  0  0  0  0  0
  -17.1161   -8.0206    3.9823 C   0  0  0  0  0  0  0  0  0  0  0  0
  -16.1796   -8.2171    3.0023 C   0  0  0  0  0  0  0  0  0  0  0  0
  -14.9098   -8.5650    3.3858 C   0  0  0  0  0  0  0  0  0  0  0  0
  -14.4833   -8.7389    4.7207 C   0  0  0  0  0  0  0  0  0  0  0  0
   -7.9549   -7.9030    5.4936 N   0  0  0  0  0  0  0  0  0  0  0  0
   -7.0702   -8.8748    5.1278 O   0  0  0  0  0  0  0  0  0  0  0  0
   -8.0379   -6.8390    4.9127 O   0  0  0  0  0  0  0  0  0  0  0  0
  -13.1200   -9.3564    2.4079 O   0  0  0  0  0  0  0  0  0  0  0  0
  -12.5069   -9.5341    3.4363 C   0  0  0  0  0  0  0  0  0  0  0  0
  -13.8457   -7.0591   12.4092 N   0  0  0  0  0  0  0  0  0  0  0  0
  -13.2836   -6.6413   13.1564 H   0  0  0  0  0  0  0  0  0  0  0  0
  -14.0512   -8.7551   12.5506 S   0  0  0  0  0  0  0  0  0  0  0  0
  -13.5457   -9.3811   14.1099 C   0  0  0  0  0  0  0  0  0  0  0  0
  -13.3260   -9.4735   11.4717 O   0  0  0  0  0  0  0  0  0  0  0  0
  -15.5323   -9.0392   12.3511 O   0  0  0  0  0  0  0  0  0  0  0  0
 34 35  2  0  0  0
 35  1  1  0  0  0
  1  2  1  0  0  0
  2  3  1  0  0  0
  3  4  1  0  0  0
  4  5  1  0  0  0
  5  6  1  0  0  0
  6  7  1  0  0  0
  7  8  1  0  0  0
  8  9  1  0  0  0
 10  9  1  0  0  0
 10 11  1  0  0  0
 11 12  1  0  0  0
 12 13  1  0  0  0
 13 14  1  0  0  0
 14 15  1  0  0  0
 15 16  2  0  0  0
 16 17  1  0  0  0
 17 18  1  0  0  0
 17 19  2  0  0  0
 19 20  1  0  0  0
 20 21  2  0  0  0
 21 22  1  0  0  0
 19 31  1  0  0  0
 31 32  1  0  0  0
 31 33  2  0  0  0
 12 36  1  0  0  0
 36 38  1  0  0  0
 38 39  1  0  0  0
 38 40  2  0  0  0
 38 41  2  0  0  0
 10 23  1  0  0  0
 23 24  1  0  0  0
  7 25  1  0  0  0
 25 26  2  0  0  0
 26 27  1  0  0  0
 27 28  2  0  0  0
 28 29  1  0  0  0
 29 30  2  0  0  0
 30  1  1  0  0  0
 21  3  1  0  0  0
 30 25  1  0  0  0
 10  6  1  0  0  0
 24 15  1  0  0  0
 36 37  1  0  0  0
M  CHG 1  31   1
M  CHG 1  32  -1
M  END
> <minimizedAffinity>
21.30615

> <CNNscore>
0.3143517673

> <CNNaffinity>
7.1026382446

> <CNN_VS>
2.2327268124

> <CNNaffinity_variance>
0.2875579894

$$$$
[H]C(=O)C1([H])c2c([H])c([H])c([H])c([H])c2[C@]2([H])C([H])([H])C([H])([H])[C@@]34C([H])([H])N(N([H])S(=O)(=O)C([H])([H])[H])C([H])([H])C([H])([H])C(=C([H])C(Br)=C([N+](=O)[O-])C([H])=C(C([H])([H])[H])C([H])(C1([H])[H])C([H])([H])C([H])([H])[C@]32[H])C([H])([H])C4([H])[H]


 41 45  0  0  0  0  0  0  0  0999 V2000
  -16.3083   -7.4642    7.3278 C   0  0  0  0  0  0  0  0  0  0  0  0
  -15.2714   -6.4156    7.5384 C   0  0  0  0  0  0  0  0  0  0  0  0
  -14.1090   -6.8556    8.3460 C   0  0  0  0  0  0  0  0  0  0  0  0
  -12.8585   -6.4656    7.6014 C   0  0  0  0  0  0  0  0  0  0  0  0
  -12.8079   -6.9046    6.1897 C   0  0  0  0  0  0  0  0  0  0  0  0
  -13.4337   -8.2513    5.9355 C   0  0  0  0  0  0  0  0  0  0  0  0
  -14.2934   -8.1199    4.7504 C   0  0  0  0  0  0  0  0  0  0  0  0
  -13.7973   -9.1840    3.7840 C   0  0  0  0  0  0  0  0  0  0  0  0
  -12.4655   -9.6586    4.2548 C   0  0  0  0  0  0  0  0  0  0  0  0
  -12.4109   -9.3441    5.7520 C   0  0  0  0  0  0  0  0  0  0  0  0
  -10.9962   -8.9622    6.0292 C   0  0  0  0  0  0  0  0  0  0  0  0
  -10.1251  -10.1099    6.1266 N   0  0  0  0  0  0  0  0  0  0  0  0
   -9.9376  -10.6725    7.4039 C   0  0  0  0  0  0  0  0  0  0  0  0
  -10.4146   -9.9421    8.5748 C   0  0  0  0  0  0  0  0  0  0  0  0
  -11.9229  -10.0349    8.8219 C   0  0  0  0  0  0  0  0  0  0  0  0
  -12.0781   -9.5729   10.0468 C   0  0  0  0  0  0  0  0  0  0  0  0
  -13.1285   -9.3271   10.9850 C   0  0  0  0  0  0  0  0  0  0  0  0
  -13.5050  -10.8859   12.2220 Br  0  0  0  0  0  0  0  0  0  0  0  0
  -13.8242   -8.2337   11.2816 C   0  0  0  0  0  0  0  0  0  0  0  0
  -13.8361   -6.8756   10.8353 C   0  0  0  0  0  0  0  0  0  0  0  0
  -13.9439   -6.2490    9.6914 C   0  0  0  0  0  0  0  0  0  0  0  0
  -13.8737   -4.7290    9.6261 C   0  0  0  0  0  0  0  0  0  0  0  0
  -12.7415  -10.5982    6.4839 C   0  0  0  0  0  0  0  0  0  0  0  0
  -12.9302  -10.5723    7.9110 C   0  0  0  0  0  0  0  0  0  0  0  0
  -15.7704   -8.1658    4.9011 C   0  0  0  0  0  0  0  0  0  0  0  0
  -16.3744   -8.5672    3.6773 C   0  0  0  0  0  0  0  0  0  0  0  0
  -17.7188   -8.7109    3.4879 C   0  0  0  0  0  0  0  0  0  0  0  0
  -18.5426   -8.4500    4.5506 C   0  0  0  0  0  0  0  0  0  0  0  0
  -17.9654   -8.0619    5.7325 C   0  0  0  0  0  0  0  0  0  0  0  0
  -16.5781   -7.9076    5.9469 C   0  0  0  0  0  0  0  0  0  0  0  0
  -14.8506   -8.5005   12.3170 N   0  0  0  0  0  0  0  0  0  0  0  0
  -14.3672   -8.9519   13.5102 O   0  0  0  0  0  0  0  0  0  0  0  0
  -16.0359   -8.3281   12.1125 O   0  0  0  0  0  0  0  0  0  0  0  0
  -18.4824   -7.7269    8.2421 O   0  0  0  0  0  0  0  0  0  0  0  0
  -17.5339   -6.9985    8.0559 C   0  0  0  0  0  0  0  0  0  0  0  0
   -8.9182   -9.7704    5.5029 N   0  0  0  0  0  0  0  0  0  0  0  0
   -8.4533  -10.5769    5.0761 H   0  0  0  0  0  0  0  0  0  0  0  0
   -7.8985   -8.8193    6.4999 S   0  0  0  0  0  0  0  0  0  0  0  0
   -8.7002   -7.3986    7.1462 C   0  0  0  0  0  0  0  0  0  0  0  0
   -6.6725   -8.4053    5.7708 O   0  0  0  0  0  0  0  0  0  0  0  0
   -7.4488   -9.7089    7.6490 O   0  0  0  0  0  0  0  0  0  0  0  0
 34 35  2  0  0  0
 35  1  1  0  0  0
  1  2  1  0  0  0
  2  3  1  0  0  0
  3  4  1  0  0  0
  4  5  1  0  0  0
  5  6  1  0  0  0
  6  7  1  0  0  0
  7  8  1  0  0  0
  8  9  1  0  0  0
 10  9  1  0  0  0
 10 11  1  0  0  0
 11 12  1  0  0  0
 12 13  1  0  0  0
 13 14  1  0  0  0
 14 15  1  0  0  0
 15 16  2  0  0  0
 16 17  1  0  0  0
 17 18  1  0  0  0
 17 19  2  0  0  0
 19 20  1  0  0  0
 20 21  2  0  0  0
 21 22  1  0  0  0
 19 31  1  0  0  0
 31 32  1  0  0  0
 31 33  2  0  0  0
 12 36  1  0  0  0
 36 38  1  0  0  0
 38 39  1  0  0  0
 38 40  2  0  0  0
 38 41  2  0  0  0
 10 23  1  0  0  0
 23 24  1  0  0  0
  7 25  1  0  0  0
 25 26  2  0  0  0
 26 27  1  0  0  0
 27 28  2  0  0  0
 28 29  1  0  0  0
 29 30  2  0  0  0
 30  1  1  0  0  0
 21  3  1  0  0  0
 30 25  1  0  0  0
 10  6  1  0  0  0
 24 15  1  0  0  0
 36 37  1  0  0  0
M  CHG 1  31   1
M  CHG 1  32  -1
M  END
> <minimizedAffinity>
25.85871

> <CNNscore>
0.3142758906

> <CNNaffinity>
7.2069640160

> <CNN_VS>
2.2649750710

> <CNNaffinity_variance>
0.3599060178

$$$$
[H]C(=O)C1([H])c2c([H])c([H])c([H])c([H])c2[C@]2([H])C([H])([H])C([H])([H])[C@@]34C([H])([H])N(N([H])S(=O)(=O)C([H])([H])[H])C([H])([H])C([H])([H])C(=C([H])C(Br)=C([N+](=O)[O-])C([H])=C(C([H])([H])[H])C([H])(C1([H])[H])C([H])([H])C([H])([H])[C@]32[H])C([H])([H])C4([H])[H]


 41 45  0  0  0  0  0  0  0  0999 V2000
   -9.9884   -8.9249    8.2616 C   0  0  0  0  0  0  0  0  0  0  0  0
  -11.0419   -9.6840    8.9918 C   0  0  0  0  0  0  0  0  0  0  0  0
  -12.2976   -8.9292    9.2164 C   0  0  0  0  0  0  0  0  0  0  0  0
  -13.4435   -9.8027    8.7760 C   0  0  0  0  0  0  0  0  0  0  0  0
  -13.3164  -10.3617    7.4124 C   0  0  0  0  0  0  0  0  0  0  0  0
  -12.6657   -9.4343    6.4193 C   0  0  0  0  0  0  0  0  0  0  0  0
  -11.6631  -10.2150    5.6802 C   0  0  0  0  0  0  0  0  0  0  0  0
  -12.0350  -10.0473    4.2153 C   0  0  0  0  0  0  0  0  0  0  0  0
  -13.4163   -9.4927    4.1442 C   0  0  0  0  0  0  0  0  0  0  0  0
  -13.6588   -8.7922    5.4837 C   0  0  0  0  0  0  0  0  0  0  0  0
  -15.0966   -9.0266    5.8031 C   0  0  0  0  0  0  0  0  0  0  0  0
  -15.9748   -8.1521    5.0617 N   0  0  0  0  0  0  0  0  0  0  0  0
  -16.3229   -6.9261    5.6608 C   0  0  0  0  0  0  0  0  0  0  0  0
  -15.9962   -6.7090    7.0673 C   0  0  0  0  0  0  0  0  0  0  0  0
  -14.5313   -6.3581    7.3420 C   0  0  0  0  0  0  0  0  0  0  0  0
  -14.5311   -5.9263    8.5875 C   0  0  0  0  0  0  0  0  0  0  0  0
  -13.6070   -5.4363    9.5623 C   0  0  0  0  0  0  0  0  0  0  0  0
  -13.3920   -3.4226    9.5495 Br  0  0  0  0  0  0  0  0  0  0  0  0
  -12.9526   -6.0340   10.5532 C   0  0  0  0  0  0  0  0  0  0  0  0
  -12.8824   -7.3613   11.0796 C   0  0  0  0  0  0  0  0  0  0  0  0
  -12.6301   -8.5587   10.6155 C   0  0  0  0  0  0  0  0  0  0  0  0
  -12.6891   -9.7764   11.5284 C   0  0  0  0  0  0  0  0  0  0  0  0
  -13.4251   -7.3363    5.2748 C   0  0  0  0  0  0  0  0  0  0  0  0
  -13.4180   -6.4382    6.4000 C   0  0  0  0  0  0  0  0  0  0  0  0
  -10.2170   -9.9636    5.9081 C   0  0  0  0  0  0  0  0  0  0  0  0
   -9.4641  -10.3794    4.7750 C   0  0  0  0  0  0  0  0  0  0  0  0
   -8.1067  -10.2787    4.6678 C   0  0  0  0  0  0  0  0  0  0  0  0
   -7.4232   -9.7401    5.7255 C   0  0  0  0  0  0  0  0  0  0  0  0
   -8.1443   -9.3385    6.8207 C   0  0  0  0  0  0  0  0  0  0  0  0
   -9.5472   -9.4350    6.9495 C   0  0  0  0  0  0  0  0  0  0  0  0
  -12.0655   -5.0896   11.2729 N   0  0  0  0  0  0  0  0  0  0  0  0
  -12.1184   -5.1667   12.6339 O   0  0  0  0  0  0  0  0  0  0  0  0
  -11.3450   -4.3053   10.6879 O   0  0  0  0  0  0  0  0  0  0  0  0
   -8.0959   -7.7922    9.1374 O   0  0  0  0  0  0  0  0  0  0  0  0
   -8.8637   -8.7230    9.2330 C   0  0  0  0  0  0  0  0  0  0  0  0
  -17.0929   -8.9067    4.6856 N   0  0  0  0  0  0  0  0  0  0  0  0
  -17.0843   -9.1581    3.6929 H   0  0  0  0  0  0  0  0  0  0  0  0
  -18.5694   -8.2217    5.2232 S   0  0  0  0  0  0  0  0  0  0  0  0
  -19.0295   -6.7874    4.3232 C   0  0  0  0  0  0  0  0  0  0  0  0
  -18.5130   -7.8983    6.6717 O   0  0  0  0  0  0  0  0  0  0  0  0
  -19.6403   -9.2882    5.0510 O   0  0  0  0  0  0  0  0  0  0  0  0
 34 35  2  0  0  0
 35  1  1  0  0  0
  1  2  1  0  0  0
  2  3  1  0  0  0
  3  4  1  0  0  0
  4  5  1  0  0  0
  5  6  1  0  0  0
  6  7  1  0  0  0
  7  8  1  0  0  0
  8  9  1  0  0  0
 10  9  1  0  0  0
 10 11  1  0  0  0
 11 12  1  0  0  0
 12 13  1  0  0  0
 13 14  1  0  0  0
 14 15  1  0  0  0
 15 16  2  0  0  0
 16 17  1  0  0  0
 17 18  1  0  0  0
 17 19  2  0  0  0
 19 20  1  0  0  0
 20 21  2  0  0  0
 21 22  1  0  0  0
 19 31  1  0  0  0
 31 32  1  0  0  0
 31 33  2  0  0  0
 12 36  1  0  0  0
 36 38  1  0  0  0
 38 39  1  0  0  0
 38 40  2  0  0  0
 38 41  2  0  0  0
 10 23  1  0  0  0
 23 24  1  0  0  0
  7 25  1  0  0  0
 25 26  2  0  0  0
 26 27  1  0  0  0
 27 28  2  0  0  0
 28 29  1  0  0  0
 29 30  2  0  0  0
 30  1  1  0  0  0
 21  3  1  0  0  0
 30 25  1  0  0  0
 10  6  1  0  0  0
 24 15  1  0  0  0
 36 37  1  0  0  0
M  CHG 1  31   1
M  CHG 1  32  -1
M  END
> <minimizedAffinity>
24.12646

> <CNNscore>
0.3117459416

> <CNNaffinity>
7.3668351173

> <CNN_VS>
2.2965810299

> <CNNaffinity_variance>
0.6065791845

$$$$
[H]C(=O)C1([H])c2c([H])c([H])c([H])c([H])c2[C@]2([H])C([H])([H])C([H])([H])[C@@]34C([H])([H])N(N([H])S(=O)(=O)C([H])([H])[H])C([H])([H])C([H])([H])C(=C([H])C(Br)=C([N+](=O)[O-])C([H])=C(C([H])([H])[H])C([H])(C1([H])[H])C([H])([H])C([H])([H])[C@]32[H])C([H])([H])C4([H])[H]


 41 45  0  0  0  0  0  0  0  0999 V2000
   -9.2843   -6.4189   10.4034 C   0  0  0  0  0  0  0  0  0  0  0  0
   -9.4616   -5.7373    9.0907 C   0  0  0  0  0  0  0  0  0  0  0  0
   -9.7912   -6.6462    7.9672 C   0  0  0  0  0  0  0  0  0  0  0  0
  -10.9834   -6.0719    7.2466 C   0  0  0  0  0  0  0  0  0  0  0  0
  -12.1385   -5.7437    8.1103 C   0  0  0  0  0  0  0  0  0  0  0  0
  -12.3526   -6.7031    9.2520 C   0  0  0  0  0  0  0  0  0  0  0  0
  -12.5799   -5.9016   10.4631 C   0  0  0  0  0  0  0  0  0  0  0  0
  -13.9161   -6.3814   11.0078 C   0  0  0  0  0  0  0  0  0  0  0  0
  -14.5994   -7.1687    9.9431 C   0  0  0  0  0  0  0  0  0  0  0  0
  -13.4931   -7.6581    9.0048 C   0  0  0  0  0  0  0  0  0  0  0  0
  -14.0845   -7.6225    7.6363 C   0  0  0  0  0  0  0  0  0  0  0  0
  -14.9507   -8.7495    7.3813 N   0  0  0  0  0  0  0  0  0  0  0  0
  -14.3686   -9.8947    6.8044 C   0  0  0  0  0  0  0  0  0  0  0  0
  -13.0116   -9.8061    6.2725 C   0  0  0  0  0  0  0  0  0  0  0  0
  -11.9021   -9.8474    7.3269 C   0  0  0  0  0  0  0  0  0  0  0  0
  -10.8020  -10.0507    6.6298 C   0  0  0  0  0  0  0  0  0  0  0  0
   -9.3964  -10.1987    6.8458 C   0  0  0  0  0  0  0  0  0  0  0  0
   -8.8052  -12.1171    7.1140 Br  0  0  0  0  0  0  0  0  0  0  0  0
   -8.3872   -9.3354    6.7861 C   0  0  0  0  0  0  0  0  0  0  0  0
   -8.2460   -7.9450    6.4850 C   0  0  0  0  0  0  0  0  0  0  0  0
   -8.7659   -6.8206    6.9072 C   0  0  0  0  0  0  0  0  0  0  0  0
   -8.3603   -5.4919    6.2830 C   0  0  0  0  0  0  0  0  0  0  0  0
  -13.1823   -9.0661    9.3774 C   0  0  0  0  0  0  0  0  0  0  0  0
  -12.0627   -9.7414    8.7748 C   0  0  0  0  0  0  0  0  0  0  0  0
  -11.5421   -5.8577   11.5249 C   0  0  0  0  0  0  0  0  0  0  0  0
  -12.1343   -5.5211   12.7737 C   0  0  0  0  0  0  0  0  0  0  0  0
  -11.4495   -5.4042   13.9490 C   0  0  0  0  0  0  0  0  0  0  0  0
  -10.0981   -5.6264   13.9228 C   0  0  0  0  0  0  0  0  0  0  0  0
   -9.5221   -5.9503   12.7212 C   0  0  0  0  0  0  0  0  0  0  0  0
  -10.2137   -6.0753   11.4963 C   0  0  0  0  0  0  0  0  0  0  0  0
   -7.0970   -9.9745    7.1377 N   0  0  0  0  0  0  0  0  0  0  0  0
   -6.0081   -9.4841    6.4784 O   0  0  0  0  0  0  0  0  0  0  0  0
   -7.0204  -10.8705    7.9549 O   0  0  0  0  0  0  0  0  0  0  0  0
   -6.9661   -6.8997   10.2407 O   0  0  0  0  0  0  0  0  0  0  0  0
   -7.8402   -6.2537   10.7732 C   0  0  0  0  0  0  0  0  0  0  0  0
  -16.0475   -8.2747    6.6516 N   0  0  0  0  0  0  0  0  0  0  0  0
  -16.7776   -8.9824    6.5299 H   0  0  0  0  0  0  0  0  0  0  0  0
  -15.5896   -7.4824    5.2021 S   0  0  0  0  0  0  0  0  0  0  0  0
  -15.4891   -8.5683    3.8275 C   0  0  0  0  0  0  0  0  0  0  0  0
  -14.2951   -6.7729    5.3662 O   0  0  0  0  0  0  0  0  0  0  0  0
  -16.6429   -6.4198    4.9272 O   0  0  0  0  0  0  0  0  0  0  0  0
 34 35  2  0  0  0
 35  1  1  0  0  0
  1  2  1  0  0  0
  2  3  1  0  0  0
  3  4  1  0  0  0
  4  5  1  0  0  0
  5  6  1  0  0  0
  6  7  1  0  0  0
  7  8  1  0  0  0
  8  9  1  0  0  0
 10  9  1  0  0  0
 10 11  1  0  0  0
 11 12  1  0  0  0
 12 13  1  0  0  0
 13 14  1  0  0  0
 14 15  1  0  0  0
 15 16  2  0  0  0
 16 17  1  0  0  0
 17 18  1  0  0  0
 17 19  2  0  0  0
 19 20  1  0  0  0
 20 21  2  0  0  0
 21 22  1  0  0  0
 19 31  1  0  0  0
 31 32  1  0  0  0
 31 33  2  0  0  0
 12 36  1  0  0  0
 36 38  1  0  0  0
 38 39  1  0  0  0
 38 40  2  0  0  0
 38 41  2  0  0  0
 10 23  1  0  0  0
 23 24  1  0  0  0
  7 25  1  0  0  0
 25 26  2  0  0  0
 26 27  1  0  0  0
 27 28  2  0  0  0
 28 29  1  0  0  0
 29 30  2  0  0  0
 30  1  1  0  0  0
 21  3  1  0  0  0
 30 25  1  0  0  0
 10  6  1  0  0  0
 24 15  1  0  0  0
 36 37  1  0  0  0
M  CHG 1  31   1
M  CHG 1  32  -1
M  END
> <minimizedAffinity>
18.04156

> <CNNscore>
0.3101424873

> <CNNaffinity>
7.2193069458

> <CNN_VS>
2.2390139103

> <CNNaffinity_variance>
0.3209902048

$$$$
[H]C(=O)C1([H])c2c([H])c([H])c([H])c([H])c2[C@]2([H])C([H])([H])C([H])([H])[C@@]34C([H])([H])N(N([H])S(=O)(=O)C([H])([H])[H])C([H])([H])C([H])([H])C(=C([H])C(Br)=C([N+](=O)[O-])C([H])=C(C([H])([H])[H])C([H])(C1([H])[H])C([H])([H])C([H])([H])[C@]32[H])C([H])([H])C4([H])[H]


 41 45  0  0  0  0  0  0  0  0999 V2000
  -13.8484   -5.3982   10.2760 C   0  0  0  0  0  0  0  0  0  0  0  0
  -13.7893   -6.7362   10.9281 C   0  0  0  0  0  0  0  0  0  0  0  0
  -14.0880   -7.8727   10.0248 C   0  0  0  0  0  0  0  0  0  0  0  0
  -12.9968   -8.8970   10.1992 C   0  0  0  0  0  0  0  0  0  0  0  0
  -11.6197   -8.3732   10.0678 C   0  0  0  0  0  0  0  0  0  0  0  0
  -11.4634   -7.2911    9.0312 C   0  0  0  0  0  0  0  0  0  0  0  0
  -10.6752   -6.2098    9.6399 C   0  0  0  0  0  0  0  0  0  0  0  0
   -9.4918   -6.0111    8.7059 C   0  0  0  0  0  0  0  0  0  0  0  0
   -9.4141   -7.1866    7.7934 C   0  0  0  0  0  0  0  0  0  0  0  0
  -10.8211   -7.7891    7.7610 C   0  0  0  0  0  0  0  0  0  0  0  0
  -10.6225   -9.2642    7.6692 C   0  0  0  0  0  0  0  0  0  0  0  0
  -10.2892   -9.6926    6.3310 N   0  0  0  0  0  0  0  0  0  0  0  0
  -11.3543  -10.0576    5.4849 C   0  0  0  0  0  0  0  0  0  0  0  0
  -12.6869  -10.2242    6.0580 C   0  0  0  0  0  0  0  0  0  0  0  0
  -13.4361   -8.9184    6.3376 C   0  0  0  0  0  0  0  0  0  0  0  0
  -14.6783   -9.3002    6.5585 C   0  0  0  0  0  0  0  0  0  0  0  0
  -15.9453   -8.7235    6.8846 C   0  0  0  0  0  0  0  0  0  0  0  0
  -17.0677   -8.2419    5.2691 Br  0  0  0  0  0  0  0  0  0  0  0  0
  -16.5783   -8.5523    8.0411 C   0  0  0  0  0  0  0  0  0  0  0  0
  -16.3074   -8.8575    9.4113 C   0  0  0  0  0  0  0  0  0  0  0  0
  -15.3451   -8.6251   10.2674 C   0  0  0  0  0  0  0  0  0  0  0  0
  -15.4168   -9.1716   11.6871 C   0  0  0  0  0  0  0  0  0  0  0  0
  -11.4887   -7.2977    6.5238 C   0  0  0  0  0  0  0  0  0  0  0  0
  -12.8858   -7.5659    6.3028 C   0  0  0  0  0  0  0  0  0  0  0  0
  -11.3286   -4.9185    9.9749 C   0  0  0  0  0  0  0  0  0  0  0  0
  -10.3597   -3.8780   10.0211 C   0  0  0  0  0  0  0  0  0  0  0  0
  -10.6399   -2.5709   10.2985 C   0  0  0  0  0  0  0  0  0  0  0  0
  -11.9448   -2.2393   10.5499 C   0  0  0  0  0  0  0  0  0  0  0  0
  -12.8827   -3.2390   10.5075 C   0  0  0  0  0  0  0  0  0  0  0  0
  -12.6118   -4.5954   10.2229 C   0  0  0  0  0  0  0  0  0  0  0  0
  -17.8743   -7.8566    7.8595 N   0  0  0  0  0  0  0  0  0  0  0  0
  -18.9804   -8.6232    8.0827 O   0  0  0  0  0  0  0  0  0  0  0  0
  -17.9410   -6.6876    7.5349 O   0  0  0  0  0  0  0  0  0  0  0  0
  -15.1312   -4.5894   12.1014 O   0  0  0  0  0  0  0  0  0  0  0  0
  -15.0040   -4.6746   10.9007 C   0  0  0  0  0  0  0  0  0  0  0  0
   -9.3206  -10.6975    6.4449 N   0  0  0  0  0  0  0  0  0  0  0  0
   -9.7159  -11.5965    6.7353 H   0  0  0  0  0  0  0  0  0  0  0  0
   -7.9545  -10.2046    7.3555 S   0  0  0  0  0  0  0  0  0  0  0  0
   -6.9374   -9.0572    6.5025 C   0  0  0  0  0  0  0  0  0  0  0  0
   -7.1383  -11.3740    7.7709 O   0  0  0  0  0  0  0  0  0  0  0  0
   -8.4810   -9.5600    8.6288 O   0  0  0  0  0  0  0  0  0  0  0  0
 34 35  2  0  0  0
 35  1  1  0  0  0
  1  2  1  0  0  0
  2  3  1  0  0  0
  3  4  1  0  0  0
  4  5  1  0  0  0
  5  6  1  0  0  0
  6  7  1  0  0  0
  7  8  1  0  0  0
  8  9  1  0  0  0
 10  9  1  0  0  0
 10 11  1  0  0  0
 11 12  1  0  0  0
 12 13  1  0  0  0
 13 14  1  0  0  0
 14 15  1  0  0  0
 15 16  2  0  0  0
 16 17  1  0  0  0
 17 18  1  0  0  0
 17 19  2  0  0  0
 19 20  1  0  0  0
 20 21  2  0  0  0
 21 22  1  0  0  0
 19 31  1  0  0  0
 31 32  1  0  0  0
 31 33  2  0  0  0
 12 36  1  0  0  0
 36 38  1  0  0  0
 38 39  1  0  0  0
 38 40  2  0  0  0
 38 41  2  0  0  0
 10 23  1  0  0  0
 23 24  1  0  0  0
  7 25  1  0  0  0
 25 26  2  0  0  0
 26 27  1  0  0  0
 27 28  2  0  0  0
 28 29  1  0  0  0
 29 30  2  0  0  0
 30  1  1  0  0  0
 21  3  1  0  0  0
 30 25  1  0  0  0
 10  6  1  0  0  0
 24 15  1  0  0  0
 36 37  1  0  0  0
M  CHG 1  31   1
M  CHG 1  32  -1
M  END
> <minimizedAffinity>
32.17218

> <CNNscore>
0.3016823828

> <CNNaffinity>
7.1587057114

> <CNN_VS>
2.1596553326

> <CNNaffinity_variance>
0.7498815656

$$$$
[H]/C(=C(/[H])c1c([H])c([H])c(N([H])S(=O)(=O)c2c([H])c([H])c(-c3c([H])c(Cl)c(OC([H])([H])[H])c([H])c3C(=O)N([H])C([H])([H])[H])c([H])c2[H])c([H])c1[H])c1c([H])c([H])c([H])c([H])c1[H]


 39 42  0  0  0  0  0  0  0  0999 V2000
   -6.9192   -7.0781    8.0285 C   0  0  0  0  0  0  0  0  0  0  0  0
   -7.9530   -6.4213    7.4444 C   0  0  0  0  0  0  0  0  0  0  0  0
   -9.0645   -6.1048    8.2460 C   0  0  0  0  0  0  0  0  0  0  0  0
   -9.1114   -6.4465    9.5769 C   0  0  0  0  0  0  0  0  0  0  0  0
   -8.0652   -7.1147   10.1721 C   0  0  0  0  0  0  0  0  0  0  0  0
   -6.9910   -7.4228    9.4068 C   0  0  0  0  0  0  0  0  0  0  0  0
   -5.5317   -8.2547    6.2823 C   0  0  0  0  0  0  0  0  0  0  0  0
   -4.2636   -8.4665    5.7103 C   0  0  0  0  0  0  0  0  0  0  0  0
   -3.1223   -7.8941    6.2273 C   0  0  0  0  0  0  0  0  0  0  0  0
   -3.2661   -7.0831    7.3583 C   0  0  0  0  0  0  0  0  0  0  0  0
   -1.8318   -6.3336    8.0450 Cl  0  0  0  0  0  0  0  0  0  0  0  0
   -4.5052   -6.8961    7.8878 C   0  0  0  0  0  0  0  0  0  0  0  0
   -5.6734   -7.4687    7.3735 C   0  0  0  0  0  0  0  0  0  0  0  0
   -8.5707  -10.0343    7.2459 C   0  0  0  0  0  0  0  0  0  0  0  0
   -7.6166   -9.5156    6.4437 N   0  0  0  0  0  0  0  0  0  0  0  0
   -6.6340   -8.9819    5.6124 C   0  0  0  0  0  0  0  0  0  0  0  0
   -6.5452   -9.0386    4.3913 O   0  0  0  0  0  0  0  0  0  0  0  0
   -8.2858   -9.9578    5.3497 H   0  0  0  0  0  0  0  0  0  0  0  0
   -1.8521   -8.0532    5.7166 O   0  0  0  0  0  0  0  0  0  0  0  0
   -1.2373   -9.3088    5.6836 C   0  0  0  0  0  0  0  0  0  0  0  0
  -10.4608   -6.0287   10.5780 S   0  0  0  0  0  0  0  0  0  0  0  0
  -11.0854   -4.7875    9.9781 O   0  0  0  0  0  0  0  0  0  0  0  0
  -10.0615   -5.7907   11.9957 O   0  0  0  0  0  0  0  0  0  0  0  0
  -11.6470   -7.3034   10.5550 N   0  0  0  0  0  0  0  0  0  0  0  0
  -11.5370   -8.0238   11.2975 H   0  0  0  0  0  0  0  0  0  0  0  0
  -12.6796   -7.3630    9.6011 C   0  0  0  0  0  0  0  0  0  0  0  0
  -13.9684   -7.6595    9.9592 C   0  0  0  0  0  0  0  0  0  0  0  0
  -14.9314   -7.6726    8.9808 C   0  0  0  0  0  0  0  0  0  0  0  0
  -14.6461   -7.3967    7.6458 C   0  0  0  0  0  0  0  0  0  0  0  0
  -13.3503   -7.1014    7.3044 C   0  0  0  0  0  0  0  0  0  0  0  0
  -12.3716   -7.0846    8.2660 C   0  0  0  0  0  0  0  0  0  0  0  0
  -15.7223   -7.4403    6.6833 C   0  0  0  0  0  0  0  0  0  0  0  0
  -15.8317   -6.6068    5.6680 C   0  0  0  0  0  0  0  0  0  0  0  0
  -16.9022   -6.6335    4.6821 C   0  0  0  0  0  0  0  0  0  0  0  0
  -16.9429   -7.7078    3.7809 C   0  0  0  0  0  0  0  0  0  0  0  0
  -17.9152   -7.8049    2.8585 C   0  0  0  0  0  0  0  0  0  0  0  0
  -18.9286   -6.8492    2.7446 C   0  0  0  0  0  0  0  0  0  0  0  0
  -18.8977   -5.7837    3.6287 C   0  0  0  0  0  0  0  0  0  0  0  0
  -17.9029   -5.7089    4.5554 C   0  0  0  0  0  0  0  0  0  0  0  0
 14 15  1  0  0  0
 15 16  1  0  0  0
 16 17  2  0  0  0
 16  7  1  0  0  0
  7  8  2  0  0  0
  8  9  1  0  0  0
  9 19  1  0  0  0
 19 20  1  0  0  0
  9 10  2  0  0  0
 10 11  1  0  0  0
 10 12  1  0  0  0
 12 13  2  0  0  0
 13  1  1  0  0  0
  1  2  2  0  0  0
  2  3  1  0  0  0
  3  4  2  0  0  0
  4  5  1  0  0  0
  5  6  2  0  0  0
  4 21  1  0  0  0
 21 22  2  0  0  0
 21 23  2  0  0  0
 21 24  1  0  0  0
 24 26  1  0  0  0
 26 27  2  0  0  0
 27 28  1  0  0  0
 28 29  2  0  0  0
 29 32  1  0  0  0
 32 33  2  0  0  0
 33 34  1  0  0  0
 34 35  2  0  0  0
 35 36  1  0  0  0
 36 37  2  0  0  0
 37 38  1  0  0  0
 38 39  2  0  0  0
 29 30  1  0  0  0
 30 31  2  0  0  0
 13  7  1  0  0  0
  6  1  1  0  0  0
 31 26  1  0  0  0
 39 34  1  0  0  0
 15 18  1  0  0  0
 24 25  1  0  0  0
M  END
> <minimizedAffinity>
2.51195

> <CNNscore>
0.3881259859

> <CNNaffinity>
6.7864294052

> <CNN_VS>
2.6339895725

> <CNNaffinity_variance>
0.8347645998

$$$$
[H]/C(=C(/[H])c1c([H])c([H])c(N([H])S(=O)(=O)c2c([H])c([H])c(-c3c([H])c(Cl)c(OC([H])([H])[H])c([H])c3C(=O)N([H])C([H])([H])[H])c([H])c2[H])c([H])c1[H])c1c([H])c([H])c([H])c([H])c1[H]


 39 42  0  0  0  0  0  0  0  0999 V2000
   -8.9038   -7.8641    7.8829 C   0  0  0  0  0  0  0  0  0  0  0  0
   -9.6479   -8.9102    8.3228 C   0  0  0  0  0  0  0  0  0  0  0  0
  -10.9439   -8.6386    8.7968 C   0  0  0  0  0  0  0  0  0  0  0  0
  -11.4478   -7.3596    8.8185 C   0  0  0  0  0  0  0  0  0  0  0  0
  -10.6949   -6.2959    8.3749 C   0  0  0  0  0  0  0  0  0  0  0  0
   -9.4457   -6.5493    7.9167 C   0  0  0  0  0  0  0  0  0  0  0  0
   -6.3918   -7.6575    7.9615 C   0  0  0  0  0  0  0  0  0  0  0  0
   -5.1567   -7.8749    7.3232 C   0  0  0  0  0  0  0  0  0  0  0  0
   -5.0722   -8.3818    6.0453 C   0  0  0  0  0  0  0  0  0  0  0  0
   -6.2729   -8.6776    5.3907 C   0  0  0  0  0  0  0  0  0  0  0  0
   -6.2045   -9.3283    3.7590 Cl  0  0  0  0  0  0  0  0  0  0  0  0
   -7.4512   -8.4580    6.0343 C   0  0  0  0  0  0  0  0  0  0  0  0
   -7.5534   -7.9457    7.3320 C   0  0  0  0  0  0  0  0  0  0  0  0
   -4.4193   -5.0878    9.6456 C   0  0  0  0  0  0  0  0  0  0  0  0
   -5.3369   -6.0646    9.4822 N   0  0  0  0  0  0  0  0  0  0  0  0
   -6.2849   -7.0724    9.3175 C   0  0  0  0  0  0  0  0  0  0  0  0
   -7.0448   -7.5570   10.1480 O   0  0  0  0  0  0  0  0  0  0  0  0
   -5.7232   -5.9281   10.7753 H   0  0  0  0  0  0  0  0  0  0  0  0
   -3.8997   -8.6247    5.3627 O   0  0  0  0  0  0  0  0  0  0  0  0
   -2.7248   -8.9647    6.0405 C   0  0  0  0  0  0  0  0  0  0  0  0
  -13.0551   -7.0226    9.3672 S   0  0  0  0  0  0  0  0  0  0  0  0
  -13.6356   -8.3315    9.8573 O   0  0  0  0  0  0  0  0  0  0  0  0
  -13.9070   -6.4317    8.2943 O   0  0  0  0  0  0  0  0  0  0  0  0
  -13.0151   -5.9075   10.7042 N   0  0  0  0  0  0  0  0  0  0  0  0
  -13.8777   -5.3402   10.8333 H   0  0  0  0  0  0  0  0  0  0  0  0
  -11.8984   -5.7753   11.5499 C   0  0  0  0  0  0  0  0  0  0  0  0
  -12.0404   -5.6233   12.9041 C   0  0  0  0  0  0  0  0  0  0  0  0
  -10.9069   -5.5285   13.6729 C   0  0  0  0  0  0  0  0  0  0  0  0
   -9.6262   -5.5813   13.1281 C   0  0  0  0  0  0  0  0  0  0  0  0
   -9.5021   -5.7341   11.7701 C   0  0  0  0  0  0  0  0  0  0  0  0
  -10.6216   -5.8289   10.9826 C   0  0  0  0  0  0  0  0  0  0  0  0
   -8.4907   -5.4664   14.0134 C   0  0  0  0  0  0  0  0  0  0  0  0
   -7.2635   -5.2160   13.6026 C   0  0  0  0  0  0  0  0  0  0  0  0
   -6.1044   -5.0900   14.4741 C   0  0  0  0  0  0  0  0  0  0  0  0
   -6.0203   -3.9600   15.3011 C   0  0  0  0  0  0  0  0  0  0  0  0
   -4.9877   -3.7908   16.1443 C   0  0  0  0  0  0  0  0  0  0  0  0
   -3.9488   -4.7206   16.2415 C   0  0  0  0  0  0  0  0  0  0  0  0
   -4.0211   -5.8397   15.4289 C   0  0  0  0  0  0  0  0  0  0  0  0
   -5.0787   -5.9888   14.5842 C   0  0  0  0  0  0  0  0  0  0  0  0
 14 15  1  0  0  0
 15 16  1  0  0  0
 16 17  2  0  0  0
 16  7  1  0  0  0
  7  8  2  0  0  0
  8  9  1  0  0  0
  9 19  1  0  0  0
 19 20  1  0  0  0
  9 10  2  0  0  0
 10 11  1  0  0  0
 10 12  1  0  0  0
 12 13  2  0  0  0
 13  1  1  0  0  0
  1  2  2  0  0  0
  2  3  1  0  0  0
  3  4  2  0  0  0
  4  5  1  0  0  0
  5  6  2  0  0  0
  4 21  1  0  0  0
 21 22  2  0  0  0
 21 23  2  0  0  0
 21 24  1  0  0  0
 24 26  1  0  0  0
 26 27  2  0  0  0
 27 28  1  0  0  0
 28 29  2  0  0  0
 29 32  1  0  0  0
 32 33  2  0  0  0
 33 34  1  0  0  0
 34 35  2  0  0  0
 35 36  1  0  0  0
 36 37  2  0  0  0
 37 38  1  0  0  0
 38 39  2  0  0  0
 29 30  1  0  0  0
 30 31  2  0  0  0
 13  7  1  0  0  0
  6  1  1  0  0  0
 31 26  1  0  0  0
 39 34  1  0  0  0
 15 18  1  0  0  0
 24 25  1  0  0  0
M  END
> <minimizedAffinity>
3.46210

> <CNNscore>
0.3471664190

> <CNNaffinity>
6.3396434784

> <CNN_VS>
2.2009112835

> <CNNaffinity_variance>
0.4510703087

$$$$
[H]/C(=C(/[H])c1c([H])c([H])c(N([H])S(=O)(=O)c2c([H])c([H])c(-c3c([H])c(Cl)c(OC([H])([H])[H])c([H])c3C(=O)N([H])C([H])([H])[H])c([H])c2[H])c([H])c1[H])c1c([H])c([H])c([H])c([H])c1[H]


 39 42  0  0  0  0  0  0  0  0999 V2000
  -14.9637   -6.6244    6.4568 C   0  0  0  0  0  0  0  0  0  0  0  0
  -13.6776   -6.4612    6.0560 C   0  0  0  0  0  0  0  0  0  0  0  0
  -12.6599   -6.8153    6.9600 C   0  0  0  0  0  0  0  0  0  0  0  0
  -12.9490   -7.3099    8.2098 C   0  0  0  0  0  0  0  0  0  0  0  0
  -14.2527   -7.4749    8.6203 C   0  0  0  0  0  0  0  0  0  0  0  0
  -15.2385   -7.1362    7.7553 C   0  0  0  0  0  0  0  0  0  0  0  0
  -16.6525   -7.0790    4.6401 C   0  0  0  0  0  0  0  0  0  0  0  0
  -17.8652   -6.7214    4.0225 C   0  0  0  0  0  0  0  0  0  0  0  0
  -18.5897   -5.6179    4.4158 C   0  0  0  0  0  0  0  0  0  0  0  0
  -18.0725   -4.8505    5.4653 C   0  0  0  0  0  0  0  0  0  0  0  0
  -18.9707   -3.4357    5.9962 Cl  0  0  0  0  0  0  0  0  0  0  0  0
  -16.8985   -5.2223    6.0434 C   0  0  0  0  0  0  0  0  0  0  0  0
  -16.1524   -6.3406    5.6567 C   0  0  0  0  0  0  0  0  0  0  0  0
  -14.3538   -9.6990    5.7275 C   0  0  0  0  0  0  0  0  0  0  0  0
  -15.1635   -8.9959    4.9072 N   0  0  0  0  0  0  0  0  0  0  0  0
  -15.9982   -8.2728    4.0575 C   0  0  0  0  0  0  0  0  0  0  0  0
  -16.2628   -8.4805    2.8790 O   0  0  0  0  0  0  0  0  0  0  0  0
  -14.9395   -9.8875    3.9098 H   0  0  0  0  0  0  0  0  0  0  0  0
  -19.7846   -5.2127    3.8611 O   0  0  0  0  0  0  0  0  0  0  0  0
  -20.1222   -3.8582    3.7795 C   0  0  0  0  0  0  0  0  0  0  0  0
  -11.7016   -7.7814    9.3142 S   0  0  0  0  0  0  0  0  0  0  0  0
  -11.1419   -9.0942    8.8104 O   0  0  0  0  0  0  0  0  0  0  0  0
  -12.2056   -7.9197   10.7116 O   0  0  0  0  0  0  0  0  0  0  0  0
  -10.4186   -6.6040    9.3140 N   0  0  0  0  0  0  0  0  0  0  0  0
  -10.6767   -5.6681    9.6881 H   0  0  0  0  0  0  0  0  0  0  0  0
   -9.1252   -6.8900    8.8395 C   0  0  0  0  0  0  0  0  0  0  0  0
   -8.2586   -7.6754    9.5533 C   0  0  0  0  0  0  0  0  0  0  0  0
   -7.0221   -7.9370    9.0173 C   0  0  0  0  0  0  0  0  0  0  0  0
   -6.6204   -7.4356    7.7816 C   0  0  0  0  0  0  0  0  0  0  0  0
   -7.5007   -6.6511    7.0799 C   0  0  0  0  0  0  0  0  0  0  0  0
   -8.7410   -6.3752    7.5977 C   0  0  0  0  0  0  0  0  0  0  0  0
   -5.2974   -7.7575    7.2994 C   0  0  0  0  0  0  0  0  0  0  0  0
   -4.9040   -7.5664    6.0559 C   0  0  0  0  0  0  0  0  0  0  0  0
   -3.5760   -7.8768    5.5470 C   0  0  0  0  0  0  0  0  0  0  0  0
   -3.3089   -9.1994    5.1630 C   0  0  0  0  0  0  0  0  0  0  0  0
   -2.1107   -9.5505    4.6662 C   0  0  0  0  0  0  0  0  0  0  0  0
   -1.0731   -8.6276    4.5084 C   0  0  0  0  0  0  0  0  0  0  0  0
   -1.3255   -7.3191    4.8852 C   0  0  0  0  0  0  0  0  0  0  0  0
   -2.5484   -6.9881    5.3844 C   0  0  0  0  0  0  0  0  0  0  0  0
 14 15  1  0  0  0
 15 16  1  0  0  0
 16 17  2  0  0  0
 16  7  1  0  0  0
  7  8  2  0  0  0
  8  9  1  0  0  0
  9 19  1  0  0  0
 19 20  1  0  0  0
  9 10  2  0  0  0
 10 11  1  0  0  0
 10 12  1  0  0  0
 12 13  2  0  0  0
 13  1  1  0  0  0
  1  2  2  0  0  0
  2  3  1  0  0  0
  3  4  2  0  0  0
  4  5  1  0  0  0
  5  6  2  0  0  0
  4 21  1  0  0  0
 21 22  2  0  0  0
 21 23  2  0  0  0
 21 24  1  0  0  0
 24 26  1  0  0  0
 26 27  2  0  0  0
 27 28  1  0  0  0
 28 29  2  0  0  0
 29 32  1  0  0  0
 32 33  2  0  0  0
 33 34  1  0  0  0
 34 35  2  0  0  0
 35 36  1  0  0  0
 36 37  2  0  0  0
 37 38  1  0  0  0
 38 39  2  0  0  0
 29 30  1  0  0  0
 30 31  2  0  0  0
 13  7  1  0  0  0
  6  1  1  0  0  0
 31 26  1  0  0  0
 39 34  1  0  0  0
 15 18  1  0  0  0
 24 25  1  0  0  0
M  END
> <minimizedAffinity>
2.69294

> <CNNscore>
0.3467835188

> <CNNaffinity>
6.6885070801

> <CNN_VS>
2.3194639683

> <CNNaffinity_variance>
0.4643848538

$$$$
[H]/C(=C(/[H])c1c([H])c([H])c(N([H])S(=O)(=O)c2c([H])c([H])c(-c3c([H])c(Cl)c(OC([H])([H])[H])c([H])c3C(=O)N([H])C([H])([H])[H])c([H])c2[H])c([H])c1[H])c1c([H])c([H])c([H])c([H])c1[H]


 39 42  0  0  0  0  0  0  0  0999 V2000
   -8.4851   -7.2661    7.7383 C   0  0  0  0  0  0  0  0  0  0  0  0
   -9.2320   -6.2259    7.2892 C   0  0  0  0  0  0  0  0  0  0  0  0
  -10.5951   -6.2012    7.6346 C   0  0  0  0  0  0  0  0  0  0  0  0
  -11.1607   -7.1935    8.3998 C   0  0  0  0  0  0  0  0  0  0  0  0
  -10.4064   -8.2512    8.8553 C   0  0  0  0  0  0  0  0  0  0  0  0
   -9.0926   -8.2820    8.5271 C   0  0  0  0  0  0  0  0  0  0  0  0
   -6.4698   -8.2059    6.5491 C   0  0  0  0  0  0  0  0  0  0  0  0
   -5.0708   -8.2149    6.3980 C   0  0  0  0  0  0  0  0  0  0  0  0
   -4.2419   -7.4723    7.2096 C   0  0  0  0  0  0  0  0  0  0  0  0
   -4.8448   -6.6969    8.2062 C   0  0  0  0  0  0  0  0  0  0  0  0
   -3.8188   -5.7340    9.2601 Cl  0  0  0  0  0  0  0  0  0  0  0  0
   -6.1998   -6.7078    8.3267 C   0  0  0  0  0  0  0  0  0  0  0  0
   -7.0548   -7.4548    7.5094 C   0  0  0  0  0  0  0  0  0  0  0  0
   -9.1523  -10.6785    6.6953 C   0  0  0  0  0  0  0  0  0  0  0  0
   -8.1873   -9.8984    6.1633 N   0  0  0  0  0  0  0  0  0  0  0  0
   -7.1920   -9.0949    5.6106 C   0  0  0  0  0  0  0  0  0  0  0  0
   -6.8173   -9.0262    4.4458 O   0  0  0  0  0  0  0  0  0  0  0  0
   -8.4693  -10.3798    4.9270 H   0  0  0  0  0  0  0  0  0  0  0  0
   -2.8675   -7.4291    7.1151 O   0  0  0  0  0  0  0  0  0  0  0  0
   -2.1058   -8.6017    7.1012 C   0  0  0  0  0  0  0  0  0  0  0  0
  -12.8297   -7.1510    8.8586 S   0  0  0  0  0  0  0  0  0  0  0  0
  -13.2457   -8.5795    9.1362 O   0  0  0  0  0  0  0  0  0  0  0  0
  -13.6912   -6.5419    7.8036 O   0  0  0  0  0  0  0  0  0  0  0  0
  -13.0301   -6.2290   10.3222 N   0  0  0  0  0  0  0  0  0  0  0  0
  -13.9918   -5.8691   10.4904 H   0  0  0  0  0  0  0  0  0  0  0  0
  -11.9711   -5.9810   11.2147 C   0  0  0  0  0  0  0  0  0  0  0  0
  -12.1976   -5.7378   12.5439 C   0  0  0  0  0  0  0  0  0  0  0  0
  -11.1157   -5.5320   13.3637 C   0  0  0  0  0  0  0  0  0  0  0  0
   -9.8047   -5.5618   12.8947 C   0  0  0  0  0  0  0  0  0  0  0  0
   -9.5957   -5.8070   11.5609 C   0  0  0  0  0  0  0  0  0  0  0  0
  -10.6626   -6.0135   10.7232 C   0  0  0  0  0  0  0  0  0  0  0  0
   -8.7284   -5.3274   13.8290 C   0  0  0  0  0  0  0  0  0  0  0  0
   -7.4570   -5.2773   13.4849 C   0  0  0  0  0  0  0  0  0  0  0  0
   -6.3552   -5.0372   14.4054 C   0  0  0  0  0  0  0  0  0  0  0  0
   -5.2679   -5.9231   14.3788 C   0  0  0  0  0  0  0  0  0  0  0  0
   -4.2089   -5.7485   15.1874 C   0  0  0  0  0  0  0  0  0  0  0  0
   -4.1336   -4.6866   16.0931 C   0  0  0  0  0  0  0  0  0  0  0  0
   -5.2020   -3.8062   16.1284 C   0  0  0  0  0  0  0  0  0  0  0  0
   -6.2626   -4.0039   15.2977 C   0  0  0  0  0  0  0  0  0  0  0  0
 14 15  1  0  0  0
 15 16  1  0  0  0
 16 17  2  0  0  0
 16  7  1  0  0  0
  7  8  2  0  0  0
  8  9  1  0  0  0
  9 19  1  0  0  0
 19 20  1  0  0  0
  9 10  2  0  0  0
 10 11  1  0  0  0
 10 12  1  0  0  0
 12 13  2  0  0  0
 13  1  1  0  0  0
  1  2  2  0  0  0
  2  3  1  0  0  0
  3  4  2  0  0  0
  4  5  1  0  0  0
  5  6  2  0  0  0
  4 21  1  0  0  0
 21 22  2  0  0  0
 21 23  2  0  0  0
 21 24  1  0  0  0
 24 26  1  0  0  0
 26 27  2  0  0  0
 27 28  1  0  0  0
 28 29  2  0  0  0
 29 32  1  0  0  0
 32 33  2  0  0  0
 33 34  1  0  0  0
 34 35  2  0  0  0
 35 36  1  0  0  0
 36 37  2  0  0  0
 37 38  1  0  0  0
 38 39  2  0  0  0
 29 30  1  0  0  0
 30 31  2  0  0  0
 13  7  1  0  0  0
  6  1  1  0  0  0
 31 26  1  0  0  0
 39 34  1  0  0  0
 15 18  1  0  0  0
 24 25  1  0  0  0
M  END
> <minimizedAffinity>
2.60363

> <CNNscore>
0.3029399514

> <CNNaffinity>
6.3996877670

> <CNN_VS>
1.9387210608

> <CNNaffinity_variance>
0.5201600790

$$$$
[H]/C(=C(/[H])c1c([H])c([H])c(N([H])S(=O)(=O)c2c([H])c([H])c(-c3c([H])c(Cl)c(OC([H])([H])[H])c([H])c3C(=O)N([H])C([H])([H])[H])c([H])c2[H])c([H])c1[H])c1c([H])c([H])c([H])c([H])c1[H]


 39 42  0  0  0  0  0  0  0  0999 V2000
   -7.6044   -6.9544    7.9367 C   0  0  0  0  0  0  0  0  0  0  0  0
   -8.5615   -6.1872    7.3563 C   0  0  0  0  0  0  0  0  0  0  0  0
   -9.8255   -6.7663    7.1439 C   0  0  0  0  0  0  0  0  0  0  0  0
  -10.0912   -8.0653    7.5077 C   0  0  0  0  0  0  0  0  0  0  0  0
   -9.1219   -8.8469    8.0948 C   0  0  0  0  0  0  0  0  0  0  0  0
   -7.9019   -8.2963    8.3029 C   0  0  0  0  0  0  0  0  0  0  0  0
   -5.2377   -6.2698    7.3991 C   0  0  0  0  0  0  0  0  0  0  0  0
   -4.0047   -5.7751    7.8628 C   0  0  0  0  0  0  0  0  0  0  0  0
   -3.7677   -5.5351    9.1983 C   0  0  0  0  0  0  0  0  0  0  0  0
   -4.8083   -5.8042   10.0940 C   0  0  0  0  0  0  0  0  0  0  0  0
   -4.5434   -5.5081   11.8064 Cl  0  0  0  0  0  0  0  0  0  0  0  0
   -5.9894   -6.2805    9.6153 C   0  0  0  0  0  0  0  0  0  0  0  0
   -6.2460   -6.5276    8.2625 C   0  0  0  0  0  0  0  0  0  0  0  0
   -6.5489   -8.7962    5.1124 C   0  0  0  0  0  0  0  0  0  0  0  0
   -5.9314   -7.6670    5.5204 N   0  0  0  0  0  0  0  0  0  0  0  0
   -5.2934   -6.5006    5.9375 C   0  0  0  0  0  0  0  0  0  0  0  0
   -4.7554   -5.6332    5.2590 O   0  0  0  0  0  0  0  0  0  0  0  0
   -5.7165   -7.3095    4.2296 H   0  0  0  0  0  0  0  0  0  0  0  0
   -2.5894   -5.0471    9.7211 O   0  0  0  0  0  0  0  0  0  0  0  0
   -1.5298   -4.6710    8.8898 C   0  0  0  0  0  0  0  0  0  0  0  0
  -11.6551   -8.7731    7.2820 S   0  0  0  0  0  0  0  0  0  0  0  0
  -11.4319  -10.2263    6.9226 O   0  0  0  0  0  0  0  0  0  0  0  0
  -12.4431   -8.0784    6.2225 O   0  0  0  0  0  0  0  0  0  0  0  0
  -12.5658   -8.7102    8.7649 N   0  0  0  0  0  0  0  0  0  0  0  0
  -13.2567   -9.4776    8.8929 H   0  0  0  0  0  0  0  0  0  0  0  0
  -12.3882   -7.6951    9.7229 C   0  0  0  0  0  0  0  0  0  0  0  0
  -13.3517   -7.4154   10.6560 C   0  0  0  0  0  0  0  0  0  0  0  0
  -13.1003   -6.4308   11.5792 C   0  0  0  0  0  0  0  0  0  0  0  0
  -11.9080   -5.7112   11.6003 C   0  0  0  0  0  0  0  0  0  0  0  0
  -10.9538   -6.0043   10.6588 C   0  0  0  0  0  0  0  0  0  0  0  0
  -11.1849   -6.9832    9.7256 C   0  0  0  0  0  0  0  0  0  0  0  0
  -11.7333   -4.6880   12.6047 C   0  0  0  0  0  0  0  0  0  0  0  0
  -11.2459   -4.9175   13.8077 C   0  0  0  0  0  0  0  0  0  0  0  0
  -11.0548   -3.9037   14.8347 C   0  0  0  0  0  0  0  0  0  0  0  0
  -10.2459   -2.7991   14.5292 C   0  0  0  0  0  0  0  0  0  0  0  0
  -10.0437   -1.8170   15.4239 C   0  0  0  0  0  0  0  0  0  0  0  0
  -10.6200   -1.8422   16.6969 C   0  0  0  0  0  0  0  0  0  0  0  0
  -11.4198   -2.9287   17.0095 C   0  0  0  0  0  0  0  0  0  0  0  0
  -11.6105   -3.9101   16.0850 C   0  0  0  0  0  0  0  0  0  0  0  0
 14 15  1  0  0  0
 15 16  1  0  0  0
 16 17  2  0  0  0
 16  7  1  0  0  0
  7  8  2  0  0  0
  8  9  1  0  0  0
  9 19  1  0  0  0
 19 20  1  0  0  0
  9 10  2  0  0  0
 10 11  1  0  0  0
 10 12  1  0  0  0
 12 13  2  0  0  0
 13  1  1  0  0  0
  1  2  2  0  0  0
  2  3  1  0  0  0
  3  4  2  0  0  0
  4  5  1  0  0  0
  5  6  2  0  0  0
  4 21  1  0  0  0
 21 22  2  0  0  0
 21 23  2  0  0  0
 21 24  1  0  0  0
 24 26  1  0  0  0
 26 27  2  0  0  0
 27 28  1  0  0  0
 28 29  2  0  0  0
 29 32  1  0  0  0
 32 33  2  0  0  0
 33 34  1  0  0  0
 34 35  2  0  0  0
 35 36  1  0  0  0
 36 37  2  0  0  0
 37 38  1  0  0  0
 38 39  2  0  0  0
 29 30  1  0  0  0
 30 31  2  0  0  0
 13  7  1  0  0  0
  6  1  1  0  0  0
 31 26  1  0  0  0
 39 34  1  0  0  0
 15 18  1  0  0  0
 24 25  1  0  0  0
M  END
> <minimizedAffinity>
1.18650

> <CNNscore>
0.2576605082

> <CNNaffinity>
6.4188919067

> <CNN_VS>
1.6538949013

> <CNNaffinity_variance>
0.3824313283

$$$$
[H]/C(=C(/[H])c1c([H])c([H])c(N([H])S(=O)(=O)c2c([H])c([H])c(-c3c([H])c(Cl)c(OC([H])([H])[H])c([H])c3C(=O)N([H])C([H])([H])[H])c([H])c2[H])c([H])c1[H])c1c([H])c([H])c([H])c([H])c1[H]


 39 42  0  0  0  0  0  0  0  0999 V2000
   -8.5942   -7.1595    7.7545 C   0  0  0  0  0  0  0  0  0  0  0  0
   -8.2266   -6.6751    6.5414 C   0  0  0  0  0  0  0  0  0  0  0  0
   -6.8511   -6.5552    6.2735 C   0  0  0  0  0  0  0  0  0  0  0  0
   -5.9039   -6.9130    7.2036 C   0  0  0  0  0  0  0  0  0  0  0  0
   -6.2735   -7.4028    8.4360 C   0  0  0  0  0  0  0  0  0  0  0  0
   -7.5964   -7.5215    8.7015 C   0  0  0  0  0  0  0  0  0  0  0  0
  -10.7140   -8.4949    8.0409 C   0  0  0  0  0  0  0  0  0  0  0  0
  -11.9933   -8.5925    8.6189 C   0  0  0  0  0  0  0  0  0  0  0  0
  -12.5370   -7.5737    9.3698 C   0  0  0  0  0  0  0  0  0  0  0  0
  -11.7651   -6.4195    9.5414 C   0  0  0  0  0  0  0  0  0  0  0  0
  -12.4253   -5.0988   10.4956 Cl  0  0  0  0  0  0  0  0  0  0  0  0
  -10.5314   -6.3554    8.9715 C   0  0  0  0  0  0  0  0  0  0  0  0
   -9.9648   -7.3817    8.2082 C   0  0  0  0  0  0  0  0  0  0  0  0
   -7.8096  -10.6840    7.7194 C   0  0  0  0  0  0  0  0  0  0  0  0
   -9.0419  -10.1851    7.4839 N   0  0  0  0  0  0  0  0  0  0  0  0
  -10.3143   -9.6731    7.2380 C   0  0  0  0  0  0  0  0  0  0  0  0
  -11.1560  -10.0571    6.4341 O   0  0  0  0  0  0  0  0  0  0  0  0
   -9.2735  -11.1660    6.5761 H   0  0  0  0  0  0  0  0  0  0  0  0
  -13.7782   -7.6030    9.9684 O   0  0  0  0  0  0  0  0  0  0  0  0
  -14.9347   -7.8567    9.2245 C   0  0  0  0  0  0  0  0  0  0  0  0
   -4.2091   -6.8017    6.8675 S   0  0  0  0  0  0  0  0  0  0  0  0
   -4.0262   -5.6443    5.9096 O   0  0  0  0  0  0  0  0  0  0  0  0
   -3.6632   -8.0633    6.2875 O   0  0  0  0  0  0  0  0  0  0  0  0
   -3.3263   -6.4486    8.3265 N   0  0  0  0  0  0  0  0  0  0  0  0
   -2.8482   -7.2633    8.7626 H   0  0  0  0  0  0  0  0  0  0  0  0
   -3.2639   -5.1578    8.8830 C   0  0  0  0  0  0  0  0  0  0  0  0
   -4.0267   -4.8079    9.9660 C   0  0  0  0  0  0  0  0  0  0  0  0
   -3.8946   -3.5399   10.4754 C   0  0  0  0  0  0  0  0  0  0  0  0
   -3.0181   -2.6030    9.9335 C   0  0  0  0  0  0  0  0  0  0  0  0
   -2.2615   -2.9700    8.8492 C   0  0  0  0  0  0  0  0  0  0  0  0
   -2.3790   -4.2317    8.3228 C   0  0  0  0  0  0  0  0  0  0  0  0
   -2.9504   -1.2898   10.5312 C   0  0  0  0  0  0  0  0  0  0  0  0
   -2.9175   -1.0773   11.8317 C   0  0  0  0  0  0  0  0  0  0  0  0
   -2.8435    0.2345   12.4582 C   0  0  0  0  0  0  0  0  0  0  0  0
   -3.2725    0.3558   13.7883 C   0  0  0  0  0  0  0  0  0  0  0  0
   -3.2127    1.5330   14.4335 C   0  0  0  0  0  0  0  0  0  0  0  0
   -2.7272    2.6916   13.8207 C   0  0  0  0  0  0  0  0  0  0  0  0
   -2.3019    2.5836   12.5072 C   0  0  0  0  0  0  0  0  0  0  0  0
   -2.3711    1.3791   11.8759 C   0  0  0  0  0  0  0  0  0  0  0  0
 14 15  1  0  0  0
 15 16  1  0  0  0
 16 17  2  0  0  0
 16  7  1  0  0  0
  7  8  2  0  0  0
  8  9  1  0  0  0
  9 19  1  0  0  0
 19 20  1  0  0  0
  9 10  2  0  0  0
 10 11  1  0  0  0
 10 12  1  0  0  0
 12 13  2  0  0  0
 13  1  1  0  0  0
  1  2  2  0  0  0
  2  3  1  0  0  0
  3  4  2  0  0  0
  4  5  1  0  0  0
  5  6  2  0  0  0
  4 21  1  0  0  0
 21 22  2  0  0  0
 21 23  2  0  0  0
 21 24  1  0  0  0
 24 26  1  0  0  0
 26 27  2  0  0  0
 27 28  1  0  0  0
 28 29  2  0  0  0
 29 32  1  0  0  0
 32 33  2  0  0  0
 33 34  1  0  0  0
 34 35  2  0  0  0
 35 36  1  0  0  0
 36 37  2  0  0  0
 37 38  1  0  0  0
 38 39  2  0  0  0
 29 30  1  0  0  0
 30 31  2  0  0  0
 13  7  1  0  0  0
  6  1  1  0  0  0
 31 26  1  0  0  0
 39 34  1  0  0  0
 15 18  1  0  0  0
 24 25  1  0  0  0
M  END
> <minimizedAffinity>
-7.41044

> <CNNscore>
0.2361266762

> <CNNaffinity>
6.3506155014

> <CNN_VS>
1.4995497465

> <CNNaffinity_variance>
0.1339531988

$$$$
[H]/C(=C(/[H])c1c([H])c([H])c(N([H])S(=O)(=O)c2c([H])c([H])c(-c3c([H])c(Cl)c(OC([H])([H])[H])c([H])c3C(=O)N([H])C([H])([H])[H])c([H])c2[H])c([H])c1[H])c1c([H])c([H])c([H])c([H])c1[H]


 39 42  0  0  0  0  0  0  0  0999 V2000
   -7.2882   -7.3547    7.4294 C   0  0  0  0  0  0  0  0  0  0  0  0
   -6.7210   -6.8192    6.3190 C   0  0  0  0  0  0  0  0  0  0  0  0
   -5.4442   -6.2438    6.4483 C   0  0  0  0  0  0  0  0  0  0  0  0
   -4.7859   -6.2191    7.6551 C   0  0  0  0  0  0  0  0  0  0  0  0
   -5.3593   -6.7597    8.7839 C   0  0  0  0  0  0  0  0  0  0  0  0
   -6.5888   -7.3160    8.6675 C   0  0  0  0  0  0  0  0  0  0  0  0
   -9.7675   -7.4764    7.8736 C   0  0  0  0  0  0  0  0  0  0  0  0
  -10.9586   -8.2212    7.7923 C   0  0  0  0  0  0  0  0  0  0  0  0
  -10.9808   -9.5183    7.3292 C   0  0  0  0  0  0  0  0  0  0  0  0
   -9.7616  -10.0814    6.9368 C   0  0  0  0  0  0  0  0  0  0  0  0
   -9.7511  -11.7343    6.3383 Cl  0  0  0  0  0  0  0  0  0  0  0  0
   -8.6271   -9.3358    7.0257 C   0  0  0  0  0  0  0  0  0  0  0  0
   -8.5884   -8.0175    7.4920 C   0  0  0  0  0  0  0  0  0  0  0  0
  -11.6482   -5.8699   10.5593 C   0  0  0  0  0  0  0  0  0  0  0  0
  -10.8052   -5.9924    9.5118 N   0  0  0  0  0  0  0  0  0  0  0  0
   -9.9345   -6.1147    8.4309 C   0  0  0  0  0  0  0  0  0  0  0  0
   -9.2875   -5.2432    7.8617 O   0  0  0  0  0  0  0  0  0  0  0  0
  -10.5147   -4.6692    9.5815 H   0  0  0  0  0  0  0  0  0  0  0  0
  -12.1085  -10.3029    7.2176 O   0  0  0  0  0  0  0  0  0  0  0  0
  -13.2738  -10.0007    7.9289 C   0  0  0  0  0  0  0  0  0  0  0  0
   -3.1992   -5.5446    7.8140 S   0  0  0  0  0  0  0  0  0  0  0  0
   -2.2877   -6.3482    6.9118 O   0  0  0  0  0  0  0  0  0  0  0  0
   -2.7111   -5.5722    9.2236 O   0  0  0  0  0  0  0  0  0  0  0  0
   -3.1890   -3.8908    7.2686 N   0  0  0  0  0  0  0  0  0  0  0  0
   -3.1356   -3.1763    8.0229 H   0  0  0  0  0  0  0  0  0  0  0  0
   -3.2527   -3.5395    5.9076 C   0  0  0  0  0  0  0  0  0  0  0  0
   -2.7110   -4.3393    4.9360 C   0  0  0  0  0  0  0  0  0  0  0  0
   -2.8344   -3.9494    3.6254 C   0  0  0  0  0  0  0  0  0  0  0  0
   -3.4869   -2.7771    3.2514 C   0  0  0  0  0  0  0  0  0  0  0  0
   -4.0239   -1.9879    4.2371 C   0  0  0  0  0  0  0  0  0  0  0  0
   -3.9104   -2.3575    5.5536 C   0  0  0  0  0  0  0  0  0  0  0  0
   -3.5626   -2.4430    1.8482 C   0  0  0  0  0  0  0  0  0  0  0  0
   -3.6558   -3.3387    0.8856 C   0  0  0  0  0  0  0  0  0  0  0  0
   -3.7392   -3.0279   -0.5340 C   0  0  0  0  0  0  0  0  0  0  0  0
   -5.0071   -2.7855   -1.0832 C   0  0  0  0  0  0  0  0  0  0  0  0
   -5.1540   -2.4735   -2.3820 C   0  0  0  0  0  0  0  0  0  0  0  0
   -4.0631   -2.3766   -3.2502 C   0  0  0  0  0  0  0  0  0  0  0  0
   -2.8066   -2.6148   -2.7188 C   0  0  0  0  0  0  0  0  0  0  0  0
   -2.6840   -2.9276   -1.3993 C   0  0  0  0  0  0  0  0  0  0  0  0
 14 15  1  0  0  0
 15 16  1  0  0  0
 16 17  2  0  0  0
 16  7  1  0  0  0
  7  8  2  0  0  0
  8  9  1  0  0  0
  9 19  1  0  0  0
 19 20  1  0  0  0
  9 10  2  0  0  0
 10 11  1  0  0  0
 10 12  1  0  0  0
 12 13  2  0  0  0
 13  1  1  0  0  0
  1  2  2  0  0  0
  2  3  1  0  0  0
  3  4  2  0  0  0
  4  5  1  0  0  0
  5  6  2  0  0  0
  4 21  1  0  0  0
 21 22  2  0  0  0
 21 23  2  0  0  0
 21 24  1  0  0  0
 24 26  1  0  0  0
 26 27  2  0  0  0
 27 28  1  0  0  0
 28 29  2  0  0  0
 29 32  1  0  0  0
 32 33  2  0  0  0
 33 34  1  0  0  0
 34 35  2  0  0  0
 35 36  1  0  0  0
 36 37  2  0  0  0
 37 38  1  0  0  0
 38 39  2  0  0  0
 29 30  1  0  0  0
 30 31  2  0  0  0
 13  7  1  0  0  0
  6  1  1  0  0  0
 31 26  1  0  0  0
 39 34  1  0  0  0
 15 18  1  0  0  0
 24 25  1  0  0  0
M  END
> <minimizedAffinity>
-6.73949

> <CNNscore>
0.2352132052

> <CNNaffinity>
6.3356795311

> <CNN_VS>
1.4902354479

> <CNNaffinity_variance>
0.1127412096

$$$$
[H]/C(=C(/[H])c1c([H])c([H])c(N([H])S(=O)(=O)c2c([H])c([H])c(-c3c([H])c(Cl)c(OC([H])([H])[H])c([H])c3C(=O)N([H])C([H])([H])[H])c([H])c2[H])c([H])c1[H])c1c([H])c([H])c([H])c([H])c1[H]


 39 42  0  0  0  0  0  0  0  0999 V2000
   -8.7051   -7.0856    7.9042 C   0  0  0  0  0  0  0  0  0  0  0  0
   -8.2757   -6.5793    6.7207 C   0  0  0  0  0  0  0  0  0  0  0  0
   -6.8906   -6.4105    6.5445 C   0  0  0  0  0  0  0  0  0  0  0  0
   -5.9946   -6.7432    7.5328 C   0  0  0  0  0  0  0  0  0  0  0  0
   -6.4269   -7.2551    8.7354 C   0  0  0  0  0  0  0  0  0  0  0  0
   -7.7595   -7.4209    8.9127 C   0  0  0  0  0  0  0  0  0  0  0  0
  -10.7975   -8.4876    8.0259 C   0  0  0  0  0  0  0  0  0  0  0  0
  -12.1068   -8.6359    8.5199 C   0  0  0  0  0  0  0  0  0  0  0  0
  -12.7265   -7.6520    9.2582 C   0  0  0  0  0  0  0  0  0  0  0  0
  -12.0017   -6.4808    9.5046 C   0  0  0  0  0  0  0  0  0  0  0  0
  -12.7594   -5.2036   10.4454 Cl  0  0  0  0  0  0  0  0  0  0  0  0
  -10.7375   -6.3675    9.0151 C   0  0  0  0  0  0  0  0  0  0  0  0
  -10.0940   -7.3579    8.2655 C   0  0  0  0  0  0  0  0  0  0  0  0
   -7.7831  -10.5334    7.7838 C   0  0  0  0  0  0  0  0  0  0  0  0
   -9.0281  -10.0892    7.5092 N   0  0  0  0  0  0  0  0  0  0  0  0
  -10.3134   -9.6336    7.2229 C   0  0  0  0  0  0  0  0  0  0  0  0
  -11.1060  -10.0445    6.3832 O   0  0  0  0  0  0  0  0  0  0  0  0
   -9.1798  -11.0661    6.5805 H   0  0  0  0  0  0  0  0  0  0  0  0
  -14.0011   -7.7315    9.7768 O   0  0  0  0  0  0  0  0  0  0  0  0
  -15.0753   -8.1656    8.9937 C   0  0  0  0  0  0  0  0  0  0  0  0
   -4.2862   -6.5715    7.3095 S   0  0  0  0  0  0  0  0  0  0  0  0
   -3.8932   -7.5090    6.1883 O   0  0  0  0  0  0  0  0  0  0  0  0
   -3.5195   -6.8780    8.5522 O   0  0  0  0  0  0  0  0  0  0  0  0
   -3.9017   -4.9446    6.8219 N   0  0  0  0  0  0  0  0  0  0  0  0
   -3.9920   -4.2257    7.5687 H   0  0  0  0  0  0  0  0  0  0  0  0
   -3.5015   -4.6184    5.5130 C   0  0  0  0  0  0  0  0  0  0  0  0
   -4.1579   -3.6642    4.7810 C   0  0  0  0  0  0  0  0  0  0  0  0
   -3.6961   -3.3759    3.5206 C   0  0  0  0  0  0  0  0  0  0  0  0
   -2.5910   -4.0151    2.9638 C   0  0  0  0  0  0  0  0  0  0  0  0
   -1.9452   -4.9679    3.7107 C   0  0  0  0  0  0  0  0  0  0  0  0
   -2.3909   -5.2731    4.9720 C   0  0  0  0  0  0  0  0  0  0  0  0
   -2.1803   -3.6520    1.6275 C   0  0  0  0  0  0  0  0  0  0  0  0
   -3.0125   -3.5315    0.6124 C   0  0  0  0  0  0  0  0  0  0  0  0
   -2.6249   -3.1616   -0.7411 C   0  0  0  0  0  0  0  0  0  0  0  0
   -3.5893   -2.5588   -1.5624 C   0  0  0  0  0  0  0  0  0  0  0  0
   -3.2931   -2.1742   -2.8154 C   0  0  0  0  0  0  0  0  0  0  0  0
   -2.0211   -2.3540   -3.3660 C   0  0  0  0  0  0  0  0  0  0  0  0
   -1.0614   -2.9491   -2.5643 C   0  0  0  0  0  0  0  0  0  0  0  0
   -1.3860   -3.3283   -1.2974 C   0  0  0  0  0  0  0  0  0  0  0  0
 14 15  1  0  0  0
 15 16  1  0  0  0
 16 17  2  0  0  0
 16  7  1  0  0  0
  7  8  2  0  0  0
  8  9  1  0  0  0
  9 19  1  0  0  0
 19 20  1  0  0  0
  9 10  2  0  0  0
 10 11  1  0  0  0
 10 12  1  0  0  0
 12 13  2  0  0  0
 13  1  1  0  0  0
  1  2  2  0  0  0
  2  3  1  0  0  0
  3  4  2  0  0  0
  4  5  1  0  0  0
  5  6  2  0  0  0
  4 21  1  0  0  0
 21 22  2  0  0  0
 21 23  2  0  0  0
 21 24  1  0  0  0
 24 26  1  0  0  0
 26 27  2  0  0  0
 27 28  1  0  0  0
 28 29  2  0  0  0
 29 32  1  0  0  0
 32 33  2  0  0  0
 33 34  1  0  0  0
 34 35  2  0  0  0
 35 36  1  0  0  0
 36 37  2  0  0  0
 37 38  1  0  0  0
 38 39  2  0  0  0
 29 30  1  0  0  0
 30 31  2  0  0  0
 13  7  1  0  0  0
  6  1  1  0  0  0
 31 26  1  0  0  0
 39 34  1  0  0  0
 15 18  1  0  0  0
 24 25  1  0  0  0
M  END
> <minimizedAffinity>
-8.07567

> <CNNscore>
0.2253925800

> <CNNaffinity>
6.2620253563

> <CNN_VS>
1.4114140272

> <CNNaffinity_variance>
0.0586255416

$$$$
[H]/C(=C(/[H])c1c([H])c([H])c(N([H])S(=O)(=O)c2c([H])c([H])c(-c3c([H])c(Cl)c(OC([H])([H])[H])c([H])c3C(=O)N([H])C([H])([H])[H])c([H])c2[H])c([H])c1[H])c1c([H])c([H])c([H])c([H])c1[H]


 39 42  0  0  0  0  0  0  0  0999 V2000
  -11.9971   -8.2560    7.3523 C   0  0  0  0  0  0  0  0  0  0  0  0
  -11.1653   -7.2825    7.8012 C   0  0  0  0  0  0  0  0  0  0  0  0
   -9.8018   -7.5985    7.9397 C   0  0  0  0  0  0  0  0  0  0  0  0
   -9.3193   -8.8491    7.6340 C   0  0  0  0  0  0  0  0  0  0  0  0
  -10.1608   -9.8396    7.1802 C   0  0  0  0  0  0  0  0  0  0  0  0
  -11.4754   -9.5430    7.0440 C   0  0  0  0  0  0  0  0  0  0  0  0
  -14.3752   -7.7344    8.0093 C   0  0  0  0  0  0  0  0  0  0  0  0
  -15.7118   -7.5557    7.6073 C   0  0  0  0  0  0  0  0  0  0  0  0
  -16.1187   -7.7591    6.3071 C   0  0  0  0  0  0  0  0  0  0  0  0
  -15.1453   -8.1566    5.3840 C   0  0  0  0  0  0  0  0  0  0  0  0
  -15.6270   -8.4237    3.7146 Cl  0  0  0  0  0  0  0  0  0  0  0  0
  -13.8611   -8.3197    5.8025 C   0  0  0  0  0  0  0  0  0  0  0  0
  -13.4321   -8.1154    7.1182 C   0  0  0  0  0  0  0  0  0  0  0  0
  -13.0487   -5.0827   10.1400 C   0  0  0  0  0  0  0  0  0  0  0  0
  -13.5833   -6.2749    9.7998 N   0  0  0  0  0  0  0  0  0  0  0  0
  -14.1350   -7.5064    9.4526 C   0  0  0  0  0  0  0  0  0  0  0  0
  -14.4435   -8.4436   10.1795 O   0  0  0  0  0  0  0  0  0  0  0  0
  -13.6504   -6.6265   11.1081 H   0  0  0  0  0  0  0  0  0  0  0  0
  -17.4065   -7.5980    5.8431 O   0  0  0  0  0  0  0  0  0  0  0  0
  -17.8160   -6.4019    5.2453 C   0  0  0  0  0  0  0  0  0  0  0  0
   -7.6366   -9.2344    7.7680 S   0  0  0  0  0  0  0  0  0  0  0  0
   -7.1147   -9.4194    6.3595 O   0  0  0  0  0  0  0  0  0  0  0  0
   -7.3999  -10.4584    8.5877 O   0  0  0  0  0  0  0  0  0  0  0  0
   -6.7715   -7.9136    8.5026 N   0  0  0  0  0  0  0  0  0  0  0  0
   -6.9032   -7.8152    9.5300 H   0  0  0  0  0  0  0  0  0  0  0  0
   -5.9554   -7.0364    7.7649 C   0  0  0  0  0  0  0  0  0  0  0  0
   -4.8165   -6.4966    8.3021 C   0  0  0  0  0  0  0  0  0  0  0  0
   -4.0519   -5.6704    7.5161 C   0  0  0  0  0  0  0  0  0  0  0  0
   -4.3910   -5.3640    6.2005 C   0  0  0  0  0  0  0  0  0  0  0  0
   -5.5348   -5.9134    5.6781 C   0  0  0  0  0  0  0  0  0  0  0  0
   -6.3149   -6.7402    6.4466 C   0  0  0  0  0  0  0  0  0  0  0  0
   -3.5300   -4.4796    5.4504 C   0  0  0  0  0  0  0  0  0  0  0  0
   -3.9700   -3.5910    4.5819 C   0  0  0  0  0  0  0  0  0  0  0  0
   -3.1243   -2.6851    3.8183 C   0  0  0  0  0  0  0  0  0  0  0  0
   -3.5152   -2.3622    2.5103 C   0  0  0  0  0  0  0  0  0  0  0  0
   -2.7915   -1.5166    1.7572 C   0  0  0  0  0  0  0  0  0  0  0  0
   -1.6191   -0.9198    2.2292 C   0  0  0  0  0  0  0  0  0  0  0  0
   -1.2233   -1.2323    3.5190 C   0  0  0  0  0  0  0  0  0  0  0  0
   -1.9748   -2.0906    4.2626 C   0  0  0  0  0  0  0  0  0  0  0  0
 14 15  1  0  0  0
 15 16  1  0  0  0
 16 17  2  0  0  0
 16  7  1  0  0  0
  7  8  2  0  0  0
  8  9  1  0  0  0
  9 19  1  0  0  0
 19 20  1  0  0  0
  9 10  2  0  0  0
 10 11  1  0  0  0
 10 12  1  0  0  0
 12 13  2  0  0  0
 13  1  1  0  0  0
  1  2  2  0  0  0
  2  3  1  0  0  0
  3  4  2  0  0  0
  4  5  1  0  0  0
  5  6  2  0  0  0
  4 21  1  0  0  0
 21 22  2  0  0  0
 21 23  2  0  0  0
 21 24  1  0  0  0
 24 26  1  0  0  0
 26 27  2  0  0  0
 27 28  1  0  0  0
 28 29  2  0  0  0
 29 32  1  0  0  0
 32 33  2  0  0  0
 33 34  1  0  0  0
 34 35  2  0  0  0
 35 36  1  0  0  0
 36 37  2  0  0  0
 37 38  1  0  0  0
 38 39  2  0  0  0
 29 30  1  0  0  0
 30 31  2  0  0  0
 13  7  1  0  0  0
  6  1  1  0  0  0
 31 26  1  0  0  0
 39 34  1  0  0  0
 15 18  1  0  0  0
 24 25  1  0  0  0
M  END
> <minimizedAffinity>
-8.79310

> <CNNscore>
0.2199136466

> <CNNaffinity>
6.8640050888

> <CNN_VS>
1.5094883442

> <CNNaffinity_variance>
0.0866143554

$$$$
[H]OC1(C([H])([H])c2c([H])c([H])c([H])c([H])c2[H])N=C1c1c([H])c([H])c([H])c(OC([H])=O)c1[H]


 21 23  0  0  0  0  0  0  0  0999 V2000
  -16.4214   -8.1070    7.2447 O   0  0  0  0  0  0  0  0  0  0  0  0
  -15.1093   -8.4255    6.9023 C   0  0  0  0  0  0  0  0  0  0  0  0
  -14.0133   -8.1398    7.8504 C   0  0  0  0  0  0  0  0  0  0  0  0
  -14.5125   -9.4566    7.6992 N   0  0  0  0  0  0  0  0  0  0  0  0
  -16.6147   -7.1467    7.1873 H   0  0  0  0  0  0  0  0  0  0  0  0
  -13.0533   -7.3467    8.5524 C   0  0  0  0  0  0  0  0  0  0  0  0
  -13.4315   -6.4166    9.4933 C   0  0  0  0  0  0  0  0  0  0  0  0
  -12.4854   -5.6690   10.1517 C   0  0  0  0  0  0  0  0  0  0  0  0
  -11.1236   -5.8343    9.8830 C   0  0  0  0  0  0  0  0  0  0  0  0
  -10.7222   -6.7597    8.9449 C   0  0  0  0  0  0  0  0  0  0  0  0
  -11.6836   -7.4951    8.2996 C   0  0  0  0  0  0  0  0  0  0  0  0
   -9.3674   -6.9357    8.6662 O   0  0  0  0  0  0  0  0  0  0  0  0
   -8.9669   -7.2126    7.3679 C   0  0  0  0  0  0  0  0  0  0  0  0
   -8.5715   -6.2450    6.6700 O   0  0  0  0  0  0  0  0  0  0  0  0
  -14.7167   -8.2761    5.4437 C   0  0  0  0  0  0  0  0  0  0  0  0
  -15.3903   -7.0839    4.8977 C   0  0  0  0  0  0  0  0  0  0  0  0
  -16.5321   -7.2413    4.1421 C   0  0  0  0  0  0  0  0  0  0  0  0
  -17.1775   -6.1391    3.6220 C   0  0  0  0  0  0  0  0  0  0  0  0
  -16.7098   -4.8610    3.8369 C   0  0  0  0  0  0  0  0  0  0  0  0
  -15.5710   -4.7137    4.5912 C   0  0  0  0  0  0  0  0  0  0  0  0
  -14.9125   -5.8206    5.1204 C   0  0  0  0  0  0  0  0  0  0  0  0
  1  2  1  0  0  0
  2 15  1  0  0  0
 15 16  1  0  0  0
 16 17  2  0  0  0
 17 18  1  0  0  0
 18 19  2  0  0  0
 19 20  1  0  0  0
 20 21  2  0  0  0
  2  3  1  0  0  0
  3  4  2  0  0  0
  3  6  1  0  0  0
  6  7  2  0  0  0
  7  8  1  0  0  0
  8  9  2  0  0  0
  9 10  1  0  0  0
 10 12  1  0  0  0
 12 13  1  0  0  0
 13 14  2  0  0  0
 10 11  2  0  0  0
  4  2  1  0  0  0
 11  6  1  0  0  0
 21 16  1  0  0  0
  1  5  1  0  0  0
M  END
> <minimizedAffinity>
-8.85587

> <CNNscore>
0.7985571623

> <CNNaffinity>
6.0159749985

> <CNN_VS>
4.8041000366

> <CNNaffinity_variance>
0.1967425495

$$$$
[H]OC1(C([H])([H])c2c([H])c([H])c([H])c([H])c2[H])N=C1c1c([H])c([H])c([H])c(OC([H])=O)c1[H]


 21 23  0  0  0  0  0  0  0  0999 V2000
  -16.4340   -8.0672    7.2440 O   0  0  0  0  0  0  0  0  0  0  0  0
  -15.1216   -8.3956    6.9120 C   0  0  0  0  0  0  0  0  0  0  0  0
  -14.0301   -8.1112    7.8656 C   0  0  0  0  0  0  0  0  0  0  0  0
  -14.5362   -9.4258    7.7185 N   0  0  0  0  0  0  0  0  0  0  0  0
  -16.6211   -7.1062    7.1801 H   0  0  0  0  0  0  0  0  0  0  0  0
  -13.0699   -7.3199    8.5695 C   0  0  0  0  0  0  0  0  0  0  0  0
  -13.4466   -6.4068    9.5274 C   0  0  0  0  0  0  0  0  0  0  0  0
  -12.5002   -5.6605   10.1871 C   0  0  0  0  0  0  0  0  0  0  0  0
  -11.1399   -5.8101    9.9026 C   0  0  0  0  0  0  0  0  0  0  0  0
  -10.7400   -6.7183    8.9472 C   0  0  0  0  0  0  0  0  0  0  0  0
  -11.7016   -7.4528    8.3009 C   0  0  0  0  0  0  0  0  0  0  0  0
   -9.3866   -6.8785    8.6526 O   0  0  0  0  0  0  0  0  0  0  0  0
   -9.0024   -7.2078    7.3615 C   0  0  0  0  0  0  0  0  0  0  0  0
   -8.5677   -6.2777    6.6367 O   0  0  0  0  0  0  0  0  0  0  0  0
  -14.7186   -8.2567    5.4552 C   0  0  0  0  0  0  0  0  0  0  0  0
  -15.4040   -7.0801    4.8903 C   0  0  0  0  0  0  0  0  0  0  0  0
  -14.8871   -5.8234    5.1206 C   0  0  0  0  0  0  0  0  0  0  0  0
  -15.5130   -4.7098    4.6013 C   0  0  0  0  0  0  0  0  0  0  0  0
  -16.6600   -4.8135    3.8450 C   0  0  0  0  0  0  0  0  0  0  0  0
  -17.1681   -6.0701    3.6205 C   0  0  0  0  0  0  0  0  0  0  0  0
  -16.5432   -7.2004    4.1408 C   0  0  0  0  0  0  0  0  0  0  0  0
  1  2  1  0  0  0
  2 15  1  0  0  0
 15 16  1  0  0  0
 16 17  2  0  0  0
 17 18  1  0  0  0
 18 19  2  0  0  0
 19 20  1  0  0  0
 20 21  2  0  0  0
  2  3  1  0  0  0
  3  4  2  0  0  0
  3  6  1  0  0  0
  6  7  2  0  0  0
  7  8  1  0  0  0
  8  9  2  0  0  0
  9 10  1  0  0  0
 10 12  1  0  0  0
 12 13  1  0  0  0
 13 14  2  0  0  0
 10 11  2  0  0  0
  4  2  1  0  0  0
 11  6  1  0  0  0
 21 16  1  0  0  0
  1  5  1  0  0  0
M  END
> <minimizedAffinity>
-8.85736

> <CNNscore>
0.7905062437

> <CNNaffinity>
6.0064020157

> <CNN_VS>
4.7480983734

> <CNNaffinity_variance>
0.1965729892

$$$$
[H]OC1(C([H])([H])c2c([H])c([H])c([H])c([H])c2[H])N=C1c1c([H])c([H])c([H])c(OC([H])=O)c1[H]


 21 23  0  0  0  0  0  0  0  0999 V2000
  -15.4443   -7.8935    7.9016 O   0  0  0  0  0  0  0  0  0  0  0  0
  -14.5045   -8.6058    7.1602 C   0  0  0  0  0  0  0  0  0  0  0  0
  -13.1043   -8.6777    7.6251 C   0  0  0  0  0  0  0  0  0  0  0  0
  -13.9836   -9.7725    7.8100 N   0  0  0  0  0  0  0  0  0  0  0  0
  -15.3569   -6.9209    7.8062 H   0  0  0  0  0  0  0  0  0  0  0  0
  -11.7673   -8.2248    7.8506 C   0  0  0  0  0  0  0  0  0  0  0  0
  -11.5041   -7.0300    8.4803 C   0  0  0  0  0  0  0  0  0  0  0  0
  -10.2081   -6.6213    8.6828 C   0  0  0  0  0  0  0  0  0  0  0  0
   -9.1320   -7.4049    8.2565 C   0  0  0  0  0  0  0  0  0  0  0  0
   -9.3721   -8.6048    7.6239 C   0  0  0  0  0  0  0  0  0  0  0  0
  -10.6736   -8.9933    7.4321 C   0  0  0  0  0  0  0  0  0  0  0  0
   -8.3088   -9.3973    7.1931 O   0  0  0  0  0  0  0  0  0  0  0  0
   -7.0895   -8.8051    6.9009 C   0  0  0  0  0  0  0  0  0  0  0  0
   -6.7851   -8.6855    5.6875 O   0  0  0  0  0  0  0  0  0  0  0  0
  -14.6517   -8.5854    5.6497 C   0  0  0  0  0  0  0  0  0  0  0  0
  -15.2983   -7.3192    5.2597 C   0  0  0  0  0  0  0  0  0  0  0  0
  -16.6523   -7.3045    5.0028 C   0  0  0  0  0  0  0  0  0  0  0  0
  -17.2764   -6.1307    4.6367 C   0  0  0  0  0  0  0  0  0  0  0  0
  -16.5780   -4.9490    4.5168 C   0  0  0  0  0  0  0  0  0  0  0  0
  -15.2287   -4.9731    4.7748 C   0  0  0  0  0  0  0  0  0  0  0  0
  -14.5898   -6.1536    5.1451 C   0  0  0  0  0  0  0  0  0  0  0  0
  1  2  1  0  0  0
  2 15  1  0  0  0
 15 16  1  0  0  0
 16 17  2  0  0  0
 17 18  1  0  0  0
 18 19  2  0  0  0
 19 20  1  0  0  0
 20 21  2  0  0  0
  2  3  1  0  0  0
  3  4  2  0  0  0
  3  6  1  0  0  0
  6  7  2  0  0  0
  7  8  1  0  0  0
  8  9  2  0  0  0
  9 10  1  0  0  0
 10 12  1  0  0  0
 12 13  1  0  0  0
 13 14  2  0  0  0
 10 11  2  0  0  0
  4  2  1  0  0  0
 11  6  1  0  0  0
 21 16  1  0  0  0
  1  5  1  0  0  0
M  END
> <minimizedAffinity>
-8.35971

> <CNNscore>
0.7257263064

> <CNNaffinity>
5.8815789223

> <CNN_VS>
4.2684164047

> <CNNaffinity_variance>
0.3678403795

$$$$
[H]OC1(C([H])([H])c2c([H])c([H])c([H])c([H])c2[H])N=C1c1c([H])c([H])c([H])c(OC([H])=O)c1[H]


 21 23  0  0  0  0  0  0  0  0999 V2000
  -15.9277   -8.5366    6.6041 O   0  0  0  0  0  0  0  0  0  0  0  0
  -14.7008   -8.4075    5.9573 C   0  0  0  0  0  0  0  0  0  0  0  0
  -13.4553   -8.3555    6.7496 C   0  0  0  0  0  0  0  0  0  0  0  0
  -13.8345   -9.5431    6.0774 N   0  0  0  0  0  0  0  0  0  0  0  0
  -16.2289   -7.7072    7.0332 H   0  0  0  0  0  0  0  0  0  0  0  0
  -12.4504   -7.7774    7.5860 C   0  0  0  0  0  0  0  0  0  0  0  0
  -12.7382   -6.7593    8.4656 C   0  0  0  0  0  0  0  0  0  0  0  0
  -11.7508   -6.2237    9.2566 C   0  0  0  0  0  0  0  0  0  0  0  0
  -10.4376   -6.6975    9.1872 C   0  0  0  0  0  0  0  0  0  0  0  0
  -10.1267   -7.7164    8.3137 C   0  0  0  0  0  0  0  0  0  0  0  0
  -11.1280   -8.2363    7.5335 C   0  0  0  0  0  0  0  0  0  0  0  0
   -8.8212   -8.1995    8.2334 O   0  0  0  0  0  0  0  0  0  0  0  0
   -8.5737   -9.3936    7.5734 C   0  0  0  0  0  0  0  0  0  0  0  0
   -7.8891  -10.2546    8.1812 O   0  0  0  0  0  0  0  0  0  0  0  0
  -14.6656   -7.5609    4.6980 C   0  0  0  0  0  0  0  0  0  0  0  0
  -15.9861   -6.9297    4.5215 C   0  0  0  0  0  0  0  0  0  0  0  0
  -16.1957   -5.6572    5.0075 C   0  0  0  0  0  0  0  0  0  0  0  0
  -17.4235   -5.0488    4.8529 C   0  0  0  0  0  0  0  0  0  0  0  0
  -18.4681   -5.6829    4.2163 C   0  0  0  0  0  0  0  0  0  0  0  0
  -18.2501   -6.9512    3.7351 C   0  0  0  0  0  0  0  0  0  0  0  0
  -17.0137   -7.5736    3.8865 C   0  0  0  0  0  0  0  0  0  0  0  0
  1  2  1  0  0  0
  2 15  1  0  0  0
 15 16  1  0  0  0
 16 17  2  0  0  0
 17 18  1  0  0  0
 18 19  2  0  0  0
 19 20  1  0  0  0
 20 21  2  0  0  0
  2  3  1  0  0  0
  3  4  2  0  0  0
  3  6  1  0  0  0
  6  7  2  0  0  0
  7  8  1  0  0  0
  8  9  2  0  0  0
  9 10  1  0  0  0
 10 12  1  0  0  0
 12 13  1  0  0  0
 13 14  2  0  0  0
 10 11  2  0  0  0
  4  2  1  0  0  0
 11  6  1  0  0  0
 21 16  1  0  0  0
  1  5  1  0  0  0
M  END
> <minimizedAffinity>
-8.62471

> <CNNscore>
0.6963001490

> <CNNaffinity>
5.8332409859

> <CNN_VS>
4.0616865158

> <CNNaffinity_variance>
0.2125551403

$$$$
[H]OC1(C([H])([H])c2c([H])c([H])c([H])c([H])c2[H])N=C1c1c([H])c([H])c([H])c(OC([H])=O)c1[H]


 21 23  0  0  0  0  0  0  0  0999 V2000
  -15.5975   -8.6896    6.9644 O   0  0  0  0  0  0  0  0  0  0  0  0
  -14.4259   -9.0178    6.2862 C   0  0  0  0  0  0  0  0  0  0  0  0
  -13.1271   -8.9424    6.9858 C   0  0  0  0  0  0  0  0  0  0  0  0
  -13.7592  -10.1913    6.7691 N   0  0  0  0  0  0  0  0  0  0  0  0
  -15.7150   -7.7236    7.0899 H   0  0  0  0  0  0  0  0  0  0  0  0
  -11.9710   -8.3207    7.5517 C   0  0  0  0  0  0  0  0  0  0  0  0
  -10.7000   -8.7733    7.2813 C   0  0  0  0  0  0  0  0  0  0  0  0
   -9.6079   -8.1549    7.8405 C   0  0  0  0  0  0  0  0  0  0  0  0
   -9.7609   -7.0575    8.6926 C   0  0  0  0  0  0  0  0  0  0  0  0
  -11.0242   -6.5874    8.9772 C   0  0  0  0  0  0  0  0  0  0  0  0
  -12.1002   -7.2199    8.4081 C   0  0  0  0  0  0  0  0  0  0  0  0
  -11.1925   -5.4936    9.8254 O   0  0  0  0  0  0  0  0  0  0  0  0
  -12.2084   -5.5104   10.7691 C   0  0  0  0  0  0  0  0  0  0  0  0
  -13.2458   -4.8509   10.5081 O   0  0  0  0  0  0  0  0  0  0  0  0
  -14.3535   -8.6610    4.8127 C   0  0  0  0  0  0  0  0  0  0  0  0
  -15.0790   -7.3951    4.6017 C   0  0  0  0  0  0  0  0  0  0  0  0
  -16.2746   -7.4093    3.9162 C   0  0  0  0  0  0  0  0  0  0  0  0
  -16.9690   -6.2363    3.7080 C   0  0  0  0  0  0  0  0  0  0  0  0
  -16.4984   -5.0271    4.1715 C   0  0  0  0  0  0  0  0  0  0  0  0
  -15.3059   -5.0225    4.8537 C   0  0  0  0  0  0  0  0  0  0  0  0
  -14.5975   -6.2019    5.0687 C   0  0  0  0  0  0  0  0  0  0  0  0
  1  2  1  0  0  0
  2 15  1  0  0  0
 15 16  1  0  0  0
 16 17  2  0  0  0
 17 18  1  0  0  0
 18 19  2  0  0  0
 19 20  1  0  0  0
 20 21  2  0  0  0
  2  3  1  0  0  0
  3  4  2  0  0  0
  3  6  1  0  0  0
  6  7  2  0  0  0
  7  8  1  0  0  0
  8  9  2  0  0  0
  9 10  1  0  0  0
 10 12  1  0  0  0
 12 13  1  0  0  0
 13 14  2  0  0  0
 10 11  2  0  0  0
  4  2  1  0  0  0
 11  6  1  0  0  0
 21 16  1  0  0  0
  1  5  1  0  0  0
M  END
> <minimizedAffinity>
-8.23778

> <CNNscore>
0.6496385336

> <CNNaffinity>
5.7161054611

> <CNN_VS>
3.7134022713

> <CNNaffinity_variance>
0.0639655218

$$$$
[H]OC1(C([H])([H])c2c([H])c([H])c([H])c([H])c2[H])N=C1c1c([H])c([H])c([H])c(OC([H])=O)c1[H]


 21 23  0  0  0  0  0  0  0  0999 V2000
  -15.2023   -9.5304    7.2938 O   0  0  0  0  0  0  0  0  0  0  0  0
  -14.8751   -8.2143    6.9757 C   0  0  0  0  0  0  0  0  0  0  0  0
  -13.5183   -7.7055    7.2620 C   0  0  0  0  0  0  0  0  0  0  0  0
  -13.8893   -8.0713    5.9450 N   0  0  0  0  0  0  0  0  0  0  0  0
  -15.3456   -9.6729    8.2540 H   0  0  0  0  0  0  0  0  0  0  0  0
  -12.4429   -7.1985    8.0558 C   0  0  0  0  0  0  0  0  0  0  0  0
  -11.1276   -7.3885    7.6991 C   0  0  0  0  0  0  0  0  0  0  0  0
  -10.1155   -6.8891    8.4826 C   0  0  0  0  0  0  0  0  0  0  0  0
  -10.3960   -6.1802    9.6541 C   0  0  0  0  0  0  0  0  0  0  0  0
  -11.7057   -5.9780   10.0305 C   0  0  0  0  0  0  0  0  0  0  0  0
  -12.7002   -6.4853    9.2335 C   0  0  0  0  0  0  0  0  0  0  0  0
  -12.0010   -5.2727   11.1965 O   0  0  0  0  0  0  0  0  0  0  0  0
  -11.9343   -5.9188   12.4216 C   0  0  0  0  0  0  0  0  0  0  0  0
  -11.1450   -5.4465   13.2779 O   0  0  0  0  0  0  0  0  0  0  0  0
  -15.9681   -7.1717    7.1248 C   0  0  0  0  0  0  0  0  0  0  0  0
  -16.6715   -7.0437    5.8356 C   0  0  0  0  0  0  0  0  0  0  0  0
  -16.5887   -5.8586    5.1370 C   0  0  0  0  0  0  0  0  0  0  0  0
  -17.2392   -5.7181    3.9292 C   0  0  0  0  0  0  0  0  0  0  0  0
  -17.9836   -6.7430    3.3870 C   0  0  0  0  0  0  0  0  0  0  0  0
  -18.0606   -7.9207    4.0903 C   0  0  0  0  0  0  0  0  0  0  0  0
  -17.4072   -8.0718    5.3107 C   0  0  0  0  0  0  0  0  0  0  0  0
  1  2  1  0  0  0
  2 15  1  0  0  0
 15 16  1  0  0  0
 16 17  2  0  0  0
 17 18  1  0  0  0
 18 19  2  0  0  0
 19 20  1  0  0  0
 20 21  2  0  0  0
  2  3  1  0  0  0
  3  4  2  0  0  0
  3  6  1  0  0  0
  6  7  2  0  0  0
  7  8  1  0  0  0
  8  9  2  0  0  0
  9 10  1  0  0  0
 10 12  1  0  0  0
 12 13  1  0  0  0
 13 14  2  0  0  0
 10 11  2  0  0  0
  4  2  1  0  0  0
 11  6  1  0  0  0
 21 16  1  0  0  0
  1  5  1  0  0  0
M  END
> <minimizedAffinity>
-6.35548

> <CNNscore>
0.5425848961

> <CNNaffinity>
5.5445137024

> <CNN_VS>
3.0083694458

> <CNNaffinity_variance>
0.3240399361

$$$$
[H]OC1(C([H])([H])c2c([H])c([H])c([H])c([H])c2[H])N=C1c1c([H])c([H])c([H])c(OC([H])=O)c1[H]


 21 23  0  0  0  0  0  0  0  0999 V2000
  -18.6342   -6.4544    4.1230 O   0  0  0  0  0  0  0  0  0  0  0  0
  -18.2623   -7.4493    5.0242 C   0  0  0  0  0  0  0  0  0  0  0  0
  -17.0058   -7.3146    5.7889 C   0  0  0  0  0  0  0  0  0  0  0  0
  -18.2550   -7.0442    6.3991 N   0  0  0  0  0  0  0  0  0  0  0  0
  -18.1180   -6.4744    3.2888 H   0  0  0  0  0  0  0  0  0  0  0  0
  -15.5955   -7.3485    6.0201 C   0  0  0  0  0  0  0  0  0  0  0  0
  -14.8203   -6.2149    5.9343 C   0  0  0  0  0  0  0  0  0  0  0  0
  -13.4669   -6.2790    6.1620 C   0  0  0  0  0  0  0  0  0  0  0  0
  -12.8485   -7.4904    6.4845 C   0  0  0  0  0  0  0  0  0  0  0  0
  -13.6052   -8.6379    6.5759 C   0  0  0  0  0  0  0  0  0  0  0  0
  -14.9545   -8.5509    6.3446 C   0  0  0  0  0  0  0  0  0  0  0  0
  -13.0024   -9.8536    6.8967 O   0  0  0  0  0  0  0  0  0  0  0  0
  -13.3622  -10.5076    8.0653 C   0  0  0  0  0  0  0  0  0  0  0  0
  -12.8254  -10.1152    9.1318 O   0  0  0  0  0  0  0  0  0  0  0  0
  -18.6118   -8.8810    4.6609 C   0  0  0  0  0  0  0  0  0  0  0  0
  -19.3970   -9.4650    5.7634 C   0  0  0  0  0  0  0  0  0  0  0  0
  -20.4466  -10.3089    5.4706 C   0  0  0  0  0  0  0  0  0  0  0  0
  -21.1937  -10.8657    6.4871 C   0  0  0  0  0  0  0  0  0  0  0  0
  -20.9206  -10.6015    7.8116 C   0  0  0  0  0  0  0  0  0  0  0  0
  -19.8725   -9.7593    8.0940 C   0  0  0  0  0  0  0  0  0  0  0  0
  -19.1125   -9.1922    7.0743 C   0  0  0  0  0  0  0  0  0  0  0  0
  1  2  1  0  0  0
  2 15  1  0  0  0
 15 16  1  0  0  0
 16 17  2  0  0  0
 17 18  1  0  0  0
 18 19  2  0  0  0
 19 20  1  0  0  0
 20 21  2  0  0  0
  2  3  1  0  0  0
  3  4  2  0  0  0
  3  6  1  0  0  0
  6  7  2  0  0  0
  7  8  1  0  0  0
  8  9  2  0  0  0
  9 10  1  0  0  0
 10 12  1  0  0  0
 12 13  1  0  0  0
 13 14  2  0  0  0
 10 11  2  0  0  0
  4  2  1  0  0  0
 11  6  1  0  0  0
 21 16  1  0  0  0
  1  5  1  0  0  0
M  END
> <minimizedAffinity>
1.32270

> <CNNscore>
0.4397800565

> <CNNaffinity>
5.3364477158

> <CNN_VS>
2.3468632698

> <CNNaffinity_variance>
1.6474643946

$$$$
[H]OC1(C([H])([H])c2c([H])c([H])c([H])c([H])c2[H])N=C1c1c([H])c([H])c([H])c(OC([H])=O)c1[H]


 21 23  0  0  0  0  0  0  0  0999 V2000
  -14.0639   -6.4256    7.5963 O   0  0  0  0  0  0  0  0  0  0  0  0
  -13.8435   -7.6908    7.0569 C   0  0  0  0  0  0  0  0  0  0  0  0
  -12.6353   -8.4507    7.4373 C   0  0  0  0  0  0  0  0  0  0  0  0
  -13.8948   -8.7661    8.0032 N   0  0  0  0  0  0  0  0  0  0  0  0
  -13.4955   -5.7309    7.2000 H   0  0  0  0  0  0  0  0  0  0  0  0
  -11.2527   -8.8136    7.4323 C   0  0  0  0  0  0  0  0  0  0  0  0
  -10.8235  -10.0234    6.9367 C   0  0  0  0  0  0  0  0  0  0  0  0
   -9.4875  -10.3440    6.9455 C   0  0  0  0  0  0  0  0  0  0  0  0
   -8.5377   -9.4540    7.4551 C   0  0  0  0  0  0  0  0  0  0  0  0
   -8.9449   -8.2372    7.9563 C   0  0  0  0  0  0  0  0  0  0  0  0
  -10.2834   -7.9378    7.9378 C   0  0  0  0  0  0  0  0  0  0  0  0
   -8.0090   -7.3392    8.4680 O   0  0  0  0  0  0  0  0  0  0  0  0
   -6.7727   -7.2155    7.8523 C   0  0  0  0  0  0  0  0  0  0  0  0
   -6.7014   -6.4550    6.8544 O   0  0  0  0  0  0  0  0  0  0  0  0
  -14.2918   -7.9229    5.6255 C   0  0  0  0  0  0  0  0  0  0  0  0
  -15.2264   -6.8472    5.2477 C   0  0  0  0  0  0  0  0  0  0  0  0
  -14.7424   -5.7282    4.6050 C   0  0  0  0  0  0  0  0  0  0  0  0
  -15.5998   -4.7106    4.2431 C   0  0  0  0  0  0  0  0  0  0  0  0
  -16.9505   -4.7765    4.5076 C   0  0  0  0  0  0  0  0  0  0  0  0
  -17.4240   -5.8957    5.1485 C   0  0  0  0  0  0  0  0  0  0  0  0
  -16.5659   -6.9283    5.5179 C   0  0  0  0  0  0  0  0  0  0  0  0
  1  2  1  0  0  0
  2 15  1  0  0  0
 15 16  1  0  0  0
 16 17  2  0  0  0
 17 18  1  0  0  0
 18 19  2  0  0  0
 19 20  1  0  0  0
 20 21  2  0  0  0
  2  3  1  0  0  0
  3  4  2  0  0  0
  3  6  1  0  0  0
  6  7  2  0  0  0
  7  8  1  0  0  0
  8  9  2  0  0  0
  9 10  1  0  0  0
 10 12  1  0  0  0
 12 13  1  0  0  0
 13 14  2  0  0  0
 10 11  2  0  0  0
  4  2  1  0  0  0
 11  6  1  0  0  0
 21 16  1  0  0  0
  1  5  1  0  0  0
M  END
> <minimizedAffinity>
-8.20986

> <CNNscore>
0.4279273748

> <CNNaffinity>
5.4212942123

> <CNN_VS>
2.3199203014

> <CNNaffinity_variance>
0.4183174968

$$$$
[H]OC1(C([H])([H])c2c([H])c([H])c([H])c([H])c2[H])N=C1c1c([H])c([H])c([H])c(OC([H])=O)c1[H]


 21 23  0  0  0  0  0  0  0  0999 V2000
  -12.7681   -6.9704    6.3252 O   0  0  0  0  0  0  0  0  0  0  0  0
  -13.7115   -7.9590    6.5951 C   0  0  0  0  0  0  0  0  0  0  0  0
  -14.8826   -8.1177    5.7090 C   0  0  0  0  0  0  0  0  0  0  0  0
  -13.7830   -9.0058    5.6187 N   0  0  0  0  0  0  0  0  0  0  0  0
  -13.0744   -6.0681    6.5592 H   0  0  0  0  0  0  0  0  0  0  0  0
  -16.1674   -7.8173    5.1589 C   0  0  0  0  0  0  0  0  0  0  0  0
  -16.3911   -6.6767    4.4226 C   0  0  0  0  0  0  0  0  0  0  0  0
  -17.6373   -6.4152    3.9067 C   0  0  0  0  0  0  0  0  0  0  0  0
  -18.7017   -7.2966    4.1162 C   0  0  0  0  0  0  0  0  0  0  0  0
  -18.5006   -8.4447    4.8503 C   0  0  0  0  0  0  0  0  0  0  0  0
  -17.2485   -8.6859    5.3560 C   0  0  0  0  0  0  0  0  0  0  0  0
  -19.5528   -9.3334    5.0676 O   0  0  0  0  0  0  0  0  0  0  0  0
  -20.1266   -9.4185    6.3271 C   0  0  0  0  0  0  0  0  0  0  0  0
  -21.2093  -10.0492    6.4237 O   0  0  0  0  0  0  0  0  0  0  0  0
  -13.9967   -8.2666    8.0539 C   0  0  0  0  0  0  0  0  0  0  0  0
  -13.1779   -7.3699    8.8899 C   0  0  0  0  0  0  0  0  0  0  0  0
  -13.7863   -6.3305    9.5599 C   0  0  0  0  0  0  0  0  0  0  0  0
  -13.0385   -5.4802   10.3471 C   0  0  0  0  0  0  0  0  0  0  0  0
  -11.6771   -5.6383   10.4888 C   0  0  0  0  0  0  0  0  0  0  0  0
  -11.0793   -6.6771    9.8172 C   0  0  0  0  0  0  0  0  0  0  0  0
  -11.8260   -7.5407    9.0201 C   0  0  0  0  0  0  0  0  0  0  0  0
  1  2  1  0  0  0
  2 15  1  0  0  0
 15 16  1  0  0  0
 16 17  2  0  0  0
 17 18  1  0  0  0
 18 19  2  0  0  0
 19 20  1  0  0  0
 20 21  2  0  0  0
  2  3  1  0  0  0
  3  4  2  0  0  0
  3  6  1  0  0  0
  6  7  2  0  0  0
  7  8  1  0  0  0
  8  9  2  0  0  0
  9 10  1  0  0  0
 10 12  1  0  0  0
 12 13  1  0  0  0
 13 14  2  0  0  0
 10 11  2  0  0  0
  4  2  1  0  0  0
 11  6  1  0  0  0
 21 16  1  0  0  0
  1  5  1  0  0  0
M  END
> <minimizedAffinity>
-6.31274

> <CNNscore>
0.4017767012

> <CNNaffinity>
5.4649777412

> <CNN_VS>
2.1957006454

> <CNNaffinity_variance>
0.1513565928

$$$$
[H]c1nc(N2C([H])([H])C([H])([H])C([H])(C([H])([H])C(=O)N3C([H])([H])C([H])([H])N(S(=O)(=O)c4c([H])c([H])c(OC([H])([H])[H])c([H])c4[H])C([H])([H])C3([H])[H])C([H])([H])C2([H])[H])c2c([H])c(F)c([H])c([H])c2n1


 37 41  0  0  0  0  0  0  0  0999 V2000
   -3.3191   -4.1952    5.4843 N   0  0  0  0  0  0  0  0  0  0  0  0
   -3.1636   -3.8934    6.8827 C   0  0  0  0  0  0  0  0  0  0  0  0
   -3.8802   -4.9788    7.6561 C   0  0  0  0  0  0  0  0  0  0  0  0
   -3.5340   -6.2402    7.0192 N   0  0  0  0  0  0  0  0  0  0  0  0
   -2.2966   -6.2382    6.2609 C   0  0  0  0  0  0  0  0  0  0  0  0
   -2.5378   -5.3230    5.0520 C   0  0  0  0  0  0  0  0  0  0  0  0
   -4.3552   -7.3950    7.1355 C   0  0  0  0  0  0  0  0  0  0  0  0
   -3.9993   -8.4446    6.5631 O   0  0  0  0  0  0  0  0  0  0  0  0
   -3.0279   -2.8678    4.4638 S   0  0  0  0  0  0  0  0  0  0  0  0
   -1.6205   -2.8611    3.9421 O   0  0  0  0  0  0  0  0  0  0  0  0
   -3.9562   -2.8273    3.2813 O   0  0  0  0  0  0  0  0  0  0  0  0
   -3.7698    0.9927    6.7868 C   0  0  0  0  0  0  0  0  0  0  0  0
   -2.4852    0.5196    6.5759 C   0  0  0  0  0  0  0  0  0  0  0  0
   -2.2293   -0.6357    5.8826 C   0  0  0  0  0  0  0  0  0  0  0  0
   -3.2572   -1.3867    5.3578 C   0  0  0  0  0  0  0  0  0  0  0  0
   -4.5411   -0.9179    5.5659 C   0  0  0  0  0  0  0  0  0  0  0  0
   -4.8054    0.2466    6.2644 C   0  0  0  0  0  0  0  0  0  0  0  0
   -3.7031    2.3269    8.8330 C   0  0  0  0  0  0  0  0  0  0  0  0
   -4.0357    2.1636    7.4891 O   0  0  0  0  0  0  0  0  0  0  0  0
   -5.5795   -7.3452    7.9055 C   0  0  0  0  0  0  0  0  0  0  0  0
   -6.7904   -7.9930    7.3370 C   0  0  0  0  0  0  0  0  0  0  0  0
   -7.4998   -8.9584    8.2344 C   0  0  0  0  0  0  0  0  0  0  0  0
   -8.6599   -9.5065    7.3693 C   0  0  0  0  0  0  0  0  0  0  0  0
   -9.6473   -8.4209    7.4352 N   0  0  0  0  0  0  0  0  0  0  0  0
   -9.1601   -7.0836    7.1887 C   0  0  0  0  0  0  0  0  0  0  0  0
   -7.7610   -7.0989    6.6518 C   0  0  0  0  0  0  0  0  0  0  0  0
  -11.0120   -8.6844    7.7430 C   0  0  0  0  0  0  0  0  0  0  0  0
  -11.6209   -9.7962    7.2292 N   0  0  0  0  0  0  0  0  0  0  0  0
  -12.9220  -10.0565    7.4852 C   0  0  0  0  0  0  0  0  0  0  0  0
  -13.6465   -9.2258    8.2526 N   0  0  0  0  0  0  0  0  0  0  0  0
  -13.1131   -8.1024    8.7993 C   0  0  0  0  0  0  0  0  0  0  0  0
  -13.8927   -7.2864    9.5839 C   0  0  0  0  0  0  0  0  0  0  0  0
  -13.3375   -6.1588   10.1361 C   0  0  0  0  0  0  0  0  0  0  0  0
  -12.0133   -5.8843    9.8835 C   0  0  0  0  0  0  0  0  0  0  0  0
  -11.4034   -4.7822   10.4020 F   0  0  0  0  0  0  0  0  0  0  0  0
  -11.2487   -6.7200    9.0908 C   0  0  0  0  0  0  0  0  0  0  0  0
  -11.7756   -7.8609    8.5195 C   0  0  0  0  0  0  0  0  0  0  0  0
 18 19  1  0  0  0
 19 12  1  0  0  0
 12 13  2  0  0  0
 13 14  1  0  0  0
 14 15  2  0  0  0
 15 16  1  0  0  0
 16 17  2  0  0  0
 15  9  1  0  0  0
  9 10  2  0  0  0
  9 11  2  0  0  0
  9  1  1  0  0  0
  1  2  1  0  0  0
  2  3  1  0  0  0
  3  4  1  0  0  0
  4  5  1  0  0  0
  5  6  1  0  0  0
  4  7  1  0  0  0
  7  8  2  0  0  0
  7 20  1  0  0  0
 20 21  1  0  0  0
 21 22  1  0  0  0
 22 23  1  0  0  0
 23 24  1  0  0  0
 24 25  1  0  0  0
 25 26  1  0  0  0
 24 27  1  0  0  0
 27 28  2  0  0  0
 28 29  1  0  0  0
 29 30  2  0  0  0
 30 31  1  0  0  0
 31 32  2  0  0  0
 32 33  1  0  0  0
 33 34  2  0  0  0
 34 35  1  0  0  0
 34 36  1  0  0  0
 36 37  2  0  0  0
 17 12  1  0  0  0
  6  1  1  0  0  0
 26 21  1  0  0  0
 37 27  1  0  0  0
 37 31  1  0  0  0
M  END
> <minimizedAffinity>
-9.09364

> <CNNscore>
0.4574409723

> <CNNaffinity>
7.2241606712

> <CNN_VS>
3.3046271801

> <CNNaffinity_variance>
0.0932943374

$$$$
[H]c1nc(N2C([H])([H])C([H])([H])C([H])(C([H])([H])C(=O)N3C([H])([H])C([H])([H])N(S(=O)(=O)c4c([H])c([H])c(OC([H])([H])[H])c([H])c4[H])C([H])([H])C3([H])[H])C([H])([H])C2([H])[H])c2c([H])c(F)c([H])c([H])c2n1


 37 41  0  0  0  0  0  0  0  0999 V2000
   -3.1436   -5.2036    8.9209 N   0  0  0  0  0  0  0  0  0  0  0  0
   -2.3875   -6.3945    8.6363 C   0  0  0  0  0  0  0  0  0  0  0  0
   -3.2543   -7.2757    7.7635 C   0  0  0  0  0  0  0  0  0  0  0  0
   -3.8661   -6.4046    6.7716 N   0  0  0  0  0  0  0  0  0  0  0  0
   -3.1593   -5.1647    6.5083 C   0  0  0  0  0  0  0  0  0  0  0  0
   -3.2763   -4.3260    7.7889 C   0  0  0  0  0  0  0  0  0  0  0  0
   -5.0745   -6.7496    6.1067 C   0  0  0  0  0  0  0  0  0  0  0  0
   -5.5452   -5.9560    5.2671 O   0  0  0  0  0  0  0  0  0  0  0  0
   -2.5646   -4.3323   10.2603 S   0  0  0  0  0  0  0  0  0  0  0  0
   -3.5073   -4.4062   11.4260 O   0  0  0  0  0  0  0  0  0  0  0  0
   -1.2175   -4.8101   10.7280 O   0  0  0  0  0  0  0  0  0  0  0  0
   -2.2660    0.0973    9.1929 C   0  0  0  0  0  0  0  0  0  0  0  0
   -1.2310   -0.7787    8.9101 C   0  0  0  0  0  0  0  0  0  0  0  0
   -1.2901   -2.1138    9.2177 C   0  0  0  0  0  0  0  0  0  0  0  0
   -2.4007   -2.6487    9.8312 C   0  0  0  0  0  0  0  0  0  0  0  0
   -3.4362   -1.7778   10.1153 C   0  0  0  0  0  0  0  0  0  0  0  0
   -3.3823   -0.4301    9.8075 C   0  0  0  0  0  0  0  0  0  0  0  0
   -3.3528    2.2120    8.6287 C   0  0  0  0  0  0  0  0  0  0  0  0
   -2.2120    1.4525    8.8835 O   0  0  0  0  0  0  0  0  0  0  0  0
   -5.7398   -7.9999    6.4041 C   0  0  0  0  0  0  0  0  0  0  0  0
   -6.9373   -7.9633    7.2839 C   0  0  0  0  0  0  0  0  0  0  0  0
   -8.1002   -7.1698    6.7754 C   0  0  0  0  0  0  0  0  0  0  0  0
   -9.1530   -7.2629    7.9056 C   0  0  0  0  0  0  0  0  0  0  0  0
   -9.7262   -8.5994    7.6982 N   0  0  0  0  0  0  0  0  0  0  0  0
   -8.7919   -9.6864    7.5190 C   0  0  0  0  0  0  0  0  0  0  0  0
   -7.3904   -9.2650    7.8415 C   0  0  0  0  0  0  0  0  0  0  0  0
  -11.1352   -8.7989    7.6620 C   0  0  0  0  0  0  0  0  0  0  0  0
  -11.6717   -9.6896    6.7733 N   0  0  0  0  0  0  0  0  0  0  0  0
  -13.0077   -9.8795    6.7010 C   0  0  0  0  0  0  0  0  0  0  0  0
  -13.8392   -9.1952    7.5036 N   0  0  0  0  0  0  0  0  0  0  0  0
  -13.3829   -8.2940    8.4120 C   0  0  0  0  0  0  0  0  0  0  0  0
  -14.2724   -7.6228    9.2165 C   0  0  0  0  0  0  0  0  0  0  0  0
  -13.7957   -6.7211   10.1355 C   0  0  0  0  0  0  0  0  0  0  0  0
  -12.4373   -6.5205   10.2190 C   0  0  0  0  0  0  0  0  0  0  0  0
  -11.9013   -5.6404   11.1099 F   0  0  0  0  0  0  0  0  0  0  0  0
  -11.5616   -7.2074    9.3989 C   0  0  0  0  0  0  0  0  0  0  0  0
  -12.0072   -8.1200    8.4639 C   0  0  0  0  0  0  0  0  0  0  0  0
 18 19  1  0  0  0
 19 12  1  0  0  0
 12 13  2  0  0  0
 13 14  1  0  0  0
 14 15  2  0  0  0
 15 16  1  0  0  0
 16 17  2  0  0  0
 15  9  1  0  0  0
  9 10  2  0  0  0
  9 11  2  0  0  0
  9  1  1  0  0  0
  1  2  1  0  0  0
  2  3  1  0  0  0
  3  4  1  0  0  0
  4  5  1  0  0  0
  5  6  1  0  0  0
  4  7  1  0  0  0
  7  8  2  0  0  0
  7 20  1  0  0  0
 20 21  1  0  0  0
 21 22  1  0  0  0
 22 23  1  0  0  0
 23 24  1  0  0  0
 24 25  1  0  0  0
 25 26  1  0  0  0
 24 27  1  0  0  0
 27 28  2  0  0  0
 28 29  1  0  0  0
 29 30  2  0  0  0
 30 31  1  0  0  0
 31 32  2  0  0  0
 32 33  1  0  0  0
 33 34  2  0  0  0
 34 35  1  0  0  0
 34 36  1  0  0  0
 36 37  2  0  0  0
 17 12  1  0  0  0
  6  1  1  0  0  0
 26 21  1  0  0  0
 37 27  1  0  0  0
 37 31  1  0  0  0
M  END
> <minimizedAffinity>
-8.64430

> <CNNscore>
0.3994140327

> <CNNaffinity>
6.9589872360

> <CNN_VS>
2.7795171738

> <CNNaffinity_variance>
0.0207195133

$$$$
[H]c1nc(N2C([H])([H])C([H])([H])C([H])(C([H])([H])C(=O)N3C([H])([H])C([H])([H])N(S(=O)(=O)c4c([H])c([H])c(OC([H])([H])[H])c([H])c4[H])C([H])([H])C3([H])[H])C([H])([H])C2([H])[H])c2c([H])c(F)c([H])c([H])c2n1


 37 41  0  0  0  0  0  0  0  0999 V2000
   -6.2783   -7.5946    7.2080 N   0  0  0  0  0  0  0  0  0  0  0  0
   -6.4948   -7.4748    8.6256 C   0  0  0  0  0  0  0  0  0  0  0  0
   -7.9828   -7.6127    8.8631 C   0  0  0  0  0  0  0  0  0  0  0  0
   -8.4364   -8.7143    8.0281 N   0  0  0  0  0  0  0  0  0  0  0  0
   -7.4157   -9.6755    7.6534 C   0  0  0  0  0  0  0  0  0  0  0  0
   -6.4548   -8.9337    6.7134 C   0  0  0  0  0  0  0  0  0  0  0  0
   -9.7899   -8.8375    7.6105 C   0  0  0  0  0  0  0  0  0  0  0  0
  -10.1111   -9.8070    6.8943 O   0  0  0  0  0  0  0  0  0  0  0  0
   -4.7781   -6.9837    6.6935 S   0  0  0  0  0  0  0  0  0  0  0  0
   -3.8798   -8.0689    6.1757 O   0  0  0  0  0  0  0  0  0  0  0  0
   -4.9114   -5.9441    5.6148 O   0  0  0  0  0  0  0  0  0  0  0  0
   -2.5342   -5.1125   10.2025 C   0  0  0  0  0  0  0  0  0  0  0  0
   -3.7833   -4.6498    9.8229 C   0  0  0  0  0  0  0  0  0  0  0  0
   -4.4825   -5.1904    8.7742 C   0  0  0  0  0  0  0  0  0  0  0  0
   -3.9627   -6.2343    8.0421 C   0  0  0  0  0  0  0  0  0  0  0  0
   -2.7161   -6.6993    8.4178 C   0  0  0  0  0  0  0  0  0  0  0  0
   -2.0060   -6.1581    9.4746 C   0  0  0  0  0  0  0  0  0  0  0  0
   -2.4408   -4.0121   12.3824 C   0  0  0  0  0  0  0  0  0  0  0  0
   -1.8201   -4.5685   11.2651 O   0  0  0  0  0  0  0  0  0  0  0  0
  -10.7703   -7.8523    8.0133 C   0  0  0  0  0  0  0  0  0  0  0  0
  -12.2084   -8.2133    7.9096 C   0  0  0  0  0  0  0  0  0  0  0  0
  -13.1717   -7.0679    7.8851 C   0  0  0  0  0  0  0  0  0  0  0  0
  -14.5654   -7.7383    7.8339 C   0  0  0  0  0  0  0  0  0  0  0  0
  -14.6840   -8.1200    6.4203 N   0  0  0  0  0  0  0  0  0  0  0  0
  -13.5546   -8.8047    5.8353 C   0  0  0  0  0  0  0  0  0  0  0  0
  -12.5655   -9.2249    6.8798 C   0  0  0  0  0  0  0  0  0  0  0  0
  -15.8534   -7.8111    5.6697 C   0  0  0  0  0  0  0  0  0  0  0  0
  -16.8541   -8.7373    5.5612 N   0  0  0  0  0  0  0  0  0  0  0  0
  -17.9636   -8.4792    4.8340 C   0  0  0  0  0  0  0  0  0  0  0  0
  -18.1069   -7.3033    4.2009 N   0  0  0  0  0  0  0  0  0  0  0  0
  -17.1578   -6.3332    4.2613 C   0  0  0  0  0  0  0  0  0  0  0  0
  -17.3526   -5.1431    3.6020 C   0  0  0  0  0  0  0  0  0  0  0  0
  -16.3882   -4.1691    3.6790 C   0  0  0  0  0  0  0  0  0  0  0  0
  -15.2550   -4.4202    4.4176 C   0  0  0  0  0  0  0  0  0  0  0  0
  -14.2618   -3.4952    4.5338 F   0  0  0  0  0  0  0  0  0  0  0  0
  -15.0810   -5.6253    5.0722 C   0  0  0  0  0  0  0  0  0  0  0  0
  -16.0301   -6.6261    5.0150 C   0  0  0  0  0  0  0  0  0  0  0  0
 18 19  1  0  0  0
 19 12  1  0  0  0
 12 13  2  0  0  0
 13 14  1  0  0  0
 14 15  2  0  0  0
 15 16  1  0  0  0
 16 17  2  0  0  0
 15  9  1  0  0  0
  9 10  2  0  0  0
  9 11  2  0  0  0
  9  1  1  0  0  0
  1  2  1  0  0  0
  2  3  1  0  0  0
  3  4  1  0  0  0
  4  5  1  0  0  0
  5  6  1  0  0  0
  4  7  1  0  0  0
  7  8  2  0  0  0
  7 20  1  0  0  0
 20 21  1  0  0  0
 21 22  1  0  0  0
 22 23  1  0  0  0
 23 24  1  0  0  0
 24 25  1  0  0  0
 25 26  1  0  0  0
 24 27  1  0  0  0
 27 28  2  0  0  0
 28 29  1  0  0  0
 29 30  2  0  0  0
 30 31  1  0  0  0
 31 32  2  0  0  0
 32 33  1  0  0  0
 33 34  2  0  0  0
 34 35  1  0  0  0
 34 36  1  0  0  0
 36 37  2  0  0  0
 17 12  1  0  0  0
  6  1  1  0  0  0
 26 21  1  0  0  0
 37 27  1  0  0  0
 37 31  1  0  0  0
M  END
> <minimizedAffinity>
-9.19507

> <CNNscore>
0.3763139248

> <CNNaffinity>
7.4696340561

> <CNN_VS>
2.8109273911

> <CNNaffinity_variance>
0.1766139716

$$$$
[H]c1nc(N2C([H])([H])C([H])([H])C([H])(C([H])([H])C(=O)N3C([H])([H])C([H])([H])N(S(=O)(=O)c4c([H])c([H])c(OC([H])([H])[H])c([H])c4[H])C([H])([H])C3([H])[H])C([H])([H])C2([H])[H])c2c([H])c(F)c([H])c([H])c2n1


 37 41  0  0  0  0  0  0  0  0999 V2000
  -16.3746   -7.6797    7.7246 N   0  0  0  0  0  0  0  0  0  0  0  0
  -15.2906   -7.3779    6.8275 C   0  0  0  0  0  0  0  0  0  0  0  0
  -14.1402   -6.8732    7.6711 C   0  0  0  0  0  0  0  0  0  0  0  0
  -14.0602   -7.7485    8.8305 N   0  0  0  0  0  0  0  0  0  0  0  0
  -14.6361   -9.0692    8.6571 C   0  0  0  0  0  0  0  0  0  0  0  0
  -16.1506   -8.8598    8.5160 C   0  0  0  0  0  0  0  0  0  0  0  0
  -13.4564   -7.3338   10.0491 C   0  0  0  0  0  0  0  0  0  0  0  0
  -13.4221   -8.1348   11.0048 O   0  0  0  0  0  0  0  0  0  0  0  0
  -17.8874   -7.7799    6.9566 S   0  0  0  0  0  0  0  0  0  0  0  0
  -18.3018   -9.2031    6.7202 O   0  0  0  0  0  0  0  0  0  0  0  0
  -18.9825   -7.1062    7.7367 O   0  0  0  0  0  0  0  0  0  0  0  0
  -17.7207   -5.8526    2.8205 C   0  0  0  0  0  0  0  0  0  0  0  0
  -17.2579   -5.1834    3.9414 C   0  0  0  0  0  0  0  0  0  0  0  0
  -17.2939   -5.7347    5.1966 C   0  0  0  0  0  0  0  0  0  0  0  0
  -17.8005   -6.9990    5.3984 C   0  0  0  0  0  0  0  0  0  0  0  0
  -18.2636   -7.6705    4.2821 C   0  0  0  0  0  0  0  0  0  0  0  0
  -18.2299   -7.1197    3.0136 C   0  0  0  0  0  0  0  0  0  0  0  0
  -17.6849   -6.0757    0.3873 C   0  0  0  0  0  0  0  0  0  0  0  0
  -17.6869   -5.2989    1.5448 O   0  0  0  0  0  0  0  0  0  0  0  0
  -12.8945   -6.0057   10.1701 C   0  0  0  0  0  0  0  0  0  0  0  0
  -11.4143   -5.8714   10.1885 C   0  0  0  0  0  0  0  0  0  0  0  0
  -10.6427   -7.1431   10.3556 C   0  0  0  0  0  0  0  0  0  0  0  0
   -9.1629   -6.6926   10.3968 C   0  0  0  0  0  0  0  0  0  0  0  0
   -8.8584   -6.4675    8.9775 N   0  0  0  0  0  0  0  0  0  0  0  0
   -9.8096   -5.6826    8.2254 C   0  0  0  0  0  0  0  0  0  0  0  0
  -10.8121   -5.0250    9.1245 C   0  0  0  0  0  0  0  0  0  0  0  0
   -7.6879   -7.0143    8.3798 C   0  0  0  0  0  0  0  0  0  0  0  0
   -6.7825   -7.6876    9.1531 N   0  0  0  0  0  0  0  0  0  0  0  0
   -5.6510   -8.1947    8.6156 C   0  0  0  0  0  0  0  0  0  0  0  0
   -5.3916   -8.0477    7.3060 N   0  0  0  0  0  0  0  0  0  0  0  0
   -6.2418   -7.3926    6.4732 C   0  0  0  0  0  0  0  0  0  0  0  0
   -5.9363   -7.2737    5.1384 C   0  0  0  0  0  0  0  0  0  0  0  0
   -6.8091   -6.6159    4.3076 C   0  0  0  0  0  0  0  0  0  0  0  0
   -7.9649   -6.0966    4.8435 C   0  0  0  0  0  0  0  0  0  0  0  0
   -8.8716   -5.4337    4.0726 F   0  0  0  0  0  0  0  0  0  0  0  0
   -8.2508   -6.2285    6.1896 C   0  0  0  0  0  0  0  0  0  0  0  0
   -7.3950   -6.8828    7.0527 C   0  0  0  0  0  0  0  0  0  0  0  0
 18 19  1  0  0  0
 19 12  1  0  0  0
 12 13  2  0  0  0
 13 14  1  0  0  0
 14 15  2  0  0  0
 15 16  1  0  0  0
 16 17  2  0  0  0
 15  9  1  0  0  0
  9 10  2  0  0  0
  9 11  2  0  0  0
  9  1  1  0  0  0
  1  2  1  0  0  0
  2  3  1  0  0  0
  3  4  1  0  0  0
  4  5  1  0  0  0
  5  6  1  0  0  0
  4  7  1  0  0  0
  7  8  2  0  0  0
  7 20  1  0  0  0
 20 21  1  0  0  0
 21 22  1  0  0  0
 22 23  1  0  0  0
 23 24  1  0  0  0
 24 25  1  0  0  0
 25 26  1  0  0  0
 24 27  1  0  0  0
 27 28  2  0  0  0
 28 29  1  0  0  0
 29 30  2  0  0  0
 30 31  1  0  0  0
 31 32  2  0  0  0
 32 33  1  0  0  0
 33 34  2  0  0  0
 34 35  1  0  0  0
 34 36  1  0  0  0
 36 37  2  0  0  0
 17 12  1  0  0  0
  6  1  1  0  0  0
 26 21  1  0  0  0
 37 27  1  0  0  0
 37 31  1  0  0  0
M  END
> <minimizedAffinity>
13.98562

> <CNNscore>
0.3754495382

> <CNNaffinity>
7.1152982712

> <CNN_VS>
2.6714353561

> <CNNaffinity_variance>
1.1961266994

$$$$
[H]c1nc(N2C([H])([H])C([H])([H])C([H])(C([H])([H])C(=O)N3C([H])([H])C([H])([H])N(S(=O)(=O)c4c([H])c([H])c(OC([H])([H])[H])c([H])c4[H])C([H])([H])C3([H])[H])C([H])([H])C2([H])[H])c2c([H])c(F)c([H])c([H])c2n1


 37 41  0  0  0  0  0  0  0  0999 V2000
   -3.5831   -5.5353    9.1834 N   0  0  0  0  0  0  0  0  0  0  0  0
   -3.0492   -6.0411    7.9464 C   0  0  0  0  0  0  0  0  0  0  0  0
   -4.1202   -6.9062    7.3185 C   0  0  0  0  0  0  0  0  0  0  0  0
   -5.3756   -6.1859    7.4664 N   0  0  0  0  0  0  0  0  0  0  0  0
   -5.2556   -4.7491    7.6319 C   0  0  0  0  0  0  0  0  0  0  0  0
   -4.5959   -4.5303    9.0009 C   0  0  0  0  0  0  0  0  0  0  0  0
   -6.6331   -6.8490    7.4483 C   0  0  0  0  0  0  0  0  0  0  0  0
   -7.6714   -6.1705    7.5812 O   0  0  0  0  0  0  0  0  0  0  0  0
   -2.3947   -4.9670   10.2571 S   0  0  0  0  0  0  0  0  0  0  0  0
   -2.7928   -5.1686   11.6903 O   0  0  0  0  0  0  0  0  0  0  0  0
   -1.0604   -5.6304   10.0535 O   0  0  0  0  0  0  0  0  0  0  0  0
   -1.9092   -0.4586    9.7199 C   0  0  0  0  0  0  0  0  0  0  0  0
   -1.0696   -1.3512    9.0743 C   0  0  0  0  0  0  0  0  0  0  0  0
   -1.1895   -2.7101    9.2147 C   0  0  0  0  0  0  0  0  0  0  0  0
   -2.1672   -3.2535   10.0177 C   0  0  0  0  0  0  0  0  0  0  0  0
   -3.0076   -2.3660   10.6641 C   0  0  0  0  0  0  0  0  0  0  0  0
   -2.8914   -0.9945   10.5263 C   0  0  0  0  0  0  0  0  0  0  0  0
   -2.8872    1.7800    9.6617 C   0  0  0  0  0  0  0  0  0  0  0  0
   -1.7925    0.9206    9.5815 O   0  0  0  0  0  0  0  0  0  0  0  0
   -6.6986   -8.2847    7.2783 C   0  0  0  0  0  0  0  0  0  0  0  0
   -8.0271   -8.8986    7.0188 C   0  0  0  0  0  0  0  0  0  0  0  0
   -8.7229   -9.4827    8.2085 C   0  0  0  0  0  0  0  0  0  0  0  0
  -10.0253  -10.0886    7.6331 C   0  0  0  0  0  0  0  0  0  0  0  0
  -10.8821   -8.9067    7.4699 N   0  0  0  0  0  0  0  0  0  0  0  0
  -10.2924   -7.7621    6.8151 C   0  0  0  0  0  0  0  0  0  0  0  0
   -8.9738   -8.1053    6.1909 C   0  0  0  0  0  0  0  0  0  0  0  0
  -12.2216   -8.8960    7.9514 C   0  0  0  0  0  0  0  0  0  0  0  0
  -12.5444   -9.6064    9.0749 N   0  0  0  0  0  0  0  0  0  0  0  0
  -13.8133   -9.6336    9.5389 C   0  0  0  0  0  0  0  0  0  0  0  0
  -14.7872   -8.9607    8.9042 N   0  0  0  0  0  0  0  0  0  0  0  0
  -14.5455   -8.2322    7.7833 C   0  0  0  0  0  0  0  0  0  0  0  0
  -15.5736   -7.5547    7.1726 C   0  0  0  0  0  0  0  0  0  0  0  0
  -15.3126   -6.8161    6.0452 C   0  0  0  0  0  0  0  0  0  0  0  0
  -14.0241   -6.7800    5.5643 C   0  0  0  0  0  0  0  0  0  0  0  0
  -13.6998   -6.0656    4.4507 F   0  0  0  0  0  0  0  0  0  0  0  0
  -13.0060   -7.4700    6.1956 C   0  0  0  0  0  0  0  0  0  0  0  0
  -13.2340   -8.2226    7.3302 C   0  0  0  0  0  0  0  0  0  0  0  0
 18 19  1  0  0  0
 19 12  1  0  0  0
 12 13  2  0  0  0
 13 14  1  0  0  0
 14 15  2  0  0  0
 15 16  1  0  0  0
 16 17  2  0  0  0
 15  9  1  0  0  0
  9 10  2  0  0  0
  9 11  2  0  0  0
  9  1  1  0  0  0
  1  2  1  0  0  0
  2  3  1  0  0  0
  3  4  1  0  0  0
  4  5  1  0  0  0
  5  6  1  0  0  0
  4  7  1  0  0  0
  7  8  2  0  0  0
  7 20  1  0  0  0
 20 21  1  0  0  0
 21 22  1  0  0  0
 22 23  1  0  0  0
 23 24  1  0  0  0
 24 25  1  0  0  0
 25 26  1  0  0  0
 24 27  1  0  0  0
 27 28  2  0  0  0
 28 29  1  0  0  0
 29 30  2  0  0  0
 30 31  1  0  0  0
 31 32  2  0  0  0
 32 33  1  0  0  0
 33 34  2  0  0  0
 34 35  1  0  0  0
 34 36  1  0  0  0
 36 37  2  0  0  0
 17 12  1  0  0  0
  6  1  1  0  0  0
 26 21  1  0  0  0
 37 27  1  0  0  0
 37 31  1  0  0  0
M  END
> <minimizedAffinity>
-0.38744

> <CNNscore>
0.3606494069

> <CNNaffinity>
6.6147055626

> <CNN_VS>
2.3855895996

> <CNNaffinity_variance>
0.9789361954

$$$$
[H]c1nc(N2C([H])([H])C([H])([H])C([H])(C([H])([H])C(=O)N3C([H])([H])C([H])([H])N(S(=O)(=O)c4c([H])c([H])c(OC([H])([H])[H])c([H])c4[H])C([H])([H])C3([H])[H])C([H])([H])C2([H])[H])c2c([H])c(F)c([H])c([H])c2n1


 37 41  0  0  0  0  0  0  0  0999 V2000
   -2.8809   -4.2828    9.3039 N   0  0  0  0  0  0  0  0  0  0  0  0
   -2.2224   -5.5612    9.2489 C   0  0  0  0  0  0  0  0  0  0  0  0
   -2.9821   -6.4123    8.2547 C   0  0  0  0  0  0  0  0  0  0  0  0
   -3.2700   -5.5589    7.1121 N   0  0  0  0  0  0  0  0  0  0  0  0
   -2.3875   -4.4189    6.9458 C   0  0  0  0  0  0  0  0  0  0  0  0
   -2.6735   -3.4814    8.1276 C   0  0  0  0  0  0  0  0  0  0  0  0
   -4.3440   -5.8284    6.2202 C   0  0  0  0  0  0  0  0  0  0  0  0
   -4.5354   -5.0550    5.2604 O   0  0  0  0  0  0  0  0  0  0  0  0
   -2.4994   -3.3787   10.6915 S   0  0  0  0  0  0  0  0  0  0  0  0
   -1.0600   -3.5390   11.0857 O   0  0  0  0  0  0  0  0  0  0  0  0
   -2.7679   -1.9088   10.5210 O   0  0  0  0  0  0  0  0  0  0  0  0
   -4.9505   -4.7616   14.2873 C   0  0  0  0  0  0  0  0  0  0  0  0
   -5.3053   -5.1216   12.9978 C   0  0  0  0  0  0  0  0  0  0  0  0
   -4.5902   -4.7229   11.8976 C   0  0  0  0  0  0  0  0  0  0  0  0
   -3.4696   -3.9341   12.0315 C   0  0  0  0  0  0  0  0  0  0  0  0
   -3.1118   -3.5725   13.3171 C   0  0  0  0  0  0  0  0  0  0  0  0
   -3.8292   -3.9716   14.4306 C   0  0  0  0  0  0  0  0  0  0  0  0
   -5.1641   -5.0694   16.7021 C   0  0  0  0  0  0  0  0  0  0  0  0
   -5.6717   -5.1628   15.4071 O   0  0  0  0  0  0  0  0  0  0  0  0
   -5.1944   -6.9805    6.4292 C   0  0  0  0  0  0  0  0  0  0  0  0
   -6.5000   -6.7724    7.1084 C   0  0  0  0  0  0  0  0  0  0  0  0
   -7.7013   -6.7183    6.2170 C   0  0  0  0  0  0  0  0  0  0  0  0
   -8.8812   -6.4386    7.1782 C   0  0  0  0  0  0  0  0  0  0  0  0
   -9.1356   -7.7612    7.7645 N   0  0  0  0  0  0  0  0  0  0  0  0
   -7.9869   -8.4856    8.2567 C   0  0  0  0  0  0  0  0  0  0  0  0
   -6.7675   -7.6155    8.3036 C   0  0  0  0  0  0  0  0  0  0  0  0
  -10.4522   -8.2991    7.8250 C   0  0  0  0  0  0  0  0  0  0  0  0
  -10.7548   -9.4328    7.1221 N   0  0  0  0  0  0  0  0  0  0  0  0
  -12.0031   -9.9501    7.1421 C   0  0  0  0  0  0  0  0  0  0  0  0
  -12.9758   -9.3595    7.8556 N   0  0  0  0  0  0  0  0  0  0  0  0
  -12.7533   -8.2318    8.5797 C   0  0  0  0  0  0  0  0  0  0  0  0
  -13.7789   -7.6674    9.2999 C   0  0  0  0  0  0  0  0  0  0  0  0
  -13.5369   -6.5325   10.0334 C   0  0  0  0  0  0  0  0  0  0  0  0
  -12.2695   -5.9976   10.0216 C   0  0  0  0  0  0  0  0  0  0  0  0
  -11.9647   -4.8737   10.7284 F   0  0  0  0  0  0  0  0  0  0  0  0
  -11.2535   -6.5829    9.2893 C   0  0  0  0  0  0  0  0  0  0  0  0
  -11.4627   -7.7236    8.5405 C   0  0  0  0  0  0  0  0  0  0  0  0
 18 19  1  0  0  0
 19 12  1  0  0  0
 12 13  2  0  0  0
 13 14  1  0  0  0
 14 15  2  0  0  0
 15 16  1  0  0  0
 16 17  2  0  0  0
 15  9  1  0  0  0
  9 10  2  0  0  0
  9 11  2  0  0  0
  9  1  1  0  0  0
  1  2  1  0  0  0
  2  3  1  0  0  0
  3  4  1  0  0  0
  4  5  1  0  0  0
  5  6  1  0  0  0
  4  7  1  0  0  0
  7  8  2  0  0  0
  7 20  1  0  0  0
 20 21  1  0  0  0
 21 22  1  0  0  0
 22 23  1  0  0  0
 23 24  1  0  0  0
 24 25  1  0  0  0
 25 26  1  0  0  0
 24 27  1  0  0  0
 27 28  2  0  0  0
 28 29  1  0  0  0
 29 30  2  0  0  0
 30 31  1  0  0  0
 31 32  2  0  0  0
 32 33  1  0  0  0
 33 34  2  0  0  0
 34 35  1  0  0  0
 34 36  1  0  0  0
 36 37  2  0  0  0
 17 12  1  0  0  0
  6  1  1  0  0  0
 26 21  1  0  0  0
 37 27  1  0  0  0
 37 31  1  0  0  0
M  END
> <minimizedAffinity>
-8.91749

> <CNNscore>
0.3494937420

> <CNNaffinity>
7.0178251266

> <CNN_VS>
2.4526860714

> <CNNaffinity_variance>
0.0080532935

$$$$
[H]c1nc(N2C([H])([H])C([H])([H])C([H])(C([H])([H])C(=O)N3C([H])([H])C([H])([H])N(S(=O)(=O)c4c([H])c([H])c(OC([H])([H])[H])c([H])c4[H])C([H])([H])C3([H])[H])C([H])([H])C2([H])[H])c2c([H])c(F)c([H])c([H])c2n1


 37 41  0  0  0  0  0  0  0  0999 V2000
  -15.8085   -8.0434    8.0151 N   0  0  0  0  0  0  0  0  0  0  0  0
  -15.8449   -7.0601    6.9651 C   0  0  0  0  0  0  0  0  0  0  0  0
  -16.7208   -7.6157    5.8634 C   0  0  0  0  0  0  0  0  0  0  0  0
  -17.8826   -8.2032    6.5129 N   0  0  0  0  0  0  0  0  0  0  0  0
  -18.1879   -7.6858    7.8340 C   0  0  0  0  0  0  0  0  0  0  0  0
  -17.0423   -8.1441    8.7476 C   0  0  0  0  0  0  0  0  0  0  0  0
  -18.6638   -9.2153    5.8910 C   0  0  0  0  0  0  0  0  0  0  0  0
  -19.6472   -9.6764    6.5046 O   0  0  0  0  0  0  0  0  0  0  0  0
  -14.5124   -7.8395    9.0954 S   0  0  0  0  0  0  0  0  0  0  0  0
  -14.2513   -6.3909    9.3891 O   0  0  0  0  0  0  0  0  0  0  0  0
  -14.7313   -8.5419   10.4071 O   0  0  0  0  0  0  0  0  0  0  0  0
  -10.7874   -9.6568    7.1792 C   0  0  0  0  0  0  0  0  0  0  0  0
  -10.6987   -8.5525    8.0104 C   0  0  0  0  0  0  0  0  0  0  0  0
  -11.7980   -7.9837    8.6010 C   0  0  0  0  0  0  0  0  0  0  0  0
  -13.0583   -8.4961    8.3885 C   0  0  0  0  0  0  0  0  0  0  0  0
  -13.1514   -9.5986    7.5593 C   0  0  0  0  0  0  0  0  0  0  0  0
  -12.0461  -10.1765    6.9609 C   0  0  0  0  0  0  0  0  0  0  0  0
   -8.4588  -10.3954    7.2379 C   0  0  0  0  0  0  0  0  0  0  0  0
   -9.6762  -10.2382    6.5773 O   0  0  0  0  0  0  0  0  0  0  0  0
  -18.3180   -9.6959    4.5705 C   0  0  0  0  0  0  0  0  0  0  0  0
  -17.5060   -8.8114    3.6945 C   0  0  0  0  0  0  0  0  0  0  0  0
  -17.7280   -7.3405    3.8617 C   0  0  0  0  0  0  0  0  0  0  0  0
  -16.8096   -6.6898    2.7999 C   0  0  0  0  0  0  0  0  0  0  0  0
  -15.4875   -6.7586    3.4364 N   0  0  0  0  0  0  0  0  0  0  0  0
  -15.1071   -8.0293    4.0084 C   0  0  0  0  0  0  0  0  0  0  0  0
  -16.0539   -9.1188    3.6050 C   0  0  0  0  0  0  0  0  0  0  0  0
  -14.6378   -5.6180    3.4944 C   0  0  0  0  0  0  0  0  0  0  0  0
  -13.4184   -5.6483    2.8753 N   0  0  0  0  0  0  0  0  0  0  0  0
  -12.5821   -4.5885    2.9361 C   0  0  0  0  0  0  0  0  0  0  0  0
  -12.9325   -3.4795    3.6079 N   0  0  0  0  0  0  0  0  0  0  0  0
  -14.1262   -3.3730    4.2477 C   0  0  0  0  0  0  0  0  0  0  0  0
  -14.4432   -2.2149    4.9165 C   0  0  0  0  0  0  0  0  0  0  0  0
  -15.6566   -2.1189    5.5515 C   0  0  0  0  0  0  0  0  0  0  0  0
  -16.5168   -3.1910    5.4953 C   0  0  0  0  0  0  0  0  0  0  0  0
  -17.7351   -3.1587    6.1038 F   0  0  0  0  0  0  0  0  0  0  0  0
  -16.1760   -4.3461    4.8164 C   0  0  0  0  0  0  0  0  0  0  0  0
  -14.9642   -4.4761    4.1681 C   0  0  0  0  0  0  0  0  0  0  0  0
 18 19  1  0  0  0
 19 12  1  0  0  0
 12 13  2  0  0  0
 13 14  1  0  0  0
 14 15  2  0  0  0
 15 16  1  0  0  0
 16 17  2  0  0  0
 15  9  1  0  0  0
  9 10  2  0  0  0
  9 11  2  0  0  0
  9  1  1  0  0  0
  1  2  1  0  0  0
  2  3  1  0  0  0
  3  4  1  0  0  0
  4  5  1  0  0  0
  5  6  1  0  0  0
  4  7  1  0  0  0
  7  8  2  0  0  0
  7 20  1  0  0  0
 20 21  1  0  0  0
 21 22  1  0  0  0
 22 23  1  0  0  0
 23 24  1  0  0  0
 24 25  1  0  0  0
 25 26  1  0  0  0
 24 27  1  0  0  0
 27 28  2  0  0  0
 28 29  1  0  0  0
 29 30  2  0  0  0
 30 31  1  0  0  0
 31 32  2  0  0  0
 32 33  1  0  0  0
 33 34  2  0  0  0
 34 35  1  0  0  0
 34 36  1  0  0  0
 36 37  2  0  0  0
 17 12  1  0  0  0
  6  1  1  0  0  0
 26 21  1  0  0  0
 37 27  1  0  0  0
 37 31  1  0  0  0
M  END
> <minimizedAffinity>
16.09963

> <CNNscore>
0.3235367239

> <CNNaffinity>
7.2313513756

> <CNN_VS>
2.3396077156

> <CNNaffinity_variance>
0.2968091071

$$$$
[H]c1nc(N2C([H])([H])C([H])([H])C([H])(C([H])([H])C(=O)N3C([H])([H])C([H])([H])N(S(=O)(=O)c4c([H])c([H])c(OC([H])([H])[H])c([H])c4[H])C([H])([H])C3([H])[H])C([H])([H])C2([H])[H])c2c([H])c(F)c([H])c([H])c2n1


 37 41  0  0  0  0  0  0  0  0999 V2000
   -3.3158   -3.8835    7.2385 N   0  0  0  0  0  0  0  0  0  0  0  0
   -3.1425   -4.1870    8.6345 C   0  0  0  0  0  0  0  0  0  0  0  0
   -3.9455   -5.4367    8.9227 C   0  0  0  0  0  0  0  0  0  0  0  0
   -3.6973   -6.3533    7.8205 N   0  0  0  0  0  0  0  0  0  0  0  0
   -2.4606   -6.1352    7.0931 C   0  0  0  0  0  0  0  0  0  0  0  0
   -2.6242   -4.7933    6.3650 C   0  0  0  0  0  0  0  0  0  0  0  0
   -4.6075   -7.3921    7.4830 C   0  0  0  0  0  0  0  0  0  0  0  0
   -4.3332   -8.1426    6.5250 O   0  0  0  0  0  0  0  0  0  0  0  0
   -2.9168   -2.2817    6.8344 S   0  0  0  0  0  0  0  0  0  0  0  0
   -1.7176   -2.2137    5.9343 O   0  0  0  0  0  0  0  0  0  0  0  0
   -4.0437   -1.5546    6.1538 O   0  0  0  0  0  0  0  0  0  0  0  0
   -2.0302    0.0858   10.6369 C   0  0  0  0  0  0  0  0  0  0  0  0
   -1.0601   -0.7046   10.0430 C   0  0  0  0  0  0  0  0  0  0  0  0
   -1.2948   -1.4272    8.9012 C   0  0  0  0  0  0  0  0  0  0  0  0
   -2.5266   -1.3963    8.2867 C   0  0  0  0  0  0  0  0  0  0  0  0
   -3.4979   -0.6085    8.8762 C   0  0  0  0  0  0  0  0  0  0  0  0
   -3.2670    0.1225   10.0278 C   0  0  0  0  0  0  0  0  0  0  0  0
   -1.4884    2.1798   11.7739 C   0  0  0  0  0  0  0  0  0  0  0  0
   -1.7982    0.8209   11.7948 O   0  0  0  0  0  0  0  0  0  0  0  0
   -5.8271   -7.5688    8.2417 C   0  0  0  0  0  0  0  0  0  0  0  0
   -6.9955   -8.1798    7.5556 C   0  0  0  0  0  0  0  0  0  0  0  0
   -7.7864   -9.1643    8.3593 C   0  0  0  0  0  0  0  0  0  0  0  0
   -8.8790   -9.6664    7.3854 C   0  0  0  0  0  0  0  0  0  0  0  0
   -9.8558   -8.5695    7.4089 N   0  0  0  0  0  0  0  0  0  0  0  0
   -9.3347   -7.2319    7.2486 C   0  0  0  0  0  0  0  0  0  0  0  0
   -7.8971   -7.2494    6.8258 C   0  0  0  0  0  0  0  0  0  0  0  0
  -11.2439   -8.8234    7.5968 C   0  0  0  0  0  0  0  0  0  0  0  0
  -11.8639   -9.7883    6.8515 N   0  0  0  0  0  0  0  0  0  0  0  0
  -13.1857  -10.0322    6.9921 C   0  0  0  0  0  0  0  0  0  0  0  0
  -13.9202   -9.3296    7.8701 N   0  0  0  0  0  0  0  0  0  0  0  0
  -13.3768   -8.3560    8.6462 C   0  0  0  0  0  0  0  0  0  0  0  0
  -14.1678   -7.6686    9.5356 C   0  0  0  0  0  0  0  0  0  0  0  0
  -13.6028   -6.6930   10.3190 C   0  0  0  0  0  0  0  0  0  0  0  0
  -12.2577   -6.4369   10.1854 C   0  0  0  0  0  0  0  0  0  0  0  0
  -11.6373   -5.4823   10.9335 F   0  0  0  0  0  0  0  0  0  0  0  0
  -11.4821   -7.1414    9.2837 C   0  0  0  0  0  0  0  0  0  0  0  0
  -12.0182   -8.1277    8.4804 C   0  0  0  0  0  0  0  0  0  0  0  0
 18 19  1  0  0  0
 19 12  1  0  0  0
 12 13  2  0  0  0
 13 14  1  0  0  0
 14 15  2  0  0  0
 15 16  1  0  0  0
 16 17  2  0  0  0
 15  9  1  0  0  0
  9 10  2  0  0  0
  9 11  2  0  0  0
  9  1  1  0  0  0
  1  2  1  0  0  0
  2  3  1  0  0  0
  3  4  1  0  0  0
  4  5  1  0  0  0
  5  6  1  0  0  0
  4  7  1  0  0  0
  7  8  2  0  0  0
  7 20  1  0  0  0
 20 21  1  0  0  0
 21 22  1  0  0  0
 22 23  1  0  0  0
 23 24  1  0  0  0
 24 25  1  0  0  0
 25 26  1  0  0  0
 24 27  1  0  0  0
 27 28  2  0  0  0
 28 29  1  0  0  0
 29 30  2  0  0  0
 30 31  1  0  0  0
 31 32  2  0  0  0
 32 33  1  0  0  0
 33 34  2  0  0  0
 34 35  1  0  0  0
 34 36  1  0  0  0
 36 37  2  0  0  0
 17 12  1  0  0  0
  6  1  1  0  0  0
 26 21  1  0  0  0
 37 27  1  0  0  0
 37 31  1  0  0  0
M  END
> <minimizedAffinity>
-8.52493

> <CNNscore>
0.3224342167

> <CNNaffinity>
6.9275879860

> <CNN_VS>
2.2336914539

> <CNNaffinity_variance>
0.1267399788

$$$$
[H]c1nc(N2C([H])([H])C([H])([H])C([H])(C([H])([H])C(=O)N3C([H])([H])C([H])([H])N(S(=O)(=O)c4c([H])c([H])c(OC([H])([H])[H])c([H])c4[H])C([H])([H])C3([H])[H])C([H])([H])C2([H])[H])c2c([H])c(F)c([H])c([H])c2n1


 37 41  0  0  0  0  0  0  0  0999 V2000
   -3.1608   -3.1583    7.8767 N   0  0  0  0  0  0  0  0  0  0  0  0
   -2.9752   -3.6627    9.2117 C   0  0  0  0  0  0  0  0  0  0  0  0
   -3.7950   -4.9291    9.3284 C   0  0  0  0  0  0  0  0  0  0  0  0
   -3.5756   -5.6804    8.1019 N   0  0  0  0  0  0  0  0  0  0  0  0
   -2.3445   -5.3775    7.3956 C   0  0  0  0  0  0  0  0  0  0  0  0
   -2.4950   -3.9423    6.8712 C   0  0  0  0  0  0  0  0  0  0  0  0
   -4.5068   -6.6463    7.6315 C   0  0  0  0  0  0  0  0  0  0  0  0
   -4.2567   -7.2545    6.5714 O   0  0  0  0  0  0  0  0  0  0  0  0
   -2.7405   -1.5208    7.7021 S   0  0  0  0  0  0  0  0  0  0  0  0
   -3.5371   -0.6378    8.6178 O   0  0  0  0  0  0  0  0  0  0  0  0
   -1.2830   -1.2619    7.9675 O   0  0  0  0  0  0  0  0  0  0  0  0
   -3.7485   -0.1968    3.4499 C   0  0  0  0  0  0  0  0  0  0  0  0
   -2.4388   -0.2241    3.8998 C   0  0  0  0  0  0  0  0  0  0  0  0
   -2.1035   -0.6167    5.1703 C   0  0  0  0  0  0  0  0  0  0  0  0
   -3.0722   -1.0072    6.0676 C   0  0  0  0  0  0  0  0  0  0  0  0
   -4.3809   -0.9815    5.6225 C   0  0  0  0  0  0  0  0  0  0  0  0
   -4.7252   -0.5865    4.3422 C   0  0  0  0  0  0  0  0  0  0  0  0
   -5.2580    0.9165    1.8835 C   0  0  0  0  0  0  0  0  0  0  0  0
   -4.0949    0.2005    2.1626 O   0  0  0  0  0  0  0  0  0  0  0  0
   -5.7197   -6.9130    8.3745 C   0  0  0  0  0  0  0  0  0  0  0  0
   -6.7992   -7.6801    7.6997 C   0  0  0  0  0  0  0  0  0  0  0  0
   -7.5359   -8.6645    8.5534 C   0  0  0  0  0  0  0  0  0  0  0  0
   -8.5368   -9.3397    7.5856 C   0  0  0  0  0  0  0  0  0  0  0  0
   -9.6055   -8.3372    7.4813 N   0  0  0  0  0  0  0  0  0  0  0  0
   -9.1962   -6.9751    7.2288 C   0  0  0  0  0  0  0  0  0  0  0  0
   -7.7453   -6.8965    6.8619 C   0  0  0  0  0  0  0  0  0  0  0  0
  -10.9730   -8.6996    7.6387 C   0  0  0  0  0  0  0  0  0  0  0  0
  -11.4939   -9.7221    6.8943 N   0  0  0  0  0  0  0  0  0  0  0  0
  -12.7950  -10.0699    7.0060 C   0  0  0  0  0  0  0  0  0  0  0  0
  -13.6063   -9.4163    7.8537 N   0  0  0  0  0  0  0  0  0  0  0  0
  -13.1634   -8.3909    8.6269 C   0  0  0  0  0  0  0  0  0  0  0  0
  -14.0299   -7.7568    9.4848 C   0  0  0  0  0  0  0  0  0  0  0  0
  -13.5658   -6.7276   10.2659 C   0  0  0  0  0  0  0  0  0  0  0  0
  -12.2427   -6.3657   10.1617 C   0  0  0  0  0  0  0  0  0  0  0  0
  -11.7207   -5.3534   10.9090 F   0  0  0  0  0  0  0  0  0  0  0  0
  -11.3896   -7.0182    9.2912 C   0  0  0  0  0  0  0  0  0  0  0  0
  -11.8236   -8.0561    8.4912 C   0  0  0  0  0  0  0  0  0  0  0  0
 18 19  1  0  0  0
 19 12  1  0  0  0
 12 13  2  0  0  0
 13 14  1  0  0  0
 14 15  2  0  0  0
 15 16  1  0  0  0
 16 17  2  0  0  0
 15  9  1  0  0  0
  9 10  2  0  0  0
  9 11  2  0  0  0
  9  1  1  0  0  0
  1  2  1  0  0  0
  2  3  1  0  0  0
  3  4  1  0  0  0
  4  5  1  0  0  0
  5  6  1  0  0  0
  4  7  1  0  0  0
  7  8  2  0  0  0
  7 20  1  0  0  0
 20 21  1  0  0  0
 21 22  1  0  0  0
 22 23  1  0  0  0
 23 24  1  0  0  0
 24 25  1  0  0  0
 25 26  1  0  0  0
 24 27  1  0  0  0
 27 28  2  0  0  0
 28 29  1  0  0  0
 29 30  2  0  0  0
 30 31  1  0  0  0
 31 32  2  0  0  0
 32 33  1  0  0  0
 33 34  2  0  0  0
 34 35  1  0  0  0
 34 36  1  0  0  0
 36 37  2  0  0  0
 17 12  1  0  0  0
  6  1  1  0  0  0
 26 21  1  0  0  0
 37 27  1  0  0  0
 37 31  1  0  0  0
M  END
> <minimizedAffinity>
-8.76076

> <CNNscore>
0.3119221628

> <CNNaffinity>
7.0598516464

> <CNN_VS>
2.2021241188

> <CNNaffinity_variance>
0.1622723043

$$$$
