[H]c1c([H])c([H])c(N2C([H])([H])C([H])([H])N(C(=O)C([H])([H])Sc3nnc([H])n3-c3c([H])c([H])c([H])c([H])c3C([H])([H])[H])C([H])([H])C2([H])[H])c([H])c1[H]


 28 31  0  0  0  0  0  0  0  0999 V2000
  -15.3287   -8.4135    7.3750 C   0  0  0  0  0  0  0  0  0  0  0  0
  -15.4664   -8.6404    8.8270 C   0  0  0  0  0  0  0  0  0  0  0  0
  -16.0856   -9.6482    9.2338 O   0  0  0  0  0  0  0  0  0  0  0  0
  -14.9115   -7.7416    9.7655 N   0  0  0  0  0  0  0  0  0  0  0  0
  -14.2187   -6.5781    9.3018 C   0  0  0  0  0  0  0  0  0  0  0  0
  -13.6609   -5.7325   10.4303 C   0  0  0  0  0  0  0  0  0  0  0  0
  -13.1001   -6.5518   11.4780 N   0  0  0  0  0  0  0  0  0  0  0  0
  -13.5899   -7.9044   11.7381 C   0  0  0  0  0  0  0  0  0  0  0  0
  -15.0227   -7.9698   11.1907 C   0  0  0  0  0  0  0  0  0  0  0  0
  -12.0615   -6.0434   12.2795 C   0  0  0  0  0  0  0  0  0  0  0  0
  -11.4032   -6.8534   13.1699 C   0  0  0  0  0  0  0  0  0  0  0  0
  -10.3896   -6.3152   13.9512 C   0  0  0  0  0  0  0  0  0  0  0  0
  -10.0246   -4.9881   13.8575 C   0  0  0  0  0  0  0  0  0  0  0  0
  -10.6881   -4.1668   12.9578 C   0  0  0  0  0  0  0  0  0  0  0  0
  -11.6923   -4.6990   12.1836 C   0  0  0  0  0  0  0  0  0  0  0  0
  -16.1503   -6.8787    6.8523 S   0  0  0  0  0  0  0  0  0  0  0  0
  -17.1019   -6.1264    4.3057 N   0  0  0  0  0  0  0  0  0  0  0  0
  -17.5919   -6.6957    3.2006 C   0  0  0  0  0  0  0  0  0  0  0  0
  -17.6149   -8.0183    3.4146 N   0  0  0  0  0  0  0  0  0  0  0  0
  -17.1549   -8.2518    4.6106 N   0  0  0  0  0  0  0  0  0  0  0  0
  -16.8276   -7.0895    5.1881 C   0  0  0  0  0  0  0  0  0  0  0  0
  -14.4539   -5.2186    4.4192 C   0  0  0  0  0  0  0  0  0  0  0  0
  -15.6056   -4.2801    4.5576 C   0  0  0  0  0  0  0  0  0  0  0  0
  -15.3983   -2.9310    4.7478 C   0  0  0  0  0  0  0  0  0  0  0  0
  -16.4904   -2.0790    4.8729 C   0  0  0  0  0  0  0  0  0  0  0  0
  -17.7902   -2.5295    4.8142 C   0  0  0  0  0  0  0  0  0  0  0  0
  -18.0026   -3.8772    4.6245 C   0  0  0  0  0  0  0  0  0  0  0  0
  -16.9058   -4.7308    4.4992 C   0  0  0  0  0  0  0  0  0  0  0  0
 22 23  1  0  0  0
 23 24  2  0  0  0
 24 25  1  0  0  0
 25 26  2  0  0  0
 26 27  1  0  0  0
 27 28  2  0  0  0
 28 17  1  0  0  0
 17 18  1  0  0  0
 18 19  2  0  0  0
 19 20  1  0  0  0
 20 21  2  0  0  0
 21 16  1  0  0  0
 16  1  1  0  0  0
  1  2  1  0  0  0
  2  3  2  0  0  0
  2  4  1  0  0  0
  4  5  1  0  0  0
  5  6  1  0  0  0
  6  7  1  0  0  0
  7 10  1  0  0  0
 10 11  2  0  0  0
 11 12  1  0  0  0
 12 13  2  0  0  0
 13 14  1  0  0  0
 14 15  2  0  0  0
  7  8  1  0  0  0
  8  9  1  0  0  0
 28 23  1  0  0  0
 21 17  1  0  0  0
  9  4  1  0  0  0
 15 10  1  0  0  0
M  END
> <minimizedAffinity>
27.91864

> <CNNscore>
0.4657925665

> <CNNaffinity>
6.5102858543

> <CNN_VS>
3.0324428082

> <CNNaffinity_variance>
0.8572605252

$$$$
[H]c1c([H])c([H])c(N2C([H])([H])C([H])([H])N(C(=O)C([H])([H])Sc3nnc([H])n3-c3c([H])c([H])c([H])c([H])c3C([H])([H])[H])C([H])([H])C2([H])[H])c([H])c1[H]


 28 31  0  0  0  0  0  0  0  0999 V2000
  -14.3647   -8.5090    9.3297 C   0  0  0  0  0  0  0  0  0  0  0  0
  -14.0059   -7.1155    9.6587 C   0  0  0  0  0  0  0  0  0  0  0  0
  -14.9107   -6.2580    9.7629 O   0  0  0  0  0  0  0  0  0  0  0  0
  -12.6607   -6.7323    9.8588 N   0  0  0  0  0  0  0  0  0  0  0  0
  -11.6228   -7.7082    9.7217 C   0  0  0  0  0  0  0  0  0  0  0  0
  -10.2413   -7.1451    9.9945 C   0  0  0  0  0  0  0  0  0  0  0  0
  -10.2519   -6.2377   11.1169 N   0  0  0  0  0  0  0  0  0  0  0  0
  -11.4467   -5.4749   11.4742 C   0  0  0  0  0  0  0  0  0  0  0  0
  -12.3035   -5.3727   10.2043 C   0  0  0  0  0  0  0  0  0  0  0  0
   -9.0873   -6.0700   11.8882 C   0  0  0  0  0  0  0  0  0  0  0  0
   -9.1664   -5.6725   13.1989 C   0  0  0  0  0  0  0  0  0  0  0  0
   -7.9957   -5.5081   13.9270 C   0  0  0  0  0  0  0  0  0  0  0  0
   -6.7539   -5.7337   13.3698 C   0  0  0  0  0  0  0  0  0  0  0  0
   -6.6709   -6.1362   12.0450 C   0  0  0  0  0  0  0  0  0  0  0  0
   -7.8299   -6.2991   11.3230 C   0  0  0  0  0  0  0  0  0  0  0  0
  -16.1653   -8.7339    9.2244 S   0  0  0  0  0  0  0  0  0  0  0  0
  -15.9210   -8.3955    6.4347 N   0  0  0  0  0  0  0  0  0  0  0  0
  -16.6801   -8.4654    5.3374 C   0  0  0  0  0  0  0  0  0  0  0  0
  -17.9152   -8.8037    5.7323 N   0  0  0  0  0  0  0  0  0  0  0  0
  -17.9131   -8.9362    7.0281 N   0  0  0  0  0  0  0  0  0  0  0  0
  -16.6823   -8.6873    7.4915 C   0  0  0  0  0  0  0  0  0  0  0  0
  -15.0509   -6.3994    4.6720 C   0  0  0  0  0  0  0  0  0  0  0  0
  -14.1041   -7.0888    5.5964 C   0  0  0  0  0  0  0  0  0  0  0  0
  -12.7654   -6.7621    5.6089 C   0  0  0  0  0  0  0  0  0  0  0  0
  -11.9056   -7.4204    6.4815 C   0  0  0  0  0  0  0  0  0  0  0  0
  -12.3382   -8.3992    7.3478 C   0  0  0  0  0  0  0  0  0  0  0  0
  -13.6755   -8.7296    7.3390 C   0  0  0  0  0  0  0  0  0  0  0  0
  -14.5369   -8.0683    6.4628 C   0  0  0  0  0  0  0  0  0  0  0  0
 22 23  1  0  0  0
 23 24  2  0  0  0
 24 25  1  0  0  0
 25 26  2  0  0  0
 26 27  1  0  0  0
 27 28  2  0  0  0
 28 17  1  0  0  0
 17 18  1  0  0  0
 18 19  2  0  0  0
 19 20  1  0  0  0
 20 21  2  0  0  0
 21 16  1  0  0  0
 16  1  1  0  0  0
  1  2  1  0  0  0
  2  3  2  0  0  0
  2  4  1  0  0  0
  4  5  1  0  0  0
  5  6  1  0  0  0
  6  7  1  0  0  0
  7 10  1  0  0  0
 10 11  2  0  0  0
 11 12  1  0  0  0
 12 13  2  0  0  0
 13 14  1  0  0  0
 14 15  2  0  0  0
  7  8  1  0  0  0
  8  9  1  0  0  0
 28 23  1  0  0  0
 21 17  1  0  0  0
  9  4  1  0  0  0
 15 10  1  0  0  0
M  END
> <minimizedAffinity>
17.37821

> <CNNscore>
0.3700018227

> <CNNaffinity>
6.2344255447

> <CNN_VS>
2.3067488670

> <CNNaffinity_variance>
1.1302039623

$$$$
[H]c1c([H])c([H])c(N2C([H])([H])C([H])([H])N(C(=O)C([H])([H])Sc3nnc([H])n3-c3c([H])c([H])c([H])c([H])c3C([H])([H])[H])C([H])([H])C2([H])[H])c([H])c1[H]


 28 31  0  0  0  0  0  0  0  0999 V2000
  -15.0545   -8.8178    5.6270 C   0  0  0  0  0  0  0  0  0  0  0  0
  -14.2335   -7.9545    6.4985 C   0  0  0  0  0  0  0  0  0  0  0  0
  -14.1160   -6.7400    6.2228 O   0  0  0  0  0  0  0  0  0  0  0  0
  -13.5788   -8.4735    7.6380 N   0  0  0  0  0  0  0  0  0  0  0  0
  -13.6970   -9.8666    7.9444 C   0  0  0  0  0  0  0  0  0  0  0  0
  -12.9601  -10.2586    9.2107 C   0  0  0  0  0  0  0  0  0  0  0  0
  -13.1183   -9.2637   10.2444 N   0  0  0  0  0  0  0  0  0  0  0  0
  -13.3436   -7.8553    9.9242 C   0  0  0  0  0  0  0  0  0  0  0  0
  -12.7909   -7.6283    8.5100 C   0  0  0  0  0  0  0  0  0  0  0  0
  -13.0479   -9.6466   11.5964 C   0  0  0  0  0  0  0  0  0  0  0  0
  -13.3734   -8.7615   12.5928 C   0  0  0  0  0  0  0  0  0  0  0  0
  -13.2834   -9.1711   13.9164 C   0  0  0  0  0  0  0  0  0  0  0  0
  -12.8761  -10.4441   14.2586 C   0  0  0  0  0  0  0  0  0  0  0  0
  -12.5469  -11.3412   13.2532 C   0  0  0  0  0  0  0  0  0  0  0  0
  -12.6356  -10.9363   11.9420 C   0  0  0  0  0  0  0  0  0  0  0  0
  -14.2191   -9.1742    4.0526 S   0  0  0  0  0  0  0  0  0  0  0  0
  -16.0262   -7.4127    2.7923 N   0  0  0  0  0  0  0  0  0  0  0  0
  -16.1544   -6.7500    1.6392 C   0  0  0  0  0  0  0  0  0  0  0  0
  -15.0771   -7.0381    0.8962 N   0  0  0  0  0  0  0  0  0  0  0  0
  -14.3146   -7.8503    1.5710 N   0  0  0  0  0  0  0  0  0  0  0  0
  -14.8828   -8.1003    2.7569 C   0  0  0  0  0  0  0  0  0  0  0  0
  -16.1828   -5.0364    4.2678 C   0  0  0  0  0  0  0  0  0  0  0  0
  -17.0328   -6.2168    4.6001 C   0  0  0  0  0  0  0  0  0  0  0  0
  -17.9242   -6.1720    5.6501 C   0  0  0  0  0  0  0  0  0  0  0  0
  -18.7046   -7.2870    5.9368 C   0  0  0  0  0  0  0  0  0  0  0  0
  -18.6258   -8.4520    5.2074 C   0  0  0  0  0  0  0  0  0  0  0  0
  -17.7360   -8.5019    4.1569 C   0  0  0  0  0  0  0  0  0  0  0  0
  -16.9537   -7.3825    3.8706 C   0  0  0  0  0  0  0  0  0  0  0  0
 22 23  1  0  0  0
 23 24  2  0  0  0
 24 25  1  0  0  0
 25 26  2  0  0  0
 26 27  1  0  0  0
 27 28  2  0  0  0
 28 17  1  0  0  0
 17 18  1  0  0  0
 18 19  2  0  0  0
 19 20  1  0  0  0
 20 21  2  0  0  0
 21 16  1  0  0  0
 16  1  1  0  0  0
  1  2  1  0  0  0
  2  3  2  0  0  0
  2  4  1  0  0  0
  4  5  1  0  0  0
  5  6  1  0  0  0
  6  7  1  0  0  0
  7 10  1  0  0  0
 10 11  2  0  0  0
 11 12  1  0  0  0
 12 13  2  0  0  0
 13 14  1  0  0  0
 14 15  2  0  0  0
  7  8  1  0  0  0
  8  9  1  0  0  0
 28 23  1  0  0  0
 21 17  1  0  0  0
  9  4  1  0  0  0
 15 10  1  0  0  0
M  END
> <minimizedAffinity>
23.70393

> <CNNscore>
0.3326044381

> <CNNaffinity>
6.0558300018

> <CNN_VS>
2.0141959190

> <CNNaffinity_variance>
0.5492387414

$$$$
[H]c1c([H])c([H])c(N2C([H])([H])C([H])([H])N(C(=O)C([H])([H])Sc3nnc([H])n3-c3c([H])c([H])c([H])c([H])c3C([H])([H])[H])C([H])([H])C2([H])[H])c([H])c1[H]


 28 31  0  0  0  0  0  0  0  0999 V2000
  -11.8697   -6.2297    5.4550 C   0  0  0  0  0  0  0  0  0  0  0  0
  -11.1307   -6.7849    6.6058 C   0  0  0  0  0  0  0  0  0  0  0  0
   -9.9251   -6.4893    6.7602 O   0  0  0  0  0  0  0  0  0  0  0  0
  -11.7591   -7.6428    7.5361 N   0  0  0  0  0  0  0  0  0  0  0  0
  -13.1334   -7.9970    7.3505 C   0  0  0  0  0  0  0  0  0  0  0  0
  -13.6650   -8.9001    8.4468 C   0  0  0  0  0  0  0  0  0  0  0  0
  -13.1796   -8.4981    9.7453 N   0  0  0  0  0  0  0  0  0  0  0  0
  -11.8980   -7.8135    9.9059 C   0  0  0  0  0  0  0  0  0  0  0  0
  -11.0469   -8.1726    8.6796 C   0  0  0  0  0  0  0  0  0  0  0  0
  -13.9469   -8.7737   10.8919 C   0  0  0  0  0  0  0  0  0  0  0  0
  -15.2301   -8.3019   11.0060 C   0  0  0  0  0  0  0  0  0  0  0  0
  -15.9546   -8.5856   12.1558 C   0  0  0  0  0  0  0  0  0  0  0  0
  -15.4209   -9.3296   13.1878 C   0  0  0  0  0  0  0  0  0  0  0  0
  -14.1239   -9.8083   13.0750 C   0  0  0  0  0  0  0  0  0  0  0  0
  -13.4055   -9.5277   11.9365 C   0  0  0  0  0  0  0  0  0  0  0  0
  -13.5933   -6.8059    5.4202 S   0  0  0  0  0  0  0  0  0  0  0  0
  -15.9667   -5.5661    4.5333 N   0  0  0  0  0  0  0  0  0  0  0  0
  -16.3834   -4.3725    4.1009 C   0  0  0  0  0  0  0  0  0  0  0  0
  -15.3217   -3.5549    4.1141 N   0  0  0  0  0  0  0  0  0  0  0  0
  -14.2891   -4.2251    4.5398 N   0  0  0  0  0  0  0  0  0  0  0  0
  -14.6634   -5.4818    4.8083 C   0  0  0  0  0  0  0  0  0  0  0  0
  -16.2992   -6.5735    7.1263 C   0  0  0  0  0  0  0  0  0  0  0  0
  -16.9458   -7.2238    5.9493 C   0  0  0  0  0  0  0  0  0  0  0  0
  -17.7293   -8.3467    6.1049 C   0  0  0  0  0  0  0  0  0  0  0  0
  -18.3204   -8.9318    4.9903 C   0  0  0  0  0  0  0  0  0  0  0  0
  -18.1560   -8.4318    3.7180 C   0  0  0  0  0  0  0  0  0  0  0  0
  -17.3736   -7.3095    3.5572 C   0  0  0  0  0  0  0  0  0  0  0  0
  -16.7810   -6.7237    4.6765 C   0  0  0  0  0  0  0  0  0  0  0  0
 22 23  1  0  0  0
 23 24  2  0  0  0
 24 25  1  0  0  0
 25 26  2  0  0  0
 26 27  1  0  0  0
 27 28  2  0  0  0
 28 17  1  0  0  0
 17 18  1  0  0  0
 18 19  2  0  0  0
 19 20  1  0  0  0
 20 21  2  0  0  0
 21 16  1  0  0  0
 16  1  1  0  0  0
  1  2  1  0  0  0
  2  3  2  0  0  0
  2  4  1  0  0  0
  4  5  1  0  0  0
  5  6  1  0  0  0
  6  7  1  0  0  0
  7 10  1  0  0  0
 10 11  2  0  0  0
 11 12  1  0  0  0
 12 13  2  0  0  0
 13 14  1  0  0  0
 14 15  2  0  0  0
  7  8  1  0  0  0
  8  9  1  0  0  0
 28 23  1  0  0  0
 21 17  1  0  0  0
  9  4  1  0  0  0
 15 10  1  0  0  0
M  END
> <minimizedAffinity>
14.71709

> <CNNscore>
0.3297519684

> <CNNaffinity>
6.2616229057

> <CNN_VS>
2.0647823811

> <CNNaffinity_variance>
0.8235509992

$$$$
[H]c1c([H])c([H])c(N2C([H])([H])C([H])([H])N(C(=O)C([H])([H])Sc3nnc([H])n3-c3c([H])c([H])c([H])c([H])c3C([H])([H])[H])C([H])([H])C2([H])[H])c([H])c1[H]


 28 31  0  0  0  0  0  0  0  0999 V2000
   -9.7350   -8.2905   10.7419 C   0  0  0  0  0  0  0  0  0  0  0  0
  -10.2393   -7.0001   10.2328 C   0  0  0  0  0  0  0  0  0  0  0  0
   -9.4994   -5.9924   10.2772 O   0  0  0  0  0  0  0  0  0  0  0  0
  -11.5409   -6.8817    9.6958 N   0  0  0  0  0  0  0  0  0  0  0  0
  -12.3954   -8.0294    9.6613 C   0  0  0  0  0  0  0  0  0  0  0  0
  -13.7452   -7.7436    9.0317 C   0  0  0  0  0  0  0  0  0  0  0  0
  -13.6195   -6.8871    7.8767 N   0  0  0  0  0  0  0  0  0  0  0  0
  -12.5248   -5.9265    7.7506 C   0  0  0  0  0  0  0  0  0  0  0  0
  -12.0338   -5.6248    9.1736 C   0  0  0  0  0  0  0  0  0  0  0  0
  -14.5725   -6.9651    6.8446 C   0  0  0  0  0  0  0  0  0  0  0  0
  -14.8276   -5.8809    6.0435 C   0  0  0  0  0  0  0  0  0  0  0  0
  -15.7815   -5.9913    5.0407 C   0  0  0  0  0  0  0  0  0  0  0  0
  -16.4805   -7.1612    4.8263 C   0  0  0  0  0  0  0  0  0  0  0  0
  -16.2244   -8.2591    5.6345 C   0  0  0  0  0  0  0  0  0  0  0  0
  -15.2798   -8.1506    6.6280 C   0  0  0  0  0  0  0  0  0  0  0  0
   -8.0159   -8.5898   10.2332 S   0  0  0  0  0  0  0  0  0  0  0  0
   -8.1045   -7.7750    7.5341 N   0  0  0  0  0  0  0  0  0  0  0  0
   -7.5774   -6.8354    6.7437 C   0  0  0  0  0  0  0  0  0  0  0  0
   -6.7792   -6.0781    7.5085 N   0  0  0  0  0  0  0  0  0  0  0  0
   -6.8155   -6.5382    8.7265 N   0  0  0  0  0  0  0  0  0  0  0  0
   -7.6344   -7.5961    8.7704 C   0  0  0  0  0  0  0  0  0  0  0  0
   -7.0775   -9.8265    5.9262 C   0  0  0  0  0  0  0  0  0  0  0  0
   -8.5140   -9.7975    6.3286 C   0  0  0  0  0  0  0  0  0  0  0  0
   -9.3827  -10.7849    5.9171 C   0  0  0  0  0  0  0  0  0  0  0  0
  -10.7165  -10.7331    6.3078 C   0  0  0  0  0  0  0  0  0  0  0  0
  -11.2163   -9.7240    7.1000 C   0  0  0  0  0  0  0  0  0  0  0  0
  -10.3519   -8.7345    7.5138 C   0  0  0  0  0  0  0  0  0  0  0  0
   -9.0140   -8.7878    7.1209 C   0  0  0  0  0  0  0  0  0  0  0  0
 22 23  1  0  0  0
 23 24  2  0  0  0
 24 25  1  0  0  0
 25 26  2  0  0  0
 26 27  1  0  0  0
 27 28  2  0  0  0
 28 17  1  0  0  0
 17 18  1  0  0  0
 18 19  2  0  0  0
 19 20  1  0  0  0
 20 21  2  0  0  0
 21 16  1  0  0  0
 16  1  1  0  0  0
  1  2  1  0  0  0
  2  3  2  0  0  0
  2  4  1  0  0  0
  4  5  1  0  0  0
  5  6  1  0  0  0
  6  7  1  0  0  0
  7 10  1  0  0  0
 10 11  2  0  0  0
 11 12  1  0  0  0
 12 13  2  0  0  0
 13 14  1  0  0  0
 14 15  2  0  0  0
  7  8  1  0  0  0
  8  9  1  0  0  0
 28 23  1  0  0  0
 21 17  1  0  0  0
  9  4  1  0  0  0
 15 10  1  0  0  0
M  END
> <minimizedAffinity>
16.57262

> <CNNscore>
0.2713347077

> <CNNaffinity>
6.0705742836

> <CNN_VS>
1.6471575499

> <CNNaffinity_variance>
0.4481622279

$$$$
[H]c1c([H])c([H])c(N2C([H])([H])C([H])([H])N(C(=O)C([H])([H])Sc3nnc([H])n3-c3c([H])c([H])c([H])c([H])c3C([H])([H])[H])C([H])([H])C2([H])[H])c([H])c1[H]


 28 31  0  0  0  0  0  0  0  0999 V2000
  -14.0207   -8.0432    5.2423 C   0  0  0  0  0  0  0  0  0  0  0  0
  -15.2741   -8.1033    4.4649 C   0  0  0  0  0  0  0  0  0  0  0  0
  -15.6477   -9.1978    3.9883 O   0  0  0  0  0  0  0  0  0  0  0  0
  -16.0597   -6.9487    4.2498 N   0  0  0  0  0  0  0  0  0  0  0  0
  -15.6240   -5.6921    4.7786 C   0  0  0  0  0  0  0  0  0  0  0  0
  -16.5893   -4.5598    4.4849 C   0  0  0  0  0  0  0  0  0  0  0  0
  -17.9615   -4.9826    4.6332 N   0  0  0  0  0  0  0  0  0  0  0  0
  -18.3624   -6.3720    4.4199 C   0  0  0  0  0  0  0  0  0  0  0  0
  -17.3016   -7.0046    3.5081 C   0  0  0  0  0  0  0  0  0  0  0  0
  -18.9465   -4.0411    4.9837 C   0  0  0  0  0  0  0  0  0  0  0  0
  -20.0595   -3.8672    4.2006 C   0  0  0  0  0  0  0  0  0  0  0  0
  -21.0063   -2.9224    4.5723 C   0  0  0  0  0  0  0  0  0  0  0  0
  -20.8603   -2.1529    5.7081 C   0  0  0  0  0  0  0  0  0  0  0  0
  -19.7362   -2.3268    6.5020 C   0  0  0  0  0  0  0  0  0  0  0  0
  -18.7977   -3.2623    6.1345 C   0  0  0  0  0  0  0  0  0  0  0  0
  -13.9802   -9.3019    6.5529 S   0  0  0  0  0  0  0  0  0  0  0  0
  -12.6726   -8.1758    8.7843 N   0  0  0  0  0  0  0  0  0  0  0  0
  -12.9777   -7.6016    9.9515 C   0  0  0  0  0  0  0  0  0  0  0  0
  -14.3146   -7.5723   10.0399 N   0  0  0  0  0  0  0  0  0  0  0  0
  -14.8119   -8.1108    8.9632 N   0  0  0  0  0  0  0  0  0  0  0  0
  -13.8100   -8.4956    8.1634 C   0  0  0  0  0  0  0  0  0  0  0  0
  -10.7961   -6.1366    9.1952 C   0  0  0  0  0  0  0  0  0  0  0  0
  -10.4312   -7.4003    8.4909 C   0  0  0  0  0  0  0  0  0  0  0  0
   -9.1525   -7.6014    8.0182 C   0  0  0  0  0  0  0  0  0  0  0  0
   -8.8400   -8.7894    7.3660 C   0  0  0  0  0  0  0  0  0  0  0  0
   -9.7651   -9.7898    7.1683 C   0  0  0  0  0  0  0  0  0  0  0  0
  -11.0448   -9.5935    7.6388 C   0  0  0  0  0  0  0  0  0  0  0  0
  -11.3567   -8.4010    8.2929 C   0  0  0  0  0  0  0  0  0  0  0  0
 22 23  1  0  0  0
 23 24  2  0  0  0
 24 25  1  0  0  0
 25 26  2  0  0  0
 26 27  1  0  0  0
 27 28  2  0  0  0
 28 17  1  0  0  0
 17 18  1  0  0  0
 18 19  2  0  0  0
 19 20  1  0  0  0
 20 21  2  0  0  0
 21 16  1  0  0  0
 16  1  1  0  0  0
  1  2  1  0  0  0
  2  3  2  0  0  0
  2  4  1  0  0  0
  4  5  1  0  0  0
  5  6  1  0  0  0
  6  7  1  0  0  0
  7 10  1  0  0  0
 10 11  2  0  0  0
 11 12  1  0  0  0
 12 13  2  0  0  0
 13 14  1  0  0  0
 14 15  2  0  0  0
  7  8  1  0  0  0
  8  9  1  0  0  0
 28 23  1  0  0  0
 21 17  1  0  0  0
  9  4  1  0  0  0
 15 10  1  0  0  0
M  END
> <minimizedAffinity>
-1.01980

> <CNNscore>
0.2712167203

> <CNNaffinity>
6.7535505295

> <CNN_VS>
1.8316757679

> <CNNaffinity_variance>
0.3262004852

$$$$
[H]c1c([H])c([H])c(N2C([H])([H])C([H])([H])N(C(=O)C([H])([H])Sc3nnc([H])n3-c3c([H])c([H])c([H])c([H])c3C([H])([H])[H])C([H])([H])C2([H])[H])c([H])c1[H]


 28 31  0  0  0  0  0  0  0  0999 V2000
   -7.0791   -7.8001    8.4310 C   0  0  0  0  0  0  0  0  0  0  0  0
   -6.1185   -7.7348    7.3122 C   0  0  0  0  0  0  0  0  0  0  0  0
   -6.2369   -8.5319    6.3555 O   0  0  0  0  0  0  0  0  0  0  0  0
   -5.0688   -6.7890    7.3011 N   0  0  0  0  0  0  0  0  0  0  0  0
   -4.9206   -5.8886    8.4038 C   0  0  0  0  0  0  0  0  0  0  0  0
   -3.7662   -4.9211    8.2268 C   0  0  0  0  0  0  0  0  0  0  0  0
   -3.6837   -4.4386    6.8689 N   0  0  0  0  0  0  0  0  0  0  0  0
   -4.1599   -5.2380    5.7415 C   0  0  0  0  0  0  0  0  0  0  0  0
   -4.1370   -6.7041    6.1965 C   0  0  0  0  0  0  0  0  0  0  0  0
   -3.1262   -3.1726    6.6121 C   0  0  0  0  0  0  0  0  0  0  0  0
   -2.0314   -2.7342    7.3132 C   0  0  0  0  0  0  0  0  0  0  0  0
   -1.5136   -1.4753    7.0396 C   0  0  0  0  0  0  0  0  0  0  0  0
   -2.0687   -0.6521    6.0817 C   0  0  0  0  0  0  0  0  0  0  0  0
   -3.1753   -1.0930    5.3710 C   0  0  0  0  0  0  0  0  0  0  0  0
   -3.6889   -2.3396    5.6414 C   0  0  0  0  0  0  0  0  0  0  0  0
   -8.7121   -7.1596    7.9547 S   0  0  0  0  0  0  0  0  0  0  0  0
  -11.1056   -8.6451    7.8103 N   0  0  0  0  0  0  0  0  0  0  0  0
  -11.5429   -9.8141    7.3333 C   0  0  0  0  0  0  0  0  0  0  0  0
  -10.4963  -10.4227    6.7587 N   0  0  0  0  0  0  0  0  0  0  0  0
   -9.4527   -9.6528    6.8800 N   0  0  0  0  0  0  0  0  0  0  0  0
   -9.8047   -8.5380    7.5318 C   0  0  0  0  0  0  0  0  0  0  0  0
  -13.4124   -7.7393    6.5038 C   0  0  0  0  0  0  0  0  0  0  0  0
  -13.0331   -7.2330    7.8552 C   0  0  0  0  0  0  0  0  0  0  0  0
  -13.8112   -6.2982    8.5030 C   0  0  0  0  0  0  0  0  0  0  0  0
  -13.4341   -5.8444    9.7624 C   0  0  0  0  0  0  0  0  0  0  0  0
  -12.3006   -6.2942   10.4017 C   0  0  0  0  0  0  0  0  0  0  0  0
  -11.5194   -7.2285    9.7581 C   0  0  0  0  0  0  0  0  0  0  0  0
  -11.8990   -7.6828    8.4945 C   0  0  0  0  0  0  0  0  0  0  0  0
 22 23  1  0  0  0
 23 24  2  0  0  0
 24 25  1  0  0  0
 25 26  2  0  0  0
 26 27  1  0  0  0
 27 28  2  0  0  0
 28 17  1  0  0  0
 17 18  1  0  0  0
 18 19  2  0  0  0
 19 20  1  0  0  0
 20 21  2  0  0  0
 21 16  1  0  0  0
 16  1  1  0  0  0
  1  2  1  0  0  0
  2  3  2  0  0  0
  2  4  1  0  0  0
  4  5  1  0  0  0
  5  6  1  0  0  0
  6  7  1  0  0  0
  7 10  1  0  0  0
 10 11  2  0  0  0
 11 12  1  0  0  0
 12 13  2  0  0  0
 13 14  1  0  0  0
 14 15  2  0  0  0
  7  8  1  0  0  0
  8  9  1  0  0  0
 28 23  1  0  0  0
 21 17  1  0  0  0
  9  4  1  0  0  0
 15 10  1  0  0  0
M  END
> <minimizedAffinity>
-7.37743

> <CNNscore>
0.2100380510

> <CNNaffinity>
5.6632981300

> <CNN_VS>
1.1895080805

> <CNNaffinity_variance>
0.1340879053

$$$$
[H]c1c([H])c([H])c(N2C([H])([H])C([H])([H])N(C(=O)C([H])([H])Sc3nnc([H])n3-c3c([H])c([H])c([H])c([H])c3C([H])([H])[H])C([H])([H])C2([H])[H])c([H])c1[H]


 28 31  0  0  0  0  0  0  0  0999 V2000
   -9.6580   -7.2324    7.5311 C   0  0  0  0  0  0  0  0  0  0  0  0
  -10.8805   -6.8560    8.2676 C   0  0  0  0  0  0  0  0  0  0  0  0
  -10.7842   -6.1452    9.2924 O   0  0  0  0  0  0  0  0  0  0  0  0
  -12.1568   -7.2824    7.8366 N   0  0  0  0  0  0  0  0  0  0  0  0
  -12.2672   -8.1111    6.6748 C   0  0  0  0  0  0  0  0  0  0  0  0
  -13.7025   -8.4585    6.3299 C   0  0  0  0  0  0  0  0  0  0  0  0
  -14.5788   -7.3256    6.5093 N   0  0  0  0  0  0  0  0  0  0  0  0
  -14.2841   -6.2756    7.4828 C   0  0  0  0  0  0  0  0  0  0  0  0
  -13.3619   -6.8981    8.5406 C   0  0  0  0  0  0  0  0  0  0  0  0
  -15.7518   -7.2234    5.7392 C   0  0  0  0  0  0  0  0  0  0  0  0
  -16.4322   -8.3482    5.3466 C   0  0  0  0  0  0  0  0  0  0  0  0
  -17.5809   -8.2097    4.5793 C   0  0  0  0  0  0  0  0  0  0  0  0
  -18.0587   -6.9722    4.2005 C   0  0  0  0  0  0  0  0  0  0  0  0
  -17.3732   -5.8331    4.5964 C   0  0  0  0  0  0  0  0  0  0  0  0
  -16.2352   -5.9694    5.3562 C   0  0  0  0  0  0  0  0  0  0  0  0
   -8.4057   -5.9161    7.5874 S   0  0  0  0  0  0  0  0  0  0  0  0
   -6.5424   -7.8248    6.6700 N   0  0  0  0  0  0  0  0  0  0  0  0
   -5.2576   -7.8915    6.3093 C   0  0  0  0  0  0  0  0  0  0  0  0
   -4.7476   -6.6586    6.4347 N   0  0  0  0  0  0  0  0  0  0  0  0
   -5.6881   -5.8633    6.8584 N   0  0  0  0  0  0  0  0  0  0  0  0
   -6.8175   -6.5647    7.0134 C   0  0  0  0  0  0  0  0  0  0  0  0
   -7.1457   -8.9542    9.1619 C   0  0  0  0  0  0  0  0  0  0  0  0
   -7.7538   -9.4752    7.9029 C   0  0  0  0  0  0  0  0  0  0  0  0
   -8.6346  -10.5348    7.9299 C   0  0  0  0  0  0  0  0  0  0  0  0
   -9.1869  -10.9995    6.7411 C   0  0  0  0  0  0  0  0  0  0  0  0
   -8.8892  -10.4397    5.5189 C   0  0  0  0  0  0  0  0  0  0  0  0
   -8.0091   -9.3805    5.4866 C   0  0  0  0  0  0  0  0  0  0  0  0
   -7.4557   -8.9155    6.6802 C   0  0  0  0  0  0  0  0  0  0  0  0
 22 23  1  0  0  0
 23 24  2  0  0  0
 24 25  1  0  0  0
 25 26  2  0  0  0
 26 27  1  0  0  0
 27 28  2  0  0  0
 28 17  1  0  0  0
 17 18  1  0  0  0
 18 19  2  0  0  0
 19 20  1  0  0  0
 20 21  2  0  0  0
 21 16  1  0  0  0
 16  1  1  0  0  0
  1  2  1  0  0  0
  2  3  2  0  0  0
  2  4  1  0  0  0
  4  5  1  0  0  0
  5  6  1  0  0  0
  6  7  1  0  0  0
  7 10  1  0  0  0
 10 11  2  0  0  0
 11 12  1  0  0  0
 12 13  2  0  0  0
 13 14  1  0  0  0
 14 15  2  0  0  0
  7  8  1  0  0  0
  8  9  1  0  0  0
 28 23  1  0  0  0
 21 17  1  0  0  0
  9  4  1  0  0  0
 15 10  1  0  0  0
M  END
> <minimizedAffinity>
-3.30893

> <CNNscore>
0.1888060868

> <CNNaffinity>
6.2385797501

> <CNN_VS>
1.1778818369

> <CNNaffinity_variance>
0.1167246476

$$$$
[H]c1c([H])c([H])c(N2C([H])([H])C([H])([H])N(C(=O)C([H])([H])Sc3nnc([H])n3-c3c([H])c([H])c([H])c([H])c3C([H])([H])[H])C([H])([H])C2([H])[H])c([H])c1[H]


 28 31  0  0  0  0  0  0  0  0999 V2000
   -8.7455   -9.2210    7.5158 C   0  0  0  0  0  0  0  0  0  0  0  0
   -9.7758   -8.2942    8.0241 C   0  0  0  0  0  0  0  0  0  0  0  0
   -9.4248   -7.2827    8.6709 O   0  0  0  0  0  0  0  0  0  0  0  0
  -11.1501   -8.5275    7.7932 N   0  0  0  0  0  0  0  0  0  0  0  0
  -11.5544   -9.6943    7.0694 C   0  0  0  0  0  0  0  0  0  0  0  0
  -13.0569   -9.7843    6.8835 C   0  0  0  0  0  0  0  0  0  0  0  0
  -13.6303   -8.4954    6.5778 N   0  0  0  0  0  0  0  0  0  0  0  0
  -13.0143   -7.2534    7.0411 C   0  0  0  0  0  0  0  0  0  0  0  0
  -12.1647   -7.6110    8.2688 C   0  0  0  0  0  0  0  0  0  0  0  0
  -14.8152   -8.4216    5.8227 C   0  0  0  0  0  0  0  0  0  0  0  0
  -15.9759   -7.9535    6.3848 C   0  0  0  0  0  0  0  0  0  0  0  0
  -17.1284   -7.9034    5.6123 C   0  0  0  0  0  0  0  0  0  0  0  0
  -17.1398   -8.3107    4.2942 C   0  0  0  0  0  0  0  0  0  0  0  0
  -15.9676   -8.7839    3.7231 C   0  0  0  0  0  0  0  0  0  0  0  0
  -14.8256   -8.8340    4.4876 C   0  0  0  0  0  0  0  0  0  0  0  0
   -7.0666   -8.6231    7.8731 S   0  0  0  0  0  0  0  0  0  0  0  0
   -5.3505   -6.9718    6.3615 N   0  0  0  0  0  0  0  0  0  0  0  0
   -5.4249   -6.0504    5.3967 C   0  0  0  0  0  0  0  0  0  0  0  0
   -6.7208   -5.9063    5.0872 N   0  0  0  0  0  0  0  0  0  0  0  0
   -7.4171   -6.7118    5.8374 N   0  0  0  0  0  0  0  0  0  0  0  0
   -6.5874   -7.3880    6.6411 C   0  0  0  0  0  0  0  0  0  0  0  0
   -4.4234   -5.5177    8.5693 C   0  0  0  0  0  0  0  0  0  0  0  0
   -3.6917   -6.7152    8.0626 C   0  0  0  0  0  0  0  0  0  0  0  0
   -2.5305   -7.1424    8.6694 C   0  0  0  0  0  0  0  0  0  0  0  0
   -1.8695   -8.2623    8.1764 C   0  0  0  0  0  0  0  0  0  0  0  0
   -2.3302   -8.9752    7.0923 C   0  0  0  0  0  0  0  0  0  0  0  0
   -3.4904   -8.5521    6.4821 C   0  0  0  0  0  0  0  0  0  0  0  0
   -4.1524   -7.4282    6.9779 C   0  0  0  0  0  0  0  0  0  0  0  0
 22 23  1  0  0  0
 23 24  2  0  0  0
 24 25  1  0  0  0
 25 26  2  0  0  0
 26 27  1  0  0  0
 27 28  2  0  0  0
 28 17  1  0  0  0
 17 18  1  0  0  0
 18 19  2  0  0  0
 19 20  1  0  0  0
 20 21  2  0  0  0
 21 16  1  0  0  0
 16  1  1  0  0  0
  1  2  1  0  0  0
  2  3  2  0  0  0
  2  4  1  0  0  0
  4  5  1  0  0  0
  5  6  1  0  0  0
  6  7  1  0  0  0
  7 10  1  0  0  0
 10 11  2  0  0  0
 11 12  1  0  0  0
 12 13  2  0  0  0
 13 14  1  0  0  0
 14 15  2  0  0  0
  7  8  1  0  0  0
  8  9  1  0  0  0
 28 23  1  0  0  0
 21 17  1  0  0  0
  9  4  1  0  0  0
 15 10  1  0  0  0
M  END
> <minimizedAffinity>
-7.69547

> <CNNscore>
0.1809109598

> <CNNaffinity>
6.2662587166

> <CNN_VS>
1.1336349249

> <CNNaffinity_variance>
0.3727118969

$$$$
[H]OC(C([H])([H])[H])(C([H])([H])[H])C([H])([H])C([H])([H])N([H])S(=O)(=O)c1c([H])c([H])c(C([H])([H])[H])c(-c2c([H])nc(N([H])[H])c(-c3onc(C([H])([H])[H])c3[H])c2[H])c1[H]


 34 36  0  0  0  0  0  0  0  0999 V2000
   -9.3847   -7.7719    7.5318 C   0  0  0  0  0  0  0  0  0  0  0  0
   -8.2864   -8.2730    6.8230 C   0  0  0  0  0  0  0  0  0  0  0  0
   -7.0978   -7.5789    6.7406 C   0  0  0  0  0  0  0  0  0  0  0  0
   -6.9614   -6.3632    7.3604 C   0  0  0  0  0  0  0  0  0  0  0  0
   -8.0273   -5.8479    8.0648 C   0  0  0  0  0  0  0  0  0  0  0  0
   -9.2389   -6.5603    8.1464 C   0  0  0  0  0  0  0  0  0  0  0  0
  -10.3678   -5.9903    8.9293 C   0  0  0  0  0  0  0  0  0  0  0  0
  -12.6044   -9.1769    8.7718 C   0  0  0  0  0  0  0  0  0  0  0  0
  -11.4121   -8.4396    8.7294 C   0  0  0  0  0  0  0  0  0  0  0  0
  -10.6382   -8.5152    7.5908 C   0  0  0  0  0  0  0  0  0  0  0  0
  -11.0744   -9.3121    6.5502 C   0  0  0  0  0  0  0  0  0  0  0  0
  -12.2144  -10.0092    6.6061 N   0  0  0  0  0  0  0  0  0  0  0  0
  -12.9911   -9.9449    7.7251 C   0  0  0  0  0  0  0  0  0  0  0  0
  -14.1861  -10.6970    7.7406 N   0  0  0  0  0  0  0  0  0  0  0  0
  -14.2403  -11.6866    8.0757 H   0  0  0  0  0  0  0  0  0  0  0  0
  -15.0706  -10.2750    7.4096 H   0  0  0  0  0  0  0  0  0  0  0  0
  -15.9682   -7.9301   12.3609 C   0  0  0  0  0  0  0  0  0  0  0  0
  -14.8301   -8.5344   11.6046 C   0  0  0  0  0  0  0  0  0  0  0  0
  -14.4746   -8.2839   10.2653 C   0  0  0  0  0  0  0  0  0  0  0  0
  -13.3817   -9.0524   10.0123 C   0  0  0  0  0  0  0  0  0  0  0  0
  -13.0945   -9.7223   11.1205 O   0  0  0  0  0  0  0  0  0  0  0  0
  -13.9300   -9.4222   12.0358 N   0  0  0  0  0  0  0  0  0  0  0  0
   -5.7503   -8.2653    5.8313 S   0  0  0  0  0  0  0  0  0  0  0  0
   -5.0062   -9.1789    6.7780 O   0  0  0  0  0  0  0  0  0  0  0  0
   -6.2787   -9.0042    4.6532 O   0  0  0  0  0  0  0  0  0  0  0  0
   -4.7033   -6.9870    5.4135 N   0  0  0  0  0  0  0  0  0  0  0  0
   -5.3135   -6.1442    5.2002 H   0  0  0  0  0  0  0  0  0  0  0  0
   -3.7692   -6.6596    6.4713 C   0  0  0  0  0  0  0  0  0  0  0  0
   -3.3383   -5.2294    6.4354 C   0  0  0  0  0  0  0  0  0  0  0  0
   -1.8620   -5.0535    6.3091 C   0  0  0  0  0  0  0  0  0  0  0  0
   -1.0606   -5.5987    7.4466 C   0  0  0  0  0  0  0  0  0  0  0  0
   -1.3980   -5.7074    5.0303 C   0  0  0  0  0  0  0  0  0  0  0  0
   -1.5723   -3.6923    6.1954 O   0  0  0  0  0  0  0  0  0  0  0  0
   -0.8327   -3.5244    5.5777 H   0  0  0  0  0  0  0  0  0  0  0  0
 17 18  1  0  0  0
 18 19  1  0  0  0
 19 20  2  0  0  0
 20  8  1  0  0  0
  8  9  2  0  0  0
  9 10  1  0  0  0
 10  1  1  0  0  0
  1  2  2  0  0  0
  2  3  1  0  0  0
  3 23  1  0  0  0
 23 24  2  0  0  0
 23 25  2  0  0  0
 23 26  1  0  0  0
 26 28  1  0  0  0
 28 29  1  0  0  0
 29 30  1  0  0  0
 30 31  1  0  0  0
 30 32  1  0  0  0
 30 33  1  0  0  0
  3  4  2  0  0  0
  4  5  1  0  0  0
  5  6  2  0  0  0
  6  7  1  0  0  0
 10 11  2  0  0  0
 11 12  1  0  0  0
 12 13  2  0  0  0
 13 14  1  0  0  0
 20 21  1  0  0  0
 21 22  1  0  0  0
 22 18  2  0  0  0
 13  8  1  0  0  0
  6  1  1  0  0  0
 26 27  1  0  0  0
 33 34  1  0  0  0
 14 15  1  0  0  0
 14 16  1  0  0  0
M  END
> <minimizedAffinity>
4.12186

> <CNNscore>
0.5314220786

> <CNNaffinity>
6.6844987869

> <CNN_VS>
3.5522902012

> <CNNaffinity_variance>
1.5135695934

$$$$
[H]OC(C([H])([H])[H])(C([H])([H])[H])C([H])([H])C([H])([H])N([H])S(=O)(=O)c1c([H])c([H])c(C([H])([H])[H])c(-c2c([H])nc(N([H])[H])c(-c3onc(C([H])([H])[H])c3[H])c2[H])c1[H]


 34 36  0  0  0  0  0  0  0  0999 V2000
  -10.1827   -7.6368    7.7562 C   0  0  0  0  0  0  0  0  0  0  0  0
   -9.0524   -8.0172    7.0230 C   0  0  0  0  0  0  0  0  0  0  0  0
   -7.8996   -7.2607    7.0218 C   0  0  0  0  0  0  0  0  0  0  0  0
   -7.8320   -6.1004    7.7496 C   0  0  0  0  0  0  0  0  0  0  0  0
   -8.9306   -5.7037    8.4802 C   0  0  0  0  0  0  0  0  0  0  0  0
  -10.1054   -6.4796    8.4787 C   0  0  0  0  0  0  0  0  0  0  0  0
  -11.2706   -6.0387    9.2912 C   0  0  0  0  0  0  0  0  0  0  0  0
  -13.6727   -8.7458    7.0725 C   0  0  0  0  0  0  0  0  0  0  0  0
  -12.5097   -7.9621    7.0708 C   0  0  0  0  0  0  0  0  0  0  0  0
  -11.3976   -8.4433    7.7287 C   0  0  0  0  0  0  0  0  0  0  0  0
  -11.4839   -9.6710    8.3560 C   0  0  0  0  0  0  0  0  0  0  0  0
  -12.6008  -10.4066    8.3483 N   0  0  0  0  0  0  0  0  0  0  0  0
  -13.7091   -9.9447    7.7020 C   0  0  0  0  0  0  0  0  0  0  0  0
  -14.8660  -10.7542    7.7194 N   0  0  0  0  0  0  0  0  0  0  0  0
  -15.5971  -10.6991    8.4657 H   0  0  0  0  0  0  0  0  0  0  0  0
  -15.0272  -11.4473    6.9687 H   0  0  0  0  0  0  0  0  0  0  0  0
  -17.0470   -7.2707    3.5811 C   0  0  0  0  0  0  0  0  0  0  0  0
  -16.3158   -7.5150    4.8610 C   0  0  0  0  0  0  0  0  0  0  0  0
  -15.0991   -8.2050    5.0234 C   0  0  0  0  0  0  0  0  0  0  0  0
  -14.8208   -8.1762    6.3541 C   0  0  0  0  0  0  0  0  0  0  0  0
  -15.8002   -7.5151    6.9566 O   0  0  0  0  0  0  0  0  0  0  0  0
  -16.6597   -7.1354    6.0946 N   0  0  0  0  0  0  0  0  0  0  0  0
   -6.5088   -7.7951    6.0764 S   0  0  0  0  0  0  0  0  0  0  0  0
   -5.5043   -8.3548    7.0573 O   0  0  0  0  0  0  0  0  0  0  0  0
   -6.9488   -8.8204    5.0924 O   0  0  0  0  0  0  0  0  0  0  0  0
   -5.8149   -6.4172    5.3522 N   0  0  0  0  0  0  0  0  0  0  0  0
   -6.5454   -5.6470    5.3889 H   0  0  0  0  0  0  0  0  0  0  0  0
   -4.6082   -5.9792    6.0237 C   0  0  0  0  0  0  0  0  0  0  0  0
   -4.0066   -4.7663    5.3919 C   0  0  0  0  0  0  0  0  0  0  0  0
   -2.5198   -4.7097    5.5040 C   0  0  0  0  0  0  0  0  0  0  0  0
   -1.9855   -4.8295    6.8945 C   0  0  0  0  0  0  0  0  0  0  0  0
   -1.9222   -5.8072    4.6576 C   0  0  0  0  0  0  0  0  0  0  0  0
   -2.0676   -3.4993    4.9748 O   0  0  0  0  0  0  0  0  0  0  0  0
   -1.2209   -3.6011    4.4958 H   0  0  0  0  0  0  0  0  0  0  0  0
 17 18  1  0  0  0
 18 19  1  0  0  0
 19 20  2  0  0  0
 20  8  1  0  0  0
  8  9  2  0  0  0
  9 10  1  0  0  0
 10  1  1  0  0  0
  1  2  2  0  0  0
  2  3  1  0  0  0
  3 23  1  0  0  0
 23 24  2  0  0  0
 23 25  2  0  0  0
 23 26  1  0  0  0
 26 28  1  0  0  0
 28 29  1  0  0  0
 29 30  1  0  0  0
 30 31  1  0  0  0
 30 32  1  0  0  0
 30 33  1  0  0  0
  3  4  2  0  0  0
  4  5  1  0  0  0
  5  6  2  0  0  0
  6  7  1  0  0  0
 10 11  2  0  0  0
 11 12  1  0  0  0
 12 13  2  0  0  0
 13 14  1  0  0  0
 20 21  1  0  0  0
 21 22  1  0  0  0
 22 18  2  0  0  0
 13  8  1  0  0  0
  6  1  1  0  0  0
 26 27  1  0  0  0
 33 34  1  0  0  0
 14 15  1  0  0  0
 14 16  1  0  0  0
M  END
> <minimizedAffinity>
-4.66129

> <CNNscore>
0.5212038159

> <CNNaffinity>
7.0607042313

> <CNN_VS>
3.6800658703

> <CNNaffinity_variance>
0.8236097097

$$$$
[H]OC(C([H])([H])[H])(C([H])([H])[H])C([H])([H])C([H])([H])N([H])S(=O)(=O)c1c([H])c([H])c(C([H])([H])[H])c(-c2c([H])nc(N([H])[H])c(-c3onc(C([H])([H])[H])c3[H])c2[H])c1[H]


 34 36  0  0  0  0  0  0  0  0999 V2000
  -14.1811   -7.9025    8.0238 C   0  0  0  0  0  0  0  0  0  0  0  0
  -13.0102   -7.1399    8.1106 C   0  0  0  0  0  0  0  0  0  0  0  0
  -12.2243   -7.1431    9.2436 C   0  0  0  0  0  0  0  0  0  0  0  0
  -12.5762   -7.9047   10.3284 C   0  0  0  0  0  0  0  0  0  0  0  0
  -13.7238   -8.6647   10.2685 C   0  0  0  0  0  0  0  0  0  0  0  0
  -14.5229   -8.6585    9.1094 C   0  0  0  0  0  0  0  0  0  0  0  0
  -15.7466   -9.5028    9.0637 C   0  0  0  0  0  0  0  0  0  0  0  0
  -15.9195   -6.6822    4.9634 C   0  0  0  0  0  0  0  0  0  0  0  0
  -15.1058   -6.6961    6.1055 C   0  0  0  0  0  0  0  0  0  0  0  0
  -15.0065   -7.8701    6.8219 C   0  0  0  0  0  0  0  0  0  0  0  0
  -15.7124   -8.9722    6.3802 C   0  0  0  0  0  0  0  0  0  0  0  0
  -16.4843   -8.9429    5.2885 N   0  0  0  0  0  0  0  0  0  0  0  0
  -16.5928   -7.7896    4.5690 C   0  0  0  0  0  0  0  0  0  0  0  0
  -17.4185   -7.8039    3.4236 N   0  0  0  0  0  0  0  0  0  0  0  0
  -18.4400   -7.5795    3.4463 H   0  0  0  0  0  0  0  0  0  0  0  0
  -17.0216   -8.0451    2.4993 H   0  0  0  0  0  0  0  0  0  0  0  0
  -15.1307   -1.9846    3.2136 C   0  0  0  0  0  0  0  0  0  0  0  0
  -15.6699   -3.3567    3.4567 C   0  0  0  0  0  0  0  0  0  0  0  0
  -15.1825   -4.3086    4.3728 C   0  0  0  0  0  0  0  0  0  0  0  0
  -15.9815   -5.4016    4.2460 C   0  0  0  0  0  0  0  0  0  0  0  0
  -16.8899   -5.1316    3.3179 O   0  0  0  0  0  0  0  0  0  0  0  0
  -16.7082   -3.9535    2.8650 N   0  0  0  0  0  0  0  0  0  0  0  0
  -10.7601   -6.1595    9.2900 S   0  0  0  0  0  0  0  0  0  0  0  0
  -11.1935   -4.7477    9.6120 O   0  0  0  0  0  0  0  0  0  0  0  0
   -9.8367   -6.7019   10.3226 O   0  0  0  0  0  0  0  0  0  0  0  0
  -10.0915   -6.1523    7.7223 N   0  0  0  0  0  0  0  0  0  0  0  0
   -9.5758   -5.2306    7.6098 H   0  0  0  0  0  0  0  0  0  0  0  0
   -9.1783   -7.2544    7.4978 C   0  0  0  0  0  0  0  0  0  0  0  0
   -7.8764   -6.8121    6.9131 C   0  0  0  0  0  0  0  0  0  0  0  0
   -6.6863   -7.2895    7.6761 C   0  0  0  0  0  0  0  0  0  0  0  0
   -6.3549   -8.7350    7.4917 C   0  0  0  0  0  0  0  0  0  0  0  0
   -5.4871   -6.4619    7.2820 C   0  0  0  0  0  0  0  0  0  0  0  0
   -6.8990   -7.0698    9.0385 O   0  0  0  0  0  0  0  0  0  0  0  0
   -6.0793   -6.8014    9.4998 H   0  0  0  0  0  0  0  0  0  0  0  0
 17 18  1  0  0  0
 18 19  1  0  0  0
 19 20  2  0  0  0
 20  8  1  0  0  0
  8  9  2  0  0  0
  9 10  1  0  0  0
 10  1  1  0  0  0
  1  2  2  0  0  0
  2  3  1  0  0  0
  3 23  1  0  0  0
 23 24  2  0  0  0
 23 25  2  0  0  0
 23 26  1  0  0  0
 26 28  1  0  0  0
 28 29  1  0  0  0
 29 30  1  0  0  0
 30 31  1  0  0  0
 30 32  1  0  0  0
 30 33  1  0  0  0
  3  4  2  0  0  0
  4  5  1  0  0  0
  5  6  2  0  0  0
  6  7  1  0  0  0
 10 11  2  0  0  0
 11 12  1  0  0  0
 12 13  2  0  0  0
 13 14  1  0  0  0
 20 21  1  0  0  0
 21 22  1  0  0  0
 22 18  2  0  0  0
 13  8  1  0  0  0
  6  1  1  0  0  0
 26 27  1  0  0  0
 33 34  1  0  0  0
 14 15  1  0  0  0
 14 16  1  0  0  0
M  END
> <minimizedAffinity>
1.61621

> <CNNscore>
0.4197267592

> <CNNaffinity>
6.8668975830

> <CNN_VS>
2.8822207451

> <CNNaffinity_variance>
0.9659637213

$$$$
[H]OC(C([H])([H])[H])(C([H])([H])[H])C([H])([H])C([H])([H])N([H])S(=O)(=O)c1c([H])c([H])c(C([H])([H])[H])c(-c2c([H])nc(N([H])[H])c(-c3onc(C([H])([H])[H])c3[H])c2[H])c1[H]


 34 36  0  0  0  0  0  0  0  0999 V2000
   -8.8302   -8.1312    7.5433 C   0  0  0  0  0  0  0  0  0  0  0  0
   -7.7572   -7.2511    7.7279 C   0  0  0  0  0  0  0  0  0  0  0  0
   -6.4563   -7.6288    7.4703 C   0  0  0  0  0  0  0  0  0  0  0  0
   -6.1786   -8.8942    7.0206 C   0  0  0  0  0  0  0  0  0  0  0  0
   -7.2168   -9.7796    6.8303 C   0  0  0  0  0  0  0  0  0  0  0  0
   -8.5436   -9.3894    7.0943 C   0  0  0  0  0  0  0  0  0  0  0  0
   -9.6477  -10.3586    6.8623 C   0  0  0  0  0  0  0  0  0  0  0  0
  -11.7841   -6.6922    9.2988 C   0  0  0  0  0  0  0  0  0  0  0  0
  -10.4602   -7.0663    9.0264 C   0  0  0  0  0  0  0  0  0  0  0  0
  -10.1967   -7.7158    7.8390 C   0  0  0  0  0  0  0  0  0  0  0  0
  -11.2477   -7.9658    6.9783 C   0  0  0  0  0  0  0  0  0  0  0  0
  -12.5052   -7.6023    7.2526 N   0  0  0  0  0  0  0  0  0  0  0  0
  -12.7822   -6.9590    8.4226 C   0  0  0  0  0  0  0  0  0  0  0  0
  -14.1233   -6.5937    8.6710 N   0  0  0  0  0  0  0  0  0  0  0  0
  -14.8110   -7.2174    9.1532 H   0  0  0  0  0  0  0  0  0  0  0  0
  -14.4739   -5.6674    8.3724 H   0  0  0  0  0  0  0  0  0  0  0  0
  -11.4349   -4.8995   14.0333 C   0  0  0  0  0  0  0  0  0  0  0  0
  -11.8799   -5.2009   12.6391 C   0  0  0  0  0  0  0  0  0  0  0  0
  -11.2317   -6.0297   11.7033 C   0  0  0  0  0  0  0  0  0  0  0  0
  -11.9967   -6.0042   10.5793 C   0  0  0  0  0  0  0  0  0  0  0  0
  -13.0360   -5.2150   10.8168 O   0  0  0  0  0  0  0  0  0  0  0  0
  -12.9663   -4.7538   12.0036 N   0  0  0  0  0  0  0  0  0  0  0  0
   -5.1480   -6.4721    7.7232 S   0  0  0  0  0  0  0  0  0  0  0  0
   -3.8588   -7.2608    7.7016 O   0  0  0  0  0  0  0  0  0  0  0  0
   -5.1847   -5.4460    6.6466 O   0  0  0  0  0  0  0  0  0  0  0  0
   -5.3302   -5.8181    9.2864 N   0  0  0  0  0  0  0  0  0  0  0  0
   -5.3633   -6.6366    9.9625 H   0  0  0  0  0  0  0  0  0  0  0  0
   -4.2477   -4.9266    9.6503 C   0  0  0  0  0  0  0  0  0  0  0  0
   -4.3315   -4.4704   11.0706 C   0  0  0  0  0  0  0  0  0  0  0  0
   -3.1312   -4.8244   11.8833 C   0  0  0  0  0  0  0  0  0  0  0  0
   -2.0659   -5.5695   11.1463 C   0  0  0  0  0  0  0  0  0  0  0  0
   -2.5347   -3.5604   12.4530 C   0  0  0  0  0  0  0  0  0  0  0  0
   -3.5292   -5.6084   12.9680 O   0  0  0  0  0  0  0  0  0  0  0  0
   -3.0169   -5.4048   13.7761 H   0  0  0  0  0  0  0  0  0  0  0  0
 17 18  1  0  0  0
 18 19  1  0  0  0
 19 20  2  0  0  0
 20  8  1  0  0  0
  8  9  2  0  0  0
  9 10  1  0  0  0
 10  1  1  0  0  0
  1  2  2  0  0  0
  2  3  1  0  0  0
  3 23  1  0  0  0
 23 24  2  0  0  0
 23 25  2  0  0  0
 23 26  1  0  0  0
 26 28  1  0  0  0
 28 29  1  0  0  0
 29 30  1  0  0  0
 30 31  1  0  0  0
 30 32  1  0  0  0
 30 33  1  0  0  0
  3  4  2  0  0  0
  4  5  1  0  0  0
  5  6  2  0  0  0
  6  7  1  0  0  0
 10 11  2  0  0  0
 11 12  1  0  0  0
 12 13  2  0  0  0
 13 14  1  0  0  0
 20 21  1  0  0  0
 21 22  1  0  0  0
 22 18  2  0  0  0
 13  8  1  0  0  0
  6  1  1  0  0  0
 26 27  1  0  0  0
 33 34  1  0  0  0
 14 15  1  0  0  0
 14 16  1  0  0  0
M  END
> <minimizedAffinity>
-3.67143

> <CNNscore>
0.2924986780

> <CNNaffinity>
6.2196459770

> <CNN_VS>
1.8192381859

> <CNNaffinity_variance>
0.2236599177

$$$$
[H]OC(C([H])([H])[H])(C([H])([H])[H])C([H])([H])C([H])([H])N([H])S(=O)(=O)c1c([H])c([H])c(C([H])([H])[H])c(-c2c([H])nc(N([H])[H])c(-c3onc(C([H])([H])[H])c3[H])c2[H])c1[H]


 34 36  0  0  0  0  0  0  0  0999 V2000
   -8.2695   -6.4713    7.2150 C   0  0  0  0  0  0  0  0  0  0  0  0
   -7.0809   -6.5501    7.9504 C   0  0  0  0  0  0  0  0  0  0  0  0
   -5.8494   -6.3508    7.3628 C   0  0  0  0  0  0  0  0  0  0  0  0
   -5.7586   -6.0664    6.0244 C   0  0  0  0  0  0  0  0  0  0  0  0
   -6.9136   -5.9829    5.2781 C   0  0  0  0  0  0  0  0  0  0  0  0
   -8.1687   -6.1868    5.8824 C   0  0  0  0  0  0  0  0  0  0  0  0
   -9.4014   -6.0721    5.0579 C   0  0  0  0  0  0  0  0  0  0  0  0
  -11.9127   -7.0781    7.7016 C   0  0  0  0  0  0  0  0  0  0  0  0
  -10.6790   -6.8747    7.0664 C   0  0  0  0  0  0  0  0  0  0  0  0
   -9.5601   -6.7032    7.8536 C   0  0  0  0  0  0  0  0  0  0  0  0
   -9.7093   -6.7398    9.2264 C   0  0  0  0  0  0  0  0  0  0  0  0
  -10.8932   -6.9350    9.8171 N   0  0  0  0  0  0  0  0  0  0  0  0
  -12.0092   -7.1064    9.0525 C   0  0  0  0  0  0  0  0  0  0  0  0
  -13.2379   -7.3095    9.7181 N   0  0  0  0  0  0  0  0  0  0  0  0
  -13.8726   -6.5299   10.0076 H   0  0  0  0  0  0  0  0  0  0  0  0
  -13.5542   -8.2678    9.9451 H   0  0  0  0  0  0  0  0  0  0  0  0
  -15.8986   -8.8521    5.1098 C   0  0  0  0  0  0  0  0  0  0  0  0
  -14.8067   -7.9909    5.6565 C   0  0  0  0  0  0  0  0  0  0  0  0
  -13.8474   -8.3502    6.6226 C   0  0  0  0  0  0  0  0  0  0  0  0
  -13.0642   -7.2539    6.8062 C   0  0  0  0  0  0  0  0  0  0  0  0
  -13.5168   -6.2966    6.0075 O   0  0  0  0  0  0  0  0  0  0  0  0
  -14.5202   -6.7236    5.3465 N   0  0  0  0  0  0  0  0  0  0  0  0
   -4.3879   -6.4639    8.3451 S   0  0  0  0  0  0  0  0  0  0  0  0
   -4.8369   -6.7053    9.7681 O   0  0  0  0  0  0  0  0  0  0  0  0
   -3.5404   -7.5765    7.8381 O   0  0  0  0  0  0  0  0  0  0  0  0
   -3.6124   -4.9471    8.2958 N   0  0  0  0  0  0  0  0  0  0  0  0
   -3.2911   -4.7313    9.2850 H   0  0  0  0  0  0  0  0  0  0  0  0
   -2.4761   -4.9279    7.3973 C   0  0  0  0  0  0  0  0  0  0  0  0
   -2.8519   -4.5434    6.0033 C   0  0  0  0  0  0  0  0  0  0  0  0
   -2.9034   -3.0683    5.7842 C   0  0  0  0  0  0  0  0  0  0  0  0
   -1.7557   -2.3031    6.3592 C   0  0  0  0  0  0  0  0  0  0  0  0
   -2.9754   -2.7952    4.3015 C   0  0  0  0  0  0  0  0  0  0  0  0
   -4.0781   -2.5639    6.3457 O   0  0  0  0  0  0  0  0  0  0  0  0
   -4.4634   -1.8442    5.8068 H   0  0  0  0  0  0  0  0  0  0  0  0
 17 18  1  0  0  0
 18 19  1  0  0  0
 19 20  2  0  0  0
 20  8  1  0  0  0
  8  9  2  0  0  0
  9 10  1  0  0  0
 10  1  1  0  0  0
  1  2  2  0  0  0
  2  3  1  0  0  0
  3 23  1  0  0  0
 23 24  2  0  0  0
 23 25  2  0  0  0
 23 26  1  0  0  0
 26 28  1  0  0  0
 28 29  1  0  0  0
 29 30  1  0  0  0
 30 31  1  0  0  0
 30 32  1  0  0  0
 30 33  1  0  0  0
  3  4  2  0  0  0
  4  5  1  0  0  0
  5  6  2  0  0  0
  6  7  1  0  0  0
 10 11  2  0  0  0
 11 12  1  0  0  0
 12 13  2  0  0  0
 13 14  1  0  0  0
 20 21  1  0  0  0
 21 22  1  0  0  0
 22 18  2  0  0  0
 13  8  1  0  0  0
  6  1  1  0  0  0
 26 27  1  0  0  0
 33 34  1  0  0  0
 14 15  1  0  0  0
 14 16  1  0  0  0
M  END
> <minimizedAffinity>
-0.39102

> <CNNscore>
0.2677730918

> <CNNaffinity>
6.0937280655

> <CNN_VS>
1.6317363977

> <CNNaffinity_variance>
0.5652817488

$$$$
[H]OC(C([H])([H])[H])(C([H])([H])[H])C([H])([H])C([H])([H])N([H])S(=O)(=O)c1c([H])c([H])c(C([H])([H])[H])c(-c2c([H])nc(N([H])[H])c(-c3onc(C([H])([H])[H])c3[H])c2[H])c1[H]


 34 36  0  0  0  0  0  0  0  0999 V2000
  -14.3010   -7.9787    8.0983 C   0  0  0  0  0  0  0  0  0  0  0  0
  -13.7318   -6.8958    8.7791 C   0  0  0  0  0  0  0  0  0  0  0  0
  -12.6888   -7.0630    9.6654 C   0  0  0  0  0  0  0  0  0  0  0  0
  -12.1767   -8.3125    9.9045 C   0  0  0  0  0  0  0  0  0  0  0  0
  -12.7189   -9.3950    9.2471 C   0  0  0  0  0  0  0  0  0  0  0  0
  -13.7836   -9.2194    8.3427 C   0  0  0  0  0  0  0  0  0  0  0  0
  -14.3380  -10.4024    7.6317 C   0  0  0  0  0  0  0  0  0  0  0  0
  -16.4709   -6.5378    5.4351 C   0  0  0  0  0  0  0  0  0  0  0  0
  -15.3805   -6.7203    6.2979 C   0  0  0  0  0  0  0  0  0  0  0  0
  -15.4155   -7.7807    7.1786 C   0  0  0  0  0  0  0  0  0  0  0  0
  -16.5208   -8.6090    7.1678 C   0  0  0  0  0  0  0  0  0  0  0  0
  -17.5530   -8.4216    6.3383 N   0  0  0  0  0  0  0  0  0  0  0  0
  -17.5335   -7.3776    5.4612 C   0  0  0  0  0  0  0  0  0  0  0  0
  -18.6442   -7.2177    4.6041 N   0  0  0  0  0  0  0  0  0  0  0  0
  -19.4890   -6.6535    4.8540 H   0  0  0  0  0  0  0  0  0  0  0  0
  -18.6527   -7.6698    3.6738 H   0  0  0  0  0  0  0  0  0  0  0  0
  -15.0711   -2.3407    2.9499 C   0  0  0  0  0  0  0  0  0  0  0  0
  -15.7938   -3.5635    3.4137 C   0  0  0  0  0  0  0  0  0  0  0  0
  -15.4198   -4.4207    4.4664 C   0  0  0  0  0  0  0  0  0  0  0  0
  -16.3709   -5.3908    4.5225 C   0  0  0  0  0  0  0  0  0  0  0  0
  -17.2596   -5.1398    3.5703 O   0  0  0  0  0  0  0  0  0  0  0  0
  -16.9249   -4.0871    2.9333 N   0  0  0  0  0  0  0  0  0  0  0  0
  -12.0152   -5.6570   10.4919 S   0  0  0  0  0  0  0  0  0  0  0  0
  -13.0892   -4.5935   10.4882 O   0  0  0  0  0  0  0  0  0  0  0  0
  -11.6243   -6.0411   11.8749 O   0  0  0  0  0  0  0  0  0  0  0  0
  -10.7120   -5.0818    9.5563 N   0  0  0  0  0  0  0  0  0  0  0  0
  -10.4237   -4.1465    9.9690 H   0  0  0  0  0  0  0  0  0  0  0  0
   -9.5801   -5.9862    9.5566 C   0  0  0  0  0  0  0  0  0  0  0  0
   -9.6369   -6.9784    8.4409 C   0  0  0  0  0  0  0  0  0  0  0  0
   -8.3105   -7.2465    7.8123 C   0  0  0  0  0  0  0  0  0  0  0  0
   -7.3369   -7.9788    8.6780 C   0  0  0  0  0  0  0  0  0  0  0  0
   -8.5202   -8.0349    6.5424 C   0  0  0  0  0  0  0  0  0  0  0  0
   -7.7263   -6.0332    7.4431 O   0  0  0  0  0  0  0  0  0  0  0  0
   -7.2359   -6.1031    6.5997 H   0  0  0  0  0  0  0  0  0  0  0  0
 17 18  1  0  0  0
 18 19  1  0  0  0
 19 20  2  0  0  0
 20  8  1  0  0  0
  8  9  2  0  0  0
  9 10  1  0  0  0
 10  1  1  0  0  0
  1  2  2  0  0  0
  2  3  1  0  0  0
  3 23  1  0  0  0
 23 24  2  0  0  0
 23 25  2  0  0  0
 23 26  1  0  0  0
 26 28  1  0  0  0
 28 29  1  0  0  0
 29 30  1  0  0  0
 30 31  1  0  0  0
 30 32  1  0  0  0
 30 33  1  0  0  0
  3  4  2  0  0  0
  4  5  1  0  0  0
  5  6  2  0  0  0
  6  7  1  0  0  0
 10 11  2  0  0  0
 11 12  1  0  0  0
 12 13  2  0  0  0
 13 14  1  0  0  0
 20 21  1  0  0  0
 21 22  1  0  0  0
 22 18  2  0  0  0
 13  8  1  0  0  0
  6  1  1  0  0  0
 26 27  1  0  0  0
 33 34  1  0  0  0
 14 15  1  0  0  0
 14 16  1  0  0  0
M  END
> <minimizedAffinity>
-0.82965

> <CNNscore>
0.2459798604

> <CNNaffinity>
6.6242814064

> <CNN_VS>
1.6294398308

> <CNNaffinity_variance>
0.2803937197

$$$$
[H]OC(C([H])([H])[H])(C([H])([H])[H])C([H])([H])C([H])([H])N([H])S(=O)(=O)c1c([H])c([H])c(C([H])([H])[H])c(-c2c([H])nc(N([H])[H])c(-c3onc(C([H])([H])[H])c3[H])c2[H])c1[H]


 34 36  0  0  0  0  0  0  0  0999 V2000
  -11.9524   -7.4845    7.7028 C   0  0  0  0  0  0  0  0  0  0  0  0
  -10.6061   -7.7092    7.3915 C   0  0  0  0  0  0  0  0  0  0  0  0
   -9.5887   -7.2782    8.2165 C   0  0  0  0  0  0  0  0  0  0  0  0
   -9.8759   -6.6093    9.3786 C   0  0  0  0  0  0  0  0  0  0  0  0
  -11.1930   -6.3756    9.7083 C   0  0  0  0  0  0  0  0  0  0  0  0
  -12.2285   -6.8178    8.8631 C   0  0  0  0  0  0  0  0  0  0  0  0
  -13.6425   -6.5694    9.2520 C   0  0  0  0  0  0  0  0  0  0  0  0
  -14.9246   -7.4670    5.4570 C   0  0  0  0  0  0  0  0  0  0  0  0
  -13.9028   -7.0105    6.3022 C   0  0  0  0  0  0  0  0  0  0  0  0
  -13.0117   -7.9339    6.8065 C   0  0  0  0  0  0  0  0  0  0  0  0
  -13.1692   -9.2605    6.4553 C   0  0  0  0  0  0  0  0  0  0  0  0
  -14.1491   -9.6800    5.6476 N   0  0  0  0  0  0  0  0  0  0  0  0
  -15.0384   -8.7792    5.1405 C   0  0  0  0  0  0  0  0  0  0  0  0
  -16.0568   -9.2663    4.2922 N   0  0  0  0  0  0  0  0  0  0  0  0
  -16.9868   -9.5971    4.6386 H   0  0  0  0  0  0  0  0  0  0  0  0
  -15.9052   -9.3106    3.2699 H   0  0  0  0  0  0  0  0  0  0  0  0
  -18.9310   -4.5290    4.4235 C   0  0  0  0  0  0  0  0  0  0  0  0
  -17.5630   -5.1275    4.4791 C   0  0  0  0  0  0  0  0  0  0  0  0
  -17.1655   -6.2669    5.2048 C   0  0  0  0  0  0  0  0  0  0  0  0
  -15.8394   -6.4332    4.9542 C   0  0  0  0  0  0  0  0  0  0  0  0
  -15.4591   -5.4625    4.1341 O   0  0  0  0  0  0  0  0  0  0  0  0
  -16.4536   -4.7121    3.8621 N   0  0  0  0  0  0  0  0  0  0  0  0
   -7.9116   -7.5929    7.7673 S   0  0  0  0  0  0  0  0  0  0  0  0
   -7.0975   -7.5116    9.0382 O   0  0  0  0  0  0  0  0  0  0  0  0
   -7.8161   -8.9368    7.1363 O   0  0  0  0  0  0  0  0  0  0  0  0
   -7.4038   -6.3282    6.7439 N   0  0  0  0  0  0  0  0  0  0  0  0
   -6.9426   -5.5969    7.3609 H   0  0  0  0  0  0  0  0  0  0  0  0
   -6.4703   -6.7703    5.7280 C   0  0  0  0  0  0  0  0  0  0  0  0
   -5.1744   -6.0283    5.7761 C   0  0  0  0  0  0  0  0  0  0  0  0
   -4.2448   -6.5181    6.8355 C   0  0  0  0  0  0  0  0  0  0  0  0
   -4.1141   -8.0042    6.9244 C   0  0  0  0  0  0  0  0  0  0  0  0
   -2.8775   -5.9232    6.6013 C   0  0  0  0  0  0  0  0  0  0  0  0
   -4.6812   -6.0520    8.0772 O   0  0  0  0  0  0  0  0  0  0  0  0
   -3.9351   -5.8157    8.6640 H   0  0  0  0  0  0  0  0  0  0  0  0
 17 18  1  0  0  0
 18 19  1  0  0  0
 19 20  2  0  0  0
 20  8  1  0  0  0
  8  9  2  0  0  0
  9 10  1  0  0  0
 10  1  1  0  0  0
  1  2  2  0  0  0
  2  3  1  0  0  0
  3 23  1  0  0  0
 23 24  2  0  0  0
 23 25  2  0  0  0
 23 26  1  0  0  0
 26 28  1  0  0  0
 28 29  1  0  0  0
 29 30  1  0  0  0
 30 31  1  0  0  0
 30 32  1  0  0  0
 30 33  1  0  0  0
  3  4  2  0  0  0
  4  5  1  0  0  0
  5  6  2  0  0  0
  6  7  1  0  0  0
 10 11  2  0  0  0
 11 12  1  0  0  0
 12 13  2  0  0  0
 13 14  1  0  0  0
 20 21  1  0  0  0
 21 22  1  0  0  0
 22 18  2  0  0  0
 13  8  1  0  0  0
  6  1  1  0  0  0
 26 27  1  0  0  0
 33 34  1  0  0  0
 14 15  1  0  0  0
 14 16  1  0  0  0
M  END
> <minimizedAffinity>
-8.63413

> <CNNscore>
0.2295107692

> <CNNaffinity>
6.6316642761

> <CNN_VS>
1.5220383406

> <CNNaffinity_variance>
0.1777370423

$$$$
[H]OC(C([H])([H])[H])(C([H])([H])[H])C([H])([H])C([H])([H])N([H])S(=O)(=O)c1c([H])c([H])c(C([H])([H])[H])c(-c2c([H])nc(N([H])[H])c(-c3onc(C([H])([H])[H])c3[H])c2[H])c1[H]


 34 36  0  0  0  0  0  0  0  0999 V2000
  -13.2065   -7.8761    7.0069 C   0  0  0  0  0  0  0  0  0  0  0  0
  -12.1730   -8.7009    6.5469 C   0  0  0  0  0  0  0  0  0  0  0  0
  -11.2404   -9.2432    7.4058 C   0  0  0  0  0  0  0  0  0  0  0  0
  -11.3042   -8.9837    8.7508 C   0  0  0  0  0  0  0  0  0  0  0  0
  -12.3119   -8.1752    9.2293 C   0  0  0  0  0  0  0  0  0  0  0  0
  -13.2621   -7.6240    8.3487 C   0  0  0  0  0  0  0  0  0  0  0  0
  -14.3511   -6.7700    8.8937 C   0  0  0  0  0  0  0  0  0  0  0  0
  -16.3541   -7.2603    5.1119 C   0  0  0  0  0  0  0  0  0  0  0  0
  -15.4478   -7.8182    6.0252 C   0  0  0  0  0  0  0  0  0  0  0  0
  -14.1715   -7.2990    6.0781 C   0  0  0  0  0  0  0  0  0  0  0  0
  -13.8492   -6.2573    5.2301 C   0  0  0  0  0  0  0  0  0  0  0  0
  -14.7253   -5.7360    4.3645 N   0  0  0  0  0  0  0  0  0  0  0  0
  -15.9915   -6.2382    4.3002 C   0  0  0  0  0  0  0  0  0  0  0  0
  -16.8832   -5.6576    3.3720 N   0  0  0  0  0  0  0  0  0  0  0  0
  -16.9817   -5.9864    2.3838 H   0  0  0  0  0  0  0  0  0  0  0  0
  -17.4837   -4.8640    3.6541 H   0  0  0  0  0  0  0  0  0  0  0  0
  -20.4704  -10.1078    5.9481 C   0  0  0  0  0  0  0  0  0  0  0  0
  -19.5130   -9.0776    5.4434 C   0  0  0  0  0  0  0  0  0  0  0  0
  -18.1657   -8.9164    5.8198 C   0  0  0  0  0  0  0  0  0  0  0  0
  -17.6959   -7.8585    5.1062 C   0  0  0  0  0  0  0  0  0  0  0  0
  -18.6889   -7.4094    4.3500 O   0  0  0  0  0  0  0  0  0  0  0  0
  -19.7340   -8.1131    4.5461 N   0  0  0  0  0  0  0  0  0  0  0  0
   -9.9617  -10.2753    6.7629 S   0  0  0  0  0  0  0  0  0  0  0  0
  -10.3359  -11.6986    7.1076 O   0  0  0  0  0  0  0  0  0  0  0  0
   -9.8598  -10.0727    5.2926 O   0  0  0  0  0  0  0  0  0  0  0  0
   -8.5244   -9.8997    7.5980 N   0  0  0  0  0  0  0  0  0  0  0  0
   -7.7846  -10.5852    7.2650 H   0  0  0  0  0  0  0  0  0  0  0  0
   -8.0765   -8.5426    7.3598 C   0  0  0  0  0  0  0  0  0  0  0  0
   -6.6072   -8.3763    7.5741 C   0  0  0  0  0  0  0  0  0  0  0  0
   -6.1152   -6.9961    7.2923 C   0  0  0  0  0  0  0  0  0  0  0  0
   -5.5542   -6.7920    5.9223 C   0  0  0  0  0  0  0  0  0  0  0  0
   -7.2463   -6.0195    7.5047 C   0  0  0  0  0  0  0  0  0  0  0  0
   -5.1199   -6.6687    8.2153 O   0  0  0  0  0  0  0  0  0  0  0  0
   -5.1630   -5.7294    8.4846 H   0  0  0  0  0  0  0  0  0  0  0  0
 17 18  1  0  0  0
 18 19  1  0  0  0
 19 20  2  0  0  0
 20  8  1  0  0  0
  8  9  2  0  0  0
  9 10  1  0  0  0
 10  1  1  0  0  0
  1  2  2  0  0  0
  2  3  1  0  0  0
  3 23  1  0  0  0
 23 24  2  0  0  0
 23 25  2  0  0  0
 23 26  1  0  0  0
 26 28  1  0  0  0
 28 29  1  0  0  0
 29 30  1  0  0  0
 30 31  1  0  0  0
 30 32  1  0  0  0
 30 33  1  0  0  0
  3  4  2  0  0  0
  4  5  1  0  0  0
  5  6  2  0  0  0
  6  7  1  0  0  0
 10 11  2  0  0  0
 11 12  1  0  0  0
 12 13  2  0  0  0
 13 14  1  0  0  0
 20 21  1  0  0  0
 21 22  1  0  0  0
 22 18  2  0  0  0
 13  8  1  0  0  0
  6  1  1  0  0  0
 26 27  1  0  0  0
 33 34  1  0  0  0
 14 15  1  0  0  0
 14 16  1  0  0  0
M  END
> <minimizedAffinity>
-1.49454

> <CNNscore>
0.2160960436

> <CNNaffinity>
6.6487874985

> <CNN_VS>
1.4367766380

> <CNNaffinity_variance>
0.4837234914

$$$$
[H]OC(C([H])([H])[H])(C([H])([H])[H])C([H])([H])C([H])([H])N([H])S(=O)(=O)c1c([H])c([H])c(C([H])([H])[H])c(-c2c([H])nc(N([H])[H])c(-c3onc(C([H])([H])[H])c3[H])c2[H])c1[H]


 34 36  0  0  0  0  0  0  0  0999 V2000
   -6.6236   -7.0134    6.7747 C   0  0  0  0  0  0  0  0  0  0  0  0
   -7.6968   -7.7687    7.2621 C   0  0  0  0  0  0  0  0  0  0  0  0
   -8.9920   -7.5412    6.8475 C   0  0  0  0  0  0  0  0  0  0  0  0
   -9.2636   -6.5549    5.9342 C   0  0  0  0  0  0  0  0  0  0  0  0
   -8.2251   -5.7973    5.4386 C   0  0  0  0  0  0  0  0  0  0  0  0
   -6.9042   -6.0335    5.8647 C   0  0  0  0  0  0  0  0  0  0  0  0
   -5.7990   -5.2140    5.2996 C   0  0  0  0  0  0  0  0  0  0  0  0
   -3.1895   -8.4281    7.0635 C   0  0  0  0  0  0  0  0  0  0  0  0
   -4.4876   -8.1936    6.5874 C   0  0  0  0  0  0  0  0  0  0  0  0
   -5.2637   -7.2598    7.2407 C   0  0  0  0  0  0  0  0  0  0  0  0
   -4.7254   -6.6029    8.3302 C   0  0  0  0  0  0  0  0  0  0  0  0
   -3.4852   -6.8378    8.7720 N   0  0  0  0  0  0  0  0  0  0  0  0
   -2.7049   -7.7581    8.1365 C   0  0  0  0  0  0  0  0  0  0  0  0
   -1.4023   -7.9740    8.6369 N   0  0  0  0  0  0  0  0  0  0  0  0
   -1.1782   -8.6788    9.3768 H   0  0  0  0  0  0  0  0  0  0  0  0
   -0.6070   -7.4218    8.2726 H   0  0  0  0  0  0  0  0  0  0  0  0
   -1.0816  -11.3663    3.5033 C   0  0  0  0  0  0  0  0  0  0  0  0
   -1.4754  -10.7364    4.7998 C   0  0  0  0  0  0  0  0  0  0  0  0
   -2.3674   -9.6625    4.9835 C   0  0  0  0  0  0  0  0  0  0  0  0
   -2.4158   -9.4339    6.3231 C   0  0  0  0  0  0  0  0  0  0  0  0
   -1.6094  -10.3079    6.9107 O   0  0  0  0  0  0  0  0  0  0  0  0
   -1.0692  -11.0567    6.0312 N   0  0  0  0  0  0  0  0  0  0  0  0
  -10.3009   -8.5284    7.5001 S   0  0  0  0  0  0  0  0  0  0  0  0
  -11.5746   -8.0568    6.8369 O   0  0  0  0  0  0  0  0  0  0  0  0
  -10.0264   -9.9615    7.2104 O   0  0  0  0  0  0  0  0  0  0  0  0
  -10.4257   -8.1874    9.1652 N   0  0  0  0  0  0  0  0  0  0  0  0
   -9.7070   -7.4359    9.3821 H   0  0  0  0  0  0  0  0  0  0  0  0
  -11.7455   -7.7262    9.5451 C   0  0  0  0  0  0  0  0  0  0  0  0
  -11.9709   -6.2880    9.2085 C   0  0  0  0  0  0  0  0  0  0  0  0
  -12.2331   -5.4298   10.4006 C   0  0  0  0  0  0  0  0  0  0  0  0
  -13.6719   -5.3018   10.7836 C   0  0  0  0  0  0  0  0  0  0  0  0
  -11.4638   -5.9777   11.5780 C   0  0  0  0  0  0  0  0  0  0  0  0
  -11.7394   -4.1466   10.1571 O   0  0  0  0  0  0  0  0  0  0  0  0
  -11.3502   -3.7442   10.9591 H   0  0  0  0  0  0  0  0  0  0  0  0
 17 18  1  0  0  0
 18 19  1  0  0  0
 19 20  2  0  0  0
 20  8  1  0  0  0
  8  9  2  0  0  0
  9 10  1  0  0  0
 10  1  1  0  0  0
  1  2  2  0  0  0
  2  3  1  0  0  0
  3 23  1  0  0  0
 23 24  2  0  0  0
 23 25  2  0  0  0
 23 26  1  0  0  0
 26 28  1  0  0  0
 28 29  1  0  0  0
 29 30  1  0  0  0
 30 31  1  0  0  0
 30 32  1  0  0  0
 30 33  1  0  0  0
  3  4  2  0  0  0
  4  5  1  0  0  0
  5  6  2  0  0  0
  6  7  1  0  0  0
 10 11  2  0  0  0
 11 12  1  0  0  0
 12 13  2  0  0  0
 13 14  1  0  0  0
 20 21  1  0  0  0
 21 22  1  0  0  0
 22 18  2  0  0  0
 13  8  1  0  0  0
  6  1  1  0  0  0
 26 27  1  0  0  0
 33 34  1  0  0  0
 14 15  1  0  0  0
 14 16  1  0  0  0
M  END
> <minimizedAffinity>
-0.03785

> <CNNscore>
0.1953694969

> <CNNaffinity>
5.9601898193

> <CNN_VS>
1.1644393206

> <CNNaffinity_variance>
0.7704693079

$$$$
[H]/C(=C(/[H])c1c([H])c(OC([H])([H])[H])c([H])c(OC([H])([H])[H])c1[H])c1c([H])c([H])c(OC([H])([H])C([H])([H])[H])c([H])c1[H]


 21 22  0  0  0  0  0  0  0  0999 V2000
   -9.0437   -7.2565    7.7054 C   0  0  0  0  0  0  0  0  0  0  0  0
   -9.9893   -8.1643    7.6437 C   0  0  0  0  0  0  0  0  0  0  0  0
   -4.9221   -7.9592    6.8524 C   0  0  0  0  0  0  0  0  0  0  0  0
   -5.3110   -7.1384    7.8852 C   0  0  0  0  0  0  0  0  0  0  0  0
   -6.6566   -6.9237    8.1451 C   0  0  0  0  0  0  0  0  0  0  0  0
   -7.6402   -7.5164    7.3889 C   0  0  0  0  0  0  0  0  0  0  0  0
   -7.2527   -8.3360    6.3576 C   0  0  0  0  0  0  0  0  0  0  0  0
   -5.9004   -8.5556    6.0915 C   0  0  0  0  0  0  0  0  0  0  0  0
   -3.5869   -8.2049    6.5533 O   0  0  0  0  0  0  0  0  0  0  0  0
   -1.7730   -9.4357    7.5314 C   0  0  0  0  0  0  0  0  0  0  0  0
   -2.6461   -8.1987    7.6008 C   0  0  0  0  0  0  0  0  0  0  0  0
  -11.3770   -7.8690    7.9664 C   0  0  0  0  0  0  0  0  0  0  0  0
  -12.3674   -8.4135    7.1434 C   0  0  0  0  0  0  0  0  0  0  0  0
  -13.7101   -8.2019    7.3522 C   0  0  0  0  0  0  0  0  0  0  0  0
  -14.1064   -7.4205    8.4165 C   0  0  0  0  0  0  0  0  0  0  0  0
  -13.1361   -6.8842    9.2267 C   0  0  0  0  0  0  0  0  0  0  0  0
  -11.7822   -7.0981    9.0154 C   0  0  0  0  0  0  0  0  0  0  0  0
  -14.6010   -8.7907    6.4738 O   0  0  0  0  0  0  0  0  0  0  0  0
  -14.6398   -8.5496    5.0937 C   0  0  0  0  0  0  0  0  0  0  0  0
  -13.5583   -6.0997   10.2937 O   0  0  0  0  0  0  0  0  0  0  0  0
  -12.9140   -4.9327   10.7166 C   0  0  0  0  0  0  0  0  0  0  0  0
 10 11  1  0  0  0
 11  9  1  0  0  0
  9  3  1  0  0  0
  3  4  2  0  0  0
  4  5  1  0  0  0
  5  6  2  0  0  0
  6  1  1  0  0  0
  1  2  2  0  0  0
  2 12  1  0  0  0
 12 13  2  0  0  0
 13 14  1  0  0  0
 14 18  1  0  0  0
 18 19  1  0  0  0
 14 15  2  0  0  0
 15 16  1  0  0  0
 16 20  1  0  0  0
 20 21  1  0  0  0
 16 17  2  0  0  0
  6  7  1  0  0  0
  7  8  2  0  0  0
  8  3  1  0  0  0
 17 12  1  0  0  0
M  END
> <minimizedAffinity>
-6.90973

> <CNNscore>
0.5187850595

> <CNNaffinity>
5.7760987282

> <CNN_VS>
2.9965536594

> <CNNaffinity_variance>
0.1227199212

$$$$
[H]/C(=C(/[H])c1c([H])c(OC([H])([H])[H])c([H])c(OC([H])([H])[H])c1[H])c1c([H])c([H])c(OC([H])([H])C([H])([H])[H])c([H])c1[H]


 21 22  0  0  0  0  0  0  0  0999 V2000
   -8.2555   -7.3464    7.2492 C   0  0  0  0  0  0  0  0  0  0  0  0
   -9.0260   -8.0676    8.0291 C   0  0  0  0  0  0  0  0  0  0  0  0
   -3.9908   -7.4276    7.3728 C   0  0  0  0  0  0  0  0  0  0  0  0
   -4.7133   -6.5332    8.1275 C   0  0  0  0  0  0  0  0  0  0  0  0
   -6.0994   -6.5240    8.0722 C   0  0  0  0  0  0  0  0  0  0  0  0
   -6.7945   -7.3982    7.2704 C   0  0  0  0  0  0  0  0  0  0  0  0
   -6.0739   -8.2916    6.5165 C   0  0  0  0  0  0  0  0  0  0  0  0
   -4.6792   -8.3053    6.5682 C   0  0  0  0  0  0  0  0  0  0  0  0
   -2.6016   -7.4752    7.3945 O   0  0  0  0  0  0  0  0  0  0  0  0
   -1.4086   -9.4445    8.0730 C   0  0  0  0  0  0  0  0  0  0  0  0
   -1.9562   -8.6317    6.9167 C   0  0  0  0  0  0  0  0  0  0  0  0
  -10.4780   -7.9895    7.9800 C   0  0  0  0  0  0  0  0  0  0  0  0
  -11.1057   -7.0234    8.7720 C   0  0  0  0  0  0  0  0  0  0  0  0
  -12.4706   -6.8585    8.8057 C   0  0  0  0  0  0  0  0  0  0  0  0
  -13.2625   -7.6763    8.0282 C   0  0  0  0  0  0  0  0  0  0  0  0
  -12.6490   -8.6262    7.2491 C   0  0  0  0  0  0  0  0  0  0  0  0
  -11.2725   -8.7919    7.2158 C   0  0  0  0  0  0  0  0  0  0  0  0
  -12.9817   -5.8702    9.6267 O   0  0  0  0  0  0  0  0  0  0  0  0
  -12.4271   -5.4858   10.8551 C   0  0  0  0  0  0  0  0  0  0  0  0
  -13.4667   -9.4397    6.4733 O   0  0  0  0  0  0  0  0  0  0  0  0
  -14.1300   -9.0161    5.3173 C   0  0  0  0  0  0  0  0  0  0  0  0
 10 11  1  0  0  0
 11  9  1  0  0  0
  9  3  1  0  0  0
  3  4  2  0  0  0
  4  5  1  0  0  0
  5  6  2  0  0  0
  6  1  1  0  0  0
  1  2  2  0  0  0
  2 12  1  0  0  0
 12 13  2  0  0  0
 13 14  1  0  0  0
 14 18  1  0  0  0
 18 19  1  0  0  0
 14 15  2  0  0  0
 15 16  1  0  0  0
 16 20  1  0  0  0
 20 21  1  0  0  0
 16 17  2  0  0  0
  6  7  1  0  0  0
  7  8  2  0  0  0
  8  3  1  0  0  0
 17 12  1  0  0  0
M  END
> <minimizedAffinity>
-6.43936

> <CNNscore>
0.5097562075

> <CNNaffinity>
5.5839185715

> <CNN_VS>
2.8464372158

> <CNNaffinity_variance>
0.0940267071

$$$$
[H]/C(=C(/[H])c1c([H])c(OC([H])([H])[H])c([H])c(OC([H])([H])[H])c1[H])c1c([H])c([H])c(OC([H])([H])C([H])([H])[H])c([H])c1[H]


 21 22  0  0  0  0  0  0  0  0999 V2000
   -8.1341   -7.3472    7.5317 C   0  0  0  0  0  0  0  0  0  0  0  0
   -7.2766   -7.9604    6.7503 C   0  0  0  0  0  0  0  0  0  0  0  0
  -12.0886   -8.7032    8.3875 C   0  0  0  0  0  0  0  0  0  0  0  0
  -11.6398   -7.4789    8.8247 C   0  0  0  0  0  0  0  0  0  0  0  0
  -10.3503   -7.0576    8.5353 C   0  0  0  0  0  0  0  0  0  0  0  0
   -9.4828   -7.8389    7.8090 C   0  0  0  0  0  0  0  0  0  0  0  0
   -9.9301   -9.0615    7.3721 C   0  0  0  0  0  0  0  0  0  0  0  0
  -11.2265   -9.4904    7.6605 C   0  0  0  0  0  0  0  0  0  0  0  0
  -13.3715   -9.1687    8.6523 O   0  0  0  0  0  0  0  0  0  0  0  0
  -15.4154   -8.0222    8.1331 C   0  0  0  0  0  0  0  0  0  0  0  0
  -14.3656   -9.0114    7.6677 C   0  0  0  0  0  0  0  0  0  0  0  0
   -5.9413   -7.4407    6.4973 C   0  0  0  0  0  0  0  0  0  0  0  0
   -4.8528   -8.2588    6.8146 C   0  0  0  0  0  0  0  0  0  0  0  0
   -3.5476   -7.8727    6.6186 C   0  0  0  0  0  0  0  0  0  0  0  0
   -3.2913   -6.6270    6.0867 C   0  0  0  0  0  0  0  0  0  0  0  0
   -4.3582   -5.8211    5.7739 C   0  0  0  0  0  0  0  0  0  0  0  0
   -5.6742   -6.2113    5.9719 C   0  0  0  0  0  0  0  0  0  0  0  0
   -2.5506   -8.7644    6.9694 O   0  0  0  0  0  0  0  0  0  0  0  0
   -1.5777   -9.2612    6.0914 C   0  0  0  0  0  0  0  0  0  0  0  0
   -4.0765   -4.5695    5.2388 O   0  0  0  0  0  0  0  0  0  0  0  0
   -3.6723   -3.4634    5.9930 C   0  0  0  0  0  0  0  0  0  0  0  0
 10 11  1  0  0  0
 11  9  1  0  0  0
  9  3  1  0  0  0
  3  4  2  0  0  0
  4  5  1  0  0  0
  5  6  2  0  0  0
  6  1  1  0  0  0
  1  2  2  0  0  0
  2 12  1  0  0  0
 12 13  2  0  0  0
 13 14  1  0  0  0
 14 18  1  0  0  0
 18 19  1  0  0  0
 14 15  2  0  0  0
 15 16  1  0  0  0
 16 20  1  0  0  0
 20 21  1  0  0  0
 16 17  2  0  0  0
  6  7  1  0  0  0
  7  8  2  0  0  0
  8  3  1  0  0  0
 17 12  1  0  0  0
M  END
> <minimizedAffinity>
-6.74227

> <CNNscore>
0.4945831895

> <CNNaffinity>
5.2853608131

> <CNN_VS>
2.6140506268

> <CNNaffinity_variance>
0.1116384119

$$$$
[H]/C(=C(/[H])c1c([H])c(OC([H])([H])[H])c([H])c(OC([H])([H])[H])c1[H])c1c([H])c([H])c(OC([H])([H])C([H])([H])[H])c([H])c1[H]


 21 22  0  0  0  0  0  0  0  0999 V2000
   -8.0315   -7.7304    7.7422 C   0  0  0  0  0  0  0  0  0  0  0  0
   -7.3841   -7.8048    6.6032 C   0  0  0  0  0  0  0  0  0  0  0  0
  -12.1487   -8.7730    8.1559 C   0  0  0  0  0  0  0  0  0  0  0  0
  -11.2651   -9.5905    7.4907 C   0  0  0  0  0  0  0  0  0  0  0  0
   -9.9307   -9.2323    7.3678 C   0  0  0  0  0  0  0  0  0  0  0  0
   -9.4471   -8.0604    7.9001 C   0  0  0  0  0  0  0  0  0  0  0  0
  -10.3286   -7.2437    8.5645 C   0  0  0  0  0  0  0  0  0  0  0  0
  -11.6723   -7.5991    8.6911 C   0  0  0  0  0  0  0  0  0  0  0  0
  -13.4943   -9.0889    8.3049 O   0  0  0  0  0  0  0  0  0  0  0  0
  -15.5639   -7.9874    7.7900 C   0  0  0  0  0  0  0  0  0  0  0  0
  -14.3832   -8.7756    7.2590 C   0  0  0  0  0  0  0  0  0  0  0  0
   -5.9737   -7.4680    6.4837 C   0  0  0  0  0  0  0  0  0  0  0  0
   -5.6448   -6.2276    5.9288 C   0  0  0  0  0  0  0  0  0  0  0  0
   -4.3467   -5.8035    5.7671 C   0  0  0  0  0  0  0  0  0  0  0  0
   -3.3183   -6.6302    6.1664 C   0  0  0  0  0  0  0  0  0  0  0  0
   -3.6381   -7.8492    6.7119 C   0  0  0  0  0  0  0  0  0  0  0  0
   -4.9475   -8.2761    6.8746 C   0  0  0  0  0  0  0  0  0  0  0  0
   -4.1396   -4.5567    5.2062 O   0  0  0  0  0  0  0  0  0  0  0  0
   -3.6413   -3.4430    5.8959 C   0  0  0  0  0  0  0  0  0  0  0  0
   -2.5856   -8.6664    7.1076 O   0  0  0  0  0  0  0  0  0  0  0  0
   -1.7379   -8.3922    8.1856 C   0  0  0  0  0  0  0  0  0  0  0  0
 10 11  1  0  0  0
 11  9  1  0  0  0
  9  3  1  0  0  0
  3  4  2  0  0  0
  4  5  1  0  0  0
  5  6  2  0  0  0
  6  1  1  0  0  0
  1  2  2  0  0  0
  2 12  1  0  0  0
 12 13  2  0  0  0
 13 14  1  0  0  0
 14 18  1  0  0  0
 18 19  1  0  0  0
 14 15  2  0  0  0
 15 16  1  0  0  0
 16 20  1  0  0  0
 20 21  1  0  0  0
 16 17  2  0  0  0
  6  7  1  0  0  0
  7  8  2  0  0  0
  8  3  1  0  0  0
 17 12  1  0  0  0
M  END
> <minimizedAffinity>
-6.71155

> <CNNscore>
0.4868954420

> <CNNaffinity>
5.3180069923

> <CNN_VS>
2.5893132687

> <CNNaffinity_variance>
0.1172836050

$$$$
[H]/C(=C(/[H])c1c([H])c(OC([H])([H])[H])c([H])c(OC([H])([H])[H])c1[H])c1c([H])c([H])c(OC([H])([H])C([H])([H])[H])c([H])c1[H]


 21 22  0  0  0  0  0  0  0  0999 V2000
   -9.3831   -7.4150    7.6303 C   0  0  0  0  0  0  0  0  0  0  0  0
  -10.2991   -8.3538    7.5903 C   0  0  0  0  0  0  0  0  0  0  0  0
   -5.2117   -8.0538    6.9976 C   0  0  0  0  0  0  0  0  0  0  0  0
   -5.6715   -7.3295    8.0725 C   0  0  0  0  0  0  0  0  0  0  0  0
   -7.0320   -7.1338    8.2593 C   0  0  0  0  0  0  0  0  0  0  0  0
   -7.9608   -7.6506    7.3871 C   0  0  0  0  0  0  0  0  0  0  0  0
   -7.5026   -8.3740    6.3136 C   0  0  0  0  0  0  0  0  0  0  0  0
   -6.1349   -8.5739    6.1208 C   0  0  0  0  0  0  0  0  0  0  0  0
   -3.8588   -8.2767    6.7683 O   0  0  0  0  0  0  0  0  0  0  0  0
   -1.8426   -8.5968    8.0309 C   0  0  0  0  0  0  0  0  0  0  0  0
   -2.9169   -7.6243    7.5866 C   0  0  0  0  0  0  0  0  0  0  0  0
  -11.7068   -8.0819    7.8379 C   0  0  0  0  0  0  0  0  0  0  0  0
  -12.0314   -7.2683    8.9277 C   0  0  0  0  0  0  0  0  0  0  0  0
  -13.3267   -6.9444    9.2569 C   0  0  0  0  0  0  0  0  0  0  0  0
  -14.3565   -7.4384    8.4850 C   0  0  0  0  0  0  0  0  0  0  0  0
  -14.0410   -8.2377    7.4139 C   0  0  0  0  0  0  0  0  0  0  0  0
  -12.7344   -8.5640    7.0826 C   0  0  0  0  0  0  0  0  0  0  0  0
  -13.5295   -6.1314   10.3569 O   0  0  0  0  0  0  0  0  0  0  0  0
  -12.7534   -5.0084   10.6745 C   0  0  0  0  0  0  0  0  0  0  0  0
  -15.0949   -8.7247    6.6495 O   0  0  0  0  0  0  0  0  0  0  0  0
  -16.0816   -7.9228    6.0669 C   0  0  0  0  0  0  0  0  0  0  0  0
 10 11  1  0  0  0
 11  9  1  0  0  0
  9  3  1  0  0  0
  3  4  2  0  0  0
  4  5  1  0  0  0
  5  6  2  0  0  0
  6  1  1  0  0  0
  1  2  2  0  0  0
  2 12  1  0  0  0
 12 13  2  0  0  0
 13 14  1  0  0  0
 14 18  1  0  0  0
 18 19  1  0  0  0
 14 15  2  0  0  0
 15 16  1  0  0  0
 16 20  1  0  0  0
 20 21  1  0  0  0
 16 17  2  0  0  0
  6  7  1  0  0  0
  7  8  2  0  0  0
  8  3  1  0  0  0
 17 12  1  0  0  0
M  END
> <minimizedAffinity>
-6.93174

> <CNNscore>
0.4810370803

> <CNNaffinity>
5.8146729469

> <CNN_VS>
2.7970733643

> <CNNaffinity_variance>
0.1721274108

$$$$
[H]/C(=C(/[H])c1c([H])c(OC([H])([H])[H])c([H])c(OC([H])([H])[H])c1[H])c1c([H])c([H])c(OC([H])([H])C([H])([H])[H])c([H])c1[H]


 21 22  0  0  0  0  0  0  0  0999 V2000
  -15.8072   -7.4855    6.2623 C   0  0  0  0  0  0  0  0  0  0  0  0
  -15.4471   -7.2391    7.4999 C   0  0  0  0  0  0  0  0  0  0  0  0
  -18.8777   -5.3178    4.2419 C   0  0  0  0  0  0  0  0  0  0  0  0
  -17.7929   -4.6780    4.7946 C   0  0  0  0  0  0  0  0  0  0  0  0
  -16.8060   -5.4021    5.4471 C   0  0  0  0  0  0  0  0  0  0  0  0
  -16.8745   -6.7703    5.5644 C   0  0  0  0  0  0  0  0  0  0  0  0
  -17.9573   -7.4099    5.0129 C   0  0  0  0  0  0  0  0  0  0  0  0
  -18.9532   -6.6863    4.3553 C   0  0  0  0  0  0  0  0  0  0  0  0
  -19.8914   -4.6357    3.5787 O   0  0  0  0  0  0  0  0  0  0  0  0
  -21.2837   -3.0932    4.7804 C   0  0  0  0  0  0  0  0  0  0  0  0
  -20.0891   -3.2713    3.8646 C   0  0  0  0  0  0  0  0  0  0  0  0
  -14.3791   -7.9719    8.1626 C   0  0  0  0  0  0  0  0  0  0  0  0
  -13.4210   -8.5966    7.3584 C   0  0  0  0  0  0  0  0  0  0  0  0
  -12.3684   -9.3156    7.8743 C   0  0  0  0  0  0  0  0  0  0  0  0
  -12.2441   -9.4312    9.2424 C   0  0  0  0  0  0  0  0  0  0  0  0
  -13.1834   -8.8188   10.0350 C   0  0  0  0  0  0  0  0  0  0  0  0
  -14.2447   -8.0938    9.5139 C   0  0  0  0  0  0  0  0  0  0  0  0
  -11.4810   -9.8909    6.9835 O   0  0  0  0  0  0  0  0  0  0  0  0
  -11.6992  -10.0127    5.6044 C   0  0  0  0  0  0  0  0  0  0  0  0
  -13.0385   -8.9483   11.4114 O   0  0  0  0  0  0  0  0  0  0  0  0
  -14.0738   -9.3020   12.2825 C   0  0  0  0  0  0  0  0  0  0  0  0
 10 11  1  0  0  0
 11  9  1  0  0  0
  9  3  1  0  0  0
  3  4  2  0  0  0
  4  5  1  0  0  0
  5  6  2  0  0  0
  6  1  1  0  0  0
  1  2  2  0  0  0
  2 12  1  0  0  0
 12 13  2  0  0  0
 13 14  1  0  0  0
 14 18  1  0  0  0
 18 19  1  0  0  0
 14 15  2  0  0  0
 15 16  1  0  0  0
 16 20  1  0  0  0
 20 21  1  0  0  0
 16 17  2  0  0  0
  6  7  1  0  0  0
  7  8  2  0  0  0
  8  3  1  0  0  0
 17 12  1  0  0  0
M  END
> <minimizedAffinity>
5.01238

> <CNNscore>
0.4714735150

> <CNNaffinity>
5.8654346466

> <CNN_VS>
2.7653970718

> <CNNaffinity_variance>
0.9618982077

$$$$
[H]/C(=C(/[H])c1c([H])c(OC([H])([H])[H])c([H])c(OC([H])([H])[H])c1[H])c1c([H])c([H])c(OC([H])([H])C([H])([H])[H])c([H])c1[H]


 21 22  0  0  0  0  0  0  0  0999 V2000
   -9.2235  -10.6764    6.4082 C   0  0  0  0  0  0  0  0  0  0  0  0
  -10.0918   -9.6959    6.3269 C   0  0  0  0  0  0  0  0  0  0  0  0
   -8.7337  -13.6209    3.3588 C   0  0  0  0  0  0  0  0  0  0  0  0
   -8.7128  -12.2768    3.0680 C   0  0  0  0  0  0  0  0  0  0  0  0
   -8.8740  -11.3363    4.0748 C   0  0  0  0  0  0  0  0  0  0  0  0
   -9.0585  -11.7082    5.3856 C   0  0  0  0  0  0  0  0  0  0  0  0
   -9.0796  -13.0500    5.6767 C   0  0  0  0  0  0  0  0  0  0  0  0
   -8.9179  -14.0006    4.6677 C   0  0  0  0  0  0  0  0  0  0  0  0
   -8.5766  -14.6003    2.3847 O   0  0  0  0  0  0  0  0  0  0  0  0
   -6.6591  -14.4508    0.9486 C   0  0  0  0  0  0  0  0  0  0  0  0
   -8.1487  -14.2150    1.0999 C   0  0  0  0  0  0  0  0  0  0  0  0
  -10.2280   -8.6859    7.3654 C   0  0  0  0  0  0  0  0  0  0  0  0
  -11.5117   -8.2074    7.6446 C   0  0  0  0  0  0  0  0  0  0  0  0
  -11.7599   -7.2540    8.6040 C   0  0  0  0  0  0  0  0  0  0  0  0
  -10.7037   -6.7418    9.3270 C   0  0  0  0  0  0  0  0  0  0  0  0
   -9.4417   -7.2097    9.0551 C   0  0  0  0  0  0  0  0  0  0  0  0
   -9.1922   -8.1713    8.0874 C   0  0  0  0  0  0  0  0  0  0  0  0
  -13.0701   -6.8553    8.7946 O   0  0  0  0  0  0  0  0  0  0  0  0
  -14.1849   -7.4640    8.2020 C   0  0  0  0  0  0  0  0  0  0  0  0
   -8.3918   -6.6795    9.7960 O   0  0  0  0  0  0  0  0  0  0  0  0
   -7.0575   -6.6720    9.3773 C   0  0  0  0  0  0  0  0  0  0  0  0
 10 11  1  0  0  0
 11  9  1  0  0  0
  9  3  1  0  0  0
  3  4  2  0  0  0
  4  5  1  0  0  0
  5  6  2  0  0  0
  6  1  1  0  0  0
  1  2  2  0  0  0
  2 12  1  0  0  0
 12 13  2  0  0  0
 13 14  1  0  0  0
 14 18  1  0  0  0
 18 19  1  0  0  0
 14 15  2  0  0  0
 15 16  1  0  0  0
 16 20  1  0  0  0
 20 21  1  0  0  0
 16 17  2  0  0  0
  6  7  1  0  0  0
  7  8  2  0  0  0
  8  3  1  0  0  0
 17 12  1  0  0  0
M  END
> <minimizedAffinity>
11.42846

> <CNNscore>
0.4685192406

> <CNNaffinity>
5.1782908440

> <CNN_VS>
2.4261288643

> <CNNaffinity_variance>
0.8229570389

$$$$
[H]/C(=C(/[H])c1c([H])c(OC([H])([H])[H])c([H])c(OC([H])([H])[H])c1[H])c1c([H])c([H])c(OC([H])([H])C([H])([H])[H])c([H])c1[H]


 21 22  0  0  0  0  0  0  0  0999 V2000
   -8.1739   -7.2647    7.6847 C   0  0  0  0  0  0  0  0  0  0  0  0
   -7.4010   -7.8135    6.7772 C   0  0  0  0  0  0  0  0  0  0  0  0
  -12.1778   -8.5582    8.3952 C   0  0  0  0  0  0  0  0  0  0  0  0
  -11.2882   -9.3336    7.6889 C   0  0  0  0  0  0  0  0  0  0  0  0
   -9.9911   -8.8938    7.4693 C   0  0  0  0  0  0  0  0  0  0  0  0
   -9.5513   -7.6807    7.9441 C   0  0  0  0  0  0  0  0  0  0  0  0
  -10.4388   -6.9059    8.6494 C   0  0  0  0  0  0  0  0  0  0  0  0
  -11.7452   -7.3433    8.8732 C   0  0  0  0  0  0  0  0  0  0  0  0
  -13.4871   -8.9557    8.6407 O   0  0  0  0  0  0  0  0  0  0  0  0
  -15.3038   -7.8104    7.5686 C   0  0  0  0  0  0  0  0  0  0  0  0
  -14.4717   -7.9664    8.8258 C   0  0  0  0  0  0  0  0  0  0  0  0
   -6.0336   -7.3728    6.5468 C   0  0  0  0  0  0  0  0  0  0  0  0
   -4.9997   -8.2465    6.8969 C   0  0  0  0  0  0  0  0  0  0  0  0
   -3.6710   -7.9368    6.7244 C   0  0  0  0  0  0  0  0  0  0  0  0
   -3.3340   -6.7143    6.1836 C   0  0  0  0  0  0  0  0  0  0  0  0
   -4.3471   -5.8540    5.8387 C   0  0  0  0  0  0  0  0  0  0  0  0
   -5.6868   -6.1671    6.0130 C   0  0  0  0  0  0  0  0  0  0  0  0
   -2.7334   -8.8783    7.1069 O   0  0  0  0  0  0  0  0  0  0  0  0
   -1.6927   -8.6460    8.0165 C   0  0  0  0  0  0  0  0  0  0  0  0
   -3.9843   -4.6271    5.2952 O   0  0  0  0  0  0  0  0  0  0  0  0
   -2.8798   -4.4314    4.4600 C   0  0  0  0  0  0  0  0  0  0  0  0
 10 11  1  0  0  0
 11  9  1  0  0  0
  9  3  1  0  0  0
  3  4  2  0  0  0
  4  5  1  0  0  0
  5  6  2  0  0  0
  6  1  1  0  0  0
  1  2  2  0  0  0
  2 12  1  0  0  0
 12 13  2  0  0  0
 13 14  1  0  0  0
 14 18  1  0  0  0
 18 19  1  0  0  0
 14 15  2  0  0  0
 15 16  1  0  0  0
 16 20  1  0  0  0
 20 21  1  0  0  0
 16 17  2  0  0  0
  6  7  1  0  0  0
  7  8  2  0  0  0
  8  3  1  0  0  0
 17 12  1  0  0  0
M  END
> <minimizedAffinity>
-6.62520

> <CNNscore>
0.4450111389

> <CNNaffinity>
5.2966012955

> <CNN_VS>
2.3570466042

> <CNNaffinity_variance>
0.1244844422

$$$$
[H]/C(=C(/[H])c1c([H])c(OC([H])([H])[H])c([H])c(OC([H])([H])[H])c1[H])c1c([H])c([H])c(OC([H])([H])C([H])([H])[H])c([H])c1[H]


 21 22  0  0  0  0  0  0  0  0999 V2000
   -8.4523   -7.6431    7.9621 C   0  0  0  0  0  0  0  0  0  0  0  0
   -7.4596   -8.0030    7.1831 C   0  0  0  0  0  0  0  0  0  0  0  0
  -12.4567   -9.0028    7.3918 C   0  0  0  0  0  0  0  0  0  0  0  0
  -11.3782   -9.7911    7.0649 C   0  0  0  0  0  0  0  0  0  0  0  0
  -10.0845   -9.3293    7.2584 C   0  0  0  0  0  0  0  0  0  0  0  0
   -9.8351   -8.0811    7.7783 C   0  0  0  0  0  0  0  0  0  0  0  0
  -10.9114   -7.2935    8.1050 C   0  0  0  0  0  0  0  0  0  0  0  0
  -12.2151   -7.7529    7.9123 C   0  0  0  0  0  0  0  0  0  0  0  0
  -13.7707   -9.4214    7.2162 O   0  0  0  0  0  0  0  0  0  0  0  0
  -14.4385   -8.6692    5.0367 C   0  0  0  0  0  0  0  0  0  0  0  0
  -14.6650   -8.5758    6.5324 C   0  0  0  0  0  0  0  0  0  0  0  0
   -6.0947   -7.5468    7.3969 C   0  0  0  0  0  0  0  0  0  0  0  0
   -5.0612   -8.2894    6.8180 C   0  0  0  0  0  0  0  0  0  0  0  0
   -3.7347   -7.9527    6.9530 C   0  0  0  0  0  0  0  0  0  0  0  0
   -3.3996   -6.8364    7.6892 C   0  0  0  0  0  0  0  0  0  0  0  0
   -4.4124   -6.1048    8.2591 C   0  0  0  0  0  0  0  0  0  0  0  0
   -5.7499   -6.4451    8.1224 C   0  0  0  0  0  0  0  0  0  0  0  0
   -2.7972   -8.7608    6.3365 O   0  0  0  0  0  0  0  0  0  0  0  0
   -1.7447   -9.4101    6.9959 C   0  0  0  0  0  0  0  0  0  0  0  0
   -4.0516   -4.9834    8.9968 O   0  0  0  0  0  0  0  0  0  0  0  0
   -4.1226   -4.9017   10.3912 C   0  0  0  0  0  0  0  0  0  0  0  0
 10 11  1  0  0  0
 11  9  1  0  0  0
  9  3  1  0  0  0
  3  4  2  0  0  0
  4  5  1  0  0  0
  5  6  2  0  0  0
  6  1  1  0  0  0
  1  2  2  0  0  0
  2 12  1  0  0  0
 12 13  2  0  0  0
 13 14  1  0  0  0
 14 18  1  0  0  0
 18 19  1  0  0  0
 14 15  2  0  0  0
 15 16  1  0  0  0
 16 20  1  0  0  0
 20 21  1  0  0  0
 16 17  2  0  0  0
  6  7  1  0  0  0
  7  8  2  0  0  0
  8  3  1  0  0  0
 17 12  1  0  0  0
M  END
> <minimizedAffinity>
-6.61524

> <CNNscore>
0.4397741258

> <CNNaffinity>
5.3714737892

> <CNN_VS>
2.3622353077

> <CNNaffinity_variance>
0.1133067384

$$$$
[H]/C(C(=O)N(C([H])([H])[H])C([H])([H])c1sc2c([H])c([H])c([H])c([H])c2c1C([H])([H])[H])=C(/[H])c1c([H])nc2c(c1[H])C([H])([H])N([H])C([H])([H])C([H])([H])N2[H]


 30 33  0  0  0  0  0  0  0  0999 V2000
   -7.3249   -8.1610    6.5320 N   0  0  0  0  0  0  0  0  0  0  0  0
   -7.5167   -9.3469    7.3219 C   0  0  0  0  0  0  0  0  0  0  0  0
   -8.4047   -7.1625    6.5867 C   0  0  0  0  0  0  0  0  0  0  0  0
   -8.5325   -6.2811    5.7370 O   0  0  0  0  0  0  0  0  0  0  0  0
   -9.2977   -7.2162    7.7382 C   0  0  0  0  0  0  0  0  0  0  0  0
   -9.2856   -6.1254    8.5211 C   0  0  0  0  0  0  0  0  0  0  0  0
  -10.1217   -6.0272    9.7320 C   0  0  0  0  0  0  0  0  0  0  0  0
  -11.4462   -5.6717    9.6081 C   0  0  0  0  0  0  0  0  0  0  0  0
  -12.2469   -5.4042   10.6938 N   0  0  0  0  0  0  0  0  0  0  0  0
  -11.6984   -5.4978   11.9164 C   0  0  0  0  0  0  0  0  0  0  0  0
  -10.3735   -5.8654   12.0524 C   0  0  0  0  0  0  0  0  0  0  0  0
   -9.5714   -6.1316   10.9719 C   0  0  0  0  0  0  0  0  0  0  0  0
   -9.6853   -6.0202   13.3765 C   0  0  0  0  0  0  0  0  0  0  0  0
   -9.7311   -4.7027   13.9463 N   0  0  0  0  0  0  0  0  0  0  0  0
  -10.8743   -4.3640   14.6901 C   0  0  0  0  0  0  0  0  0  0  0  0
  -12.2196   -4.7900   14.3264 C   0  0  0  0  0  0  0  0  0  0  0  0
  -12.5752   -5.0954   12.9915 N   0  0  0  0  0  0  0  0  0  0  0  0
   -9.4707   -4.0320   13.1847 H   0  0  0  0  0  0  0  0  0  0  0  0
  -13.5729   -4.9958   12.7116 H   0  0  0  0  0  0  0  0  0  0  0  0
   -6.2858   -7.8946    5.6806 C   0  0  0  0  0  0  0  0  0  0  0  0
   -5.0507   -5.0228    5.1630 C   0  0  0  0  0  0  0  0  0  0  0  0
   -4.4246   -6.1237    6.0513 C   0  0  0  0  0  0  0  0  0  0  0  0
   -4.9545   -7.3696    5.9706 C   0  0  0  0  0  0  0  0  0  0  0  0
   -3.7990   -8.2705    6.9995 S   0  0  0  0  0  0  0  0  0  0  0  0
   -2.7811   -6.9834    7.4449 C   0  0  0  0  0  0  0  0  0  0  0  0
   -1.6701   -6.8667    8.2981 C   0  0  0  0  0  0  0  0  0  0  0  0
   -1.0618   -5.6589    8.5254 C   0  0  0  0  0  0  0  0  0  0  0  0
   -1.6163   -4.5814    7.8569 C   0  0  0  0  0  0  0  0  0  0  0  0
   -2.6754   -4.6831    7.0432 C   0  0  0  0  0  0  0  0  0  0  0  0
   -3.3237   -5.9164    6.7999 C   0  0  0  0  0  0  0  0  0  0  0  0
 21 22  1  0  0  0
 22 23  2  0  0  0
 23 20  1  0  0  0
 20  1  1  0  0  0
  1  2  1  0  0  0
  1  3  1  0  0  0
  3  4  2  0  0  0
  3  5  1  0  0  0
  5  6  2  0  0  0
  6  7  1  0  0  0
  7  8  2  0  0  0
  8  9  1  0  0  0
  9 10  2  0  0  0
 10 11  1  0  0  0
 11 12  2  0  0  0
 11 13  1  0  0  0
 13 14  1  0  0  0
 14 15  1  0  0  0
 15 16  1  0  0  0
 16 17  1  0  0  0
 23 24  1  0  0  0
 24 25  1  0  0  0
 25 26  2  0  0  0
 26 27  1  0  0  0
 27 28  2  0  0  0
 28 29  1  0  0  0
 29 30  2  0  0  0
 30 22  1  0  0  0
 12  7  1  0  0  0
 30 25  1  0  0  0
 17 10  1  0  0  0
 14 18  1  0  0  0
 17 19  1  0  0  0
M  END
> <minimizedAffinity>
9.31123

> <CNNscore>
0.4426291287

> <CNNaffinity>
5.8179426193

> <CNN_VS>
2.5751907825

> <CNNaffinity_variance>
0.5827320814

$$$$
[H]/C(C(=O)N(C([H])([H])[H])C([H])([H])c1sc2c([H])c([H])c([H])c([H])c2c1C([H])([H])[H])=C(/[H])c1c([H])nc2c(c1[H])C([H])([H])N([H])C([H])([H])C([H])([H])N2[H]


 30 33  0  0  0  0  0  0  0  0999 V2000
   -7.6042   -5.9288    6.0651 N   0  0  0  0  0  0  0  0  0  0  0  0
   -8.1822   -5.3100    4.9031 C   0  0  0  0  0  0  0  0  0  0  0  0
   -8.5504   -6.5228    7.0230 C   0  0  0  0  0  0  0  0  0  0  0  0
   -8.2374   -6.7836    8.1846 O   0  0  0  0  0  0  0  0  0  0  0  0
   -9.8783   -6.8559    6.5213 C   0  0  0  0  0  0  0  0  0  0  0  0
  -10.6696   -7.5068    7.3891 C   0  0  0  0  0  0  0  0  0  0  0  0
  -12.0374   -7.9267    7.0314 C   0  0  0  0  0  0  0  0  0  0  0  0
  -12.2951   -9.2609    6.8092 C   0  0  0  0  0  0  0  0  0  0  0  0
  -13.4983   -9.7121    6.3190 N   0  0  0  0  0  0  0  0  0  0  0  0
  -14.4483   -8.8011    6.0514 C   0  0  0  0  0  0  0  0  0  0  0  0
  -14.2043   -7.4609    6.2821 C   0  0  0  0  0  0  0  0  0  0  0  0
  -13.0051   -7.0069    6.7695 C   0  0  0  0  0  0  0  0  0  0  0  0
  -15.2132   -6.3779    6.0374 C   0  0  0  0  0  0  0  0  0  0  0  0
  -15.4511   -6.4398    4.6225 N   0  0  0  0  0  0  0  0  0  0  0  0
  -16.4428   -7.3300    4.1763 C   0  0  0  0  0  0  0  0  0  0  0  0
  -16.6654   -8.6417    4.7708 C   0  0  0  0  0  0  0  0  0  0  0  0
  -15.6372   -9.3472    5.4392 N   0  0  0  0  0  0  0  0  0  0  0  0
  -14.5157   -6.5344    4.1600 H   0  0  0  0  0  0  0  0  0  0  0  0
  -15.6992  -10.3855    5.4828 H   0  0  0  0  0  0  0  0  0  0  0  0
   -6.2797   -5.9599    6.4118 C   0  0  0  0  0  0  0  0  0  0  0  0
   -3.3459   -5.5515    5.2861 C   0  0  0  0  0  0  0  0  0  0  0  0
   -3.9122   -6.8710    5.8618 C   0  0  0  0  0  0  0  0  0  0  0  0
   -5.2503   -6.9384    6.0728 C   0  0  0  0  0  0  0  0  0  0  0  0
   -5.4096   -8.6603    6.5368 S   0  0  0  0  0  0  0  0  0  0  0  0
   -3.7735   -9.1133    6.4406 C   0  0  0  0  0  0  0  0  0  0  0  0
   -3.0695  -10.2969    6.7218 C   0  0  0  0  0  0  0  0  0  0  0  0
   -1.7044  -10.3653    6.6104 C   0  0  0  0  0  0  0  0  0  0  0  0
   -1.0842   -9.1973    6.2025 C   0  0  0  0  0  0  0  0  0  0  0  0
   -1.7468   -8.0646    5.9338 C   0  0  0  0  0  0  0  0  0  0  0  0
   -3.1532   -7.9683    6.0493 C   0  0  0  0  0  0  0  0  0  0  0  0
 21 22  1  0  0  0
 22 23  2  0  0  0
 23 20  1  0  0  0
 20  1  1  0  0  0
  1  2  1  0  0  0
  1  3  1  0  0  0
  3  4  2  0  0  0
  3  5  1  0  0  0
  5  6  2  0  0  0
  6  7  1  0  0  0
  7  8  2  0  0  0
  8  9  1  0  0  0
  9 10  2  0  0  0
 10 11  1  0  0  0
 11 12  2  0  0  0
 11 13  1  0  0  0
 13 14  1  0  0  0
 14 15  1  0  0  0
 15 16  1  0  0  0
 16 17  1  0  0  0
 23 24  1  0  0  0
 24 25  1  0  0  0
 25 26  2  0  0  0
 26 27  1  0  0  0
 27 28  2  0  0  0
 28 29  1  0  0  0
 29 30  2  0  0  0
 30 22  1  0  0  0
 12  7  1  0  0  0
 30 25  1  0  0  0
 17 10  1  0  0  0
 14 18  1  0  0  0
 17 19  1  0  0  0
M  END
> <minimizedAffinity>
1.01317

> <CNNscore>
0.4088057578

> <CNNaffinity>
6.8672471046

> <CNN_VS>
2.8073701859

> <CNNaffinity_variance>
1.8907051086

$$$$
[H]/C(C(=O)N(C([H])([H])[H])C([H])([H])c1sc2c([H])c([H])c([H])c([H])c2c1C([H])([H])[H])=C(/[H])c1c([H])nc2c(c1[H])C([H])([H])N([H])C([H])([H])C([H])([H])N2[H]


 30 33  0  0  0  0  0  0  0  0999 V2000
  -14.0597   -6.1095    4.9009 N   0  0  0  0  0  0  0  0  0  0  0  0
  -13.2831   -4.9251    5.1483 C   0  0  0  0  0  0  0  0  0  0  0  0
  -15.3016   -5.9232    4.1335 C   0  0  0  0  0  0  0  0  0  0  0  0
  -16.2067   -6.7575    4.1297 O   0  0  0  0  0  0  0  0  0  0  0  0
  -15.3981   -4.7221    3.3124 C   0  0  0  0  0  0  0  0  0  0  0  0
  -16.6349   -4.2147    3.1866 C   0  0  0  0  0  0  0  0  0  0  0  0
  -16.9037   -3.0105    2.3788 C   0  0  0  0  0  0  0  0  0  0  0  0
  -17.9761   -3.0052    1.5151 C   0  0  0  0  0  0  0  0  0  0  0  0
  -18.1992   -1.9886    0.6161 N   0  0  0  0  0  0  0  0  0  0  0  0
  -17.3259   -0.9683    0.5930 C   0  0  0  0  0  0  0  0  0  0  0  0
  -16.2531   -0.9579    1.4636 C   0  0  0  0  0  0  0  0  0  0  0  0
  -16.0265   -1.9707    2.3606 C   0  0  0  0  0  0  0  0  0  0  0  0
  -15.2438    0.1503    1.5262 C   0  0  0  0  0  0  0  0  0  0  0  0
  -14.6270    0.1302    0.2294 N   0  0  0  0  0  0  0  0  0  0  0  0
  -15.2433    0.8803   -0.7866 C   0  0  0  0  0  0  0  0  0  0  0  0
  -16.6889    0.9946   -0.9309 C   0  0  0  0  0  0  0  0  0  0  0  0
  -17.5722   -0.0012   -0.4513 N   0  0  0  0  0  0  0  0  0  0  0  0
  -14.4349   -0.8736   -0.0012 H   0  0  0  0  0  0  0  0  0  0  0  0
  -18.5038   -0.0949   -0.9064 H   0  0  0  0  0  0  0  0  0  0  0  0
  -13.8083   -7.3737    5.3634 C   0  0  0  0  0  0  0  0  0  0  0  0
  -12.9379  -10.1697    6.5742 C   0  0  0  0  0  0  0  0  0  0  0  0
  -13.4812   -8.9692    7.3846 C   0  0  0  0  0  0  0  0  0  0  0  0
  -14.0312   -7.9425    6.6896 C   0  0  0  0  0  0  0  0  0  0  0  0
  -14.6549   -6.9463    8.0402 S   0  0  0  0  0  0  0  0  0  0  0  0
  -14.1393   -7.9115    9.3417 C   0  0  0  0  0  0  0  0  0  0  0  0
  -14.1906   -7.7747   10.7397 C   0  0  0  0  0  0  0  0  0  0  0  0
  -13.6258   -8.7047   11.5743 C   0  0  0  0  0  0  0  0  0  0  0  0
  -13.0139   -9.7733   10.9427 C   0  0  0  0  0  0  0  0  0  0  0  0
  -12.9591   -9.9111    9.6114 C   0  0  0  0  0  0  0  0  0  0  0  0
  -13.5276   -8.9612    8.7311 C   0  0  0  0  0  0  0  0  0  0  0  0
 21 22  1  0  0  0
 22 23  2  0  0  0
 23 20  1  0  0  0
 20  1  1  0  0  0
  1  2  1  0  0  0
  1  3  1  0  0  0
  3  4  2  0  0  0
  3  5  1  0  0  0
  5  6  2  0  0  0
  6  7  1  0  0  0
  7  8  2  0  0  0
  8  9  1  0  0  0
  9 10  2  0  0  0
 10 11  1  0  0  0
 11 12  2  0  0  0
 11 13  1  0  0  0
 13 14  1  0  0  0
 14 15  1  0  0  0
 15 16  1  0  0  0
 16 17  1  0  0  0
 23 24  1  0  0  0
 24 25  1  0  0  0
 25 26  2  0  0  0
 26 27  1  0  0  0
 27 28  2  0  0  0
 28 29  1  0  0  0
 29 30  2  0  0  0
 30 22  1  0  0  0
 12  7  1  0  0  0
 30 25  1  0  0  0
 17 10  1  0  0  0
 14 18  1  0  0  0
 17 19  1  0  0  0
M  END
> <minimizedAffinity>
39.75135

> <CNNscore>
0.3131946027

> <CNNaffinity>
6.0206270218

> <CNN_VS>
1.8856278658

> <CNNaffinity_variance>
0.6022595167

$$$$
[H]/C(C(=O)N(C([H])([H])[H])C([H])([H])c1sc2c([H])c([H])c([H])c([H])c2c1C([H])([H])[H])=C(/[H])c1c([H])nc2c(c1[H])C([H])([H])N([H])C([H])([H])C([H])([H])N2[H]


 30 33  0  0  0  0  0  0  0  0999 V2000
  -11.2927   -8.5264    8.0362 N   0  0  0  0  0  0  0  0  0  0  0  0
  -11.2121   -7.1616    8.4810 C   0  0  0  0  0  0  0  0  0  0  0  0
  -10.0468   -9.1160    7.5204 C   0  0  0  0  0  0  0  0  0  0  0  0
  -10.0359  -10.1280    6.8196 O   0  0  0  0  0  0  0  0  0  0  0  0
   -8.7975   -8.4840    7.9278 C   0  0  0  0  0  0  0  0  0  0  0  0
   -8.0593   -7.9805    6.9255 C   0  0  0  0  0  0  0  0  0  0  0  0
   -6.7628   -7.3210    7.1690 C   0  0  0  0  0  0  0  0  0  0  0  0
   -6.3086   -7.1866    8.4620 C   0  0  0  0  0  0  0  0  0  0  0  0
   -5.1943   -6.4474    8.7834 N   0  0  0  0  0  0  0  0  0  0  0  0
   -4.5352   -5.8386    7.7838 C   0  0  0  0  0  0  0  0  0  0  0  0
   -4.9755   -5.9768    6.4815 C   0  0  0  0  0  0  0  0  0  0  0  0
   -6.0872   -6.7121    6.1572 C   0  0  0  0  0  0  0  0  0  0  0  0
   -4.2887   -5.3556    5.3013 C   0  0  0  0  0  0  0  0  0  0  0  0
   -4.3911   -3.9439    5.5450 N   0  0  0  0  0  0  0  0  0  0  0  0
   -3.3807   -3.3513    6.3214 C   0  0  0  0  0  0  0  0  0  0  0  0
   -2.7678   -4.0059    7.4700 C   0  0  0  0  0  0  0  0  0  0  0  0
   -3.4451   -4.9968    8.2192 N   0  0  0  0  0  0  0  0  0  0  0  0
   -5.3727   -3.7597    5.8613 H   0  0  0  0  0  0  0  0  0  0  0  0
   -3.1713   -5.1363    9.2139 H   0  0  0  0  0  0  0  0  0  0  0  0
  -12.4143   -9.3094    7.9717 C   0  0  0  0  0  0  0  0  0  0  0  0
  -15.2638   -8.1668    8.7566 C   0  0  0  0  0  0  0  0  0  0  0  0
  -14.7666   -8.4296    7.3155 C   0  0  0  0  0  0  0  0  0  0  0  0
  -13.6223   -9.1428    7.1685 C   0  0  0  0  0  0  0  0  0  0  0  0
  -13.5927   -9.3272    5.3879 S   0  0  0  0  0  0  0  0  0  0  0  0
  -15.0103   -8.4681    5.0086 C   0  0  0  0  0  0  0  0  0  0  0  0
  -15.6402   -8.1051    3.8057 C   0  0  0  0  0  0  0  0  0  0  0  0
  -16.7749   -7.3353    3.7921 C   0  0  0  0  0  0  0  0  0  0  0  0
  -17.2459   -6.9525    5.0358 C   0  0  0  0  0  0  0  0  0  0  0  0
  -16.6515   -7.2926    6.1870 C   0  0  0  0  0  0  0  0  0  0  0  0
  -15.4764   -8.0790    6.2253 C   0  0  0  0  0  0  0  0  0  0  0  0
 21 22  1  0  0  0
 22 23  2  0  0  0
 23 20  1  0  0  0
 20  1  1  0  0  0
  1  2  1  0  0  0
  1  3  1  0  0  0
  3  4  2  0  0  0
  3  5  1  0  0  0
  5  6  2  0  0  0
  6  7  1  0  0  0
  7  8  2  0  0  0
  8  9  1  0  0  0
  9 10  2  0  0  0
 10 11  1  0  0  0
 11 12  2  0  0  0
 11 13  1  0  0  0
 13 14  1  0  0  0
 14 15  1  0  0  0
 15 16  1  0  0  0
 16 17  1  0  0  0
 23 24  1  0  0  0
 24 25  1  0  0  0
 25 26  2  0  0  0
 26 27  1  0  0  0
 27 28  2  0  0  0
 28 29  1  0  0  0
 29 30  2  0  0  0
 30 22  1  0  0  0
 12  7  1  0  0  0
 30 25  1  0  0  0
 17 10  1  0  0  0
 14 18  1  0  0  0
 17 19  1  0  0  0
M  END
> <minimizedAffinity>
-8.81670

> <CNNscore>
0.3126263022

> <CNNaffinity>
6.5020627975

> <CNN_VS>
2.0327157974

> <CNNaffinity_variance>
0.1902439892

$$$$
[H]/C(C(=O)N(C([H])([H])[H])C([H])([H])c1sc2c([H])c([H])c([H])c([H])c2c1C([H])([H])[H])=C(/[H])c1c([H])nc2c(c1[H])C([H])([H])N([H])C([H])([H])C([H])([H])N2[H]


 30 33  0  0  0  0  0  0  0  0999 V2000
   -7.9861   -8.0439    7.6229 N   0  0  0  0  0  0  0  0  0  0  0  0
   -8.6912   -6.7912    7.6493 C   0  0  0  0  0  0  0  0  0  0  0  0
   -8.8179   -9.2578    7.6433 C   0  0  0  0  0  0  0  0  0  0  0  0
   -8.3677  -10.3615    7.9505 O   0  0  0  0  0  0  0  0  0  0  0  0
  -10.2056   -9.1163    7.2184 C   0  0  0  0  0  0  0  0  0  0  0  0
  -11.0309   -8.5826    8.1333 C   0  0  0  0  0  0  0  0  0  0  0  0
  -12.4675   -8.3849    7.8643 C   0  0  0  0  0  0  0  0  0  0  0  0
  -13.3676   -9.3401    8.2805 C   0  0  0  0  0  0  0  0  0  0  0  0
  -14.6973   -9.3085    7.9304 N   0  0  0  0  0  0  0  0  0  0  0  0
  -15.1172   -8.2987    7.1506 C   0  0  0  0  0  0  0  0  0  0  0  0
  -14.2247   -7.3283    6.7374 C   0  0  0  0  0  0  0  0  0  0  0  0
  -12.8975   -7.3572    7.0833 C   0  0  0  0  0  0  0  0  0  0  0  0
  -14.6088   -6.1526    5.8883 C   0  0  0  0  0  0  0  0  0  0  0  0
  -15.0572   -6.7452    4.6594 N   0  0  0  0  0  0  0  0  0  0  0  0
  -16.4098   -7.1188    4.5826 C   0  0  0  0  0  0  0  0  0  0  0  0
  -17.1457   -7.6914    5.7024 C   0  0  0  0  0  0  0  0  0  0  0  0
  -16.4987   -8.4009    6.7416 N   0  0  0  0  0  0  0  0  0  0  0  0
  -14.3659   -7.4922    4.4111 H   0  0  0  0  0  0  0  0  0  0  0  0
  -17.0470   -9.1110    7.2698 H   0  0  0  0  0  0  0  0  0  0  0  0
   -6.6297   -8.2292    7.6556 C   0  0  0  0  0  0  0  0  0  0  0  0
   -6.7329   -6.5073    4.9974 C   0  0  0  0  0  0  0  0  0  0  0  0
   -5.5576   -6.5389    6.0029 C   0  0  0  0  0  0  0  0  0  0  0  0
   -5.5731   -7.5062    6.9535 C   0  0  0  0  0  0  0  0  0  0  0  0
   -3.9688   -7.2380    7.7018 S   0  0  0  0  0  0  0  0  0  0  0  0
   -3.4526   -5.9213    6.7578 C   0  0  0  0  0  0  0  0  0  0  0  0
   -2.3165   -5.0939    6.7735 C   0  0  0  0  0  0  0  0  0  0  0  0
   -2.1846   -4.0371    5.9096 C   0  0  0  0  0  0  0  0  0  0  0  0
   -3.2393   -3.8538    5.0326 C   0  0  0  0  0  0  0  0  0  0  0  0
   -4.3263   -4.6364    5.0114 C   0  0  0  0  0  0  0  0  0  0  0  0
   -4.4877   -5.7268    5.8977 C   0  0  0  0  0  0  0  0  0  0  0  0
 21 22  1  0  0  0
 22 23  2  0  0  0
 23 20  1  0  0  0
 20  1  1  0  0  0
  1  2  1  0  0  0
  1  3  1  0  0  0
  3  4  2  0  0  0
  3  5  1  0  0  0
  5  6  2  0  0  0
  6  7  1  0  0  0
  7  8  2  0  0  0
  8  9  1  0  0  0
  9 10  2  0  0  0
 10 11  1  0  0  0
 11 12  2  0  0  0
 11 13  1  0  0  0
 13 14  1  0  0  0
 14 15  1  0  0  0
 15 16  1  0  0  0
 16 17  1  0  0  0
 23 24  1  0  0  0
 24 25  1  0  0  0
 25 26  2  0  0  0
 26 27  1  0  0  0
 27 28  2  0  0  0
 28 29  1  0  0  0
 29 30  2  0  0  0
 30 22  1  0  0  0
 12  7  1  0  0  0
 30 25  1  0  0  0
 17 10  1  0  0  0
 14 18  1  0  0  0
 17 19  1  0  0  0
M  END
> <minimizedAffinity>
-8.40506

> <CNNscore>
0.3096222878

> <CNNaffinity>
6.9603104591

> <CNN_VS>
2.1550672054

> <CNNaffinity_variance>
0.0955454707

$$$$
[H]/C(C(=O)N(C([H])([H])[H])C([H])([H])c1sc2c([H])c([H])c([H])c([H])c2c1C([H])([H])[H])=C(/[H])c1c([H])nc2c(c1[H])C([H])([H])N([H])C([H])([H])C([H])([H])N2[H]


 30 33  0  0  0  0  0  0  0  0999 V2000
  -10.4775   -8.1139    8.3154 N   0  0  0  0  0  0  0  0  0  0  0  0
  -10.2164   -6.7508    8.6911 C   0  0  0  0  0  0  0  0  0  0  0  0
   -9.3393   -8.8642    7.7612 C   0  0  0  0  0  0  0  0  0  0  0  0
   -9.4847   -9.8978    7.1088 O   0  0  0  0  0  0  0  0  0  0  0  0
   -8.0044   -8.3655    8.0706 C   0  0  0  0  0  0  0  0  0  0  0  0
   -7.2461   -8.0649    7.0041 C   0  0  0  0  0  0  0  0  0  0  0  0
   -5.8672   -7.5615    7.1466 C   0  0  0  0  0  0  0  0  0  0  0  0
   -4.8262   -8.2923    6.6191 C   0  0  0  0  0  0  0  0  0  0  0  0
   -3.5074   -7.9753    6.8467 N   0  0  0  0  0  0  0  0  0  0  0  0
   -3.2426   -6.9072    7.6168 C   0  0  0  0  0  0  0  0  0  0  0  0
   -4.2796   -6.1599    8.1412 C   0  0  0  0  0  0  0  0  0  0  0  0
   -5.5962   -6.4738    7.9176 C   0  0  0  0  0  0  0  0  0  0  0  0
   -4.0787   -4.9386    8.9890 C   0  0  0  0  0  0  0  0  0  0  0  0
   -3.3964   -5.4331   10.1519 N   0  0  0  0  0  0  0  0  0  0  0  0
   -1.9941   -5.5033   10.0924 C   0  0  0  0  0  0  0  0  0  0  0  0
   -1.2633   -5.8885    8.8919 C   0  0  0  0  0  0  0  0  0  0  0  0
   -1.8387   -6.7101    7.8941 N   0  0  0  0  0  0  0  0  0  0  0  0
   -3.8827   -6.3158   10.4383 H   0  0  0  0  0  0  0  0  0  0  0  0
   -1.2035   -7.2772    7.2952 H   0  0  0  0  0  0  0  0  0  0  0  0
  -11.6827   -8.7634    8.3481 C   0  0  0  0  0  0  0  0  0  0  0  0
  -13.7860   -6.3974    8.4860 C   0  0  0  0  0  0  0  0  0  0  0  0
  -13.6827   -7.4432    7.3508 C   0  0  0  0  0  0  0  0  0  0  0  0
  -12.8920   -8.5240    7.5656 C   0  0  0  0  0  0  0  0  0  0  0  0
  -13.2575   -9.4787    6.0957 S   0  0  0  0  0  0  0  0  0  0  0  0
  -14.3496   -8.4098    5.3500 C   0  0  0  0  0  0  0  0  0  0  0  0
  -15.0335   -8.4113    4.1220 C   0  0  0  0  0  0  0  0  0  0  0  0
  -15.8263   -7.3599    3.7392 C   0  0  0  0  0  0  0  0  0  0  0  0
  -15.9019   -6.3151    4.6437 C   0  0  0  0  0  0  0  0  0  0  0  0
  -15.2527   -6.3046    5.8153 C   0  0  0  0  0  0  0  0  0  0  0  0
  -14.4236   -7.3738    6.2276 C   0  0  0  0  0  0  0  0  0  0  0  0
 21 22  1  0  0  0
 22 23  2  0  0  0
 23 20  1  0  0  0
 20  1  1  0  0  0
  1  2  1  0  0  0
  1  3  1  0  0  0
  3  4  2  0  0  0
  3  5  1  0  0  0
  5  6  2  0  0  0
  6  7  1  0  0  0
  7  8  2  0  0  0
  8  9  1  0  0  0
  9 10  2  0  0  0
 10 11  1  0  0  0
 11 12  2  0  0  0
 11 13  1  0  0  0
 13 14  1  0  0  0
 14 15  1  0  0  0
 15 16  1  0  0  0
 16 17  1  0  0  0
 23 24  1  0  0  0
 24 25  1  0  0  0
 25 26  2  0  0  0
 26 27  1  0  0  0
 27 28  2  0  0  0
 28 29  1  0  0  0
 29 30  2  0  0  0
 30 22  1  0  0  0
 12  7  1  0  0  0
 30 25  1  0  0  0
 17 10  1  0  0  0
 14 18  1  0  0  0
 17 19  1  0  0  0
M  END
> <minimizedAffinity>
-8.71975

> <CNNscore>
0.2947801650

> <CNNaffinity>
6.2575707436

> <CNN_VS>
1.8446077108

> <CNNaffinity_variance>
0.1650497019

$$$$
[H]/C(C(=O)N(C([H])([H])[H])C([H])([H])c1sc2c([H])c([H])c([H])c([H])c2c1C([H])([H])[H])=C(/[H])c1c([H])nc2c(c1[H])C([H])([H])N([H])C([H])([H])C([H])([H])N2[H]


 30 33  0  0  0  0  0  0  0  0999 V2000
  -10.2302   -8.0476    8.1364 N   0  0  0  0  0  0  0  0  0  0  0  0
   -9.8818   -6.6733    8.3751 C   0  0  0  0  0  0  0  0  0  0  0  0
   -9.1926   -8.8809    7.5079 C   0  0  0  0  0  0  0  0  0  0  0  0
   -9.4495   -9.9512    6.9568 O   0  0  0  0  0  0  0  0  0  0  0  0
   -7.8148   -8.4164    7.6175 C   0  0  0  0  0  0  0  0  0  0  0  0
   -7.2437   -8.0458    6.4601 C   0  0  0  0  0  0  0  0  0  0  0  0
   -5.8509   -7.5649    6.3984 C   0  0  0  0  0  0  0  0  0  0  0  0
   -4.8676   -8.2642    7.0617 C   0  0  0  0  0  0  0  0  0  0  0  0
   -3.5801   -7.7968    7.1853 N   0  0  0  0  0  0  0  0  0  0  0  0
   -3.2878   -6.6087    6.6310 C   0  0  0  0  0  0  0  0  0  0  0  0
   -4.2640   -5.9044    5.9528 C   0  0  0  0  0  0  0  0  0  0  0  0
   -5.5496   -6.3667    5.8287 C   0  0  0  0  0  0  0  0  0  0  0  0
   -4.0223   -4.5847    5.2815 C   0  0  0  0  0  0  0  0  0  0  0  0
   -3.6612   -3.7086    6.3607 N   0  0  0  0  0  0  0  0  0  0  0  0
   -2.3043   -3.6622    6.7236 C   0  0  0  0  0  0  0  0  0  0  0  0
   -1.4381   -4.8339    6.7300 C   0  0  0  0  0  0  0  0  0  0  0  0
   -1.9473   -6.1430    6.9004 N   0  0  0  0  0  0  0  0  0  0  0  0
   -4.3334   -3.8949    7.1425 H   0  0  0  0  0  0  0  0  0  0  0  0
   -1.3160   -6.8703    7.2957 H   0  0  0  0  0  0  0  0  0  0  0  0
  -11.4424   -8.6436    8.3614 C   0  0  0  0  0  0  0  0  0  0  0  0
  -13.6907   -6.4170    8.5294 C   0  0  0  0  0  0  0  0  0  0  0  0
  -13.5676   -7.4881    7.4201 C   0  0  0  0  0  0  0  0  0  0  0  0
  -12.6980   -8.5079    7.6286 C   0  0  0  0  0  0  0  0  0  0  0  0
  -13.0628   -9.5291    6.2039 S   0  0  0  0  0  0  0  0  0  0  0  0
  -14.2553   -8.5573    5.4794 C   0  0  0  0  0  0  0  0  0  0  0  0
  -14.9906   -8.6412    4.2844 C   0  0  0  0  0  0  0  0  0  0  0  0
  -15.8676   -7.6561    3.9091 C   0  0  0  0  0  0  0  0  0  0  0  0
  -15.9731   -6.5912    4.7867 C   0  0  0  0  0  0  0  0  0  0  0  0
  -15.2755   -6.5022    5.9268 C   0  0  0  0  0  0  0  0  0  0  0  0
  -14.3598   -7.5019    6.3303 C   0  0  0  0  0  0  0  0  0  0  0  0
 21 22  1  0  0  0
 22 23  2  0  0  0
 23 20  1  0  0  0
 20  1  1  0  0  0
  1  2  1  0  0  0
  1  3  1  0  0  0
  3  4  2  0  0  0
  3  5  1  0  0  0
  5  6  2  0  0  0
  6  7  1  0  0  0
  7  8  2  0  0  0
  8  9  1  0  0  0
  9 10  2  0  0  0
 10 11  1  0  0  0
 11 12  2  0  0  0
 11 13  1  0  0  0
 13 14  1  0  0  0
 14 15  1  0  0  0
 15 16  1  0  0  0
 16 17  1  0  0  0
 23 24  1  0  0  0
 24 25  1  0  0  0
 25 26  2  0  0  0
 26 27  1  0  0  0
 27 28  2  0  0  0
 28 29  1  0  0  0
 29 30  2  0  0  0
 30 22  1  0  0  0
 12  7  1  0  0  0
 30 25  1  0  0  0
 17 10  1  0  0  0
 14 18  1  0  0  0
 17 19  1  0  0  0
M  END
> <minimizedAffinity>
-8.99840

> <CNNscore>
0.2819713950

> <CNNaffinity>
6.1817288399

> <CNN_VS>
1.7430707216

> <CNNaffinity_variance>
0.1779022217

$$$$
[H]/C(C(=O)N(C([H])([H])[H])C([H])([H])c1sc2c([H])c([H])c([H])c([H])c2c1C([H])([H])[H])=C(/[H])c1c([H])nc2c(c1[H])C([H])([H])N([H])C([H])([H])C([H])([H])N2[H]


 30 33  0  0  0  0  0  0  0  0999 V2000
  -10.6763   -9.1196    7.6703 N   0  0  0  0  0  0  0  0  0  0  0  0
   -9.9350  -10.1335    6.9706 C   0  0  0  0  0  0  0  0  0  0  0  0
   -9.9026   -7.9621    8.1470 C   0  0  0  0  0  0  0  0  0  0  0  0
  -10.3216   -7.2022    9.0201 O   0  0  0  0  0  0  0  0  0  0  0  0
   -8.6251   -7.7052    7.4926 C   0  0  0  0  0  0  0  0  0  0  0  0
   -7.5603   -7.6784    8.3101 C   0  0  0  0  0  0  0  0  0  0  0  0
   -6.1988   -7.4178    7.8066 C   0  0  0  0  0  0  0  0  0  0  0  0
   -5.6600   -8.2580    6.8580 C   0  0  0  0  0  0  0  0  0  0  0  0
   -4.3469   -8.1784    6.4570 N   0  0  0  0  0  0  0  0  0  0  0  0
   -3.5734   -7.2379    7.0240 C   0  0  0  0  0  0  0  0  0  0  0  0
   -4.1072   -6.3819    7.9681 C   0  0  0  0  0  0  0  0  0  0  0  0
   -5.4160   -6.4592    8.3716 C   0  0  0  0  0  0  0  0  0  0  0  0
   -3.3267   -5.2873    8.6338 C   0  0  0  0  0  0  0  0  0  0  0  0
   -2.2973   -5.9845    9.3529 N   0  0  0  0  0  0  0  0  0  0  0  0
   -1.1112   -6.2740    8.6570 C   0  0  0  0  0  0  0  0  0  0  0  0
   -1.0832   -6.6660    7.2538 C   0  0  0  0  0  0  0  0  0  0  0  0
   -2.1855   -7.2943    6.6277 N   0  0  0  0  0  0  0  0  0  0  0  0
   -2.7550   -6.7989    9.8271 H   0  0  0  0  0  0  0  0  0  0  0  0
   -2.0035   -7.9019    5.8022 H   0  0  0  0  0  0  0  0  0  0  0  0
  -12.0040   -9.1496    8.0044 C   0  0  0  0  0  0  0  0  0  0  0  0
  -13.5943   -6.4390    8.4106 C   0  0  0  0  0  0  0  0  0  0  0  0
  -13.7227   -7.3824    7.1914 C   0  0  0  0  0  0  0  0  0  0  0  0
  -13.1575   -8.6115    7.2888 C   0  0  0  0  0  0  0  0  0  0  0  0
  -13.7340   -9.3453    5.7608 S   0  0  0  0  0  0  0  0  0  0  0  0
  -14.6076   -8.0230    5.1447 C   0  0  0  0  0  0  0  0  0  0  0  0
  -15.3028   -7.7844    3.9465 C   0  0  0  0  0  0  0  0  0  0  0  0
  -15.8793   -6.5691    3.6795 C   0  0  0  0  0  0  0  0  0  0  0  0
  -15.7285   -5.6121    4.6678 C   0  0  0  0  0  0  0  0  0  0  0  0
  -15.0667   -5.8302    5.8118 C   0  0  0  0  0  0  0  0  0  0  0  0
  -14.4576   -7.0726    6.1054 C   0  0  0  0  0  0  0  0  0  0  0  0
 21 22  1  0  0  0
 22 23  2  0  0  0
 23 20  1  0  0  0
 20  1  1  0  0  0
  1  2  1  0  0  0
  1  3  1  0  0  0
  3  4  2  0  0  0
  3  5  1  0  0  0
  5  6  2  0  0  0
  6  7  1  0  0  0
  7  8  2  0  0  0
  8  9  1  0  0  0
  9 10  2  0  0  0
 10 11  1  0  0  0
 11 12  2  0  0  0
 11 13  1  0  0  0
 13 14  1  0  0  0
 14 15  1  0  0  0
 15 16  1  0  0  0
 16 17  1  0  0  0
 23 24  1  0  0  0
 24 25  1  0  0  0
 25 26  2  0  0  0
 26 27  1  0  0  0
 27 28  2  0  0  0
 28 29  1  0  0  0
 29 30  2  0  0  0
 30 22  1  0  0  0
 12  7  1  0  0  0
 30 25  1  0  0  0
 17 10  1  0  0  0
 14 18  1  0  0  0
 17 19  1  0  0  0
M  END
> <minimizedAffinity>
-8.67477

> <CNNscore>
0.2574641407

> <CNNaffinity>
6.1924161911

> <CNN_VS>
1.5943250656

> <CNNaffinity_variance>
0.1917053014

$$$$
[H]/C(C(=O)N(C([H])([H])[H])C([H])([H])c1sc2c([H])c([H])c([H])c([H])c2c1C([H])([H])[H])=C(/[H])c1c([H])nc2c(c1[H])C([H])([H])N([H])C([H])([H])C([H])([H])N2[H]


 30 33  0  0  0  0  0  0  0  0999 V2000
  -14.1378   -8.0487    9.4967 N   0  0  0  0  0  0  0  0  0  0  0  0
  -15.2493   -8.7914   10.0259 C   0  0  0  0  0  0  0  0  0  0  0  0
  -12.8342   -8.2862   10.1369 C   0  0  0  0  0  0  0  0  0  0  0  0
  -11.8890   -7.5065   10.0193 O   0  0  0  0  0  0  0  0  0  0  0  0
  -12.6784   -9.5321   10.8783 C   0  0  0  0  0  0  0  0  0  0  0  0
  -12.9562   -9.4545   12.1896 C   0  0  0  0  0  0  0  0  0  0  0  0
  -12.8350  -10.6229   13.0814 C   0  0  0  0  0  0  0  0  0  0  0  0
  -11.8837  -10.6138   14.0768 C   0  0  0  0  0  0  0  0  0  0  0  0
  -11.6013  -11.7205   14.8428 N   0  0  0  0  0  0  0  0  0  0  0  0
  -12.2902  -12.8469   14.5962 C   0  0  0  0  0  0  0  0  0  0  0  0
  -13.2554  -12.8635   13.6077 C   0  0  0  0  0  0  0  0  0  0  0  0
  -13.5388  -11.7621   12.8407 C   0  0  0  0  0  0  0  0  0  0  0  0
  -14.0901  -14.0664   13.2807 C   0  0  0  0  0  0  0  0  0  0  0  0
  -13.1335  -15.0408   12.8358 N   0  0  0  0  0  0  0  0  0  0  0  0
  -12.5325  -15.8460   13.8184 C   0  0  0  0  0  0  0  0  0  0  0  0
  -12.1547  -15.3512   15.1359 C   0  0  0  0  0  0  0  0  0  0  0  0
  -11.8565  -13.9879   15.3687 N   0  0  0  0  0  0  0  0  0  0  0  0
  -12.4739  -14.5469   12.1887 H   0  0  0  0  0  0  0  0  0  0  0  0
  -11.2262  -13.7492   16.1622 H   0  0  0  0  0  0  0  0  0  0  0  0
  -14.1743   -7.0941    8.5154 C   0  0  0  0  0  0  0  0  0  0  0  0
  -13.3881   -9.4671    6.5682 C   0  0  0  0  0  0  0  0  0  0  0  0
  -14.3348   -8.2945    6.2195 C   0  0  0  0  0  0  0  0  0  0  0  0
  -14.3716   -7.2437    7.0764 C   0  0  0  0  0  0  0  0  0  0  0  0
  -15.4227   -6.1238    6.1564 S   0  0  0  0  0  0  0  0  0  0  0  0
  -15.7275   -7.1011    4.7988 C   0  0  0  0  0  0  0  0  0  0  0  0
  -16.5261   -6.9572    3.6510 C   0  0  0  0  0  0  0  0  0  0  0  0
  -16.6353   -7.9589    2.7209 C   0  0  0  0  0  0  0  0  0  0  0  0
  -15.9067   -9.1033    2.9945 C   0  0  0  0  0  0  0  0  0  0  0  0
  -15.1443   -9.2496    4.0861 C   0  0  0  0  0  0  0  0  0  0  0  0
  -15.0226   -8.2335    5.0626 C   0  0  0  0  0  0  0  0  0  0  0  0
 21 22  1  0  0  0
 22 23  2  0  0  0
 23 20  1  0  0  0
 20  1  1  0  0  0
  1  2  1  0  0  0
  1  3  1  0  0  0
  3  4  2  0  0  0
  3  5  1  0  0  0
  5  6  2  0  0  0
  6  7  1  0  0  0
  7  8  2  0  0  0
  8  9  1  0  0  0
  9 10  2  0  0  0
 10 11  1  0  0  0
 11 12  2  0  0  0
 11 13  1  0  0  0
 13 14  1  0  0  0
 14 15  1  0  0  0
 15 16  1  0  0  0
 16 17  1  0  0  0
 23 24  1  0  0  0
 24 25  1  0  0  0
 25 26  2  0  0  0
 26 27  1  0  0  0
 27 28  2  0  0  0
 28 29  1  0  0  0
 29 30  2  0  0  0
 30 22  1  0  0  0
 12  7  1  0  0  0
 30 25  1  0  0  0
 17 10  1  0  0  0
 14 18  1  0  0  0
 17 19  1  0  0  0
M  END
> <minimizedAffinity>
24.95000

> <CNNscore>
0.2556138337

> <CNNaffinity>
5.9890012741

> <CNN_VS>
1.5308716297

> <CNNaffinity_variance>
0.2894521356

$$$$
[H]c1c([H])c([H])c(C([H])([H])N(C([H])([H])[H])C([H])([H])C([H])([H])OC(=O)C2=C(C([H])([H])[H])N=C(C([H])([H])[H])C([H])(C(=O)OC([H])([H])[H])C2([H])c2c([H])c([H])c([H])c([N+](=O)[O-])c2[H])c([H])c1[H]


 35 37  0  0  0  0  0  0  0  0999 V2000
  -13.5790   -7.9078    9.1015 C   0  0  0  0  0  0  0  0  0  0  0  0
  -12.8513   -8.9711    9.8019 C   0  0  0  0  0  0  0  0  0  0  0  0
  -13.5999   -9.6730   10.9233 C   0  0  0  0  0  0  0  0  0  0  0  0
  -11.6774   -9.3494    9.5579 N   0  0  0  0  0  0  0  0  0  0  0  0
  -10.9163   -8.7498    8.5276 C   0  0  0  0  0  0  0  0  0  0  0  0
   -9.5121   -9.2556    8.3260 C   0  0  0  0  0  0  0  0  0  0  0  0
  -11.4443   -7.7825    7.8075 C   0  0  0  0  0  0  0  0  0  0  0  0
  -12.8476   -7.2969    7.9999 C   0  0  0  0  0  0  0  0  0  0  0  0
  -13.5515   -7.4208    6.6875 C   0  0  0  0  0  0  0  0  0  0  0  0
  -13.6265   -8.5935    5.9880 C   0  0  0  0  0  0  0  0  0  0  0  0
  -14.3027   -8.6788    4.7879 C   0  0  0  0  0  0  0  0  0  0  0  0
  -14.9248   -7.5462    4.2735 C   0  0  0  0  0  0  0  0  0  0  0  0
  -14.8541   -6.3538    4.9754 C   0  0  0  0  0  0  0  0  0  0  0  0
  -14.1671   -6.3085    6.1744 C   0  0  0  0  0  0  0  0  0  0  0  0
  -15.4967   -5.2119    4.4314 N   0  0  0  0  0  0  0  0  0  0  0  0
  -16.7296   -5.2385    4.2931 O   0  0  0  0  0  0  0  0  0  0  0  0
  -14.8201   -4.0868    4.0535 O   0  0  0  0  0  0  0  0  0  0  0  0
  -13.9615   -6.9069   10.1698 C   0  0  0  0  0  0  0  0  0  0  0  0
  -14.8567   -7.1256   10.9855 O   0  0  0  0  0  0  0  0  0  0  0  0
  -12.1048   -5.5822   11.0213 C   0  0  0  0  0  0  0  0  0  0  0  0
  -13.2661   -5.7160   10.2077 O   0  0  0  0  0  0  0  0  0  0  0  0
  -10.6644   -7.1614    6.7488 C   0  0  0  0  0  0  0  0  0  0  0  0
  -11.2507   -6.2521    6.0477 O   0  0  0  0  0  0  0  0  0  0  0  0
   -9.3626   -7.4087    6.3803 O   0  0  0  0  0  0  0  0  0  0  0  0
   -8.3743   -6.4138    6.6989 C   0  0  0  0  0  0  0  0  0  0  0  0
   -7.1576   -6.5233    5.8709 C   0  0  0  0  0  0  0  0  0  0  0  0
   -5.9886   -7.0762    6.4234 N   0  0  0  0  0  0  0  0  0  0  0  0
   -5.9954   -8.3380    7.0142 C   0  0  0  0  0  0  0  0  0  0  0  0
   -5.3102   -6.0764    7.2013 C   0  0  0  0  0  0  0  0  0  0  0  0
   -4.1765   -5.4304    6.5120 C   0  0  0  0  0  0  0  0  0  0  0  0
   -3.5286   -5.9679    5.4149 C   0  0  0  0  0  0  0  0  0  0  0  0
   -2.4724   -5.3316    4.7991 C   0  0  0  0  0  0  0  0  0  0  0  0
   -2.0455   -4.1148    5.2944 C   0  0  0  0  0  0  0  0  0  0  0  0
   -2.6785   -3.5632    6.3867 C   0  0  0  0  0  0  0  0  0  0  0  0
   -3.7220   -4.2133    6.9787 C   0  0  0  0  0  0  0  0  0  0  0  0
 20 21  1  0  0  0
 21 18  1  0  0  0
 18 19  2  0  0  0
 18  1  1  0  0  0
  1  2  1  0  0  0
  2  3  1  0  0  0
  2  4  2  0  0  0
  4  5  1  0  0  0
  5  6  1  0  0  0
  5  7  2  0  0  0
  7 22  1  0  0  0
 22 23  2  0  0  0
 22 24  1  0  0  0
 24 25  1  0  0  0
 25 26  1  0  0  0
 26 27  1  0  0  0
 27 28  1  0  0  0
 27 29  1  0  0  0
 29 30  1  0  0  0
 30 31  2  0  0  0
 31 32  1  0  0  0
 32 33  2  0  0  0
 33 34  1  0  0  0
 34 35  2  0  0  0
  7  8  1  0  0  0
  8  9  1  0  0  0
  9 10  2  0  0  0
 10 11  1  0  0  0
 11 12  2  0  0  0
 12 13  1  0  0  0
 13 15  1  0  0  0
 15 16  2  0  0  0
 15 17  1  0  0  0
 13 14  2  0  0  0
  8  1  1  0  0  0
 14  9  1  0  0  0
 35 30  1  0  0  0
M  CHG 1  15   1
M  CHG 1  17  -1
M  END
> <minimizedAffinity>
0.49218

> <CNNscore>
0.5127003193

> <CNNaffinity>
6.8772339821

> <CNN_VS>
3.5259599686

> <CNNaffinity_variance>
0.7767806053

$$$$
[H]c1c([H])c([H])c(C([H])([H])N(C([H])([H])[H])C([H])([H])C([H])([H])OC(=O)C2=C(C([H])([H])[H])N=C(C([H])([H])[H])C([H])(C(=O)OC([H])([H])[H])C2([H])c2c([H])c([H])c([H])c([N+](=O)[O-])c2[H])c([H])c1[H]


 35 37  0  0  0  0  0  0  0  0999 V2000
   -8.9689  -11.6072    3.8662 C   0  0  0  0  0  0  0  0  0  0  0  0
   -8.0207  -10.9478    2.9624 C   0  0  0  0  0  0  0  0  0  0  0  0
   -7.8773  -11.5562    1.5768 C   0  0  0  0  0  0  0  0  0  0  0  0
   -7.3258   -9.9346    3.2295 N   0  0  0  0  0  0  0  0  0  0  0  0
   -7.4052   -9.3075    4.4946 C   0  0  0  0  0  0  0  0  0  0  0  0
   -6.5172   -8.1138    4.7278 C   0  0  0  0  0  0  0  0  0  0  0  0
   -8.2225   -9.7874    5.4084 C   0  0  0  0  0  0  0  0  0  0  0  0
   -9.1171  -10.9630    5.1642 C   0  0  0  0  0  0  0  0  0  0  0  0
  -10.5187  -10.5296    5.4479 C   0  0  0  0  0  0  0  0  0  0  0  0
  -11.3355   -9.9761    4.5010 C   0  0  0  0  0  0  0  0  0  0  0  0
  -12.6330   -9.6056    4.7910 C   0  0  0  0  0  0  0  0  0  0  0  0
  -13.1261   -9.7982    6.0772 C   0  0  0  0  0  0  0  0  0  0  0  0
  -12.3056  -10.3583    7.0430 C   0  0  0  0  0  0  0  0  0  0  0  0
  -11.0115  -10.7165    6.7136 C   0  0  0  0  0  0  0  0  0  0  0  0
  -12.8306  -10.5456    8.3477 N   0  0  0  0  0  0  0  0  0  0  0  0
  -12.7801  -11.6807    8.8467 O   0  0  0  0  0  0  0  0  0  0  0  0
  -13.3882   -9.5343    9.0775 O   0  0  0  0  0  0  0  0  0  0  0  0
   -8.4919  -13.0386    3.9799 C   0  0  0  0  0  0  0  0  0  0  0  0
   -7.7389  -13.5486    3.1507 O   0  0  0  0  0  0  0  0  0  0  0  0
   -9.1906  -13.1413    6.3099 C   0  0  0  0  0  0  0  0  0  0  0  0
   -8.9318  -13.7746    5.0607 O   0  0  0  0  0  0  0  0  0  0  0  0
   -8.3054   -9.1473    6.7115 C   0  0  0  0  0  0  0  0  0  0  0  0
   -7.7950   -7.9680    6.8168 O   0  0  0  0  0  0  0  0  0  0  0  0
   -8.8630   -9.6285    7.8731 O   0  0  0  0  0  0  0  0  0  0  0  0
   -9.7434   -8.7586    8.6054 C   0  0  0  0  0  0  0  0  0  0  0  0
   -9.8737   -7.4219    7.9940 C   0  0  0  0  0  0  0  0  0  0  0  0
  -11.1355   -6.8036    7.9374 N   0  0  0  0  0  0  0  0  0  0  0  0
  -11.6997   -6.2085    9.0638 C   0  0  0  0  0  0  0  0  0  0  0  0
  -12.0458   -7.6441    7.2095 C   0  0  0  0  0  0  0  0  0  0  0  0
  -13.2774   -6.9666    6.7601 C   0  0  0  0  0  0  0  0  0  0  0  0
  -14.4212   -6.8485    7.5283 C   0  0  0  0  0  0  0  0  0  0  0  0
  -15.5520   -6.2069    7.0708 C   0  0  0  0  0  0  0  0  0  0  0  0
  -15.5434   -5.6627    5.8012 C   0  0  0  0  0  0  0  0  0  0  0  0
  -14.4131   -5.7702    5.0209 C   0  0  0  0  0  0  0  0  0  0  0  0
  -13.3062   -6.4106    5.4968 C   0  0  0  0  0  0  0  0  0  0  0  0
 20 21  1  0  0  0
 21 18  1  0  0  0
 18 19  2  0  0  0
 18  1  1  0  0  0
  1  2  1  0  0  0
  2  3  1  0  0  0
  2  4  2  0  0  0
  4  5  1  0  0  0
  5  6  1  0  0  0
  5  7  2  0  0  0
  7 22  1  0  0  0
 22 23  2  0  0  0
 22 24  1  0  0  0
 24 25  1  0  0  0
 25 26  1  0  0  0
 26 27  1  0  0  0
 27 28  1  0  0  0
 27 29  1  0  0  0
 29 30  1  0  0  0
 30 31  2  0  0  0
 31 32  1  0  0  0
 32 33  2  0  0  0
 33 34  1  0  0  0
 34 35  2  0  0  0
  7  8  1  0  0  0
  8  9  1  0  0  0
  9 10  2  0  0  0
 10 11  1  0  0  0
 11 12  2  0  0  0
 12 13  1  0  0  0
 13 15  1  0  0  0
 15 16  2  0  0  0
 15 17  1  0  0  0
 13 14  2  0  0  0
  8  1  1  0  0  0
 14  9  1  0  0  0
 35 30  1  0  0  0
M  CHG 1  15   1
M  CHG 1  17  -1
M  END
> <minimizedAffinity>
18.99897

> <CNNscore>
0.4593186378

> <CNNaffinity>
6.4273300171

> <CNN_VS>
2.9521925449

> <CNNaffinity_variance>
0.5549586415

$$$$
[H]c1c([H])c([H])c(C([H])([H])N(C([H])([H])[H])C([H])([H])C([H])([H])OC(=O)C2=C(C([H])([H])[H])N=C(C([H])([H])[H])C([H])(C(=O)OC([H])([H])[H])C2([H])c2c([H])c([H])c([H])c([N+](=O)[O-])c2[H])c([H])c1[H]


 35 37  0  0  0  0  0  0  0  0999 V2000
  -14.3408   -8.9596    7.9122 C   0  0  0  0  0  0  0  0  0  0  0  0
  -13.5919  -10.1867    8.2024 C   0  0  0  0  0  0  0  0  0  0  0  0
  -14.3893  -11.3380    8.7936 C   0  0  0  0  0  0  0  0  0  0  0  0
  -12.3633  -10.3680    8.0061 N   0  0  0  0  0  0  0  0  0  0  0  0
  -11.5535   -9.3478    7.4552 C   0  0  0  0  0  0  0  0  0  0  0  0
  -10.0891   -9.6519    7.2786 C   0  0  0  0  0  0  0  0  0  0  0  0
  -12.0926   -8.1895    7.1378 C   0  0  0  0  0  0  0  0  0  0  0  0
  -13.5529   -7.8997    7.2979 C   0  0  0  0  0  0  0  0  0  0  0  0
  -14.0773   -7.4761    5.9642 C   0  0  0  0  0  0  0  0  0  0  0  0
  -14.1516   -8.3180    4.8891 C   0  0  0  0  0  0  0  0  0  0  0  0
  -14.6610   -7.9004    3.6762 C   0  0  0  0  0  0  0  0  0  0  0  0
  -15.1112   -6.5915    3.5398 C   0  0  0  0  0  0  0  0  0  0  0  0
  -15.0398   -5.7316    4.6237 C   0  0  0  0  0  0  0  0  0  0  0  0
  -14.5229   -6.1873    5.8223 C   0  0  0  0  0  0  0  0  0  0  0  0
  -15.5054   -4.4013    4.4610 N   0  0  0  0  0  0  0  0  0  0  0  0
  -14.6682   -3.4961    4.3202 O   0  0  0  0  0  0  0  0  0  0  0  0
  -16.8315   -4.0730    4.4526 O   0  0  0  0  0  0  0  0  0  0  0  0
  -14.9538   -8.5378    9.2297 C   0  0  0  0  0  0  0  0  0  0  0  0
  -16.1664   -8.5827    9.4351 O   0  0  0  0  0  0  0  0  0  0  0  0
  -13.6557   -6.7385   10.2322 C   0  0  0  0  0  0  0  0  0  0  0  0
  -14.1003   -8.0915   10.2175 O   0  0  0  0  0  0  0  0  0  0  0  0
  -11.2631   -7.1368    6.5736 C   0  0  0  0  0  0  0  0  0  0  0  0
  -11.8209   -6.3474    5.7203 O   0  0  0  0  0  0  0  0  0  0  0  0
   -9.9407   -6.8548    6.8253 O   0  0  0  0  0  0  0  0  0  0  0  0
   -9.4131   -7.2072    8.1159 C   0  0  0  0  0  0  0  0  0  0  0  0
   -8.0354   -6.7226    8.3278 C   0  0  0  0  0  0  0  0  0  0  0  0
   -6.9627   -7.3825    7.7021 N   0  0  0  0  0  0  0  0  0  0  0  0
   -7.1167   -8.6553    7.1566 C   0  0  0  0  0  0  0  0  0  0  0  0
   -5.7797   -7.2359    8.5044 C   0  0  0  0  0  0  0  0  0  0  0  0
   -4.8961   -6.1274    8.0942 C   0  0  0  0  0  0  0  0  0  0  0  0
   -4.1456   -5.3686    8.9735 C   0  0  0  0  0  0  0  0  0  0  0  0
   -3.3316   -4.3405    8.5492 C   0  0  0  0  0  0  0  0  0  0  0  0
   -3.2623   -4.0578    7.1989 C   0  0  0  0  0  0  0  0  0  0  0  0
   -4.0026   -4.8028    6.3072 C   0  0  0  0  0  0  0  0  0  0  0  0
   -4.8013   -5.8155    6.7527 C   0  0  0  0  0  0  0  0  0  0  0  0
 20 21  1  0  0  0
 21 18  1  0  0  0
 18 19  2  0  0  0
 18  1  1  0  0  0
  1  2  1  0  0  0
  2  3  1  0  0  0
  2  4  2  0  0  0
  4  5  1  0  0  0
  5  6  1  0  0  0
  5  7  2  0  0  0
  7 22  1  0  0  0
 22 23  2  0  0  0
 22 24  1  0  0  0
 24 25  1  0  0  0
 25 26  1  0  0  0
 26 27  1  0  0  0
 27 28  1  0  0  0
 27 29  1  0  0  0
 29 30  1  0  0  0
 30 31  2  0  0  0
 31 32  1  0  0  0
 32 33  2  0  0  0
 33 34  1  0  0  0
 34 35  2  0  0  0
  7  8  1  0  0  0
  8  9  1  0  0  0
  9 10  2  0  0  0
 10 11  1  0  0  0
 11 12  2  0  0  0
 12 13  1  0  0  0
 13 15  1  0  0  0
 15 16  2  0  0  0
 15 17  1  0  0  0
 13 14  2  0  0  0
  8  1  1  0  0  0
 14  9  1  0  0  0
 35 30  1  0  0  0
M  CHG 1  15   1
M  CHG 1  17  -1
M  END
> <minimizedAffinity>
1.86644

> <CNNscore>
0.4397591650

> <CNNaffinity>
6.7018623352

> <CNN_VS>
2.9472053051

> <CNNaffinity_variance>
0.4403632581

$$$$
[H]c1c([H])c([H])c(C([H])([H])N(C([H])([H])[H])C([H])([H])C([H])([H])OC(=O)C2=C(C([H])([H])[H])N=C(C([H])([H])[H])C([H])(C(=O)OC([H])([H])[H])C2([H])c2c([H])c([H])c([H])c([N+](=O)[O-])c2[H])c([H])c1[H]


 35 37  0  0  0  0  0  0  0  0999 V2000
   -8.4704   -6.9189    8.2375 C   0  0  0  0  0  0  0  0  0  0  0  0
   -8.7513   -6.4405    6.8799 C   0  0  0  0  0  0  0  0  0  0  0  0
  -10.1172   -5.8115    6.6570 C   0  0  0  0  0  0  0  0  0  0  0  0
   -7.9702   -6.5028    5.8966 N   0  0  0  0  0  0  0  0  0  0  0  0
   -6.6805   -7.0691    6.0234 C   0  0  0  0  0  0  0  0  0  0  0  0
   -5.8263   -7.1195    4.7841 C   0  0  0  0  0  0  0  0  0  0  0  0
   -6.2867   -7.5357    7.1897 C   0  0  0  0  0  0  0  0  0  0  0  0
   -7.1331   -7.4655    8.4228 C   0  0  0  0  0  0  0  0  0  0  0  0
   -6.3454   -6.7475    9.4702 C   0  0  0  0  0  0  0  0  0  0  0  0
   -6.5645   -6.9076   10.8105 C   0  0  0  0  0  0  0  0  0  0  0  0
   -5.8046   -6.2448   11.7528 C   0  0  0  0  0  0  0  0  0  0  0  0
   -4.7895   -5.3917   11.3330 C   0  0  0  0  0  0  0  0  0  0  0  0
   -4.5603   -5.2233    9.9770 C   0  0  0  0  0  0  0  0  0  0  0  0
   -5.3431   -5.9049    9.0638 C   0  0  0  0  0  0  0  0  0  0  0  0
   -3.5192   -4.3484    9.5726 N   0  0  0  0  0  0  0  0  0  0  0  0
   -2.5284   -4.2295   10.3103 O   0  0  0  0  0  0  0  0  0  0  0  0
   -3.5588   -3.6323    8.4099 O   0  0  0  0  0  0  0  0  0  0  0  0
   -9.5569   -7.9260    8.5451 C   0  0  0  0  0  0  0  0  0  0  0  0
  -10.4598   -7.6945    9.3487 O   0  0  0  0  0  0  0  0  0  0  0  0
   -8.2934   -9.8766    7.8196 C   0  0  0  0  0  0  0  0  0  0  0  0
   -9.5092   -9.1379    7.8875 O   0  0  0  0  0  0  0  0  0  0  0  0
   -4.9624   -8.1213    7.3239 C   0  0  0  0  0  0  0  0  0  0  0  0
   -4.9048   -9.3827    7.5841 O   0  0  0  0  0  0  0  0  0  0  0  0
   -3.7354   -7.5104    7.2096 O   0  0  0  0  0  0  0  0  0  0  0  0
   -2.8003   -8.0547    6.2623 C   0  0  0  0  0  0  0  0  0  0  0  0
   -1.5056   -7.3465    6.2576 C   0  0  0  0  0  0  0  0  0  0  0  0
   -1.4170   -6.0643    5.6868 N   0  0  0  0  0  0  0  0  0  0  0  0
   -1.0605   -4.9558    6.4519 C   0  0  0  0  0  0  0  0  0  0  0  0
   -2.5552   -5.8405    4.8387 C   0  0  0  0  0  0  0  0  0  0  0  0
   -2.2462   -5.1552    3.5688 C   0  0  0  0  0  0  0  0  0  0  0  0
   -1.3399   -5.6244    2.6357 C   0  0  0  0  0  0  0  0  0  0  0  0
   -1.0797   -4.9533    1.4603 C   0  0  0  0  0  0  0  0  0  0  0  0
   -1.7470   -3.7712    1.2045 C   0  0  0  0  0  0  0  0  0  0  0  0
   -2.6538   -3.2878    2.1222 C   0  0  0  0  0  0  0  0  0  0  0  0
   -2.8936   -3.9709    3.2788 C   0  0  0  0  0  0  0  0  0  0  0  0
 20 21  1  0  0  0
 21 18  1  0  0  0
 18 19  2  0  0  0
 18  1  1  0  0  0
  1  2  1  0  0  0
  2  3  1  0  0  0
  2  4  2  0  0  0
  4  5  1  0  0  0
  5  6  1  0  0  0
  5  7  2  0  0  0
  7 22  1  0  0  0
 22 23  2  0  0  0
 22 24  1  0  0  0
 24 25  1  0  0  0
 25 26  1  0  0  0
 26 27  1  0  0  0
 27 28  1  0  0  0
 27 29  1  0  0  0
 29 30  1  0  0  0
 30 31  2  0  0  0
 31 32  1  0  0  0
 32 33  2  0  0  0
 33 34  1  0  0  0
 34 35  2  0  0  0
  7  8  1  0  0  0
  8  9  1  0  0  0
  9 10  2  0  0  0
 10 11  1  0  0  0
 11 12  2  0  0  0
 12 13  1  0  0  0
 13 15  1  0  0  0
 15 16  2  0  0  0
 15 17  1  0  0  0
 13 14  2  0  0  0
  8  1  1  0  0  0
 14  9  1  0  0  0
 35 30  1  0  0  0
M  CHG 1  15   1
M  CHG 1  17  -1
M  END
> <minimizedAffinity>
1.41082

> <CNNscore>
0.4257369339

> <CNNaffinity>
6.0730834007

> <CNN_VS>
2.5855360031

> <CNNaffinity_variance>
1.2308629751

$$$$
[H]c1c([H])c([H])c(C([H])([H])N(C([H])([H])[H])C([H])([H])C([H])([H])OC(=O)C2=C(C([H])([H])[H])N=C(C([H])([H])[H])C([H])(C(=O)OC([H])([H])[H])C2([H])c2c([H])c([H])c([H])c([N+](=O)[O-])c2[H])c([H])c1[H]


 35 37  0  0  0  0  0  0  0  0999 V2000
   -8.9364  -11.6709    3.5081 C   0  0  0  0  0  0  0  0  0  0  0  0
   -7.9699  -11.0582    2.5909 C   0  0  0  0  0  0  0  0  0  0  0  0
   -7.9512  -11.6017    1.1714 C   0  0  0  0  0  0  0  0  0  0  0  0
   -7.1662  -10.1331    2.8721 N   0  0  0  0  0  0  0  0  0  0  0  0
   -7.1250   -9.5707    4.1691 C   0  0  0  0  0  0  0  0  0  0  0  0
   -6.1131   -8.4829    4.4155 C   0  0  0  0  0  0  0  0  0  0  0  0
   -7.9431  -10.0181    5.0984 C   0  0  0  0  0  0  0  0  0  0  0  0
   -8.9603  -11.0867    4.8422 C   0  0  0  0  0  0  0  0  0  0  0  0
  -10.2975  -10.5357    5.2180 C   0  0  0  0  0  0  0  0  0  0  0  0
  -11.1845  -10.0390    4.3033 C   0  0  0  0  0  0  0  0  0  0  0  0
  -12.4209   -9.5564    4.6818 C   0  0  0  0  0  0  0  0  0  0  0  0
  -12.7776   -9.5737    6.0260 C   0  0  0  0  0  0  0  0  0  0  0  0
  -11.8852  -10.0751    6.9597 C   0  0  0  0  0  0  0  0  0  0  0  0
  -10.6559  -10.5496    6.5413 C   0  0  0  0  0  0  0  0  0  0  0  0
  -12.2712  -10.0831    8.3250 N   0  0  0  0  0  0  0  0  0  0  0  0
  -13.3224  -10.6638    8.6376 O   0  0  0  0  0  0  0  0  0  0  0  0
  -11.5389   -9.4809    9.3086 O   0  0  0  0  0  0  0  0  0  0  0  0
   -8.5991  -13.1458    3.5264 C   0  0  0  0  0  0  0  0  0  0  0  0
   -7.7959  -13.6465    2.7399 O   0  0  0  0  0  0  0  0  0  0  0  0
   -8.9481  -13.7666    5.8546 C   0  0  0  0  0  0  0  0  0  0  0  0
   -9.2286  -13.9333    4.4682 O   0  0  0  0  0  0  0  0  0  0  0  0
   -7.9023   -9.4446    6.4341 C   0  0  0  0  0  0  0  0  0  0  0  0
   -7.9100   -8.1580    6.5181 O   0  0  0  0  0  0  0  0  0  0  0  0
   -7.8569  -10.0907    7.6474 O   0  0  0  0  0  0  0  0  0  0  0  0
   -8.1271   -9.3180    8.8298 C   0  0  0  0  0  0  0  0  0  0  0  0
   -8.3381   -7.8852    8.5469 C   0  0  0  0  0  0  0  0  0  0  0  0
   -9.6417   -7.3580    8.5645 N   0  0  0  0  0  0  0  0  0  0  0  0
  -10.2545   -6.9067    7.3974 C   0  0  0  0  0  0  0  0  0  0  0  0
   -9.7760   -6.4557    9.6748 C   0  0  0  0  0  0  0  0  0  0  0  0
  -11.1597   -6.0197    9.9446 C   0  0  0  0  0  0  0  0  0  0  0  0
  -11.5198   -4.7147   10.2270 C   0  0  0  0  0  0  0  0  0  0  0  0
  -12.8254   -4.3483   10.4734 C   0  0  0  0  0  0  0  0  0  0  0  0
  -13.8090   -5.3174   10.4371 C   0  0  0  0  0  0  0  0  0  0  0  0
  -13.4698   -6.6231   10.1574 C   0  0  0  0  0  0  0  0  0  0  0  0
  -12.1697   -6.9605    9.9172 C   0  0  0  0  0  0  0  0  0  0  0  0
 20 21  1  0  0  0
 21 18  1  0  0  0
 18 19  2  0  0  0
 18  1  1  0  0  0
  1  2  1  0  0  0
  2  3  1  0  0  0
  2  4  2  0  0  0
  4  5  1  0  0  0
  5  6  1  0  0  0
  5  7  2  0  0  0
  7 22  1  0  0  0
 22 23  2  0  0  0
 22 24  1  0  0  0
 24 25  1  0  0  0
 25 26  1  0  0  0
 26 27  1  0  0  0
 27 28  1  0  0  0
 27 29  1  0  0  0
 29 30  1  0  0  0
 30 31  2  0  0  0
 31 32  1  0  0  0
 32 33  2  0  0  0
 33 34  1  0  0  0
 34 35  2  0  0  0
  7  8  1  0  0  0
  8  9  1  0  0  0
  9 10  2  0  0  0
 10 11  1  0  0  0
 11 12  2  0  0  0
 12 13  1  0  0  0
 13 15  1  0  0  0
 15 16  2  0  0  0
 15 17  1  0  0  0
 13 14  2  0  0  0
  8  1  1  0  0  0
 14  9  1  0  0  0
 35 30  1  0  0  0
M  CHG 1  15   1
M  CHG 1  17  -1
M  END
> <minimizedAffinity>
16.93616

> <CNNscore>
0.4066815078

> <CNNaffinity>
6.2965097427

> <CNN_VS>
2.5606741905

> <CNNaffinity_variance>
0.4576440752

$$$$
[H]c1c([H])c([H])c(C([H])([H])N(C([H])([H])[H])C([H])([H])C([H])([H])OC(=O)C2=C(C([H])([H])[H])N=C(C([H])([H])[H])C([H])(C(=O)OC([H])([H])[H])C2([H])c2c([H])c([H])c([H])c([N+](=O)[O-])c2[H])c([H])c1[H]


 35 37  0  0  0  0  0  0  0  0999 V2000
  -10.6900   -6.4896   10.0910 C   0  0  0  0  0  0  0  0  0  0  0  0
  -10.9798   -5.8615    8.7978 C   0  0  0  0  0  0  0  0  0  0  0  0
  -12.3430   -5.2032    8.6596 C   0  0  0  0  0  0  0  0  0  0  0  0
  -10.2082   -5.8192    7.8060 N   0  0  0  0  0  0  0  0  0  0  0  0
   -8.9216   -6.4042    7.8563 C   0  0  0  0  0  0  0  0  0  0  0  0
   -8.0791   -6.3218    6.6106 C   0  0  0  0  0  0  0  0  0  0  0  0
   -8.5205   -6.9999    8.9596 C   0  0  0  0  0  0  0  0  0  0  0  0
   -9.3551   -7.0618   10.2013 C   0  0  0  0  0  0  0  0  0  0  0  0
   -8.5526   -6.4696   11.3140 C   0  0  0  0  0  0  0  0  0  0  0  0
   -9.1085   -6.0270   12.4824 C   0  0  0  0  0  0  0  0  0  0  0  0
   -8.3358   -5.5040   13.4995 C   0  0  0  0  0  0  0  0  0  0  0  0
   -6.9570   -5.4232   13.3360 C   0  0  0  0  0  0  0  0  0  0  0  0
   -6.3851   -5.8692   12.1555 C   0  0  0  0  0  0  0  0  0  0  0  0
   -7.1928   -6.3867   11.1599 C   0  0  0  0  0  0  0  0  0  0  0  0
   -4.9766   -5.7771   12.0116 N   0  0  0  0  0  0  0  0  0  0  0  0
   -4.3180   -5.2972   12.9475 O   0  0  0  0  0  0  0  0  0  0  0  0
   -4.3146   -6.1921   10.8910 O   0  0  0  0  0  0  0  0  0  0  0  0
  -11.7809   -7.5178   10.2957 C   0  0  0  0  0  0  0  0  0  0  0  0
  -12.7146   -7.3394   11.0773 O   0  0  0  0  0  0  0  0  0  0  0  0
  -12.7209   -9.0282    8.6334 C   0  0  0  0  0  0  0  0  0  0  0  0
  -11.7014   -8.6870    9.5677 O   0  0  0  0  0  0  0  0  0  0  0  0
   -7.1993   -7.6051    9.0149 C   0  0  0  0  0  0  0  0  0  0  0  0
   -7.1365   -8.8380    9.3865 O   0  0  0  0  0  0  0  0  0  0  0  0
   -5.9806   -7.0398    8.7202 O   0  0  0  0  0  0  0  0  0  0  0  0
   -5.2261   -7.6009    7.6320 C   0  0  0  0  0  0  0  0  0  0  0  0
   -3.9464   -6.9042    7.3978 C   0  0  0  0  0  0  0  0  0  0  0  0
   -3.9298   -5.5032    7.2772 N   0  0  0  0  0  0  0  0  0  0  0  0
   -4.5005   -4.6874    8.2520 C   0  0  0  0  0  0  0  0  0  0  0  0
   -4.2856   -5.1362    5.9343 C   0  0  0  0  0  0  0  0  0  0  0  0
   -3.1727   -5.2011    4.9674 C   0  0  0  0  0  0  0  0  0  0  0  0
   -2.4013   -6.3278    4.7483 C   0  0  0  0  0  0  0  0  0  0  0  0
   -1.3695   -6.3471    3.8347 C   0  0  0  0  0  0  0  0  0  0  0  0
   -1.0959   -5.2019    3.1124 C   0  0  0  0  0  0  0  0  0  0  0  0
   -1.8534   -4.0695    3.3166 C   0  0  0  0  0  0  0  0  0  0  0  0
   -2.8696   -4.0759    4.2273 C   0  0  0  0  0  0  0  0  0  0  0  0
 20 21  1  0  0  0
 21 18  1  0  0  0
 18 19  2  0  0  0
 18  1  1  0  0  0
  1  2  1  0  0  0
  2  3  1  0  0  0
  2  4  2  0  0  0
  4  5  1  0  0  0
  5  6  1  0  0  0
  5  7  2  0  0  0
  7 22  1  0  0  0
 22 23  2  0  0  0
 22 24  1  0  0  0
 24 25  1  0  0  0
 25 26  1  0  0  0
 26 27  1  0  0  0
 27 28  1  0  0  0
 27 29  1  0  0  0
 29 30  1  0  0  0
 30 31  2  0  0  0
 31 32  1  0  0  0
 32 33  2  0  0  0
 33 34  1  0  0  0
 34 35  2  0  0  0
  7  8  1  0  0  0
  8  9  1  0  0  0
  9 10  2  0  0  0
 10 11  1  0  0  0
 11 12  2  0  0  0
 12 13  1  0  0  0
 13 15  1  0  0  0
 15 16  2  0  0  0
 15 17  1  0  0  0
 13 14  2  0  0  0
  8  1  1  0  0  0
 14  9  1  0  0  0
 35 30  1  0  0  0
M  CHG 1  15   1
M  CHG 1  17  -1
M  END
> <minimizedAffinity>
11.47472

> <CNNscore>
0.4055945277

> <CNNaffinity>
5.7260332108

> <CNN_VS>
2.3224477768

> <CNNaffinity_variance>
0.4857543111

$$$$
[H]c1c([H])c([H])c(C([H])([H])N(C([H])([H])[H])C([H])([H])C([H])([H])OC(=O)C2=C(C([H])([H])[H])N=C(C([H])([H])[H])C([H])(C(=O)OC([H])([H])[H])C2([H])c2c([H])c([H])c([H])c([N+](=O)[O-])c2[H])c([H])c1[H]


 35 37  0  0  0  0  0  0  0  0999 V2000
   -7.0280   -6.8124    8.3195 C   0  0  0  0  0  0  0  0  0  0  0  0
   -7.5652   -6.3563    7.0334 C   0  0  0  0  0  0  0  0  0  0  0  0
   -9.0800   -6.3198    6.9115 C   0  0  0  0  0  0  0  0  0  0  0  0
   -6.8907   -5.9957    6.0355 N   0  0  0  0  0  0  0  0  0  0  0  0
   -5.4769   -5.9967    6.0707 C   0  0  0  0  0  0  0  0  0  0  0  0
   -4.7572   -5.5697    4.8186 C   0  0  0  0  0  0  0  0  0  0  0  0
   -4.8538   -6.3769    7.1663 C   0  0  0  0  0  0  0  0  0  0  0  0
   -5.5749   -6.7820    8.4144 C   0  0  0  0  0  0  0  0  0  0  0  0
   -5.0770   -5.9145    9.5246 C   0  0  0  0  0  0  0  0  0  0  0  0
   -4.3425   -4.7803    9.3142 C   0  0  0  0  0  0  0  0  0  0  0  0
   -3.9155   -3.9894   10.3617 C   0  0  0  0  0  0  0  0  0  0  0  0
   -4.2382   -4.3514   11.6652 C   0  0  0  0  0  0  0  0  0  0  0  0
   -4.9821   -5.4988   11.8878 C   0  0  0  0  0  0  0  0  0  0  0  0
   -5.3913   -6.2650   10.8122 C   0  0  0  0  0  0  0  0  0  0  0  0
   -5.2995   -5.8477   13.2259 N   0  0  0  0  0  0  0  0  0  0  0  0
   -5.8663   -5.0035   13.9372 O   0  0  0  0  0  0  0  0  0  0  0  0
   -5.0093   -7.0689   13.7651 O   0  0  0  0  0  0  0  0  0  0  0  0
   -7.5942   -8.2002    8.5260 C   0  0  0  0  0  0  0  0  0  0  0  0
   -8.6657   -8.3947    9.0993 O   0  0  0  0  0  0  0  0  0  0  0  0
   -7.4989  -10.5077    7.7553 C   0  0  0  0  0  0  0  0  0  0  0  0
   -6.8631   -9.2665    8.0445 O   0  0  0  0  0  0  0  0  0  0  0  0
   -3.4001   -6.3820    7.2060 C   0  0  0  0  0  0  0  0  0  0  0  0
   -2.8210   -7.5328    7.2553 O   0  0  0  0  0  0  0  0  0  0  0  0
   -2.5349   -5.3129    7.1972 O   0  0  0  0  0  0  0  0  0  0  0  0
   -1.7270   -5.1129    6.0244 C   0  0  0  0  0  0  0  0  0  0  0  0
   -1.0603   -3.7966    6.0007 C   0  0  0  0  0  0  0  0  0  0  0  0
   -1.6221   -2.7465    5.2528 N   0  0  0  0  0  0  0  0  0  0  0  0
   -1.6897   -1.4517    5.7630 C   0  0  0  0  0  0  0  0  0  0  0  0
   -2.8456   -3.1945    4.6467 C   0  0  0  0  0  0  0  0  0  0  0  0
   -2.8117   -3.2540    3.1726 C   0  0  0  0  0  0  0  0  0  0  0  0
   -1.9958   -4.1052    2.4500 C   0  0  0  0  0  0  0  0  0  0  0  0
   -1.9945   -4.1299    1.0720 C   0  0  0  0  0  0  0  0  0  0  0  0
   -2.8370   -3.2752    0.3881 C   0  0  0  0  0  0  0  0  0  0  0  0
   -3.6574   -2.4198    1.0905 C   0  0  0  0  0  0  0  0  0  0  0  0
   -3.6399   -2.4144    2.4549 C   0  0  0  0  0  0  0  0  0  0  0  0
 20 21  1  0  0  0
 21 18  1  0  0  0
 18 19  2  0  0  0
 18  1  1  0  0  0
  1  2  1  0  0  0
  2  3  1  0  0  0
  2  4  2  0  0  0
  4  5  1  0  0  0
  5  6  1  0  0  0
  5  7  2  0  0  0
  7 22  1  0  0  0
 22 23  2  0  0  0
 22 24  1  0  0  0
 24 25  1  0  0  0
 25 26  1  0  0  0
 26 27  1  0  0  0
 27 28  1  0  0  0
 27 29  1  0  0  0
 29 30  1  0  0  0
 30 31  2  0  0  0
 31 32  1  0  0  0
 32 33  2  0  0  0
 33 34  1  0  0  0
 34 35  2  0  0  0
  7  8  1  0  0  0
  8  9  1  0  0  0
  9 10  2  0  0  0
 10 11  1  0  0  0
 11 12  2  0  0  0
 12 13  1  0  0  0
 13 15  1  0  0  0
 15 16  2  0  0  0
 15 17  1  0  0  0
 13 14  2  0  0  0
  8  1  1  0  0  0
 14  9  1  0  0  0
 35 30  1  0  0  0
M  CHG 1  15   1
M  CHG 1  17  -1
M  END
> <minimizedAffinity>
-1.96451

> <CNNscore>
0.3737413287

> <CNNaffinity>
5.7334146500

> <CNN_VS>
2.1428139210

> <CNNaffinity_variance>
0.4638012946

$$$$
[H]c1c([H])c([H])c(C([H])([H])N(C([H])([H])[H])C([H])([H])C([H])([H])OC(=O)C2=C(C([H])([H])[H])N=C(C([H])([H])[H])C([H])(C(=O)OC([H])([H])[H])C2([H])c2c([H])c([H])c([H])c([N+](=O)[O-])c2[H])c([H])c1[H]


 35 37  0  0  0  0  0  0  0  0999 V2000
  -14.2331   -8.7212    8.2419 C   0  0  0  0  0  0  0  0  0  0  0  0
  -13.5929  -10.0404    8.2672 C   0  0  0  0  0  0  0  0  0  0  0  0
  -14.4644  -11.2031    8.7133 C   0  0  0  0  0  0  0  0  0  0  0  0
  -12.4011  -10.2908    7.9545 N   0  0  0  0  0  0  0  0  0  0  0  0
  -11.5277   -9.2647    7.5251 C   0  0  0  0  0  0  0  0  0  0  0  0
  -10.1125   -9.6595    7.1941 C   0  0  0  0  0  0  0  0  0  0  0  0
  -11.9679   -8.0265    7.4462 C   0  0  0  0  0  0  0  0  0  0  0  0
  -13.3813   -7.6432    7.7582 C   0  0  0  0  0  0  0  0  0  0  0  0
  -13.9365   -6.9506    6.5561 C   0  0  0  0  0  0  0  0  0  0  0  0
  -14.0088   -5.5894    6.4453 C   0  0  0  0  0  0  0  0  0  0  0  0
  -14.5083   -4.9807    5.3118 C   0  0  0  0  0  0  0  0  0  0  0  0
  -14.9502   -5.7675    4.2535 C   0  0  0  0  0  0  0  0  0  0  0  0
  -14.8807   -7.1474    4.3570 C   0  0  0  0  0  0  0  0  0  0  0  0
  -14.3740   -7.7198    5.5089 C   0  0  0  0  0  0  0  0  0  0  0  0
  -15.3369   -7.9294    3.2646 N   0  0  0  0  0  0  0  0  0  0  0  0
  -14.5338   -8.6981    2.7131 O   0  0  0  0  0  0  0  0  0  0  0  0
  -16.6181   -7.8737    2.7935 O   0  0  0  0  0  0  0  0  0  0  0  0
  -14.7262   -8.4829    9.6523 C   0  0  0  0  0  0  0  0  0  0  0  0
  -15.9036   -8.6423    9.9731 O   0  0  0  0  0  0  0  0  0  0  0  0
  -13.3767   -6.7150   10.6428 C   0  0  0  0  0  0  0  0  0  0  0  0
  -13.8022   -8.0733   10.5913 O   0  0  0  0  0  0  0  0  0  0  0  0
  -11.0725   -6.9679    7.0077 C   0  0  0  0  0  0  0  0  0  0  0  0
  -11.3109   -6.4410    5.8554 O   0  0  0  0  0  0  0  0  0  0  0  0
   -9.9850   -6.4351    7.6596 O   0  0  0  0  0  0  0  0  0  0  0  0
   -8.7887   -6.2078    6.8944 C   0  0  0  0  0  0  0  0  0  0  0  0
   -7.5928   -6.8295    7.4952 C   0  0  0  0  0  0  0  0  0  0  0  0
   -6.6139   -7.4006    6.6625 N   0  0  0  0  0  0  0  0  0  0  0  0
   -6.8660   -8.5698    5.9479 C   0  0  0  0  0  0  0  0  0  0  0  0
   -5.3490   -7.4002    7.3443 C   0  0  0  0  0  0  0  0  0  0  0  0
   -4.2357   -6.8218    6.5673 C   0  0  0  0  0  0  0  0  0  0  0  0
   -2.9737   -7.3815    6.4872 C   0  0  0  0  0  0  0  0  0  0  0  0
   -1.9601   -6.8090    5.7494 C   0  0  0  0  0  0  0  0  0  0  0  0
   -2.2127   -5.6355    5.0659 C   0  0  0  0  0  0  0  0  0  0  0  0
   -3.4639   -5.0627    5.1335 C   0  0  0  0  0  0  0  0  0  0  0  0
   -4.4507   -5.6492    5.8712 C   0  0  0  0  0  0  0  0  0  0  0  0
 20 21  1  0  0  0
 21 18  1  0  0  0
 18 19  2  0  0  0
 18  1  1  0  0  0
  1  2  1  0  0  0
  2  3  1  0  0  0
  2  4  2  0  0  0
  4  5  1  0  0  0
  5  6  1  0  0  0
  5  7  2  0  0  0
  7 22  1  0  0  0
 22 23  2  0  0  0
 22 24  1  0  0  0
 24 25  1  0  0  0
 25 26  1  0  0  0
 26 27  1  0  0  0
 27 28  1  0  0  0
 27 29  1  0  0  0
 29 30  1  0  0  0
 30 31  2  0  0  0
 31 32  1  0  0  0
 32 33  2  0  0  0
 33 34  1  0  0  0
 34 35  2  0  0  0
  7  8  1  0  0  0
  8  9  1  0  0  0
  9 10  2  0  0  0
 10 11  1  0  0  0
 11 12  2  0  0  0
 12 13  1  0  0  0
 13 15  1  0  0  0
 15 16  2  0  0  0
 15 17  1  0  0  0
 13 14  2  0  0  0
  8  1  1  0  0  0
 14  9  1  0  0  0
 35 30  1  0  0  0
M  CHG 1  15   1
M  CHG 1  17  -1
M  END
> <minimizedAffinity>
1.45909

> <CNNscore>
0.3718490005

> <CNNaffinity>
6.6300573349

> <CNN_VS>
2.4653801918

> <CNNaffinity_variance>
0.2571045458

$$$$
[H]c1c([H])c([H])c(C([H])([H])N(C([H])([H])[H])C([H])([H])C([H])([H])OC(=O)C2=C(C([H])([H])[H])N=C(C([H])([H])[H])C([H])(C(=O)OC([H])([H])[H])C2([H])c2c([H])c([H])c([H])c([N+](=O)[O-])c2[H])c([H])c1[H]


 35 37  0  0  0  0  0  0  0  0999 V2000
  -12.5541   -5.8787   10.7688 C   0  0  0  0  0  0  0  0  0  0  0  0
  -11.3466   -5.9721   11.5957 C   0  0  0  0  0  0  0  0  0  0  0  0
  -11.5172   -5.6607   13.0738 C   0  0  0  0  0  0  0  0  0  0  0  0
  -10.1969   -6.2849   11.1943 N   0  0  0  0  0  0  0  0  0  0  0  0
   -9.9568   -6.5932    9.8351 C   0  0  0  0  0  0  0  0  0  0  0  0
   -8.5423   -6.9341    9.4464 C   0  0  0  0  0  0  0  0  0  0  0  0
  -10.9522   -6.5572    8.9743 C   0  0  0  0  0  0  0  0  0  0  0  0
  -12.3601   -6.2363    9.3702 C   0  0  0  0  0  0  0  0  0  0  0  0
  -13.2228   -7.3743    8.9300 C   0  0  0  0  0  0  0  0  0  0  0  0
  -13.0980   -8.6421    9.4273 C   0  0  0  0  0  0  0  0  0  0  0  0
  -13.9254   -9.6666    9.0143 C   0  0  0  0  0  0  0  0  0  0  0  0
  -14.9120   -9.4076    8.0688 C   0  0  0  0  0  0  0  0  0  0  0  0
  -15.0456   -8.1261    7.5594 C   0  0  0  0  0  0  0  0  0  0  0  0
  -14.1975   -7.1263    7.9982 C   0  0  0  0  0  0  0  0  0  0  0  0
  -16.0594   -7.8856    6.5963 N   0  0  0  0  0  0  0  0  0  0  0  0
  -15.7318   -7.3938    5.5050 O   0  0  0  0  0  0  0  0  0  0  0  0
  -17.3773   -8.1703    6.8165 O   0  0  0  0  0  0  0  0  0  0  0  0
  -13.0550   -4.4614   10.9413 C   0  0  0  0  0  0  0  0  0  0  0  0
  -14.1030   -4.2016   11.5318 O   0  0  0  0  0  0  0  0  0  0  0  0
  -12.9030   -2.2445    9.9466 C   0  0  0  0  0  0  0  0  0  0  0  0
  -12.2902   -3.4444   10.4083 O   0  0  0  0  0  0  0  0  0  0  0  0
  -10.7093   -6.8710    7.5752 C   0  0  0  0  0  0  0  0  0  0  0  0
   -9.8663   -6.1248    6.9469 O   0  0  0  0  0  0  0  0  0  0  0  0
  -11.2603   -7.8716    6.8092 O   0  0  0  0  0  0  0  0  0  0  0  0
  -10.9237   -9.2307    7.1373 C   0  0  0  0  0  0  0  0  0  0  0  0
  -10.2183   -9.9300    6.0459 C   0  0  0  0  0  0  0  0  0  0  0  0
   -9.1416  -10.7826    6.3485 N   0  0  0  0  0  0  0  0  0  0  0  0
   -9.3169  -12.1614    6.4453 C   0  0  0  0  0  0  0  0  0  0  0  0
   -8.3760  -10.2193    7.4261 C   0  0  0  0  0  0  0  0  0  0  0  0
   -7.3435   -9.2535    7.0032 C   0  0  0  0  0  0  0  0  0  0  0  0
   -6.5256   -8.5611    7.8772 C   0  0  0  0  0  0  0  0  0  0  0  0
   -5.5721   -7.6667    7.4409 C   0  0  0  0  0  0  0  0  0  0  0  0
   -5.4277   -7.4539    6.0837 C   0  0  0  0  0  0  0  0  0  0  0  0
   -6.2333   -8.1345    5.1972 C   0  0  0  0  0  0  0  0  0  0  0  0
   -7.1702   -9.0148    5.6545 C   0  0  0  0  0  0  0  0  0  0  0  0
 20 21  1  0  0  0
 21 18  1  0  0  0
 18 19  2  0  0  0
 18  1  1  0  0  0
  1  2  1  0  0  0
  2  3  1  0  0  0
  2  4  2  0  0  0
  4  5  1  0  0  0
  5  6  1  0  0  0
  5  7  2  0  0  0
  7 22  1  0  0  0
 22 23  2  0  0  0
 22 24  1  0  0  0
 24 25  1  0  0  0
 25 26  1  0  0  0
 26 27  1  0  0  0
 27 28  1  0  0  0
 27 29  1  0  0  0
 29 30  1  0  0  0
 30 31  2  0  0  0
 31 32  1  0  0  0
 32 33  2  0  0  0
 33 34  1  0  0  0
 34 35  2  0  0  0
  7  8  1  0  0  0
  8  9  1  0  0  0
  9 10  2  0  0  0
 10 11  1  0  0  0
 11 12  2  0  0  0
 12 13  1  0  0  0
 13 15  1  0  0  0
 15 16  2  0  0  0
 15 17  1  0  0  0
 13 14  2  0  0  0
  8  1  1  0  0  0
 14  9  1  0  0  0
 35 30  1  0  0  0
M  CHG 1  15   1
M  CHG 1  17  -1
M  END
> <minimizedAffinity>
5.11437

> <CNNscore>
0.3627503514

> <CNNaffinity>
6.3043379784

> <CNN_VS>
2.2869007587

> <CNNaffinity_variance>
0.3518268764

$$$$
[H]/C(=C(\[H])C([H])([H])C([H])([H])C([H])([H])C([H])([H])C([H])([H])C([H])([H])C([H])([H])C([H])([H])[H])C([H])([H])C([H])([H])C([H])([H])C([H])([H])C([H])([H])C([H])([H])C([H])([H])C(=O)c1nc2c([H])c([H])c([H])nc2o1


 28 29  0  0  0  0  0  0  0  0999 V2000
   -9.5390   -7.1803    8.4274 C   0  0  0  0  0  0  0  0  0  0  0  0
  -10.9675   -7.4384    8.4829 C   0  0  0  0  0  0  0  0  0  0  0  0
  -11.6084   -8.6783    8.0503 C   0  0  0  0  0  0  0  0  0  0  0  0
  -12.7527   -9.2091    8.8532 C   0  0  0  0  0  0  0  0  0  0  0  0
  -13.8425   -8.1686    8.9516 C   0  0  0  0  0  0  0  0  0  0  0  0
  -14.1246   -7.7064   10.0761 O   0  0  0  0  0  0  0  0  0  0  0  0
  -14.5416   -7.7183    7.7808 C   0  0  0  0  0  0  0  0  0  0  0  0
  -14.2895   -6.5725    7.0999 N   0  0  0  0  0  0  0  0  0  0  0  0
  -15.1345   -6.4687    6.0573 C   0  0  0  0  0  0  0  0  0  0  0  0
  -15.3571   -5.5715    5.0495 C   0  0  0  0  0  0  0  0  0  0  0  0
  -16.3471   -5.8086    4.1301 C   0  0  0  0  0  0  0  0  0  0  0  0
  -17.1046   -6.9591    4.2435 C   0  0  0  0  0  0  0  0  0  0  0  0
  -16.8931   -7.8593    5.2414 N   0  0  0  0  0  0  0  0  0  0  0  0
  -15.9216   -7.6168    6.1351 C   0  0  0  0  0  0  0  0  0  0  0  0
  -15.5319   -8.3268    7.1741 O   0  0  0  0  0  0  0  0  0  0  0  0
   -8.7275   -7.4485    7.2274 C   0  0  0  0  0  0  0  0  0  0  0  0
   -8.1473   -8.8183    7.1462 C   0  0  0  0  0  0  0  0  0  0  0  0
   -6.6983   -8.8656    6.6849 C   0  0  0  0  0  0  0  0  0  0  0  0
   -5.1066   -7.0388    6.4426 C   0  0  0  0  0  0  0  0  0  0  0  0
   -6.3019   -7.5291    6.2249 C   0  0  0  0  0  0  0  0  0  0  0  0
   -4.0518   -7.7339    7.1456 C   0  0  0  0  0  0  0  0  0  0  0  0
   -2.9098   -6.8138    7.5720 C   0  0  0  0  0  0  0  0  0  0  0  0
   -3.3387   -5.3956    7.6523 C   0  0  0  0  0  0  0  0  0  0  0  0
   -2.9368   -4.6803    8.9419 C   0  0  0  0  0  0  0  0  0  0  0  0
   -3.0124   -3.2070    8.8125 C   0  0  0  0  0  0  0  0  0  0  0  0
   -3.4421   -2.3913    9.9644 C   0  0  0  0  0  0  0  0  0  0  0  0
   -2.2279   -0.2247    9.9308 C   0  0  0  0  0  0  0  0  0  0  0  0
   -3.5423   -0.9217    9.8313 C   0  0  0  0  0  0  0  0  0  0  0  0
 27 28  1  0  0  0
 28 26  1  0  0  0
 26 25  1  0  0  0
 25 24  1  0  0  0
 24 23  1  0  0  0
 23 22  1  0  0  0
 22 21  1  0  0  0
 21 19  1  0  0  0
 19 20  2  0  0  0
 20 18  1  0  0  0
 18 17  1  0  0  0
 17 16  1  0  0  0
 16  1  1  0  0  0
  1  2  1  0  0  0
  2  3  1  0  0  0
  3  4  1  0  0  0
  4  5  1  0  0  0
  5  6  2  0  0  0
  5  7  1  0  0  0
  7  8  2  0  0  0
  8  9  1  0  0  0
  9 10  2  0  0  0
 10 11  1  0  0  0
 11 12  2  0  0  0
 12 13  1  0  0  0
 13 14  2  0  0  0
 14 15  1  0  0  0
 15  7  1  0  0  0
 14  9  1  0  0  0
M  END
> <minimizedAffinity>
-6.09640

> <CNNscore>
0.4171448350

> <CNNaffinity>
6.7465085983

> <CNN_VS>
2.8142712116

> <CNNaffinity_variance>
0.1416952312

$$$$
[H]/C(=C(\[H])C([H])([H])C([H])([H])C([H])([H])C([H])([H])C([H])([H])C([H])([H])C([H])([H])C([H])([H])[H])C([H])([H])C([H])([H])C([H])([H])C([H])([H])C([H])([H])C([H])([H])C([H])([H])C(=O)c1nc2c([H])c([H])c([H])nc2o1


 28 29  0  0  0  0  0  0  0  0999 V2000
   -9.3438   -6.8707    7.9135 C   0  0  0  0  0  0  0  0  0  0  0  0
  -10.4752   -6.8860    8.8245 C   0  0  0  0  0  0  0  0  0  0  0  0
  -11.6698   -7.7106    8.6569 C   0  0  0  0  0  0  0  0  0  0  0  0
  -13.0102   -7.0555    8.7568 C   0  0  0  0  0  0  0  0  0  0  0  0
  -14.0434   -7.8767    8.0232 C   0  0  0  0  0  0  0  0  0  0  0  0
  -14.1805   -9.0775    8.3349 O   0  0  0  0  0  0  0  0  0  0  0  0
  -14.8521   -7.2939    6.9894 C   0  0  0  0  0  0  0  0  0  0  0  0
  -15.9972   -7.8207    6.4884 N   0  0  0  0  0  0  0  0  0  0  0  0
  -16.4901   -7.0103    5.5333 C   0  0  0  0  0  0  0  0  0  0  0  0
  -17.5749   -7.0075    4.7008 C   0  0  0  0  0  0  0  0  0  0  0  0
  -17.7585   -5.9710    3.8213 C   0  0  0  0  0  0  0  0  0  0  0  0
  -16.8349   -4.9431    3.7958 C   0  0  0  0  0  0  0  0  0  0  0  0
  -15.7517   -4.9341    4.6188 N   0  0  0  0  0  0  0  0  0  0  0  0
  -15.5824   -5.9537    5.4751 C   0  0  0  0  0  0  0  0  0  0  0  0
  -14.6281   -6.1670    6.3579 O   0  0  0  0  0  0  0  0  0  0  0  0
   -8.3235   -7.9332    7.8933 C   0  0  0  0  0  0  0  0  0  0  0  0
   -7.0453   -7.5996    8.5822 C   0  0  0  0  0  0  0  0  0  0  0  0
   -5.8059   -7.7149    7.7073 C   0  0  0  0  0  0  0  0  0  0  0  0
   -4.8093   -5.8362    6.5214 C   0  0  0  0  0  0  0  0  0  0  0  0
   -5.8272   -6.6395    6.7084 C   0  0  0  0  0  0  0  0  0  0  0  0
   -3.5662   -5.9047    7.2561 C   0  0  0  0  0  0  0  0  0  0  0  0
   -3.3067   -4.6649    8.1096 C   0  0  0  0  0  0  0  0  0  0  0  0
   -3.1408   -5.0027    9.5449 C   0  0  0  0  0  0  0  0  0  0  0  0
   -4.2498   -4.4766   10.4557 C   0  0  0  0  0  0  0  0  0  0  0  0
   -4.4792   -5.3560   11.6249 C   0  0  0  0  0  0  0  0  0  0  0  0
   -5.3263   -4.8882   12.7387 C   0  0  0  0  0  0  0  0  0  0  0  0
   -3.3558   -4.0155   13.9736 C   0  0  0  0  0  0  0  0  0  0  0  0
   -4.7212   -4.6087   14.0589 C   0  0  0  0  0  0  0  0  0  0  0  0
 27 28  1  0  0  0
 28 26  1  0  0  0
 26 25  1  0  0  0
 25 24  1  0  0  0
 24 23  1  0  0  0
 23 22  1  0  0  0
 22 21  1  0  0  0
 21 19  1  0  0  0
 19 20  2  0  0  0
 20 18  1  0  0  0
 18 17  1  0  0  0
 17 16  1  0  0  0
 16  1  1  0  0  0
  1  2  1  0  0  0
  2  3  1  0  0  0
  3  4  1  0  0  0
  4  5  1  0  0  0
  5  6  2  0  0  0
  5  7  1  0  0  0
  7  8  2  0  0  0
  8  9  1  0  0  0
  9 10  2  0  0  0
 10 11  1  0  0  0
 11 12  2  0  0  0
 12 13  1  0  0  0
 13 14  2  0  0  0
 14 15  1  0  0  0
 15  7  1  0  0  0
 14  9  1  0  0  0
M  END
> <minimizedAffinity>
-5.92183

> <CNNscore>
0.3893603683

> <CNNaffinity>
6.6206040382

> <CNN_VS>
2.5778007507

> <CNNaffinity_variance>
0.1627031118

$$$$
[H]/C(=C(\[H])C([H])([H])C([H])([H])C([H])([H])C([H])([H])C([H])([H])C([H])([H])C([H])([H])C([H])([H])[H])C([H])([H])C([H])([H])C([H])([H])C([H])([H])C([H])([H])C([H])([H])C([H])([H])C(=O)c1nc2c([H])c([H])c([H])nc2o1


 28 29  0  0  0  0  0  0  0  0999 V2000
  -10.5009  -10.2888    6.8312 C   0  0  0  0  0  0  0  0  0  0  0  0
  -11.7533   -9.5632    6.7082 C   0  0  0  0  0  0  0  0  0  0  0  0
  -12.9920   -9.9144    7.3994 C   0  0  0  0  0  0  0  0  0  0  0  0
  -13.5092   -8.9888    8.4536 C   0  0  0  0  0  0  0  0  0  0  0  0
  -13.7480   -7.6181    7.8669 C   0  0  0  0  0  0  0  0  0  0  0  0
  -13.0672   -6.6619    8.2913 O   0  0  0  0  0  0  0  0  0  0  0  0
  -14.7352   -7.4142    6.8441 C   0  0  0  0  0  0  0  0  0  0  0  0
  -15.8005   -8.2177    6.6006 N   0  0  0  0  0  0  0  0  0  0  0  0
  -16.5142   -7.7259    5.5707 C   0  0  0  0  0  0  0  0  0  0  0  0
  -17.6470   -8.0818    4.8923 C   0  0  0  0  0  0  0  0  0  0  0  0
  -18.0935   -7.3053    3.8535 C   0  0  0  0  0  0  0  0  0  0  0  0
  -17.3826   -6.1703    3.5123 C   0  0  0  0  0  0  0  0  0  0  0  0
  -16.2544   -5.8053    4.1792 N   0  0  0  0  0  0  0  0  0  0  0  0
  -15.8270   -6.5729    5.1939 C   0  0  0  0  0  0  0  0  0  0  0  0
  -14.7786   -6.4301    5.9789 O   0  0  0  0  0  0  0  0  0  0  0  0
   -9.2710   -9.6707    7.3564 C   0  0  0  0  0  0  0  0  0  0  0  0
   -9.3431   -8.1986    7.5746 C   0  0  0  0  0  0  0  0  0  0  0  0
   -8.2176   -7.4067    6.9261 C   0  0  0  0  0  0  0  0  0  0  0  0
   -5.8351   -7.9046    6.8539 C   0  0  0  0  0  0  0  0  0  0  0  0
   -7.0747   -8.3005    6.7026 C   0  0  0  0  0  0  0  0  0  0  0  0
   -5.4440   -6.5706    7.2506 C   0  0  0  0  0  0  0  0  0  0  0  0
   -4.1766   -6.5471    8.1025 C   0  0  0  0  0  0  0  0  0  0  0  0
   -2.9734   -6.2149    7.3001 C   0  0  0  0  0  0  0  0  0  0  0  0
   -2.7365   -7.1292    6.0984 C   0  0  0  0  0  0  0  0  0  0  0  0
   -2.0869   -8.4033    6.4829 C   0  0  0  0  0  0  0  0  0  0  0  0
   -1.1533   -9.0610    5.5488 C   0  0  0  0  0  0  0  0  0  0  0  0
   -1.0697  -10.6364    3.6303 C   0  0  0  0  0  0  0  0  0  0  0  0
   -1.4392  -10.4272    5.0596 C   0  0  0  0  0  0  0  0  0  0  0  0
 27 28  1  0  0  0
 28 26  1  0  0  0
 26 25  1  0  0  0
 25 24  1  0  0  0
 24 23  1  0  0  0
 23 22  1  0  0  0
 22 21  1  0  0  0
 21 19  1  0  0  0
 19 20  2  0  0  0
 20 18  1  0  0  0
 18 17  1  0  0  0
 17 16  1  0  0  0
 16  1  1  0  0  0
  1  2  1  0  0  0
  2  3  1  0  0  0
  3  4  1  0  0  0
  4  5  1  0  0  0
  5  6  2  0  0  0
  5  7  1  0  0  0
  7  8  2  0  0  0
  8  9  1  0  0  0
  9 10  2  0  0  0
 10 11  1  0  0  0
 11 12  2  0  0  0
 12 13  1  0  0  0
 13 14  2  0  0  0
 14 15  1  0  0  0
 15  7  1  0  0  0
 14  9  1  0  0  0
M  END
> <minimizedAffinity>
-6.41787

> <CNNscore>
0.3889120519

> <CNNaffinity>
6.6966805458

> <CNN_VS>
2.6044197083

> <CNNaffinity_variance>
0.0880725682

$$$$
[H]/C(=C(\[H])C([H])([H])C([H])([H])C([H])([H])C([H])([H])C([H])([H])C([H])([H])C([H])([H])C([H])([H])[H])C([H])([H])C([H])([H])C([H])([H])C([H])([H])C([H])([H])C([H])([H])C([H])([H])C(=O)c1nc2c([H])c([H])c([H])nc2o1


 28 29  0  0  0  0  0  0  0  0999 V2000
   -5.6746   -6.7835    6.1457 C   0  0  0  0  0  0  0  0  0  0  0  0
   -6.0123   -8.0643    6.7420 C   0  0  0  0  0  0  0  0  0  0  0  0
   -7.2315   -8.8194    6.4615 C   0  0  0  0  0  0  0  0  0  0  0  0
   -7.8976   -9.5448    7.5866 C   0  0  0  0  0  0  0  0  0  0  0  0
   -9.3833   -9.6391    7.3340 C   0  0  0  0  0  0  0  0  0  0  0  0
   -9.7953  -10.4852    6.5142 O   0  0  0  0  0  0  0  0  0  0  0  0
  -10.3052   -8.7768    8.0188 C   0  0  0  0  0  0  0  0  0  0  0  0
  -10.0271   -7.5359    8.4907 N   0  0  0  0  0  0  0  0  0  0  0  0
  -11.1222   -7.0169    9.0765 C   0  0  0  0  0  0  0  0  0  0  0  0
  -11.4467   -5.8486    9.7088 C   0  0  0  0  0  0  0  0  0  0  0  0
  -12.7151   -5.6659   10.1980 C   0  0  0  0  0  0  0  0  0  0  0  0
  -13.6456   -6.6756   10.0396 C   0  0  0  0  0  0  0  0  0  0  0  0
  -13.3354   -7.8424    9.4126 N   0  0  0  0  0  0  0  0  0  0  0  0
  -12.0911   -8.0098    8.9380 C   0  0  0  0  0  0  0  0  0  0  0  0
  -11.5586   -9.0345    8.3040 O   0  0  0  0  0  0  0  0  0  0  0  0
   -4.6906   -5.8628    6.7411 C   0  0  0  0  0  0  0  0  0  0  0  0
   -4.0924   -6.3177    8.0275 C   0  0  0  0  0  0  0  0  0  0  0  0
   -4.3926   -5.4192    9.2180 C   0  0  0  0  0  0  0  0  0  0  0  0
   -2.3856   -4.2291    9.9144 C   0  0  0  0  0  0  0  0  0  0  0  0
   -3.1729   -5.2709   10.0212 C   0  0  0  0  0  0  0  0  0  0  0  0
   -2.6119   -3.1203    9.0148 C   0  0  0  0  0  0  0  0  0  0  0  0
   -3.3615   -1.9620    9.6697 C   0  0  0  0  0  0  0  0  0  0  0  0
   -3.5106   -0.8060    8.7514 C   0  0  0  0  0  0  0  0  0  0  0  0
   -3.2208   -1.1171    7.2832 C   0  0  0  0  0  0  0  0  0  0  0  0
   -4.0664   -0.3212    6.3642 C   0  0  0  0  0  0  0  0  0  0  0  0
   -4.7540   -0.9857    5.2406 C   0  0  0  0  0  0  0  0  0  0  0  0
   -4.0345   -3.1475    4.2515 C   0  0  0  0  0  0  0  0  0  0  0  0
   -3.9643   -1.6595    4.1871 C   0  0  0  0  0  0  0  0  0  0  0  0
 27 28  1  0  0  0
 28 26  1  0  0  0
 26 25  1  0  0  0
 25 24  1  0  0  0
 24 23  1  0  0  0
 23 22  1  0  0  0
 22 21  1  0  0  0
 21 19  1  0  0  0
 19 20  2  0  0  0
 20 18  1  0  0  0
 18 17  1  0  0  0
 17 16  1  0  0  0
 16  1  1  0  0  0
  1  2  1  0  0  0
  2  3  1  0  0  0
  3  4  1  0  0  0
  4  5  1  0  0  0
  5  6  2  0  0  0
  5  7  1  0  0  0
  7  8  2  0  0  0
  8  9  1  0  0  0
  9 10  2  0  0  0
 10 11  1  0  0  0
 11 12  2  0  0  0
 12 13  1  0  0  0
 13 14  2  0  0  0
 14 15  1  0  0  0
 15  7  1  0  0  0
 14  9  1  0  0  0
M  END
> <minimizedAffinity>
-5.54103

> <CNNscore>
0.3389531076

> <CNNaffinity>
6.2240691185

> <CNN_VS>
2.1096675396

> <CNNaffinity_variance>
0.0940705091

$$$$
[H]/C(=C(\[H])C([H])([H])C([H])([H])C([H])([H])C([H])([H])C([H])([H])C([H])([H])C([H])([H])C([H])([H])[H])C([H])([H])C([H])([H])C([H])([H])C([H])([H])C([H])([H])C([H])([H])C([H])([H])C(=O)c1nc2c([H])c([H])c([H])nc2o1


 28 29  0  0  0  0  0  0  0  0999 V2000
   -6.0504   -8.3805    6.1996 C   0  0  0  0  0  0  0  0  0  0  0  0
   -4.6916   -8.0981    6.6287 C   0  0  0  0  0  0  0  0  0  0  0  0
   -4.2855   -6.9192    7.3907 C   0  0  0  0  0  0  0  0  0  0  0  0
   -2.8695   -6.4512    7.2826 C   0  0  0  0  0  0  0  0  0  0  0  0
   -2.8158   -4.9439    7.3539 C   0  0  0  0  0  0  0  0  0  0  0  0
   -2.8972   -4.2942    6.2913 O   0  0  0  0  0  0  0  0  0  0  0  0
   -2.6738   -4.2686    8.6134 C   0  0  0  0  0  0  0  0  0  0  0  0
   -2.8034   -2.9335    8.8149 N   0  0  0  0  0  0  0  0  0  0  0  0
   -2.6050   -2.6493   10.1155 C   0  0  0  0  0  0  0  0  0  0  0  0
   -2.6046   -1.5249   10.8939 C   0  0  0  0  0  0  0  0  0  0  0  0
   -2.3507   -1.6247   12.2382 C   0  0  0  0  0  0  0  0  0  0  0  0
   -2.0986   -2.8704   12.7813 C   0  0  0  0  0  0  0  0  0  0  0  0
   -2.0960   -3.9964   12.0178 N   0  0  0  0  0  0  0  0  0  0  0  0
   -2.3458   -3.8865   10.7036 C   0  0  0  0  0  0  0  0  0  0  0  0
   -2.3978   -4.8166    9.7721 O   0  0  0  0  0  0  0  0  0  0  0  0
   -7.1009   -8.8321    7.1285 C   0  0  0  0  0  0  0  0  0  0  0  0
   -8.4087   -8.1303    6.9981 C   0  0  0  0  0  0  0  0  0  0  0  0
   -9.2421   -8.1031    8.2707 C   0  0  0  0  0  0  0  0  0  0  0  0
  -11.6015   -7.8408    7.7287 C   0  0  0  0  0  0  0  0  0  0  0  0
  -10.4475   -7.2999    8.0325 C   0  0  0  0  0  0  0  0  0  0  0  0
  -11.8295   -9.2619    7.5931 C   0  0  0  0  0  0  0  0  0  0  0  0
  -12.8015   -9.6070    6.4666 C   0  0  0  0  0  0  0  0  0  0  0  0
  -14.0976   -8.8999    6.6145 C   0  0  0  0  0  0  0  0  0  0  0  0
  -14.5427   -8.1198    5.3776 C   0  0  0  0  0  0  0  0  0  0  0  0
  -14.7733   -6.6869    5.6718 C   0  0  0  0  0  0  0  0  0  0  0  0
  -16.0374   -6.0481    5.2584 C   0  0  0  0  0  0  0  0  0  0  0  0
  -14.7045   -4.1955    4.2781 C   0  0  0  0  0  0  0  0  0  0  0  0
  -16.0143   -4.9072    4.3176 C   0  0  0  0  0  0  0  0  0  0  0  0
 27 28  1  0  0  0
 28 26  1  0  0  0
 26 25  1  0  0  0
 25 24  1  0  0  0
 24 23  1  0  0  0
 23 22  1  0  0  0
 22 21  1  0  0  0
 21 19  1  0  0  0
 19 20  2  0  0  0
 20 18  1  0  0  0
 18 17  1  0  0  0
 17 16  1  0  0  0
 16  1  1  0  0  0
  1  2  1  0  0  0
  2  3  1  0  0  0
  3  4  1  0  0  0
  4  5  1  0  0  0
  5  6  2  0  0  0
  5  7  1  0  0  0
  7  8  2  0  0  0
  8  9  1  0  0  0
  9 10  2  0  0  0
 10 11  1  0  0  0
 11 12  2  0  0  0
 12 13  1  0  0  0
 13 14  2  0  0  0
 14 15  1  0  0  0
 15  7  1  0  0  0
 14  9  1  0  0  0
M  END
> <minimizedAffinity>
-5.75464

> <CNNscore>
0.3097906709

> <CNNaffinity>
5.8814315796

> <CNN_VS>
1.8220126629

> <CNNaffinity_variance>
0.0631017908

$$$$
[H]/C(=C(\[H])C([H])([H])C([H])([H])C([H])([H])C([H])([H])C([H])([H])C([H])([H])C([H])([H])C([H])([H])[H])C([H])([H])C([H])([H])C([H])([H])C([H])([H])C([H])([H])C([H])([H])C([H])([H])C(=O)c1nc2c([H])c([H])c([H])nc2o1


 28 29  0  0  0  0  0  0  0  0999 V2000
  -10.3684  -10.2109    6.7485 C   0  0  0  0  0  0  0  0  0  0  0  0
  -11.5612   -9.4779    7.1359 C   0  0  0  0  0  0  0  0  0  0  0  0
  -12.9293   -9.8872    6.8255 C   0  0  0  0  0  0  0  0  0  0  0  0
  -13.9398   -9.8967    7.9275 C   0  0  0  0  0  0  0  0  0  0  0  0
  -14.4021   -8.4889    8.2179 C   0  0  0  0  0  0  0  0  0  0  0  0
  -14.2566   -8.0409    9.3737 O   0  0  0  0  0  0  0  0  0  0  0  0
  -14.9966   -7.6801    7.1909 C   0  0  0  0  0  0  0  0  0  0  0  0
  -14.4270   -6.5958    6.6080 N   0  0  0  0  0  0  0  0  0  0  0  0
  -15.2651   -6.0817    5.6888 C   0  0  0  0  0  0  0  0  0  0  0  0
  -15.2497   -5.0314    4.8131 C   0  0  0  0  0  0  0  0  0  0  0  0
  -16.3291   -4.8063    3.9971 C   0  0  0  0  0  0  0  0  0  0  0  0
  -17.4182   -5.6535    4.0787 C   0  0  0  0  0  0  0  0  0  0  0  0
  -17.4458   -6.7017    4.9455 N   0  0  0  0  0  0  0  0  0  0  0  0
  -16.3839   -6.9121    5.7389 C   0  0  0  0  0  0  0  0  0  0  0  0
  -16.1772   -7.8456    6.6451 O   0  0  0  0  0  0  0  0  0  0  0  0
   -9.0381   -9.9213    7.3114 C   0  0  0  0  0  0  0  0  0  0  0  0
   -8.8654   -8.5462    7.8582 C   0  0  0  0  0  0  0  0  0  0  0  0
   -7.4183   -8.1230    8.0615 C   0  0  0  0  0  0  0  0  0  0  0  0
   -5.5610   -8.0769    6.4874 C   0  0  0  0  0  0  0  0  0  0  0  0
   -6.5990   -8.6997    6.9886 C   0  0  0  0  0  0  0  0  0  0  0  0
   -5.1012   -6.7751    6.9164 C   0  0  0  0  0  0  0  0  0  0  0  0
   -4.7444   -5.8532    5.7521 C   0  0  0  0  0  0  0  0  0  0  0  0
   -3.3709   -5.3058    5.8770 C   0  0  0  0  0  0  0  0  0  0  0  0
   -3.2881   -3.7798    5.8488 C   0  0  0  0  0  0  0  0  0  0  0  0
   -3.7717   -3.2159    4.5676 C   0  0  0  0  0  0  0  0  0  0  0  0
   -4.3455   -1.8571    4.5353 C   0  0  0  0  0  0  0  0  0  0  0  0
   -4.4916   -0.2768    6.4461 C   0  0  0  0  0  0  0  0  0  0  0  0
   -3.6920   -0.7622    5.2849 C   0  0  0  0  0  0  0  0  0  0  0  0
 27 28  1  0  0  0
 28 26  1  0  0  0
 26 25  1  0  0  0
 25 24  1  0  0  0
 24 23  1  0  0  0
 23 22  1  0  0  0
 22 21  1  0  0  0
 21 19  1  0  0  0
 19 20  2  0  0  0
 20 18  1  0  0  0
 18 17  1  0  0  0
 17 16  1  0  0  0
 16  1  1  0  0  0
  1  2  1  0  0  0
  2  3  1  0  0  0
  3  4  1  0  0  0
  4  5  1  0  0  0
  5  6  2  0  0  0
  5  7  1  0  0  0
  7  8  2  0  0  0
  8  9  1  0  0  0
  9 10  2  0  0  0
 10 11  1  0  0  0
 11 12  2  0  0  0
 12 13  1  0  0  0
 13 14  2  0  0  0
 14 15  1  0  0  0
 15  7  1  0  0  0
 14  9  1  0  0  0
M  END
> <minimizedAffinity>
-6.78041

> <CNNscore>
0.3073313236

> <CNNaffinity>
6.4360532761

> <CNN_VS>
1.9780007601

> <CNNaffinity_variance>
0.0403342918

$$$$
[H]/C(=C(\[H])C([H])([H])C([H])([H])C([H])([H])C([H])([H])C([H])([H])C([H])([H])C([H])([H])C([H])([H])[H])C([H])([H])C([H])([H])C([H])([H])C([H])([H])C([H])([H])C([H])([H])C([H])([H])C(=O)c1nc2c([H])c([H])c([H])nc2o1


 28 29  0  0  0  0  0  0  0  0999 V2000
   -6.3277   -7.2064    6.3433 C   0  0  0  0  0  0  0  0  0  0  0  0
   -5.3277   -7.9333    7.1060 C   0  0  0  0  0  0  0  0  0  0  0  0
   -3.9237   -8.0691    6.7242 C   0  0  0  0  0  0  0  0  0  0  0  0
   -2.8801   -7.4749    7.6150 C   0  0  0  0  0  0  0  0  0  0  0  0
   -3.1059   -5.9887    7.7567 C   0  0  0  0  0  0  0  0  0  0  0  0
   -3.3358   -5.5270    8.8933 O   0  0  0  0  0  0  0  0  0  0  0  0
   -3.0586   -5.1220    6.6126 C   0  0  0  0  0  0  0  0  0  0  0  0
   -1.9318   -4.6665    6.0105 N   0  0  0  0  0  0  0  0  0  0  0  0
   -2.2598   -3.8777    4.9704 C   0  0  0  0  0  0  0  0  0  0  0  0
   -1.5856   -3.1592    4.0220 C   0  0  0  0  0  0  0  0  0  0  0  0
   -2.2837   -2.4455    3.0813 C   0  0  0  0  0  0  0  0  0  0  0  0
   -3.6653   -2.4685    3.1128 C   0  0  0  0  0  0  0  0  0  0  0  0
   -4.3477   -3.1792    4.0509 N   0  0  0  0  0  0  0  0  0  0  0  0
   -3.6539   -3.8737    4.9664 C   0  0  0  0  0  0  0  0  0  0  0  0
   -4.0817   -4.6263    5.9594 O   0  0  0  0  0  0  0  0  0  0  0  0
   -7.7632   -7.5332    6.3977 C   0  0  0  0  0  0  0  0  0  0  0  0
   -8.1631   -8.4572    7.4959 C   0  0  0  0  0  0  0  0  0  0  0  0
   -9.6648   -8.6506    7.6452 C   0  0  0  0  0  0  0  0  0  0  0  0
  -11.4503   -7.3827    8.7099 C   0  0  0  0  0  0  0  0  0  0  0  0
  -10.2521   -7.4166    8.1811 C   0  0  0  0  0  0  0  0  0  0  0  0
  -12.3250   -8.5274    8.8304 C   0  0  0  0  0  0  0  0  0  0  0  0
  -13.3590   -8.6109    7.7094 C   0  0  0  0  0  0  0  0  0  0  0  0
  -14.4135   -7.5762    7.8474 C   0  0  0  0  0  0  0  0  0  0  0  0
  -15.8135   -8.1256    8.1207 C   0  0  0  0  0  0  0  0  0  0  0  0
  -16.8103   -7.6309    7.1436 C   0  0  0  0  0  0  0  0  0  0  0  0
  -16.4262   -7.4556    5.7299 C   0  0  0  0  0  0  0  0  0  0  0  0
  -18.2993   -7.6746    4.1133 C   0  0  0  0  0  0  0  0  0  0  0  0
  -17.0639   -8.2843    4.6839 C   0  0  0  0  0  0  0  0  0  0  0  0
 27 28  1  0  0  0
 28 26  1  0  0  0
 26 25  1  0  0  0
 25 24  1  0  0  0
 24 23  1  0  0  0
 23 22  1  0  0  0
 22 21  1  0  0  0
 21 19  1  0  0  0
 19 20  2  0  0  0
 20 18  1  0  0  0
 18 17  1  0  0  0
 17 16  1  0  0  0
 16  1  1  0  0  0
  1  2  1  0  0  0
  2  3  1  0  0  0
  3  4  1  0  0  0
  4  5  1  0  0  0
  5  6  2  0  0  0
  5  7  1  0  0  0
  7  8  2  0  0  0
  8  9  1  0  0  0
  9 10  2  0  0  0
 10 11  1  0  0  0
 11 12  2  0  0  0
 12 13  1  0  0  0
 13 14  2  0  0  0
 14 15  1  0  0  0
 15  7  1  0  0  0
 14  9  1  0  0  0
M  END
> <minimizedAffinity>
-5.74446

> <CNNscore>
0.2973110974

> <CNNaffinity>
6.0589475632

> <CNN_VS>
1.8013923168

> <CNNaffinity_variance>
0.0484996475

$$$$
[H]/C(=C(\[H])C([H])([H])C([H])([H])C([H])([H])C([H])([H])C([H])([H])C([H])([H])C([H])([H])C([H])([H])[H])C([H])([H])C([H])([H])C([H])([H])C([H])([H])C([H])([H])C([H])([H])C([H])([H])C(=O)c1nc2c([H])c([H])c([H])nc2o1


 28 29  0  0  0  0  0  0  0  0999 V2000
  -10.1929   -8.1915    7.6611 C   0  0  0  0  0  0  0  0  0  0  0  0
  -11.4208   -8.0860    8.4300 C   0  0  0  0  0  0  0  0  0  0  0  0
  -12.3314   -9.1955    8.7038 C   0  0  0  0  0  0  0  0  0  0  0  0
  -13.4786   -9.4251    7.7727 C   0  0  0  0  0  0  0  0  0  0  0  0
  -14.5939   -8.4534    8.0762 C   0  0  0  0  0  0  0  0  0  0  0  0
  -15.0699   -8.4348    9.2298 O   0  0  0  0  0  0  0  0  0  0  0  0
  -15.0988   -7.5689    7.0636 C   0  0  0  0  0  0  0  0  0  0  0  0
  -16.3448   -7.6072    6.5288 N   0  0  0  0  0  0  0  0  0  0  0  0
  -16.4738   -6.6337    5.6082 C   0  0  0  0  0  0  0  0  0  0  0  0
  -17.4571   -6.1908    4.7674 C   0  0  0  0  0  0  0  0  0  0  0  0
  -17.2167   -5.1269    3.9355 C   0  0  0  0  0  0  0  0  0  0  0  0
  -15.9751   -4.5206    3.9658 C   0  0  0  0  0  0  0  0  0  0  0  0
  -14.9886   -4.9515    4.7976 N   0  0  0  0  0  0  0  0  0  0  0  0
  -15.2353   -5.9934    5.6071 C   0  0  0  0  0  0  0  0  0  0  0  0
  -14.4531   -6.5842    6.4872 O   0  0  0  0  0  0  0  0  0  0  0  0
   -9.5945   -9.4857    7.2902 C   0  0  0  0  0  0  0  0  0  0  0  0
   -8.2330   -9.7369    7.8405 C   0  0  0  0  0  0  0  0  0  0  0  0
   -7.1185   -8.9666    7.1482 C   0  0  0  0  0  0  0  0  0  0  0  0
   -6.1133   -6.7889    7.5684 C   0  0  0  0  0  0  0  0  0  0  0  0
   -6.6732   -7.8801    8.0292 C   0  0  0  0  0  0  0  0  0  0  0  0
   -5.8688   -6.5221    6.1687 C   0  0  0  0  0  0  0  0  0  0  0  0
   -4.6822   -5.5891    5.9359 C   0  0  0  0  0  0  0  0  0  0  0  0
   -3.3887   -6.3153    5.9710 C   0  0  0  0  0  0  0  0  0  0  0  0
   -2.1851   -5.4959    5.5060 C   0  0  0  0  0  0  0  0  0  0  0  0
   -2.1588   -5.3237    4.0353 C   0  0  0  0  0  0  0  0  0  0  0  0
   -2.2206   -3.9686    3.4550 C   0  0  0  0  0  0  0  0  0  0  0  0
   -3.4242   -1.9041    2.7776 C   0  0  0  0  0  0  0  0  0  0  0  0
   -3.4764   -3.1908    3.5294 C   0  0  0  0  0  0  0  0  0  0  0  0
 27 28  1  0  0  0
 28 26  1  0  0  0
 26 25  1  0  0  0
 25 24  1  0  0  0
 24 23  1  0  0  0
 23 22  1  0  0  0
 22 21  1  0  0  0
 21 19  1  0  0  0
 19 20  2  0  0  0
 20 18  1  0  0  0
 18 17  1  0  0  0
 17 16  1  0  0  0
 16  1  1  0  0  0
  1  2  1  0  0  0
  2  3  1  0  0  0
  3  4  1  0  0  0
  4  5  1  0  0  0
  5  6  2  0  0  0
  5  7  1  0  0  0
  7  8  2  0  0  0
  8  9  1  0  0  0
  9 10  2  0  0  0
 10 11  1  0  0  0
 11 12  2  0  0  0
 12 13  1  0  0  0
 13 14  2  0  0  0
 14 15  1  0  0  0
 15  7  1  0  0  0
 14  9  1  0  0  0
M  END
> <minimizedAffinity>
-6.47954

> <CNNscore>
0.2904736102

> <CNNaffinity>
6.5346503258

> <CNN_VS>
1.8981435299

> <CNNaffinity_variance>
0.0811703354

$$$$
[H]/C(=C(\[H])C([H])([H])C([H])([H])C([H])([H])C([H])([H])C([H])([H])C([H])([H])C([H])([H])C([H])([H])[H])C([H])([H])C([H])([H])C([H])([H])C([H])([H])C([H])([H])C([H])([H])C([H])([H])C(=O)c1nc2c([H])c([H])c([H])nc2o1


 28 29  0  0  0  0  0  0  0  0999 V2000
   -6.3020   -8.3377    5.8307 C   0  0  0  0  0  0  0  0  0  0  0  0
   -5.0971   -7.9965    6.5670 C   0  0  0  0  0  0  0  0  0  0  0  0
   -4.7835   -6.6657    7.0828 C   0  0  0  0  0  0  0  0  0  0  0  0
   -3.5603   -6.4959    7.9258 C   0  0  0  0  0  0  0  0  0  0  0  0
   -2.6838   -5.4081    7.3528 C   0  0  0  0  0  0  0  0  0  0  0  0
   -1.9186   -5.6950    6.4094 O   0  0  0  0  0  0  0  0  0  0  0  0
   -2.7258   -4.0722    7.8783 C   0  0  0  0  0  0  0  0  0  0  0  0
   -3.0167   -3.7342    9.1593 N   0  0  0  0  0  0  0  0  0  0  0  0
   -2.9650   -2.3964    9.2988 C   0  0  0  0  0  0  0  0  0  0  0  0
   -3.1551   -1.4991   10.3131 C   0  0  0  0  0  0  0  0  0  0  0  0
   -3.0104   -0.1563   10.0735 C   0  0  0  0  0  0  0  0  0  0  0  0
   -2.6728    0.2640    8.8008 C   0  0  0  0  0  0  0  0  0  0  0  0
   -2.4810   -0.6184    7.7833 N   0  0  0  0  0  0  0  0  0  0  0  0
   -2.6252   -1.9299    8.0297 C   0  0  0  0  0  0  0  0  0  0  0  0
   -2.4940   -2.9616    7.2211 O   0  0  0  0  0  0  0  0  0  0  0  0
   -7.5413   -8.7801    6.4931 C   0  0  0  0  0  0  0  0  0  0  0  0
   -8.3320   -7.7003    7.1477 C   0  0  0  0  0  0  0  0  0  0  0  0
   -9.1941   -8.1642    8.3123 C   0  0  0  0  0  0  0  0  0  0  0  0
  -11.2585   -6.9022    8.5861 C   0  0  0  0  0  0  0  0  0  0  0  0
   -9.9735   -7.0244    8.8105 C   0  0  0  0  0  0  0  0  0  0  0  0
  -12.0531   -7.8504    7.8383 C   0  0  0  0  0  0  0  0  0  0  0  0
  -13.3494   -7.2501    7.2980 C   0  0  0  0  0  0  0  0  0  0  0  0
  -14.4364   -7.2737    8.3078 C   0  0  0  0  0  0  0  0  0  0  0  0
  -15.7146   -7.9769    7.8518 C   0  0  0  0  0  0  0  0  0  0  0  0
  -15.9396   -7.8410    6.3944 C   0  0  0  0  0  0  0  0  0  0  0  0
  -17.0867   -7.0557    5.9001 C   0  0  0  0  0  0  0  0  0  0  0  0
  -18.3781   -7.2094    3.7839 C   0  0  0  0  0  0  0  0  0  0  0  0
  -17.1643   -6.6824    4.4711 C   0  0  0  0  0  0  0  0  0  0  0  0
 27 28  1  0  0  0
 28 26  1  0  0  0
 26 25  1  0  0  0
 25 24  1  0  0  0
 24 23  1  0  0  0
 23 22  1  0  0  0
 22 21  1  0  0  0
 21 19  1  0  0  0
 19 20  2  0  0  0
 20 18  1  0  0  0
 18 17  1  0  0  0
 17 16  1  0  0  0
 16  1  1  0  0  0
  1  2  1  0  0  0
  2  3  1  0  0  0
  3  4  1  0  0  0
  4  5  1  0  0  0
  5  6  2  0  0  0
  5  7  1  0  0  0
  7  8  2  0  0  0
  8  9  1  0  0  0
  9 10  2  0  0  0
 10 11  1  0  0  0
 11 12  2  0  0  0
 12 13  1  0  0  0
 13 14  2  0  0  0
 14 15  1  0  0  0
 15  7  1  0  0  0
 14  9  1  0  0  0
M  END
> <minimizedAffinity>
-5.54397

> <CNNscore>
0.2887274027

> <CNNaffinity>
5.9861378670

> <CNN_VS>
1.7283620834

> <CNNaffinity_variance>
0.1469499320

$$$$
[H]c1c([H])c([H])c(C([H])([H])C([H])([H])C([H])([H])[H])c(OC([H])(C2=NC([H])([H])C([H])([H])N2[H])C([H])([H])[H])c1[H]


 18 19  0  0  0  0  0  0  0  0999 V2000
  -11.4092   -7.0115    8.6788 C   0  0  0  0  0  0  0  0  0  0  0  0
  -11.0061   -6.3062    9.7908 C   0  0  0  0  0  0  0  0  0  0  0  0
  -11.8981   -5.6247   10.5916 C   0  0  0  0  0  0  0  0  0  0  0  0
  -13.2452   -5.6306   10.2959 C   0  0  0  0  0  0  0  0  0  0  0  0
  -13.6688   -6.3307    9.1875 C   0  0  0  0  0  0  0  0  0  0  0  0
  -12.7790   -7.0114    8.3870 C   0  0  0  0  0  0  0  0  0  0  0  0
  -10.4925   -7.7435    7.8001 C   0  0  0  0  0  0  0  0  0  0  0  0
   -8.5460   -6.4359    6.9575 C   0  0  0  0  0  0  0  0  0  0  0  0
   -9.0388   -7.3967    8.0467 C   0  0  0  0  0  0  0  0  0  0  0  0
  -13.1608   -7.7134    7.2861 O   0  0  0  0  0  0  0  0  0  0  0  0
  -14.0426   -8.7731    7.1937 C   0  0  0  0  0  0  0  0  0  0  0  0
  -13.4042  -10.1204    7.3212 C   0  0  0  0  0  0  0  0  0  0  0  0
  -14.8369   -8.7293    5.9078 C   0  0  0  0  0  0  0  0  0  0  0  0
  -14.2947   -8.8962    4.7591 N   0  0  0  0  0  0  0  0  0  0  0  0
  -15.2712   -8.8048    3.7155 C   0  0  0  0  0  0  0  0  0  0  0  0
  -16.5212   -8.2867    4.3906 C   0  0  0  0  0  0  0  0  0  0  0  0
  -16.2268   -8.5090    5.7828 N   0  0  0  0  0  0  0  0  0  0  0  0
  -16.9302   -8.5084    6.5806 H   0  0  0  0  0  0  0  0  0  0  0  0
  8  9  1  0  0  0
  9  7  1  0  0  0
  7  1  1  0  0  0
  1  2  2  0  0  0
  2  3  1  0  0  0
  3  4  2  0  0  0
  4  5  1  0  0  0
  5  6  2  0  0  0
  6 10  1  0  0  0
 10 11  1  0  0  0
 11 12  1  0  0  0
 11 13  1  0  0  0
 13 14  2  0  0  0
 14 15  1  0  0  0
 15 16  1  0  0  0
 16 17  1  0  0  0
  6  1  1  0  0  0
 17 13  1  0  0  0
 17 18  1  0  0  0
M  END
> <minimizedAffinity>
-7.74262

> <CNNscore>
0.7590349913

> <CNNaffinity>
6.1697998047

> <CNN_VS>
4.6830940247

> <CNNaffinity_variance>
0.0420183428

$$$$
[H]c1c([H])c([H])c(C([H])([H])C([H])([H])C([H])([H])[H])c(OC([H])(C2=NC([H])([H])C([H])([H])N2[H])C([H])([H])[H])c1[H]


 18 19  0  0  0  0  0  0  0  0999 V2000
  -11.4200   -6.9716    8.5220 C   0  0  0  0  0  0  0  0  0  0  0  0
  -11.0224   -6.4632    9.7385 C   0  0  0  0  0  0  0  0  0  0  0  0
  -11.9166   -5.9136   10.6328 C   0  0  0  0  0  0  0  0  0  0  0  0
  -13.2606   -5.8568   10.3282 C   0  0  0  0  0  0  0  0  0  0  0  0
  -13.6788   -6.3604    9.1159 C   0  0  0  0  0  0  0  0  0  0  0  0
  -12.7867   -6.9092    8.2222 C   0  0  0  0  0  0  0  0  0  0  0  0
  -10.5008   -7.5583    7.5429 C   0  0  0  0  0  0  0  0  0  0  0  0
   -8.8125   -9.3878    7.4341 C   0  0  0  0  0  0  0  0  0  0  0  0
  -10.2682   -9.0382    7.7676 C   0  0  0  0  0  0  0  0  0  0  0  0
  -13.1632   -7.4163    7.0173 O   0  0  0  0  0  0  0  0  0  0  0  0
  -14.0197   -8.4659    6.7454 C   0  0  0  0  0  0  0  0  0  0  0  0
  -13.4109   -9.5646    5.9323 C   0  0  0  0  0  0  0  0  0  0  0  0
  -15.2826   -7.9943    6.0606 C   0  0  0  0  0  0  0  0  0  0  0  0
  -15.6573   -6.7694    6.0778 N   0  0  0  0  0  0  0  0  0  0  0  0
  -16.8827   -6.6001    5.3562 C   0  0  0  0  0  0  0  0  0  0  0  0
  -17.3741   -8.0034    5.0808 C   0  0  0  0  0  0  0  0  0  0  0  0
  -16.1955   -8.7914    5.3345 N   0  0  0  0  0  0  0  0  0  0  0  0
  -16.0363   -9.7979    5.0298 H   0  0  0  0  0  0  0  0  0  0  0  0
  8  9  1  0  0  0
  9  7  1  0  0  0
  7  1  1  0  0  0
  1  2  2  0  0  0
  2  3  1  0  0  0
  3  4  2  0  0  0
  4  5  1  0  0  0
  5  6  2  0  0  0
  6 10  1  0  0  0
 10 11  1  0  0  0
 11 12  1  0  0  0
 11 13  1  0  0  0
 13 14  2  0  0  0
 14 15  1  0  0  0
 15 16  1  0  0  0
 16 17  1  0  0  0
  6  1  1  0  0  0
 17 13  1  0  0  0
 17 18  1  0  0  0
M  END
> <minimizedAffinity>
-7.50337

> <CNNscore>
0.7306299210

> <CNNaffinity>
6.2317767143

> <CNN_VS>
4.5531225204

> <CNNaffinity_variance>
0.1008470654

$$$$
[H]c1c([H])c([H])c(C([H])([H])C([H])([H])C([H])([H])[H])c(OC([H])(C2=NC([H])([H])C([H])([H])N2[H])C([H])([H])[H])c1[H]


 18 19  0  0  0  0  0  0  0  0999 V2000
  -11.8571   -7.7325    8.5549 C   0  0  0  0  0  0  0  0  0  0  0  0
  -13.1815   -8.1065    8.5050 C   0  0  0  0  0  0  0  0  0  0  0  0
  -13.6103   -9.1958    7.7765 C   0  0  0  0  0  0  0  0  0  0  0  0
  -12.7072   -9.9565    7.0636 C   0  0  0  0  0  0  0  0  0  0  0  0
  -11.3772   -9.5989    7.1008 C   0  0  0  0  0  0  0  0  0  0  0  0
  -10.9480   -8.5112    7.8278 C   0  0  0  0  0  0  0  0  0  0  0  0
  -11.3626   -6.5793    9.3123 C   0  0  0  0  0  0  0  0  0  0  0  0
  -13.0009   -5.0929   10.4594 C   0  0  0  0  0  0  0  0  0  0  0  0
  -12.1294   -6.3474   10.5980 C   0  0  0  0  0  0  0  0  0  0  0  0
   -9.6438   -8.1292    7.8882 O   0  0  0  0  0  0  0  0  0  0  0  0
   -8.5372   -8.7207    7.3098 C   0  0  0  0  0  0  0  0  0  0  0  0
   -7.9681   -9.8626    8.0915 C   0  0  0  0  0  0  0  0  0  0  0  0
   -7.4393   -7.7151    7.0457 C   0  0  0  0  0  0  0  0  0  0  0  0
   -6.7802   -7.6897    5.9475 N   0  0  0  0  0  0  0  0  0  0  0  0
   -5.8030   -6.6428    5.9625 C   0  0  0  0  0  0  0  0  0  0  0  0
   -5.7759   -6.1504    7.3919 C   0  0  0  0  0  0  0  0  0  0  0  0
   -6.9952   -6.7019    7.9245 N   0  0  0  0  0  0  0  0  0  0  0  0
   -7.4800   -6.4014    8.8223 H   0  0  0  0  0  0  0  0  0  0  0  0
  8  9  1  0  0  0
  9  7  1  0  0  0
  7  1  1  0  0  0
  1  2  2  0  0  0
  2  3  1  0  0  0
  3  4  2  0  0  0
  4  5  1  0  0  0
  5  6  2  0  0  0
  6 10  1  0  0  0
 10 11  1  0  0  0
 11 12  1  0  0  0
 11 13  1  0  0  0
 13 14  2  0  0  0
 14 15  1  0  0  0
 15 16  1  0  0  0
 16 17  1  0  0  0
  6  1  1  0  0  0
 17 13  1  0  0  0
 17 18  1  0  0  0
M  END
> <minimizedAffinity>
-7.00168

> <CNNscore>
0.7278662324

> <CNNaffinity>
5.5319604874

> <CNN_VS>
4.0265274048

> <CNNaffinity_variance>
0.1631231904

$$$$
[H]c1c([H])c([H])c(C([H])([H])C([H])([H])C([H])([H])[H])c(OC([H])(C2=NC([H])([H])C([H])([H])N2[H])C([H])([H])[H])c1[H]


 18 19  0  0  0  0  0  0  0  0999 V2000
  -11.6460   -7.2354    8.4616 C   0  0  0  0  0  0  0  0  0  0  0  0
  -10.8220   -6.4313    9.2171 C   0  0  0  0  0  0  0  0  0  0  0  0
  -11.3149   -5.5538   10.1597 C   0  0  0  0  0  0  0  0  0  0  0  0
  -12.6734   -5.4552   10.3768 C   0  0  0  0  0  0  0  0  0  0  0  0
  -13.5148   -6.2516    9.6311 C   0  0  0  0  0  0  0  0  0  0  0  0
  -13.0237   -7.1279    8.6894 C   0  0  0  0  0  0  0  0  0  0  0  0
  -11.1618   -8.1759    7.4471 C   0  0  0  0  0  0  0  0  0  0  0  0
   -9.4958  -10.0031    7.1396 C   0  0  0  0  0  0  0  0  0  0  0  0
   -9.7165   -8.5768    7.6586 C   0  0  0  0  0  0  0  0  0  0  0  0
  -13.8237   -7.9295    7.9358 O   0  0  0  0  0  0  0  0  0  0  0  0
  -15.1267   -7.7196    7.5269 C   0  0  0  0  0  0  0  0  0  0  0  0
  -16.1585   -8.3625    8.3992 C   0  0  0  0  0  0  0  0  0  0  0  0
  -15.3446   -8.1702    6.1001 C   0  0  0  0  0  0  0  0  0  0  0  0
  -14.3848   -8.2746    5.2581 N   0  0  0  0  0  0  0  0  0  0  0  0
  -14.8682   -8.7181    3.9851 C   0  0  0  0  0  0  0  0  0  0  0  0
  -16.3747   -8.6356    4.0859 C   0  0  0  0  0  0  0  0  0  0  0  0
  -16.5768   -8.5265    5.5077 N   0  0  0  0  0  0  0  0  0  0  0  0
  -17.4922   -8.6859    6.0253 H   0  0  0  0  0  0  0  0  0  0  0  0
  8  9  1  0  0  0
  9  7  1  0  0  0
  7  1  1  0  0  0
  1  2  2  0  0  0
  2  3  1  0  0  0
  3  4  2  0  0  0
  4  5  1  0  0  0
  5  6  2  0  0  0
  6 10  1  0  0  0
 10 11  1  0  0  0
 11 12  1  0  0  0
 11 13  1  0  0  0
 13 14  2  0  0  0
 14 15  1  0  0  0
 15 16  1  0  0  0
 16 17  1  0  0  0
  6  1  1  0  0  0
 17 13  1  0  0  0
 17 18  1  0  0  0
M  END
> <minimizedAffinity>
-7.44630

> <CNNscore>
0.7171867490

> <CNNaffinity>
6.3069167137

> <CNN_VS>
4.5232372284

> <CNNaffinity_variance>
0.0738137662

$$$$
[H]c1c([H])c([H])c(C([H])([H])C([H])([H])C([H])([H])[H])c(OC([H])(C2=NC([H])([H])C([H])([H])N2[H])C([H])([H])[H])c1[H]


 18 19  0  0  0  0  0  0  0  0999 V2000
  -11.6747   -7.6447    8.0784 C   0  0  0  0  0  0  0  0  0  0  0  0
  -10.6261   -8.5346    8.1480 C   0  0  0  0  0  0  0  0  0  0  0  0
  -10.5990   -9.6973    7.4072 C   0  0  0  0  0  0  0  0  0  0  0  0
  -11.6415  -10.0076    6.5591 C   0  0  0  0  0  0  0  0  0  0  0  0
  -12.7001   -9.1299    6.4751 C   0  0  0  0  0  0  0  0  0  0  0  0
  -12.7283   -7.9687    7.2144 C   0  0  0  0  0  0  0  0  0  0  0  0
  -11.7433   -6.4022    8.8528 C   0  0  0  0  0  0  0  0  0  0  0  0
  -13.1407   -5.2490   10.5635 C   0  0  0  0  0  0  0  0  0  0  0  0
  -12.4681   -6.5707   10.1722 C   0  0  0  0  0  0  0  0  0  0  0  0
  -13.7557   -7.0790    7.1566 O   0  0  0  0  0  0  0  0  0  0  0  0
  -15.0965   -7.2812    7.4221 C   0  0  0  0  0  0  0  0  0  0  0  0
  -15.3691   -8.3077    8.4760 C   0  0  0  0  0  0  0  0  0  0  0  0
  -15.8648   -7.6488    6.1727 C   0  0  0  0  0  0  0  0  0  0  0  0
  -15.4948   -7.2768    5.0040 N   0  0  0  0  0  0  0  0  0  0  0  0
  -16.3993   -7.7599    4.0042 C   0  0  0  0  0  0  0  0  0  0  0  0
  -17.5811   -8.3057    4.7736 C   0  0  0  0  0  0  0  0  0  0  0  0
  -17.0475   -8.4188    6.1066 N   0  0  0  0  0  0  0  0  0  0  0  0
  -17.4675   -8.9827    6.9047 H   0  0  0  0  0  0  0  0  0  0  0  0
  8  9  1  0  0  0
  9  7  1  0  0  0
  7  1  1  0  0  0
  1  2  2  0  0  0
  2  3  1  0  0  0
  3  4  2  0  0  0
  4  5  1  0  0  0
  5  6  2  0  0  0
  6 10  1  0  0  0
 10 11  1  0  0  0
 11 12  1  0  0  0
 11 13  1  0  0  0
 13 14  2  0  0  0
 14 15  1  0  0  0
 15 16  1  0  0  0
 16 17  1  0  0  0
  6  1  1  0  0  0
 17 13  1  0  0  0
 17 18  1  0  0  0
M  END
> <minimizedAffinity>
-6.98397

> <CNNscore>
0.6911110282

> <CNNaffinity>
6.1978278160

> <CNN_VS>
4.2833871841

> <CNNaffinity_variance>
0.0978234559

$$$$
[H]c1c([H])c([H])c(C([H])([H])C([H])([H])C([H])([H])[H])c(OC([H])(C2=NC([H])([H])C([H])([H])N2[H])C([H])([H])[H])c1[H]


 18 19  0  0  0  0  0  0  0  0999 V2000
  -12.8745   -7.7163    7.9379 C   0  0  0  0  0  0  0  0  0  0  0  0
  -11.6675   -8.1895    8.4022 C   0  0  0  0  0  0  0  0  0  0  0  0
  -11.0201   -9.2547    7.8126 C   0  0  0  0  0  0  0  0  0  0  0  0
  -11.5739   -9.8883    6.7198 C   0  0  0  0  0  0  0  0  0  0  0  0
  -12.7812   -9.4298    6.2398 C   0  0  0  0  0  0  0  0  0  0  0  0
  -13.4285   -8.3664    6.8280 C   0  0  0  0  0  0  0  0  0  0  0  0
  -13.5961   -6.5915    8.5397 C   0  0  0  0  0  0  0  0  0  0  0  0
  -12.9934   -5.1969   10.5147 C   0  0  0  0  0  0  0  0  0  0  0  0
  -13.4965   -6.5696   10.0510 C   0  0  0  0  0  0  0  0  0  0  0  0
  -14.6204   -7.8863    6.3812 O   0  0  0  0  0  0  0  0  0  0  0  0
  -14.9277   -7.3268    5.1558 C   0  0  0  0  0  0  0  0  0  0  0  0
  -14.7034   -5.8495    5.0781 C   0  0  0  0  0  0  0  0  0  0  0  0
  -16.3519   -7.6263    4.7455 C   0  0  0  0  0  0  0  0  0  0  0  0
  -17.0404   -6.8268    4.0190 N   0  0  0  0  0  0  0  0  0  0  0  0
  -18.3514   -7.3524    3.7826 C   0  0  0  0  0  0  0  0  0  0  0  0
  -18.4743   -8.5369    4.7145 C   0  0  0  0  0  0  0  0  0  0  0  0
  -17.1025   -8.7746    5.0834 N   0  0  0  0  0  0  0  0  0  0  0  0
  -16.7177   -9.6590    5.5318 H   0  0  0  0  0  0  0  0  0  0  0  0
  8  9  1  0  0  0
  9  7  1  0  0  0
  7  1  1  0  0  0
  1  2  2  0  0  0
  2  3  1  0  0  0
  3  4  2  0  0  0
  4  5  1  0  0  0
  5  6  2  0  0  0
  6 10  1  0  0  0
 10 11  1  0  0  0
 11 12  1  0  0  0
 11 13  1  0  0  0
 13 14  2  0  0  0
 14 15  1  0  0  0
 15 16  1  0  0  0
 16 17  1  0  0  0
  6  1  1  0  0  0
 17 13  1  0  0  0
 17 18  1  0  0  0
M  END
> <minimizedAffinity>
-7.52730

> <CNNscore>
0.6796313524

> <CNNaffinity>
6.2178778648

> <CNN_VS>
4.2258648872

> <CNNaffinity_variance>
0.1287631691

$$$$
[H]c1c([H])c([H])c(C([H])([H])C([H])([H])C([H])([H])[H])c(OC([H])(C2=NC([H])([H])C([H])([H])N2[H])C([H])([H])[H])c1[H]


 18 19  0  0  0  0  0  0  0  0999 V2000
  -12.5747   -8.0680    9.2370 C   0  0  0  0  0  0  0  0  0  0  0  0
  -13.5906   -7.2475    9.6742 C   0  0  0  0  0  0  0  0  0  0  0  0
  -13.3710   -5.9350   10.0353 C   0  0  0  0  0  0  0  0  0  0  0  0
  -12.1030   -5.3964    9.9671 C   0  0  0  0  0  0  0  0  0  0  0  0
  -11.0728   -6.2010    9.5319 C   0  0  0  0  0  0  0  0  0  0  0  0
  -11.2910   -7.5118    9.1713 C   0  0  0  0  0  0  0  0  0  0  0  0
  -12.7662   -9.4685    8.8497 C   0  0  0  0  0  0  0  0  0  0  0  0
  -13.3722   -9.1905    6.4488 C   0  0  0  0  0  0  0  0  0  0  0  0
  -13.8675   -9.6503    7.8256 C   0  0  0  0  0  0  0  0  0  0  0  0
  -10.2990   -8.3350    8.7366 O   0  0  0  0  0  0  0  0  0  0  0  0
   -9.8123   -8.5081    7.4551 C   0  0  0  0  0  0  0  0  0  0  0  0
   -9.7803   -9.9311    6.9939 C   0  0  0  0  0  0  0  0  0  0  0  0
   -8.4315   -7.9125    7.2961 C   0  0  0  0  0  0  0  0  0  0  0  0
   -7.4267   -8.6025    6.9017 N   0  0  0  0  0  0  0  0  0  0  0  0
   -6.2454   -7.7953    6.8407 C   0  0  0  0  0  0  0  0  0  0  0  0
   -6.6194   -6.4984    7.5224 C   0  0  0  0  0  0  0  0  0  0  0  0
   -8.0576   -6.5731    7.5453 N   0  0  0  0  0  0  0  0  0  0  0  0
   -8.7251   -5.7635    7.7190 H   0  0  0  0  0  0  0  0  0  0  0  0
  8  9  1  0  0  0
  9  7  1  0  0  0
  7  1  1  0  0  0
  1  2  2  0  0  0
  2  3  1  0  0  0
  3  4  2  0  0  0
  4  5  1  0  0  0
  5  6  2  0  0  0
  6 10  1  0  0  0
 10 11  1  0  0  0
 11 12  1  0  0  0
 11 13  1  0  0  0
 13 14  2  0  0  0
 14 15  1  0  0  0
 15 16  1  0  0  0
 16 17  1  0  0  0
  6  1  1  0  0  0
 17 13  1  0  0  0
 17 18  1  0  0  0
M  END
> <minimizedAffinity>
-7.02696

> <CNNscore>
0.5863120556

> <CNNaffinity>
5.6071305275

> <CNN_VS>
3.2875282764

> <CNNaffinity_variance>
0.0816672221

$$$$
[H]c1c([H])c([H])c(C([H])([H])C([H])([H])C([H])([H])[H])c(OC([H])(C2=NC([H])([H])C([H])([H])N2[H])C([H])([H])[H])c1[H]


 18 19  0  0  0  0  0  0  0  0999 V2000
  -11.3608   -8.3589    8.0763 C   0  0  0  0  0  0  0  0  0  0  0  0
  -12.2745   -7.9457    9.0201 C   0  0  0  0  0  0  0  0  0  0  0  0
  -12.0784   -6.8172    9.7878 C   0  0  0  0  0  0  0  0  0  0  0  0
  -10.9395   -6.0556    9.6287 C   0  0  0  0  0  0  0  0  0  0  0  0
  -10.0130   -6.4522    8.6894 C   0  0  0  0  0  0  0  0  0  0  0  0
  -10.2078   -7.5790    7.9224 C   0  0  0  0  0  0  0  0  0  0  0  0
  -11.5299   -9.5542    7.2451 C   0  0  0  0  0  0  0  0  0  0  0  0
  -13.5420   -9.2240    5.8128 C   0  0  0  0  0  0  0  0  0  0  0  0
  -12.9831   -9.9352    7.0515 C   0  0  0  0  0  0  0  0  0  0  0  0
   -9.3158   -8.0001    6.9856 O   0  0  0  0  0  0  0  0  0  0  0  0
   -8.0562   -8.5389    7.1650 C   0  0  0  0  0  0  0  0  0  0  0  0
   -7.8597   -9.2243    8.4805 C   0  0  0  0  0  0  0  0  0  0  0  0
   -6.9728   -7.4987    6.9902 C   0  0  0  0  0  0  0  0  0  0  0  0
   -6.3898   -7.2956    5.8677 N   0  0  0  0  0  0  0  0  0  0  0  0
   -5.4076   -6.2597    5.9825 C   0  0  0  0  0  0  0  0  0  0  0  0
   -5.2803   -6.0011    7.4669 C   0  0  0  0  0  0  0  0  0  0  0  0
   -6.4638   -6.6363    7.9867 N   0  0  0  0  0  0  0  0  0  0  0  0
   -6.8845   -6.4849    8.9518 H   0  0  0  0  0  0  0  0  0  0  0  0
  8  9  1  0  0  0
  9  7  1  0  0  0
  7  1  1  0  0  0
  1  2  2  0  0  0
  2  3  1  0  0  0
  3  4  2  0  0  0
  4  5  1  0  0  0
  5  6  2  0  0  0
  6 10  1  0  0  0
 10 11  1  0  0  0
 11 12  1  0  0  0
 11 13  1  0  0  0
 13 14  2  0  0  0
 14 15  1  0  0  0
 15 16  1  0  0  0
 16 17  1  0  0  0
  6  1  1  0  0  0
 17 13  1  0  0  0
 17 18  1  0  0  0
M  END
> <minimizedAffinity>
-6.69900

> <CNNscore>
0.5228742957

> <CNNaffinity>
5.3191213608

> <CNN_VS>
2.7812318802

> <CNNaffinity_variance>
0.1396284848

$$$$
[H]c1c([H])c([H])c(C([H])([H])C([H])([H])C([H])([H])[H])c(OC([H])(C2=NC([H])([H])C([H])([H])N2[H])C([H])([H])[H])c1[H]


 18 19  0  0  0  0  0  0  0  0999 V2000
  -12.1806   -7.9408    8.2244 C   0  0  0  0  0  0  0  0  0  0  0  0
  -11.3970   -7.3975    9.2180 C   0  0  0  0  0  0  0  0  0  0  0  0
  -11.8569   -6.4028   10.0549 C   0  0  0  0  0  0  0  0  0  0  0  0
  -13.1397   -5.9147    9.9180 C   0  0  0  0  0  0  0  0  0  0  0  0
  -13.9397   -6.4454    8.9298 C   0  0  0  0  0  0  0  0  0  0  0  0
  -13.4814   -7.4386    8.0934 C   0  0  0  0  0  0  0  0  0  0  0  0
  -11.7273   -8.9944    7.3119 C   0  0  0  0  0  0  0  0  0  0  0  0
   -9.8850  -10.5322    6.6412 C   0  0  0  0  0  0  0  0  0  0  0  0
  -10.2357   -9.2442    7.3965 C   0  0  0  0  0  0  0  0  0  0  0  0
  -14.2427   -7.9863    7.1080 O   0  0  0  0  0  0  0  0  0  0  0  0
  -14.3834   -7.5845    5.7936 C   0  0  0  0  0  0  0  0  0  0  0  0
  -14.1508   -6.1240    5.5662 C   0  0  0  0  0  0  0  0  0  0  0  0
  -15.7398   -7.9549    5.2376 C   0  0  0  0  0  0  0  0  0  0  0  0
  -16.0461   -7.7884    4.0048 N   0  0  0  0  0  0  0  0  0  0  0  0
  -17.3876   -8.2198    3.7492 C   0  0  0  0  0  0  0  0  0  0  0  0
  -17.9897   -8.4625    5.1148 C   0  0  0  0  0  0  0  0  0  0  0  0
  -16.8213   -8.5124    5.9556 N   0  0  0  0  0  0  0  0  0  0  0  0
  -16.7765   -8.9006    6.9448 H   0  0  0  0  0  0  0  0  0  0  0  0
  8  9  1  0  0  0
  9  7  1  0  0  0
  7  1  1  0  0  0
  1  2  2  0  0  0
  2  3  1  0  0  0
  3  4  2  0  0  0
  4  5  1  0  0  0
  5  6  2  0  0  0
  6 10  1  0  0  0
 10 11  1  0  0  0
 11 12  1  0  0  0
 11 13  1  0  0  0
 13 14  2  0  0  0
 14 15  1  0  0  0
 15 16  1  0  0  0
 16 17  1  0  0  0
  6  1  1  0  0  0
 17 13  1  0  0  0
 17 18  1  0  0  0
M  END
> <minimizedAffinity>
-7.09995

> <CNNscore>
0.5089220405

> <CNNaffinity>
6.0724096298

> <CNN_VS>
3.0903830528

> <CNNaffinity_variance>
0.0938631594

$$$$
[H]C1=C2C([H])([H])C([H])([H])C([H])([H])C([H])([H])[C@]2([H])/C(=C(\[H])C([H])([H])C2([H])C([H])([H])C([H])([H])C(C([H])([H])[H])(C([H])([H])[H])[N+]2(C([H])([H])[H])C([H])([H])[H])[C@]2([H])[C@@]1([H])C(=O)O[C@@]2([H])C([H])([H])[H]


 26 29  0  0  0  0  0  0  0  0999 V2000
  -12.7827   -3.4942   10.2987 C   0  0  0  0  0  0  0  0  0  0  0  0
  -13.2864   -4.9345    9.9998 C   0  0  0  0  0  0  0  0  0  0  0  0
  -13.2532   -5.5638   11.2558 O   0  0  0  0  0  0  0  0  0  0  0  0
  -11.8993   -5.7995   11.4852 C   0  0  0  0  0  0  0  0  0  0  0  0
  -11.4340   -6.2444   12.5584 O   0  0  0  0  0  0  0  0  0  0  0  0
  -11.1413   -5.4377   10.2639 C   0  0  0  0  0  0  0  0  0  0  0  0
   -9.9372   -6.1796   10.0094 C   0  0  0  0  0  0  0  0  0  0  0  0
   -9.7840   -7.1058    9.1256 C   0  0  0  0  0  0  0  0  0  0  0  0
   -8.5020   -7.8230    8.9261 C   0  0  0  0  0  0  0  0  0  0  0  0
   -8.4081   -8.1666    7.4454 C   0  0  0  0  0  0  0  0  0  0  0  0
   -9.1152   -7.1655    6.5893 C   0  0  0  0  0  0  0  0  0  0  0  0
  -10.5652   -6.9755    6.8718 C   0  0  0  0  0  0  0  0  0  0  0  0
  -10.8916   -7.4916    8.2712 C   0  0  0  0  0  0  0  0  0  0  0  0
  -12.2418   -6.9108    8.6868 C   0  0  0  0  0  0  0  0  0  0  0  0
  -13.2134   -7.7316    8.4313 C   0  0  0  0  0  0  0  0  0  0  0  0
  -12.2732   -5.6056    9.2141 C   0  0  0  0  0  0  0  0  0  0  0  0
  -14.6112   -7.5116    8.6954 C   0  0  0  0  0  0  0  0  0  0  0  0
  -15.2383   -7.0527    7.3368 C   0  0  0  0  0  0  0  0  0  0  0  0
  -14.3290   -6.0548    6.6750 C   0  0  0  0  0  0  0  0  0  0  0  0
  -13.6827   -6.9200    5.5923 C   0  0  0  0  0  0  0  0  0  0  0  0
  -14.8895   -7.7419    5.1658 C   0  0  0  0  0  0  0  0  0  0  0  0
  -15.8037   -6.8160    4.3952 C   0  0  0  0  0  0  0  0  0  0  0  0
  -14.5256   -8.8980    4.2920 C   0  0  0  0  0  0  0  0  0  0  0  0
  -15.4443   -8.1347    6.4437 N   0  0  0  0  0  0  0  0  0  0  0  0
  -16.8968   -8.2498    6.2257 C   0  0  0  0  0  0  0  0  0  0  0  0
  -14.9962   -9.4208    6.8786 C   0  0  0  0  0  0  0  0  0  0  0  0
  1  2  1  0  0  0
  2  3  1  0  0  0
  3  4  1  0  0  0
  4  5  2  0  0  0
  4  6  1  0  0  0
  6  7  1  0  0  0
  7  8  2  0  0  0
  8  9  1  0  0  0
  9 10  1  0  0  0
 10 11  1  0  0  0
 11 12  1  0  0  0
 12 13  1  0  0  0
 13 14  1  0  0  0
 14 15  2  0  0  0
 15 17  1  0  0  0
 17 18  1  0  0  0
 18 19  1  0  0  0
 19 20  1  0  0  0
 20 21  1  0  0  0
 21 22  1  0  0  0
 21 23  1  0  0  0
 21 24  1  0  0  0
 24 25  1  0  0  0
 24 26  1  0  0  0
 14 16  1  0  0  0
 16  2  1  0  0  0
 16  6  1  0  0  0
 13  8  1  0  0  0
 24 18  1  0  0  0
M  CHG 1  24   1
M  END
> <minimizedAffinity>
-0.70074

> <CNNscore>
0.5649934411

> <CNNaffinity>
7.0336999893

> <CNN_VS>
3.9739942551

> <CNNaffinity_variance>
0.6196903586

$$$$
[H]C1=C2C([H])([H])C([H])([H])C([H])([H])C([H])([H])[C@]2([H])/C(=C(\[H])C([H])([H])C2([H])C([H])([H])C([H])([H])C(C([H])([H])[H])(C([H])([H])[H])[N+]2(C([H])([H])[H])C([H])([H])[H])[C@]2([H])[C@@]1([H])C(=O)O[C@@]2([H])C([H])([H])[H]


 26 29  0  0  0  0  0  0  0  0999 V2000
  -11.1737  -10.1515    5.9380 C   0  0  0  0  0  0  0  0  0  0  0  0
  -11.8128   -9.0046    6.7711 C   0  0  0  0  0  0  0  0  0  0  0  0
  -12.4028   -9.6738    7.8568 O   0  0  0  0  0  0  0  0  0  0  0  0
  -13.5387  -10.2714    7.3147 C   0  0  0  0  0  0  0  0  0  0  0  0
  -14.2826  -11.0628    7.9363 O   0  0  0  0  0  0  0  0  0  0  0  0
  -13.6947   -9.8105    5.9146 C   0  0  0  0  0  0  0  0  0  0  0  0
  -15.0377   -9.7237    5.4107 C   0  0  0  0  0  0  0  0  0  0  0  0
  -15.7157   -8.6424    5.2277 C   0  0  0  0  0  0  0  0  0  0  0  0
  -17.1009   -8.6412    4.6997 C   0  0  0  0  0  0  0  0  0  0  0  0
  -17.2673   -7.3657    3.8845 C   0  0  0  0  0  0  0  0  0  0  0  0
  -15.9812   -6.9222    3.2645 C   0  0  0  0  0  0  0  0  0  0  0  0
  -14.8599   -6.6584    4.2087 C   0  0  0  0  0  0  0  0  0  0  0  0
  -15.1320   -7.3515    5.5417 C   0  0  0  0  0  0  0  0  0  0  0  0
  -13.8166   -7.4243    6.3145 C   0  0  0  0  0  0  0  0  0  0  0  0
  -13.6939   -6.4331    7.1424 C   0  0  0  0  0  0  0  0  0  0  0  0
  -12.9209   -8.4675    6.0109 C   0  0  0  0  0  0  0  0  0  0  0  0
  -12.5861   -6.1908    8.0290 C   0  0  0  0  0  0  0  0  0  0  0  0
  -13.2104   -5.6545    9.3603 C   0  0  0  0  0  0  0  0  0  0  0  0
  -13.9536   -6.7647   10.0500 C   0  0  0  0  0  0  0  0  0  0  0  0
  -12.9689   -7.1304   11.1614 C   0  0  0  0  0  0  0  0  0  0  0  0
  -12.4883   -5.7396   11.5468 C   0  0  0  0  0  0  0  0  0  0  0  0
  -13.6283   -5.0658   12.2770 C   0  0  0  0  0  0  0  0  0  0  0  0
  -11.2911   -5.7656   12.4406 C   0  0  0  0  0  0  0  0  0  0  0  0
  -12.2304   -5.1481   10.2513 N   0  0  0  0  0  0  0  0  0  0  0  0
  -12.4926   -3.7075   10.4150 C   0  0  0  0  0  0  0  0  0  0  0  0
  -10.8661   -5.2679    9.8411 C   0  0  0  0  0  0  0  0  0  0  0  0
  1  2  1  0  0  0
  2  3  1  0  0  0
  3  4  1  0  0  0
  4  5  2  0  0  0
  4  6  1  0  0  0
  6  7  1  0  0  0
  7  8  2  0  0  0
  8  9  1  0  0  0
  9 10  1  0  0  0
 10 11  1  0  0  0
 11 12  1  0  0  0
 12 13  1  0  0  0
 13 14  1  0  0  0
 14 15  2  0  0  0
 15 17  1  0  0  0
 17 18  1  0  0  0
 18 19  1  0  0  0
 19 20  1  0  0  0
 20 21  1  0  0  0
 21 22  1  0  0  0
 21 23  1  0  0  0
 21 24  1  0  0  0
 24 25  1  0  0  0
 24 26  1  0  0  0
 14 16  1  0  0  0
 16  2  1  0  0  0
 16  6  1  0  0  0
 13  8  1  0  0  0
 24 18  1  0  0  0
M  CHG 1  24   1
M  END
> <minimizedAffinity>
2.42812

> <CNNscore>
0.5447996259

> <CNNaffinity>
6.8676085472

> <CNN_VS>
3.7414705753

> <CNNaffinity_variance>
0.4109477103

$$$$
[H]C1=C2C([H])([H])C([H])([H])C([H])([H])C([H])([H])[C@]2([H])/C(=C(\[H])C([H])([H])C2([H])C([H])([H])C([H])([H])C(C([H])([H])[H])(C([H])([H])[H])[N+]2(C([H])([H])[H])C([H])([H])[H])[C@]2([H])[C@@]1([H])C(=O)O[C@@]2([H])C([H])([H])[H]


 26 29  0  0  0  0  0  0  0  0999 V2000
  -15.5980   -9.8825    4.8614 C   0  0  0  0  0  0  0  0  0  0  0  0
  -14.7846   -9.0798    5.9158 C   0  0  0  0  0  0  0  0  0  0  0  0
  -15.6576   -8.9969    7.0137 O   0  0  0  0  0  0  0  0  0  0  0  0
  -16.6021   -8.0473    6.6296 C   0  0  0  0  0  0  0  0  0  0  0  0
  -17.6281   -7.7677    7.2894 O   0  0  0  0  0  0  0  0  0  0  0  0
  -16.1788   -7.4523    5.3398 C   0  0  0  0  0  0  0  0  0  0  0  0
  -16.5597   -6.0868    5.1043 C   0  0  0  0  0  0  0  0  0  0  0  0
  -15.7860   -5.0572    5.1662 C   0  0  0  0  0  0  0  0  0  0  0  0
  -16.2610   -3.6773    4.9058 C   0  0  0  0  0  0  0  0  0  0  0  0
  -15.1013   -2.9169    4.2765 C   0  0  0  0  0  0  0  0  0  0  0  0
  -14.2066   -3.8123    3.4810 C   0  0  0  0  0  0  0  0  0  0  0  0
  -13.5931   -4.9474    4.2250 C   0  0  0  0  0  0  0  0  0  0  0  0
  -14.3836   -5.2158    5.5034 C   0  0  0  0  0  0  0  0  0  0  0  0
  -14.0088   -6.6078    6.0081 C   0  0  0  0  0  0  0  0  0  0  0  0
  -13.0686   -6.5549    6.9003 C   0  0  0  0  0  0  0  0  0  0  0  0
  -14.6523   -7.7213    5.4348 C   0  0  0  0  0  0  0  0  0  0  0  0
  -12.4778   -7.6728    7.5883 C   0  0  0  0  0  0  0  0  0  0  0  0
  -11.0888   -7.9111    6.9074 C   0  0  0  0  0  0  0  0  0  0  0  0
  -10.4007   -6.5915    6.6937 C   0  0  0  0  0  0  0  0  0  0  0  0
   -9.3695   -6.6123    7.8228 C   0  0  0  0  0  0  0  0  0  0  0  0
   -8.9573   -8.0754    7.7673 C   0  0  0  0  0  0  0  0  0  0  0  0
   -8.1296   -8.2532    6.5143 C   0  0  0  0  0  0  0  0  0  0  0  0
   -8.1423   -8.4945    8.9475 C   0  0  0  0  0  0  0  0  0  0  0  0
  -10.2406   -8.7397    7.6853 N   0  0  0  0  0  0  0  0  0  0  0  0
  -10.0009   -9.9690    6.9094 C   0  0  0  0  0  0  0  0  0  0  0  0
  -10.7402   -9.1548    8.9588 C   0  0  0  0  0  0  0  0  0  0  0  0
  1  2  1  0  0  0
  2  3  1  0  0  0
  3  4  1  0  0  0
  4  5  2  0  0  0
  4  6  1  0  0  0
  6  7  1  0  0  0
  7  8  2  0  0  0
  8  9  1  0  0  0
  9 10  1  0  0  0
 10 11  1  0  0  0
 11 12  1  0  0  0
 12 13  1  0  0  0
 13 14  1  0  0  0
 14 15  2  0  0  0
 15 17  1  0  0  0
 17 18  1  0  0  0
 18 19  1  0  0  0
 19 20  1  0  0  0
 20 21  1  0  0  0
 21 22  1  0  0  0
 21 23  1  0  0  0
 21 24  1  0  0  0
 24 25  1  0  0  0
 24 26  1  0  0  0
 14 16  1  0  0  0
 16  2  1  0  0  0
 16  6  1  0  0  0
 13  8  1  0  0  0
 24 18  1  0  0  0
M  CHG 1  24   1
M  END
> <minimizedAffinity>
3.31520

> <CNNscore>
0.4658252299

> <CNNaffinity>
6.9798936844

> <CNN_VS>
3.2514104843

> <CNNaffinity_variance>
1.2376461029

$$$$
[H]C1=C2C([H])([H])C([H])([H])C([H])([H])C([H])([H])[C@]2([H])/C(=C(\[H])C([H])([H])C2([H])C([H])([H])C([H])([H])C(C([H])([H])[H])(C([H])([H])[H])[N+]2(C([H])([H])[H])C([H])([H])[H])[C@]2([H])[C@@]1([H])C(=O)O[C@@]2([H])C([H])([H])[H]


 26 29  0  0  0  0  0  0  0  0999 V2000
  -11.0908   -9.6473    5.9940 C   0  0  0  0  0  0  0  0  0  0  0  0
  -11.9249   -8.6271    6.8194 C   0  0  0  0  0  0  0  0  0  0  0  0
  -12.5280   -9.4188    7.8114 O   0  0  0  0  0  0  0  0  0  0  0  0
  -13.5380  -10.1022    7.1374 C   0  0  0  0  0  0  0  0  0  0  0  0
  -14.2393  -11.0044    7.6477 O   0  0  0  0  0  0  0  0  0  0  0  0
  -13.6226   -9.5790    5.7533 C   0  0  0  0  0  0  0  0  0  0  0  0
  -14.9179   -9.6077    5.1316 C   0  0  0  0  0  0  0  0  0  0  0  0
  -15.6948   -8.5967    4.9397 C   0  0  0  0  0  0  0  0  0  0  0  0
  -17.0202   -8.7135    4.2860 C   0  0  0  0  0  0  0  0  0  0  0  0
  -17.2575   -7.4174    3.5225 C   0  0  0  0  0  0  0  0  0  0  0  0
  -15.9806   -6.8022    3.0471 C   0  0  0  0  0  0  0  0  0  0  0  0
  -14.9824   -6.4755    4.1032 C   0  0  0  0  0  0  0  0  0  0  0  0
  -15.2896   -7.2713    5.3696 C   0  0  0  0  0  0  0  0  0  0  0  0
  -14.0465   -7.2475    6.2567 C   0  0  0  0  0  0  0  0  0  0  0  0
  -14.1086   -6.2995    7.1400 C   0  0  0  0  0  0  0  0  0  0  0  0
  -13.0161   -8.1685    5.9868 C   0  0  0  0  0  0  0  0  0  0  0  0
  -13.1164   -5.9921    8.1365 C   0  0  0  0  0  0  0  0  0  0  0  0
  -13.7722   -6.3342    9.5159 C   0  0  0  0  0  0  0  0  0  0  0  0
  -15.0659   -7.0661    9.2897 C   0  0  0  0  0  0  0  0  0  0  0  0
  -14.6514   -8.5016    9.6155 C   0  0  0  0  0  0  0  0  0  0  0  0
  -13.7423   -8.2423   10.8073 C   0  0  0  0  0  0  0  0  0  0  0  0
  -14.6332   -7.8486   11.9640 C   0  0  0  0  0  0  0  0  0  0  0  0
  -12.9432   -9.4422   11.2003 C   0  0  0  0  0  0  0  0  0  0  0  0
  -12.9348   -7.1413   10.3272 N   0  0  0  0  0  0  0  0  0  0  0  0
  -12.5927   -6.3510   11.5226 C   0  0  0  0  0  0  0  0  0  0  0  0
  -11.6960   -7.5630    9.7516 C   0  0  0  0  0  0  0  0  0  0  0  0
  1  2  1  0  0  0
  2  3  1  0  0  0
  3  4  1  0  0  0
  4  5  2  0  0  0
  4  6  1  0  0  0
  6  7  1  0  0  0
  7  8  2  0  0  0
  8  9  1  0  0  0
  9 10  1  0  0  0
 10 11  1  0  0  0
 11 12  1  0  0  0
 12 13  1  0  0  0
 13 14  1  0  0  0
 14 15  2  0  0  0
 15 17  1  0  0  0
 17 18  1  0  0  0
 18 19  1  0  0  0
 19 20  1  0  0  0
 20 21  1  0  0  0
 21 22  1  0  0  0
 21 23  1  0  0  0
 21 24  1  0  0  0
 24 25  1  0  0  0
 24 26  1  0  0  0
 14 16  1  0  0  0
 16  2  1  0  0  0
 16  6  1  0  0  0
 13  8  1  0  0  0
 24 18  1  0  0  0
M  CHG 1  24   1
M  END
> <minimizedAffinity>
3.22868

> <CNNscore>
0.4249765873

> <CNNaffinity>
6.6181244850

> <CNN_VS>
2.8125479221

> <CNNaffinity_variance>
0.3052521944

$$$$
[H]C1=C2C([H])([H])C([H])([H])C([H])([H])C([H])([H])[C@]2([H])/C(=C(\[H])C([H])([H])C2([H])C([H])([H])C([H])([H])C(C([H])([H])[H])(C([H])([H])[H])[N+]2(C([H])([H])[H])C([H])([H])[H])[C@]2([H])[C@@]1([H])C(=O)O[C@@]2([H])C([H])([H])[H]


 26 29  0  0  0  0  0  0  0  0999 V2000
  -13.0987   -5.4838   10.7092 C   0  0  0  0  0  0  0  0  0  0  0  0
  -13.7182   -5.8669    9.3354 C   0  0  0  0  0  0  0  0  0  0  0  0
  -14.7567   -6.7502    9.6759 O   0  0  0  0  0  0  0  0  0  0  0  0
  -14.1034   -7.9344   10.0107 C   0  0  0  0  0  0  0  0  0  0  0  0
  -14.6727   -8.9424   10.4862 O   0  0  0  0  0  0  0  0  0  0  0  0
  -12.6603   -7.7816    9.7089 C   0  0  0  0  0  0  0  0  0  0  0  0
  -11.9516   -8.9729    9.3299 C   0  0  0  0  0  0  0  0  0  0  0  0
  -11.5711   -9.2881    8.1390 C   0  0  0  0  0  0  0  0  0  0  0  0
  -10.8400  -10.5409    7.8333 C   0  0  0  0  0  0  0  0  0  0  0  0
   -9.8979  -10.2374    6.6759 C   0  0  0  0  0  0  0  0  0  0  0  0
   -9.4442   -8.8130    6.6781 C   0  0  0  0  0  0  0  0  0  0  0  0
  -10.5210   -7.7864    6.6063 C   0  0  0  0  0  0  0  0  0  0  0  0
  -11.8535   -8.4042    7.0232 C   0  0  0  0  0  0  0  0  0  0  0  0
  -12.8214   -7.2678    7.3469 C   0  0  0  0  0  0  0  0  0  0  0  0
  -13.5660   -6.9701    6.3273 C   0  0  0  0  0  0  0  0  0  0  0  0
  -12.7528   -6.6757    8.6226 C   0  0  0  0  0  0  0  0  0  0  0  0
  -14.5860   -5.9555    6.2798 C   0  0  0  0  0  0  0  0  0  0  0  0
  -15.4058   -6.2310    4.9753 C   0  0  0  0  0  0  0  0  0  0  0  0
  -14.7300   -7.3096    4.1752 C   0  0  0  0  0  0  0  0  0  0  0  0
  -15.6290   -8.5084    4.4808 C   0  0  0  0  0  0  0  0  0  0  0  0
  -16.9872   -7.8241    4.4548 C   0  0  0  0  0  0  0  0  0  0  0  0
  -17.2903   -7.5003    3.0091 C   0  0  0  0  0  0  0  0  0  0  0  0
  -18.0819   -8.6850    4.9962 C   0  0  0  0  0  0  0  0  0  0  0  0
  -16.7356   -6.6405    5.2490 N   0  0  0  0  0  0  0  0  0  0  0  0
  -17.6314   -5.6034    4.7082 C   0  0  0  0  0  0  0  0  0  0  0  0
  -17.0873   -6.8028    6.6252 C   0  0  0  0  0  0  0  0  0  0  0  0
  1  2  1  0  0  0
  2  3  1  0  0  0
  3  4  1  0  0  0
  4  5  2  0  0  0
  4  6  1  0  0  0
  6  7  1  0  0  0
  7  8  2  0  0  0
  8  9  1  0  0  0
  9 10  1  0  0  0
 10 11  1  0  0  0
 11 12  1  0  0  0
 12 13  1  0  0  0
 13 14  1  0  0  0
 14 15  2  0  0  0
 15 17  1  0  0  0
 17 18  1  0  0  0
 18 19  1  0  0  0
 19 20  1  0  0  0
 20 21  1  0  0  0
 21 22  1  0  0  0
 21 23  1  0  0  0
 21 24  1  0  0  0
 24 25  1  0  0  0
 24 26  1  0  0  0
 14 16  1  0  0  0
 16  2  1  0  0  0
 16  6  1  0  0  0
 13  8  1  0  0  0
 24 18  1  0  0  0
M  CHG 1  24   1
M  END
> <minimizedAffinity>
-2.83170

> <CNNscore>
0.3017613292

> <CNNaffinity>
6.8767066002

> <CNN_VS>
2.0751240253

> <CNNaffinity_variance>
0.1599143296

$$$$
[H]C1=C2C([H])([H])C([H])([H])C([H])([H])C([H])([H])[C@]2([H])/C(=C(\[H])C([H])([H])C2([H])C([H])([H])C([H])([H])C(C([H])([H])[H])(C([H])([H])[H])[N+]2(C([H])([H])[H])C([H])([H])[H])[C@]2([H])[C@@]1([H])C(=O)O[C@@]2([H])C([H])([H])[H]


 26 29  0  0  0  0  0  0  0  0999 V2000
   -9.5405   -9.8931    7.9847 C   0  0  0  0  0  0  0  0  0  0  0  0
  -10.6717   -9.1700    7.2004 C   0  0  0  0  0  0  0  0  0  0  0  0
   -9.9773   -8.2779    6.3657 O   0  0  0  0  0  0  0  0  0  0  0  0
   -9.5588   -7.2621    7.2226 C   0  0  0  0  0  0  0  0  0  0  0  0
   -8.8016   -6.3243    6.8860 O   0  0  0  0  0  0  0  0  0  0  0  0
  -10.1570   -7.4926    8.5590 C   0  0  0  0  0  0  0  0  0  0  0  0
  -10.4354   -6.3257    9.3502 C   0  0  0  0  0  0  0  0  0  0  0  0
  -11.5966   -5.8075    9.5635 C   0  0  0  0  0  0  0  0  0  0  0  0
  -11.7970   -4.5984   10.3976 C   0  0  0  0  0  0  0  0  0  0  0  0
  -13.1506   -4.7455   11.0796 C   0  0  0  0  0  0  0  0  0  0  0  0
  -13.5038   -6.1770   11.3271 C   0  0  0  0  0  0  0  0  0  0  0  0
  -13.5575   -7.0520   10.1230 C   0  0  0  0  0  0  0  0  0  0  0  0
  -12.7824   -6.4046    8.9778 C   0  0  0  0  0  0  0  0  0  0  0  0
  -12.4970   -7.4804    7.9319 C   0  0  0  0  0  0  0  0  0  0  0  0
  -13.3909   -7.4812    6.9918 C   0  0  0  0  0  0  0  0  0  0  0  0
  -11.3929   -8.3309    8.1332 C   0  0  0  0  0  0  0  0  0  0  0  0
  -13.4300   -8.3555    5.8489 C   0  0  0  0  0  0  0  0  0  0  0  0
  -14.9363   -8.7284    5.6444 C   0  0  0  0  0  0  0  0  0  0  0  0
  -15.7423   -8.2204    6.8076 C   0  0  0  0  0  0  0  0  0  0  0  0
  -16.4068   -6.9900    6.1886 C   0  0  0  0  0  0  0  0  0  0  0  0
  -16.7203   -7.5364    4.8041 C   0  0  0  0  0  0  0  0  0  0  0  0
  -17.8560   -8.5217    4.9655 C   0  0  0  0  0  0  0  0  0  0  0  0
  -17.1372   -6.4732    3.8406 C   0  0  0  0  0  0  0  0  0  0  0  0
  -15.4721   -8.1790    4.4520 N   0  0  0  0  0  0  0  0  0  0  0  0
  -15.8405   -9.3073    3.5791 C   0  0  0  0  0  0  0  0  0  0  0  0
  -14.6052   -7.3395    3.6854 C   0  0  0  0  0  0  0  0  0  0  0  0
  1  2  1  0  0  0
  2  3  1  0  0  0
  3  4  1  0  0  0
  4  5  2  0  0  0
  4  6  1  0  0  0
  6  7  1  0  0  0
  7  8  2  0  0  0
  8  9  1  0  0  0
  9 10  1  0  0  0
 10 11  1  0  0  0
 11 12  1  0  0  0
 12 13  1  0  0  0
 13 14  1  0  0  0
 14 15  2  0  0  0
 15 17  1  0  0  0
 17 18  1  0  0  0
 18 19  1  0  0  0
 19 20  1  0  0  0
 20 21  1  0  0  0
 21 22  1  0  0  0
 21 23  1  0  0  0
 21 24  1  0  0  0
 24 25  1  0  0  0
 24 26  1  0  0  0
 14 16  1  0  0  0
 16  2  1  0  0  0
 16  6  1  0  0  0
 13  8  1  0  0  0
 24 18  1  0  0  0
M  CHG 1  24   1
M  END
> <minimizedAffinity>
-6.35304

> <CNNscore>
0.3001932204

> <CNNaffinity>
6.9448447227

> <CNN_VS>
2.0847952366

> <CNNaffinity_variance>
0.0943276733

$$$$
[H]C1=C2C([H])([H])C([H])([H])C([H])([H])C([H])([H])[C@]2([H])/C(=C(\[H])C([H])([H])C2([H])C([H])([H])C([H])([H])C(C([H])([H])[H])(C([H])([H])[H])[N+]2(C([H])([H])[H])C([H])([H])[H])[C@]2([H])[C@@]1([H])C(=O)O[C@@]2([H])C([H])([H])[H]


 26 29  0  0  0  0  0  0  0  0999 V2000
  -11.0696  -10.7853    5.9185 C   0  0  0  0  0  0  0  0  0  0  0  0
  -11.1103   -9.6634    6.9943 C   0  0  0  0  0  0  0  0  0  0  0  0
  -11.7034  -10.2901    8.1034 O   0  0  0  0  0  0  0  0  0  0  0  0
  -13.0520  -10.3808    7.7650 C   0  0  0  0  0  0  0  0  0  0  0  0
  -13.9092  -10.9879    8.4453 O   0  0  0  0  0  0  0  0  0  0  0  0
  -13.2724   -9.6501    6.4945 C   0  0  0  0  0  0  0  0  0  0  0  0
  -14.5633   -9.0450    6.3148 C   0  0  0  0  0  0  0  0  0  0  0  0
  -14.8367   -7.7884    6.4078 C   0  0  0  0  0  0  0  0  0  0  0  0
  -16.2009   -7.2449    6.2047 C   0  0  0  0  0  0  0  0  0  0  0  0
  -16.0432   -5.8592    5.5929 C   0  0  0  0  0  0  0  0  0  0  0  0
  -14.8098   -5.7508    4.7551 C   0  0  0  0  0  0  0  0  0  0  0  0
  -13.5237   -6.0380    5.4493 C   0  0  0  0  0  0  0  0  0  0  0  0
  -13.7905   -6.8340    6.7246 C   0  0  0  0  0  0  0  0  0  0  0  0
  -12.4739   -7.4657    7.1724 C   0  0  0  0  0  0  0  0  0  0  0  0
  -11.8697   -6.7335    8.0564 C   0  0  0  0  0  0  0  0  0  0  0  0
  -12.0701   -8.6696    6.5638 C   0  0  0  0  0  0  0  0  0  0  0  0
  -10.6134   -7.0258    8.6955 C   0  0  0  0  0  0  0  0  0  0  0  0
   -9.6229   -7.4032    7.5438 C   0  0  0  0  0  0  0  0  0  0  0  0
   -9.4173   -6.2137    6.6476 C   0  0  0  0  0  0  0  0  0  0  0  0
   -8.0354   -5.7407    7.1005 C   0  0  0  0  0  0  0  0  0  0  0  0
   -7.3541   -7.0868    7.2949 C   0  0  0  0  0  0  0  0  0  0  0  0
   -7.1097   -7.6604    5.9172 C   0  0  0  0  0  0  0  0  0  0  0  0
   -6.0473   -6.9784    8.0113 C   0  0  0  0  0  0  0  0  0  0  0  0
   -8.3593   -7.8213    8.0331 N   0  0  0  0  0  0  0  0  0  0  0  0
   -8.1853   -9.2313    7.6426 C   0  0  0  0  0  0  0  0  0  0  0  0
   -8.1683   -7.7660    9.4488 C   0  0  0  0  0  0  0  0  0  0  0  0
  1  2  1  0  0  0
  2  3  1  0  0  0
  3  4  1  0  0  0
  4  5  2  0  0  0
  4  6  1  0  0  0
  6  7  1  0  0  0
  7  8  2  0  0  0
  8  9  1  0  0  0
  9 10  1  0  0  0
 10 11  1  0  0  0
 11 12  1  0  0  0
 12 13  1  0  0  0
 13 14  1  0  0  0
 14 15  2  0  0  0
 15 17  1  0  0  0
 17 18  1  0  0  0
 18 19  1  0  0  0
 19 20  1  0  0  0
 20 21  1  0  0  0
 21 22  1  0  0  0
 21 23  1  0  0  0
 21 24  1  0  0  0
 24 25  1  0  0  0
 24 26  1  0  0  0
 14 16  1  0  0  0
 16  2  1  0  0  0
 16  6  1  0  0  0
 13  8  1  0  0  0
 24 18  1  0  0  0
M  CHG 1  24   1
M  END
> <minimizedAffinity>
-1.96944

> <CNNscore>
0.2723569572

> <CNNaffinity>
6.5674390793

> <CNN_VS>
1.7886877060

> <CNNaffinity_variance>
0.1322684586

$$$$
[H]C1=C2C([H])([H])C([H])([H])C([H])([H])C([H])([H])[C@]2([H])/C(=C(\[H])C([H])([H])C2([H])C([H])([H])C([H])([H])C(C([H])([H])[H])(C([H])([H])[H])[N+]2(C([H])([H])[H])C([H])([H])[H])[C@]2([H])[C@@]1([H])C(=O)O[C@@]2([H])C([H])([H])[H]


 26 29  0  0  0  0  0  0  0  0999 V2000
  -14.8480   -5.4804    5.0690 C   0  0  0  0  0  0  0  0  0  0  0  0
  -13.6737   -6.4166    5.4718 C   0  0  0  0  0  0  0  0  0  0  0  0
  -14.0448   -7.6617    4.9362 O   0  0  0  0  0  0  0  0  0  0  0  0
  -15.0492   -8.1157    5.7885 C   0  0  0  0  0  0  0  0  0  0  0  0
  -15.7296   -9.1468    5.5883 O   0  0  0  0  0  0  0  0  0  0  0  0
  -15.1563   -7.1823    6.9348 C   0  0  0  0  0  0  0  0  0  0  0  0
  -15.5774   -7.7461    8.1877 C   0  0  0  0  0  0  0  0  0  0  0  0
  -14.8253   -7.9891    9.2064 C   0  0  0  0  0  0  0  0  0  0  0  0
  -15.3426   -8.5727   10.4672 C   0  0  0  0  0  0  0  0  0  0  0  0
  -14.5108   -7.9916   11.6027 C   0  0  0  0  0  0  0  0  0  0  0  0
  -14.0140   -6.6166   11.2901 C   0  0  0  0  0  0  0  0  0  0  0  0
  -13.1757   -6.4899   10.0655 C   0  0  0  0  0  0  0  0  0  0  0  0
  -13.4057   -7.6932    9.1542 C   0  0  0  0  0  0  0  0  0  0  0  0
  -12.8850   -7.3393    7.7626 C   0  0  0  0  0  0  0  0  0  0  0  0
  -11.6695   -7.7573    7.5873 C   0  0  0  0  0  0  0  0  0  0  0  0
  -13.7193   -6.5942    6.9073 C   0  0  0  0  0  0  0  0  0  0  0  0
  -10.8740   -7.6006    6.3978 C   0  0  0  0  0  0  0  0  0  0  0  0
   -9.4823   -7.0695    6.8785 C   0  0  0  0  0  0  0  0  0  0  0  0
   -9.6294   -6.4241    8.2284 C   0  0  0  0  0  0  0  0  0  0  0  0
   -9.0488   -7.5087    9.1367 C   0  0  0  0  0  0  0  0  0  0  0  0
   -7.8850   -7.9711    8.2732 C   0  0  0  0  0  0  0  0  0  0  0  0
   -6.8466   -6.8724    8.3075 C   0  0  0  0  0  0  0  0  0  0  0  0
   -7.2637   -9.2378    8.7654 C   0  0  0  0  0  0  0  0  0  0  0  0
   -8.5145   -8.1013    6.9764 N   0  0  0  0  0  0  0  0  0  0  0  0
   -7.4589   -7.8039    5.9926 C   0  0  0  0  0  0  0  0  0  0  0  0
   -8.9627   -9.4307    6.7010 C   0  0  0  0  0  0  0  0  0  0  0  0
  1  2  1  0  0  0
  2  3  1  0  0  0
  3  4  1  0  0  0
  4  5  2  0  0  0
  4  6  1  0  0  0
  6  7  1  0  0  0
  7  8  2  0  0  0
  8  9  1  0  0  0
  9 10  1  0  0  0
 10 11  1  0  0  0
 11 12  1  0  0  0
 12 13  1  0  0  0
 13 14  1  0  0  0
 14 15  2  0  0  0
 15 17  1  0  0  0
 17 18  1  0  0  0
 18 19  1  0  0  0
 19 20  1  0  0  0
 20 21  1  0  0  0
 21 22  1  0  0  0
 21 23  1  0  0  0
 21 24  1  0  0  0
 24 25  1  0  0  0
 24 26  1  0  0  0
 14 16  1  0  0  0
 16  2  1  0  0  0
 16  6  1  0  0  0
 13  8  1  0  0  0
 24 18  1  0  0  0
M  CHG 1  24   1
M  END
> <minimizedAffinity>
0.76616

> <CNNscore>
0.2639237046

> <CNNaffinity>
6.4395246506

> <CNN_VS>
1.6995432377

> <CNNaffinity_variance>
0.1668284535

$$$$
[H]C1=C2C([H])([H])C([H])([H])C([H])([H])C([H])([H])[C@]2([H])/C(=C(\[H])C([H])([H])C2([H])C([H])([H])C([H])([H])C(C([H])([H])[H])(C([H])([H])[H])[N+]2(C([H])([H])[H])C([H])([H])[H])[C@]2([H])[C@@]1([H])C(=O)O[C@@]2([H])C([H])([H])[H]


 26 29  0  0  0  0  0  0  0  0999 V2000
  -13.1874   -5.6053   10.8770 C   0  0  0  0  0  0  0  0  0  0  0  0
  -13.5853   -6.1120    9.4619 C   0  0  0  0  0  0  0  0  0  0  0  0
  -14.2451   -7.3258    9.7187 O   0  0  0  0  0  0  0  0  0  0  0  0
  -13.2191   -8.2127   10.0382 C   0  0  0  0  0  0  0  0  0  0  0  0
  -13.4006   -9.3814   10.4471 O   0  0  0  0  0  0  0  0  0  0  0  0
  -11.9199   -7.5365    9.8109 C   0  0  0  0  0  0  0  0  0  0  0  0
  -10.8182   -8.3723    9.4201 C   0  0  0  0  0  0  0  0  0  0  0  0
  -10.3139   -8.4665    8.2372 C   0  0  0  0  0  0  0  0  0  0  0  0
   -9.1712   -9.3555    7.9185 C   0  0  0  0  0  0  0  0  0  0  0  0
   -8.3676   -8.6735    6.8193 C   0  0  0  0  0  0  0  0  0  0  0  0
   -8.4584   -7.1833    6.8977 C   0  0  0  0  0  0  0  0  0  0  0  0
   -9.8303   -6.6092    6.8148 C   0  0  0  0  0  0  0  0  0  0  0  0
  -10.8622   -7.6852    7.1443 C   0  0  0  0  0  0  0  0  0  0  0  0
  -12.1841   -6.9906    7.4655 C   0  0  0  0  0  0  0  0  0  0  0  0
  -12.9549   -6.9264    6.4241 C   0  0  0  0  0  0  0  0  0  0  0  0
  -12.3722   -6.4816    8.7648 C   0  0  0  0  0  0  0  0  0  0  0  0
  -14.2702   -6.3443    6.3676 C   0  0  0  0  0  0  0  0  0  0  0  0
  -15.2097   -7.4596    5.7990 C   0  0  0  0  0  0  0  0  0  0  0  0
  -16.2238   -7.8421    6.8411 C   0  0  0  0  0  0  0  0  0  0  0  0
  -17.4684   -7.1255    6.3159 C   0  0  0  0  0  0  0  0  0  0  0  0
  -17.2959   -7.3704    4.8246 C   0  0  0  0  0  0  0  0  0  0  0  0
  -17.5880   -8.8340    4.5813 C   0  0  0  0  0  0  0  0  0  0  0  0
  -18.2229   -6.5480    3.9897 C   0  0  0  0  0  0  0  0  0  0  0  0
  -15.8993   -7.0424    4.6323 N   0  0  0  0  0  0  0  0  0  0  0  0
  -15.4407   -7.8991    3.5248 C   0  0  0  0  0  0  0  0  0  0  0  0
  -15.6927   -5.6916    4.2125 C   0  0  0  0  0  0  0  0  0  0  0  0
  1  2  1  0  0  0
  2  3  1  0  0  0
  3  4  1  0  0  0
  4  5  2  0  0  0
  4  6  1  0  0  0
  6  7  1  0  0  0
  7  8  2  0  0  0
  8  9  1  0  0  0
  9 10  1  0  0  0
 10 11  1  0  0  0
 11 12  1  0  0  0
 12 13  1  0  0  0
 13 14  1  0  0  0
 14 15  2  0  0  0
 15 17  1  0  0  0
 17 18  1  0  0  0
 18 19  1  0  0  0
 19 20  1  0  0  0
 20 21  1  0  0  0
 21 22  1  0  0  0
 21 23  1  0  0  0
 21 24  1  0  0  0
 24 25  1  0  0  0
 24 26  1  0  0  0
 14 16  1  0  0  0
 16  2  1  0  0  0
 16  6  1  0  0  0
 13  8  1  0  0  0
 24 18  1  0  0  0
M  CHG 1  24   1
M  END
> <minimizedAffinity>
-5.30432

> <CNNscore>
0.2430624068

> <CNNaffinity>
6.8577432632

> <CNN_VS>
1.6668596268

> <CNNaffinity_variance>
0.1030951962

$$$$
[H]c1c([H])c([H])c(C([H])([H])N2C([H])([H])C([H])([H])C([H])(C([H])([H])C([H])([H])N([H])C(=O)c3c([H])c([H])c([H])c([N+](=O)[O-])c3[H])C([H])([H])C2([H])[H])c([H])c1[H]


 28 30  0  0  0  0  0  0  0  0999 V2000
   -9.9324   -6.8894    7.7088 C   0  0  0  0  0  0  0  0  0  0  0  0
   -7.6257   -8.1578    6.7552 O   0  0  0  0  0  0  0  0  0  0  0  0
   -7.4883   -7.0280    7.2870 C   0  0  0  0  0  0  0  0  0  0  0  0
   -8.6092   -6.3480    7.7851 N   0  0  0  0  0  0  0  0  0  0  0  0
   -8.5122   -5.4116    8.2332 H   0  0  0  0  0  0  0  0  0  0  0  0
   -6.1280   -6.5079    7.3400 C   0  0  0  0  0  0  0  0  0  0  0  0
   -5.4059   -6.5480    8.5093 C   0  0  0  0  0  0  0  0  0  0  0  0
   -4.0979   -6.0476    8.5593 C   0  0  0  0  0  0  0  0  0  0  0  0
   -3.5245   -5.5098    7.4319 C   0  0  0  0  0  0  0  0  0  0  0  0
   -4.2212   -5.4522    6.2345 C   0  0  0  0  0  0  0  0  0  0  0  0
   -5.5142   -5.9617    6.2386 C   0  0  0  0  0  0  0  0  0  0  0  0
   -3.6592   -4.9047    5.0576 N   0  0  0  0  0  0  0  0  0  0  0  0
   -2.7022   -5.4755    4.5260 O   0  0  0  0  0  0  0  0  0  0  0  0
   -4.1616   -3.7646    4.5128 O   0  0  0  0  0  0  0  0  0  0  0  0
  -10.5716   -6.8781    9.0662 C   0  0  0  0  0  0  0  0  0  0  0  0
  -11.9240   -7.5594    8.9161 C   0  0  0  0  0  0  0  0  0  0  0  0
  -12.0303   -8.2761    7.5956 C   0  0  0  0  0  0  0  0  0  0  0  0
  -13.3442   -9.0638    7.6386 C   0  0  0  0  0  0  0  0  0  0  0  0
  -14.4449   -8.1862    7.8008 N   0  0  0  0  0  0  0  0  0  0  0  0
  -14.1351   -6.8124    7.9981 C   0  0  0  0  0  0  0  0  0  0  0  0
  -13.0555   -6.5645    9.0191 C   0  0  0  0  0  0  0  0  0  0  0  0
  -15.3683   -8.3194    6.7068 C   0  0  0  0  0  0  0  0  0  0  0  0
  -15.5273   -7.1215    5.8811 C   0  0  0  0  0  0  0  0  0  0  0  0
  -16.8106   -6.6027    5.7751 C   0  0  0  0  0  0  0  0  0  0  0  0
  -17.0927   -5.4731    5.0363 C   0  0  0  0  0  0  0  0  0  0  0  0
  -16.0430   -4.8644    4.3949 C   0  0  0  0  0  0  0  0  0  0  0  0
  -14.7716   -5.3707    4.4945 C   0  0  0  0  0  0  0  0  0  0  0  0
  -14.5021   -6.4924    5.2302 C   0  0  0  0  0  0  0  0  0  0  0  0
  2  3  2  0  0  0
  3  4  1  0  0  0
  4  1  1  0  0  0
  1 15  1  0  0  0
 15 16  1  0  0  0
 16 17  1  0  0  0
 17 18  1  0  0  0
 18 19  1  0  0  0
 19 22  1  0  0  0
 22 23  1  0  0  0
 23 24  2  0  0  0
 24 25  1  0  0  0
 25 26  2  0  0  0
 26 27  1  0  0  0
 27 28  2  0  0  0
 19 20  1  0  0  0
 20 21  1  0  0  0
  3  6  1  0  0  0
  6  7  2  0  0  0
  7  8  1  0  0  0
  8  9  2  0  0  0
  9 10  1  0  0  0
 10 12  1  0  0  0
 12 13  2  0  0  0
 12 14  1  0  0  0
 10 11  2  0  0  0
 21 16  1  0  0  0
 11  6  1  0  0  0
 28 23  1  0  0  0
  4  5  1  0  0  0
M  CHG 1  12   1
M  CHG 1  14  -1
M  END
> <minimizedAffinity>
-8.62911

> <CNNscore>
0.6751157641

> <CNNaffinity>
6.8561592102

> <CNN_VS>
4.6287012100

> <CNNaffinity_variance>
0.2499689162

$$$$
[H]c1c([H])c([H])c(C([H])([H])N2C([H])([H])C([H])([H])C([H])(C([H])([H])C([H])([H])N([H])C(=O)c3c([H])c([H])c([H])c([N+](=O)[O-])c3[H])C([H])([H])C2([H])[H])c([H])c1[H]


 28 30  0  0  0  0  0  0  0  0999 V2000
   -9.9516   -8.3211    7.9874 C   0  0  0  0  0  0  0  0  0  0  0  0
   -7.4658   -9.5644    7.6502 O   0  0  0  0  0  0  0  0  0  0  0  0
   -7.5370   -8.3346    7.4040 C   0  0  0  0  0  0  0  0  0  0  0  0
   -8.7564   -7.6594    7.5588 N   0  0  0  0  0  0  0  0  0  0  0  0
   -8.8319   -6.6382    7.3629 H   0  0  0  0  0  0  0  0  0  0  0  0
   -6.3019   -7.6985    6.9640 C   0  0  0  0  0  0  0  0  0  0  0  0
   -6.3338   -6.5886    6.1533 C   0  0  0  0  0  0  0  0  0  0  0  0
   -5.1456   -5.9776    5.7306 C   0  0  0  0  0  0  0  0  0  0  0  0
   -3.9322   -6.4875    6.1266 C   0  0  0  0  0  0  0  0  0  0  0  0
   -3.8599   -7.6051    6.9440 C   0  0  0  0  0  0  0  0  0  0  0  0
   -5.0667   -8.1729    7.3348 C   0  0  0  0  0  0  0  0  0  0  0  0
   -2.6272   -8.1539    7.3682 N   0  0  0  0  0  0  0  0  0  0  0  0
   -2.0235   -7.6238    8.3057 O   0  0  0  0  0  0  0  0  0  0  0  0
   -2.1076   -9.2513    6.7560 O   0  0  0  0  0  0  0  0  0  0  0  0
  -10.8077   -7.3755    8.7774 C   0  0  0  0  0  0  0  0  0  0  0  0
  -12.2470   -7.8339    8.5930 C   0  0  0  0  0  0  0  0  0  0  0  0
  -12.4154   -8.5985    7.3062 C   0  0  0  0  0  0  0  0  0  0  0  0
  -13.8425   -9.1568    7.3217 C   0  0  0  0  0  0  0  0  0  0  0  0
  -14.7880   -8.1032    7.3837 N   0  0  0  0  0  0  0  0  0  0  0  0
  -14.2629   -6.7895    7.5276 C   0  0  0  0  0  0  0  0  0  0  0  0
  -13.2009   -6.6631    8.5885 C   0  0  0  0  0  0  0  0  0  0  0  0
  -15.6741   -8.1463    6.2523 C   0  0  0  0  0  0  0  0  0  0  0  0
  -15.7996   -6.8881    5.5154 C   0  0  0  0  0  0  0  0  0  0  0  0
  -17.0574   -6.3012    5.4927 C   0  0  0  0  0  0  0  0  0  0  0  0
  -17.3063   -5.1109    4.8426 C   0  0  0  0  0  0  0  0  0  0  0  0
  -16.2492   -4.5114    4.2044 C   0  0  0  0  0  0  0  0  0  0  0  0
  -15.0029   -5.0849    4.2219 C   0  0  0  0  0  0  0  0  0  0  0  0
  -14.7662   -6.2664    4.8700 C   0  0  0  0  0  0  0  0  0  0  0  0
  2  3  2  0  0  0
  3  4  1  0  0  0
  4  1  1  0  0  0
  1 15  1  0  0  0
 15 16  1  0  0  0
 16 17  1  0  0  0
 17 18  1  0  0  0
 18 19  1  0  0  0
 19 22  1  0  0  0
 22 23  1  0  0  0
 23 24  2  0  0  0
 24 25  1  0  0  0
 25 26  2  0  0  0
 26 27  1  0  0  0
 27 28  2  0  0  0
 19 20  1  0  0  0
 20 21  1  0  0  0
  3  6  1  0  0  0
  6  7  2  0  0  0
  7  8  1  0  0  0
  8  9  2  0  0  0
  9 10  1  0  0  0
 10 12  1  0  0  0
 12 13  2  0  0  0
 12 14  1  0  0  0
 10 11  2  0  0  0
 21 16  1  0  0  0
 11  6  1  0  0  0
 28 23  1  0  0  0
  4  5  1  0  0  0
M  CHG 1  12   1
M  CHG 1  14  -1
M  END
> <minimizedAffinity>
-8.57685

> <CNNscore>
0.6532921195

> <CNNaffinity>
6.7344474792

> <CNN_VS>
4.3995614052

> <CNNaffinity_variance>
0.1888842285

$$$$
[H]c1c([H])c([H])c(C([H])([H])N2C([H])([H])C([H])([H])C([H])(C([H])([H])C([H])([H])N([H])C(=O)c3c([H])c([H])c([H])c([N+](=O)[O-])c3[H])C([H])([H])C2([H])[H])c([H])c1[H]


 28 30  0  0  0  0  0  0  0  0999 V2000
   -9.9563   -6.6154    7.7339 C   0  0  0  0  0  0  0  0  0  0  0  0
   -8.1414   -8.6011    6.9580 O   0  0  0  0  0  0  0  0  0  0  0  0
   -7.6687   -7.5245    7.4004 C   0  0  0  0  0  0  0  0  0  0  0  0
   -8.5314   -6.4962    7.8069 N   0  0  0  0  0  0  0  0  0  0  0  0
   -8.1558   -5.5981    8.1802 H   0  0  0  0  0  0  0  0  0  0  0  0
   -6.2149   -7.4388    7.4529 C   0  0  0  0  0  0  0  0  0  0  0  0
   -5.4349   -8.2376    6.6504 C   0  0  0  0  0  0  0  0  0  0  0  0
   -4.0370   -8.1546    6.7016 C   0  0  0  0  0  0  0  0  0  0  0  0
   -3.4324   -7.2680    7.5603 C   0  0  0  0  0  0  0  0  0  0  0  0
   -4.1855   -6.4460    8.3848 C   0  0  0  0  0  0  0  0  0  0  0  0
   -5.5670   -6.5677    8.2952 C   0  0  0  0  0  0  0  0  0  0  0  0
   -3.5933   -5.5241    9.2792 N   0  0  0  0  0  0  0  0  0  0  0  0
   -4.3099   -4.7012    9.8569 O   0  0  0  0  0  0  0  0  0  0  0  0
   -2.2525   -5.5382    9.5050 O   0  0  0  0  0  0  0  0  0  0  0  0
  -10.5369   -6.6949    9.1151 C   0  0  0  0  0  0  0  0  0  0  0  0
  -11.8597   -7.4366    8.9892 C   0  0  0  0  0  0  0  0  0  0  0  0
  -11.9666   -8.1397    7.6614 C   0  0  0  0  0  0  0  0  0  0  0  0
  -13.2410   -8.9884    7.7259 C   0  0  0  0  0  0  0  0  0  0  0  0
  -14.3767   -8.1656    7.9286 N   0  0  0  0  0  0  0  0  0  0  0  0
  -14.1260   -6.7816    8.1381 C   0  0  0  0  0  0  0  0  0  0  0  0
  -13.0331   -6.4972    9.1351 C   0  0  0  0  0  0  0  0  0  0  0  0
  -15.3209   -8.3270    6.8564 C   0  0  0  0  0  0  0  0  0  0  0  0
  -15.4825   -7.1572    5.9919 C   0  0  0  0  0  0  0  0  0  0  0  0
  -16.7686   -6.6514    5.8605 C   0  0  0  0  0  0  0  0  0  0  0  0
  -17.0534   -5.5479    5.0842 C   0  0  0  0  0  0  0  0  0  0  0  0
  -16.0034   -4.9522    4.4310 C   0  0  0  0  0  0  0  0  0  0  0  0
  -14.7293   -5.4459    4.5554 C   0  0  0  0  0  0  0  0  0  0  0  0
  -14.4571   -6.5416    5.3283 C   0  0  0  0  0  0  0  0  0  0  0  0
  2  3  2  0  0  0
  3  4  1  0  0  0
  4  1  1  0  0  0
  1 15  1  0  0  0
 15 16  1  0  0  0
 16 17  1  0  0  0
 17 18  1  0  0  0
 18 19  1  0  0  0
 19 22  1  0  0  0
 22 23  1  0  0  0
 23 24  2  0  0  0
 24 25  1  0  0  0
 25 26  2  0  0  0
 26 27  1  0  0  0
 27 28  2  0  0  0
 19 20  1  0  0  0
 20 21  1  0  0  0
  3  6  1  0  0  0
  6  7  2  0  0  0
  7  8  1  0  0  0
  8  9  2  0  0  0
  9 10  1  0  0  0
 10 12  1  0  0  0
 12 13  2  0  0  0
 12 14  1  0  0  0
 10 11  2  0  0  0
 21 16  1  0  0  0
 11  6  1  0  0  0
 28 23  1  0  0  0
  4  5  1  0  0  0
M  CHG 1  12   1
M  CHG 1  14  -1
M  END
> <minimizedAffinity>
-8.71501

> <CNNscore>
0.6371034980

> <CNNaffinity>
6.8151054382

> <CNN_VS>
4.3419275284

> <CNNaffinity_variance>
0.2035939246

$$$$
[H]c1c([H])c([H])c(C([H])([H])N2C([H])([H])C([H])([H])C([H])(C([H])([H])C([H])([H])N([H])C(=O)c3c([H])c([H])c([H])c([N+](=O)[O-])c3[H])C([H])([H])C2([H])[H])c([H])c1[H]


 28 30  0  0  0  0  0  0  0  0999 V2000
   -9.1335   -7.9386    7.7722 C   0  0  0  0  0  0  0  0  0  0  0  0
   -7.2158   -6.6668    6.1773 O   0  0  0  0  0  0  0  0  0  0  0  0
   -6.8181   -7.2180    7.2338 C   0  0  0  0  0  0  0  0  0  0  0  0
   -7.7345   -7.8728    8.0694 N   0  0  0  0  0  0  0  0  0  0  0  0
   -7.4206   -8.3389    8.9475 H   0  0  0  0  0  0  0  0  0  0  0  0
   -5.3893   -7.1237    7.5048 C   0  0  0  0  0  0  0  0  0  0  0  0
   -4.8830   -6.0851    8.2501 C   0  0  0  0  0  0  0  0  0  0  0  0
   -3.5090   -5.9951    8.5101 C   0  0  0  0  0  0  0  0  0  0  0  0
   -2.6526   -6.9511    8.0184 C   0  0  0  0  0  0  0  0  0  0  0  0
   -3.1259   -8.0131    7.2630 C   0  0  0  0  0  0  0  0  0  0  0  0
   -4.4960   -8.0557    7.0342 C   0  0  0  0  0  0  0  0  0  0  0  0
   -2.2705   -9.0122    6.7427 N   0  0  0  0  0  0  0  0  0  0  0  0
   -2.2277   -9.1916    5.5219 O   0  0  0  0  0  0  0  0  0  0  0  0
   -1.5019   -9.7691    7.5705 O   0  0  0  0  0  0  0  0  0  0  0  0
   -9.8716   -6.8784    8.5352 C   0  0  0  0  0  0  0  0  0  0  0  0
  -11.2230   -7.4709    8.9072 C   0  0  0  0  0  0  0  0  0  0  0  0
  -11.8069   -8.2583    7.7636 C   0  0  0  0  0  0  0  0  0  0  0  0
  -13.0609   -8.9475    8.3123 C   0  0  0  0  0  0  0  0  0  0  0  0
  -13.9989   -7.9865    8.7646 N   0  0  0  0  0  0  0  0  0  0  0  0
  -13.5787   -6.6284    8.7326 C   0  0  0  0  0  0  0  0  0  0  0  0
  -12.2049   -6.3945    9.3048 C   0  0  0  0  0  0  0  0  0  0  0  0
  -15.2459   -8.1215    8.0618 C   0  0  0  0  0  0  0  0  0  0  0  0
  -15.1772   -7.8631    6.6229 C   0  0  0  0  0  0  0  0  0  0  0  0
  -15.4375   -6.5637    6.2093 C   0  0  0  0  0  0  0  0  0  0  0  0
  -15.3953   -6.1874    4.8834 C   0  0  0  0  0  0  0  0  0  0  0  0
  -15.0816   -7.1582    3.9652 C   0  0  0  0  0  0  0  0  0  0  0  0
  -14.8231   -8.4449    4.3656 C   0  0  0  0  0  0  0  0  0  0  0  0
  -14.8675   -8.8082    5.6840 C   0  0  0  0  0  0  0  0  0  0  0  0
  2  3  2  0  0  0
  3  4  1  0  0  0
  4  1  1  0  0  0
  1 15  1  0  0  0
 15 16  1  0  0  0
 16 17  1  0  0  0
 17 18  1  0  0  0
 18 19  1  0  0  0
 19 22  1  0  0  0
 22 23  1  0  0  0
 23 24  2  0  0  0
 24 25  1  0  0  0
 25 26  2  0  0  0
 26 27  1  0  0  0
 27 28  2  0  0  0
 19 20  1  0  0  0
 20 21  1  0  0  0
  3  6  1  0  0  0
  6  7  2  0  0  0
  7  8  1  0  0  0
  8  9  2  0  0  0
  9 10  1  0  0  0
 10 12  1  0  0  0
 12 13  2  0  0  0
 12 14  1  0  0  0
 10 11  2  0  0  0
 21 16  1  0  0  0
 11  6  1  0  0  0
 28 23  1  0  0  0
  4  5  1  0  0  0
M  CHG 1  12   1
M  CHG 1  14  -1
M  END
> <minimizedAffinity>
-7.99038

> <CNNscore>
0.4585948288

> <CNNaffinity>
6.5505814552

> <CNN_VS>
3.0040628910

> <CNNaffinity_variance>
0.2221307456

$$$$
[H]c1c([H])c([H])c(C([H])([H])N2C([H])([H])C([H])([H])C([H])(C([H])([H])C([H])([H])N([H])C(=O)c3c([H])c([H])c([H])c([N+](=O)[O-])c3[H])C([H])([H])C2([H])[H])c([H])c1[H]


 28 30  0  0  0  0  0  0  0  0999 V2000
  -13.8358   -9.0950    8.6932 C   0  0  0  0  0  0  0  0  0  0  0  0
  -13.5102   -9.3353    5.9227 O   0  0  0  0  0  0  0  0  0  0  0  0
  -14.5176   -8.7087    6.3359 C   0  0  0  0  0  0  0  0  0  0  0  0
  -14.7294   -8.5546    7.7137 N   0  0  0  0  0  0  0  0  0  0  0  0
  -15.5579   -8.0339    8.0734 H   0  0  0  0  0  0  0  0  0  0  0  0
  -15.4065   -8.1799    5.3093 C   0  0  0  0  0  0  0  0  0  0  0  0
  -15.8460   -8.9798    4.2810 C   0  0  0  0  0  0  0  0  0  0  0  0
  -16.7006   -8.4704    3.2942 C   0  0  0  0  0  0  0  0  0  0  0  0
  -17.1079   -7.1588    3.3483 C   0  0  0  0  0  0  0  0  0  0  0  0
  -16.6859   -6.3216    4.3699 C   0  0  0  0  0  0  0  0  0  0  0  0
  -15.8396   -6.8759    5.3227 C   0  0  0  0  0  0  0  0  0  0  0  0
  -17.0868   -4.9678    4.4530 N   0  0  0  0  0  0  0  0  0  0  0  0
  -16.3923   -4.1005    3.9147 O   0  0  0  0  0  0  0  0  0  0  0  0
  -18.2217   -4.6185    5.1156 O   0  0  0  0  0  0  0  0  0  0  0  0
  -13.4552   -8.0336    9.6830 C   0  0  0  0  0  0  0  0  0  0  0  0
  -11.9646   -7.7851    9.5032 C   0  0  0  0  0  0  0  0  0  0  0  0
  -11.7043   -6.4119    8.9418 C   0  0  0  0  0  0  0  0  0  0  0  0
  -10.1851   -6.2136    8.9781 C   0  0  0  0  0  0  0  0  0  0  0  0
   -9.5369   -7.1907    8.1825 N   0  0  0  0  0  0  0  0  0  0  0  0
  -10.3666   -8.1963    7.6146 C   0  0  0  0  0  0  0  0  0  0  0  0
  -11.3432   -8.8096    8.5840 C   0  0  0  0  0  0  0  0  0  0  0  0
   -8.7565   -6.5691    7.1472 C   0  0  0  0  0  0  0  0  0  0  0  0
   -7.3711   -7.0312    7.0536 C   0  0  0  0  0  0  0  0  0  0  0  0
   -7.1336   -8.1297    6.2387 C   0  0  0  0  0  0  0  0  0  0  0  0
   -5.8723   -8.6568    6.0572 C   0  0  0  0  0  0  0  0  0  0  0  0
   -4.8365   -8.0489    6.7217 C   0  0  0  0  0  0  0  0  0  0  0  0
   -5.0628   -6.9628    7.5292 C   0  0  0  0  0  0  0  0  0  0  0  0
   -6.3182   -6.4473    7.7027 C   0  0  0  0  0  0  0  0  0  0  0  0
  2  3  2  0  0  0
  3  4  1  0  0  0
  4  1  1  0  0  0
  1 15  1  0  0  0
 15 16  1  0  0  0
 16 17  1  0  0  0
 17 18  1  0  0  0
 18 19  1  0  0  0
 19 22  1  0  0  0
 22 23  1  0  0  0
 23 24  2  0  0  0
 24 25  1  0  0  0
 25 26  2  0  0  0
 26 27  1  0  0  0
 27 28  2  0  0  0
 19 20  1  0  0  0
 20 21  1  0  0  0
  3  6  1  0  0  0
  6  7  2  0  0  0
  7  8  1  0  0  0
  8  9  2  0  0  0
  9 10  1  0  0  0
 10 12  1  0  0  0
 12 13  2  0  0  0
 12 14  1  0  0  0
 10 11  2  0  0  0
 21 16  1  0  0  0
 11  6  1  0  0  0
 28 23  1  0  0  0
  4  5  1  0  0  0
M  CHG 1  12   1
M  CHG 1  14  -1
M  END
> <minimizedAffinity>
-8.05587

> <CNNscore>
0.4505614340

> <CNNaffinity>
6.7600431442

> <CNN_VS>
3.0458147526

> <CNNaffinity_variance>
0.1425267160

$$$$
[H]c1c([H])c([H])c(C([H])([H])N2C([H])([H])C([H])([H])C([H])(C([H])([H])C([H])([H])N([H])C(=O)c3c([H])c([H])c([H])c([N+](=O)[O-])c3[H])C([H])([H])C2([H])[H])c([H])c1[H]


 28 30  0  0  0  0  0  0  0  0999 V2000
   -6.8225   -6.5826    6.9729 C   0  0  0  0  0  0  0  0  0  0  0  0
   -8.4149   -8.8854    6.9546 O   0  0  0  0  0  0  0  0  0  0  0  0
   -8.8910   -7.8556    7.4941 C   0  0  0  0  0  0  0  0  0  0  0  0
   -8.1387   -6.6725    7.5292 N   0  0  0  0  0  0  0  0  0  0  0  0
   -8.5204   -5.8078    7.9691 H   0  0  0  0  0  0  0  0  0  0  0  0
  -10.2296   -7.9886    8.0545 C   0  0  0  0  0  0  0  0  0  0  0  0
  -11.0179   -9.0704    7.7407 C   0  0  0  0  0  0  0  0  0  0  0  0
  -12.3051   -9.1975    8.2799 C   0  0  0  0  0  0  0  0  0  0  0  0
  -12.7912   -8.2347    9.1319 C   0  0  0  0  0  0  0  0  0  0  0  0
  -12.0257   -7.1296    9.4718 C   0  0  0  0  0  0  0  0  0  0  0  0
  -10.7570   -7.0515    8.9100 C   0  0  0  0  0  0  0  0  0  0  0  0
  -12.4975   -6.1220   10.3450 N   0  0  0  0  0  0  0  0  0  0  0  0
  -13.5752   -5.5710   10.1015 O   0  0  0  0  0  0  0  0  0  0  0  0
  -11.7788   -5.7596   11.4409 O   0  0  0  0  0  0  0  0  0  0  0  0
   -5.7955   -6.8117    8.0425 C   0  0  0  0  0  0  0  0  0  0  0  0
   -4.4655   -6.3338    7.4784 C   0  0  0  0  0  0  0  0  0  0  0  0
   -3.9691   -5.1144    8.2102 C   0  0  0  0  0  0  0  0  0  0  0  0
   -2.5567   -4.8414    7.6819 C   0  0  0  0  0  0  0  0  0  0  0  0
   -2.5874   -4.5880    6.2880 N   0  0  0  0  0  0  0  0  0  0  0  0
   -3.8471   -4.7378    5.6454 C   0  0  0  0  0  0  0  0  0  0  0  0
   -4.5779   -6.0039    6.0090 C   0  0  0  0  0  0  0  0  0  0  0  0
   -2.0486   -3.2878    5.9944 C   0  0  0  0  0  0  0  0  0  0  0  0
   -3.0086   -2.1862    6.0773 C   0  0  0  0  0  0  0  0  0  0  0  0
   -3.0197   -1.4558    7.2578 C   0  0  0  0  0  0  0  0  0  0  0  0
   -3.8687   -0.3879    7.4585 C   0  0  0  0  0  0  0  0  0  0  0  0
   -4.7212   -0.0625    6.4332 C   0  0  0  0  0  0  0  0  0  0  0  0
   -4.7167   -0.7794    5.2633 C   0  0  0  0  0  0  0  0  0  0  0  0
   -3.8702   -1.8375    5.0739 C   0  0  0  0  0  0  0  0  0  0  0  0
  2  3  2  0  0  0
  3  4  1  0  0  0
  4  1  1  0  0  0
  1 15  1  0  0  0
 15 16  1  0  0  0
 16 17  1  0  0  0
 17 18  1  0  0  0
 18 19  1  0  0  0
 19 22  1  0  0  0
 22 23  1  0  0  0
 23 24  2  0  0  0
 24 25  1  0  0  0
 25 26  2  0  0  0
 26 27  1  0  0  0
 27 28  2  0  0  0
 19 20  1  0  0  0
 20 21  1  0  0  0
  3  6  1  0  0  0
  6  7  2  0  0  0
  7  8  1  0  0  0
  8  9  2  0  0  0
  9 10  1  0  0  0
 10 12  1  0  0  0
 12 13  2  0  0  0
 12 14  1  0  0  0
 10 11  2  0  0  0
 21 16  1  0  0  0
 11  6  1  0  0  0
 28 23  1  0  0  0
  4  5  1  0  0  0
M  CHG 1  12   1
M  CHG 1  14  -1
M  END
> <minimizedAffinity>
-6.99876

> <CNNscore>
0.4373483658

> <CNNaffinity>
5.5528020859

> <CNN_VS>
2.4285089970

> <CNNaffinity_variance>
0.0765044540

$$$$
[H]c1c([H])c([H])c(C([H])([H])N2C([H])([H])C([H])([H])C([H])(C([H])([H])C([H])([H])N([H])C(=O)c3c([H])c([H])c([H])c([N+](=O)[O-])c3[H])C([H])([H])C2([H])[H])c([H])c1[H]


 28 30  0  0  0  0  0  0  0  0999 V2000
  -12.7436   -7.0767   10.3384 C   0  0  0  0  0  0  0  0  0  0  0  0
  -10.5668   -5.7306    9.2032 O   0  0  0  0  0  0  0  0  0  0  0  0
  -10.6481   -6.9691    9.0086 C   0  0  0  0  0  0  0  0  0  0  0  0
  -11.7194   -7.6938    9.5509 N   0  0  0  0  0  0  0  0  0  0  0  0
  -11.8042   -8.7212    9.3955 H   0  0  0  0  0  0  0  0  0  0  0  0
   -9.5838   -7.5614    8.2085 C   0  0  0  0  0  0  0  0  0  0  0  0
   -9.6806   -8.8577    7.7605 C   0  0  0  0  0  0  0  0  0  0  0  0
   -8.6567   -9.4265    6.9913 C   0  0  0  0  0  0  0  0  0  0  0  0
   -7.5413   -8.6871    6.6775 C   0  0  0  0  0  0  0  0  0  0  0  0
   -7.4081   -7.3768    7.1110 C   0  0  0  0  0  0  0  0  0  0  0  0
   -8.4513   -6.8606    7.8704 C   0  0  0  0  0  0  0  0  0  0  0  0
   -6.2729   -6.5904    6.8053 N   0  0  0  0  0  0  0  0  0  0  0  0
   -5.6325   -6.0746    7.7263 O   0  0  0  0  0  0  0  0  0  0  0  0
   -5.8857   -6.4006    5.5157 O   0  0  0  0  0  0  0  0  0  0  0  0
  -13.8030   -6.5020    9.4448 C   0  0  0  0  0  0  0  0  0  0  0  0
  -14.0079   -7.5004    8.3147 C   0  0  0  0  0  0  0  0  0  0  0  0
  -13.6734   -6.8891    6.9794 C   0  0  0  0  0  0  0  0  0  0  0  0
  -13.7409   -8.0280    5.9562 C   0  0  0  0  0  0  0  0  0  0  0  0
  -15.0429   -8.5861    5.9186 N   0  0  0  0  0  0  0  0  0  0  0  0
  -15.9731   -8.0868    6.8713 C   0  0  0  0  0  0  0  0  0  0  0  0
  -15.4321   -8.0011    8.2746 C   0  0  0  0  0  0  0  0  0  0  0  0
  -15.6035   -8.4832    4.5986 C   0  0  0  0  0  0  0  0  0  0  0  0
  -16.4658   -7.3209    4.3806 C   0  0  0  0  0  0  0  0  0  0  0  0
  -17.8250   -7.5690    4.2463 C   0  0  0  0  0  0  0  0  0  0  0  0
  -18.7444   -6.5608    4.0473 C   0  0  0  0  0  0  0  0  0  0  0  0
  -18.2639   -5.2766    3.9845 C   0  0  0  0  0  0  0  0  0  0  0  0
  -16.9219   -5.0229    4.1162 C   0  0  0  0  0  0  0  0  0  0  0  0
  -16.0176   -6.0304    4.3134 C   0  0  0  0  0  0  0  0  0  0  0  0
  2  3  2  0  0  0
  3  4  1  0  0  0
  4  1  1  0  0  0
  1 15  1  0  0  0
 15 16  1  0  0  0
 16 17  1  0  0  0
 17 18  1  0  0  0
 18 19  1  0  0  0
 19 22  1  0  0  0
 22 23  1  0  0  0
 23 24  2  0  0  0
 24 25  1  0  0  0
 25 26  2  0  0  0
 26 27  1  0  0  0
 27 28  2  0  0  0
 19 20  1  0  0  0
 20 21  1  0  0  0
  3  6  1  0  0  0
  6  7  2  0  0  0
  7  8  1  0  0  0
  8  9  2  0  0  0
  9 10  1  0  0  0
 10 12  1  0  0  0
 12 13  2  0  0  0
 12 14  1  0  0  0
 10 11  2  0  0  0
 21 16  1  0  0  0
 11  6  1  0  0  0
 28 23  1  0  0  0
  4  5  1  0  0  0
M  CHG 1  12   1
M  CHG 1  14  -1
M  END
> <minimizedAffinity>
-9.29799

> <CNNscore>
0.4042032659

> <CNNaffinity>
6.8836812973

> <CNN_VS>
2.7824065685

> <CNNaffinity_variance>
0.0177603401

$$$$
[H]c1c([H])c([H])c(C([H])([H])N2C([H])([H])C([H])([H])C([H])(C([H])([H])C([H])([H])N([H])C(=O)c3c([H])c([H])c([H])c([N+](=O)[O-])c3[H])C([H])([H])C2([H])[H])c([H])c1[H]


 28 30  0  0  0  0  0  0  0  0999 V2000
   -7.3968   -7.5160    7.7978 C   0  0  0  0  0  0  0  0  0  0  0  0
   -9.8214   -8.8844    7.5014 O   0  0  0  0  0  0  0  0  0  0  0  0
   -9.8476   -7.7821    8.1033 C   0  0  0  0  0  0  0  0  0  0  0  0
   -8.6632   -7.0517    8.2779 N   0  0  0  0  0  0  0  0  0  0  0  0
   -8.6680   -6.1333    8.7714 H   0  0  0  0  0  0  0  0  0  0  0  0
  -11.1532   -7.3468    8.5827 C   0  0  0  0  0  0  0  0  0  0  0  0
  -11.2585   -6.3641    9.5385 C   0  0  0  0  0  0  0  0  0  0  0  0
  -12.5143   -5.9463    9.9990 C   0  0  0  0  0  0  0  0  0  0  0  0
  -13.6568   -6.5202    9.4946 C   0  0  0  0  0  0  0  0  0  0  0  0
  -13.5908   -7.5138    8.5298 C   0  0  0  0  0  0  0  0  0  0  0  0
  -12.3218   -7.8916    8.1075 C   0  0  0  0  0  0  0  0  0  0  0  0
  -14.7477   -8.1240    7.9916 N   0  0  0  0  0  0  0  0  0  0  0  0
  -15.7494   -8.2468    8.7029 O   0  0  0  0  0  0  0  0  0  0  0  0
  -14.7640   -8.5719    6.7078 O   0  0  0  0  0  0  0  0  0  0  0  0
   -6.9465   -6.6752    6.6395 C   0  0  0  0  0  0  0  0  0  0  0  0
   -5.4260   -6.6403    6.6922 C   0  0  0  0  0  0  0  0  0  0  0  0
   -4.9365   -6.2479    8.0616 C   0  0  0  0  0  0  0  0  0  0  0  0
   -3.4143   -6.4243    8.0407 C   0  0  0  0  0  0  0  0  0  0  0  0
   -2.8298   -5.5842    7.0606 N   0  0  0  0  0  0  0  0  0  0  0  0
   -3.7287   -4.8506    6.2384 C   0  0  0  0  0  0  0  0  0  0  0  0
   -4.8627   -5.6706    5.6807 C   0  0  0  0  0  0  0  0  0  0  0  0
   -1.8822   -4.6843    7.6603 C   0  0  0  0  0  0  0  0  0  0  0  0
   -2.4695   -3.5274    8.3374 C   0  0  0  0  0  0  0  0  0  0  0  0
   -2.5656   -2.3553    7.5997 C   0  0  0  0  0  0  0  0  0  0  0  0
   -3.1082   -1.1982    8.1176 C   0  0  0  0  0  0  0  0  0  0  0  0
   -3.5599   -1.2418    9.4130 C   0  0  0  0  0  0  0  0  0  0  0  0
   -3.4684   -2.3962   10.1490 C   0  0  0  0  0  0  0  0  0  0  0  0
   -2.9283   -3.5393    9.6258 C   0  0  0  0  0  0  0  0  0  0  0  0
  2  3  2  0  0  0
  3  4  1  0  0  0
  4  1  1  0  0  0
  1 15  1  0  0  0
 15 16  1  0  0  0
 16 17  1  0  0  0
 17 18  1  0  0  0
 18 19  1  0  0  0
 19 22  1  0  0  0
 22 23  1  0  0  0
 23 24  2  0  0  0
 24 25  1  0  0  0
 25 26  2  0  0  0
 26 27  1  0  0  0
 27 28  2  0  0  0
 19 20  1  0  0  0
 20 21  1  0  0  0
  3  6  1  0  0  0
  6  7  2  0  0  0
  7  8  1  0  0  0
  8  9  2  0  0  0
  9 10  1  0  0  0
 10 12  1  0  0  0
 12 13  2  0  0  0
 12 14  1  0  0  0
 10 11  2  0  0  0
 21 16  1  0  0  0
 11  6  1  0  0  0
 28 23  1  0  0  0
  4  5  1  0  0  0
M  CHG 1  12   1
M  CHG 1  14  -1
M  END
> <minimizedAffinity>
-7.07406

> <CNNscore>
0.3910391331

> <CNNaffinity>
5.3728036880

> <CNN_VS>
2.1009764671

> <CNNaffinity_variance>
0.2365673482

$$$$
[H]c1c([H])c([H])c(C([H])([H])N2C([H])([H])C([H])([H])C([H])(C([H])([H])C([H])([H])N([H])C(=O)c3c([H])c([H])c([H])c([N+](=O)[O-])c3[H])C([H])([H])C2([H])[H])c([H])c1[H]


 28 30  0  0  0  0  0  0  0  0999 V2000
  -14.7661   -9.1091    8.4392 C   0  0  0  0  0  0  0  0  0  0  0  0
  -17.2102   -7.9510    7.7154 O   0  0  0  0  0  0  0  0  0  0  0  0
  -16.2069   -7.6748    7.0118 C   0  0  0  0  0  0  0  0  0  0  0  0
  -14.9576   -8.2292    7.3261 N   0  0  0  0  0  0  0  0  0  0  0  0
  -14.1157   -8.0138    6.7501 H   0  0  0  0  0  0  0  0  0  0  0  0
  -16.4406   -6.7712    5.8926 C   0  0  0  0  0  0  0  0  0  0  0  0
  -17.6219   -6.8138    5.1904 C   0  0  0  0  0  0  0  0  0  0  0  0
  -17.8457   -5.9446    4.1143 C   0  0  0  0  0  0  0  0  0  0  0  0
  -16.8790   -5.0374    3.7514 C   0  0  0  0  0  0  0  0  0  0  0  0
  -15.6752   -4.9645    4.4356 C   0  0  0  0  0  0  0  0  0  0  0  0
  -15.5036   -5.8484    5.4943 C   0  0  0  0  0  0  0  0  0  0  0  0
  -14.6609   -4.0428    4.0863 N   0  0  0  0  0  0  0  0  0  0  0  0
  -13.7827   -4.3877    3.2900 O   0  0  0  0  0  0  0  0  0  0  0  0
  -14.6470   -2.7907    4.6166 O   0  0  0  0  0  0  0  0  0  0  0  0
  -14.4498   -8.3160    9.6730 C   0  0  0  0  0  0  0  0  0  0  0  0
  -12.9468   -8.0777    9.6639 C   0  0  0  0  0  0  0  0  0  0  0  0
  -12.6272   -6.6173    9.4801 C   0  0  0  0  0  0  0  0  0  0  0  0
  -11.1124   -6.4818    9.6694 C   0  0  0  0  0  0  0  0  0  0  0  0
  -10.4196   -7.2524    8.7030 N   0  0  0  0  0  0  0  0  0  0  0  0
  -11.2178   -8.0605    7.8474 C   0  0  0  0  0  0  0  0  0  0  0  0
  -12.2721   -8.8628    8.5644 C   0  0  0  0  0  0  0  0  0  0  0  0
   -9.5560   -6.4195    7.9108 C   0  0  0  0  0  0  0  0  0  0  0  0
   -8.4241   -7.1114    7.2928 C   0  0  0  0  0  0  0  0  0  0  0  0
   -8.0177   -8.2979    7.8881 C   0  0  0  0  0  0  0  0  0  0  0  0
   -6.9714   -9.0505    7.3980 C   0  0  0  0  0  0  0  0  0  0  0  0
   -6.3300   -8.5802    6.2794 C   0  0  0  0  0  0  0  0  0  0  0  0
   -6.7252   -7.4084    5.6850 C   0  0  0  0  0  0  0  0  0  0  0  0
   -7.7648   -6.6687    6.1791 C   0  0  0  0  0  0  0  0  0  0  0  0
  2  3  2  0  0  0
  3  4  1  0  0  0
  4  1  1  0  0  0
  1 15  1  0  0  0
 15 16  1  0  0  0
 16 17  1  0  0  0
 17 18  1  0  0  0
 18 19  1  0  0  0
 19 22  1  0  0  0
 22 23  1  0  0  0
 23 24  2  0  0  0
 24 25  1  0  0  0
 25 26  2  0  0  0
 26 27  1  0  0  0
 27 28  2  0  0  0
 19 20  1  0  0  0
 20 21  1  0  0  0
  3  6  1  0  0  0
  6  7  2  0  0  0
  7  8  1  0  0  0
  8  9  2  0  0  0
  9 10  1  0  0  0
 10 12  1  0  0  0
 12 13  2  0  0  0
 12 14  1  0  0  0
 10 11  2  0  0  0
 21 16  1  0  0  0
 11  6  1  0  0  0
 28 23  1  0  0  0
  4  5  1  0  0  0
M  CHG 1  12   1
M  CHG 1  14  -1
M  END
> <minimizedAffinity>
-8.23158

> <CNNscore>
0.3582438529

> <CNNaffinity>
6.7416429520

> <CNN_VS>
2.4151520729

> <CNNaffinity_variance>
0.1957793236

$$$$
[H]OC(=O)c1c([H])c([H])c(OC2([H])C([H])([H])SC2([H])[H])c([H])c1[H]


 15 16  0  0  0  0  0  0  0  0999 V2000
  -12.6573   -8.6486    8.0810 C   0  0  0  0  0  0  0  0  0  0  0  0
  -11.8153   -7.6544    8.5587 C   0  0  0  0  0  0  0  0  0  0  0  0
  -10.4547   -7.7195    8.2796 C   0  0  0  0  0  0  0  0  0  0  0  0
   -9.9005   -8.7393    7.5416 C   0  0  0  0  0  0  0  0  0  0  0  0
  -10.7531   -9.7280    7.0692 C   0  0  0  0  0  0  0  0  0  0  0  0
  -12.1210   -9.6827    7.3371 C   0  0  0  0  0  0  0  0  0  0  0  0
  -14.5061   -7.8182    9.2860 O   0  0  0  0  0  0  0  0  0  0  0  0
  -14.0907   -8.5787    8.3757 C   0  0  0  0  0  0  0  0  0  0  0  0
  -14.9843   -9.3493    7.6523 O   0  0  0  0  0  0  0  0  0  0  0  0
  -15.3087  -10.2239    8.0668 H   0  0  0  0  0  0  0  0  0  0  0  0
   -8.6072   -8.8109    7.2703 O   0  0  0  0  0  0  0  0  0  0  0  0
   -7.5378   -8.0520    7.0664 C   0  0  0  0  0  0  0  0  0  0  0  0
   -6.5008   -8.4964    6.0248 C   0  0  0  0  0  0  0  0  0  0  0  0
   -5.7553   -6.8555    6.2887 S   0  0  0  0  0  0  0  0  0  0  0  0
   -7.5843   -6.7472    6.3478 C   0  0  0  0  0  0  0  0  0  0  0  0
  7  8  2  0  0  0
  8  9  1  0  0  0
  8  1  1  0  0  0
  1  2  2  0  0  0
  2  3  1  0  0  0
  3  4  2  0  0  0
  4 11  1  0  0  0
 11 12  1  0  0  0
 12 13  1  0  0  0
 13 14  1  0  0  0
 14 15  1  0  0  0
  4  5  1  0  0  0
  5  6  2  0  0  0
  6  1  1  0  0  0
 15 12  1  0  0  0
  9 10  1  0  0  0
M  END
> <minimizedAffinity>
-5.84321

> <CNNscore>
0.5274652839

> <CNNaffinity>
4.4204449654

> <CNN_VS>
2.3316311836

> <CNNaffinity_variance>
0.1762254536

$$$$
[H]OC(=O)c1c([H])c([H])c(OC2([H])C([H])([H])SC2([H])[H])c([H])c1[H]


 15 16  0  0  0  0  0  0  0  0999 V2000
  -19.4749   -9.2247    6.4405 C   0  0  0  0  0  0  0  0  0  0  0  0
  -18.7670   -8.5324    7.4126 C   0  0  0  0  0  0  0  0  0  0  0  0
  -17.6474   -7.7939    7.0460 C   0  0  0  0  0  0  0  0  0  0  0  0
  -17.2057   -7.7191    5.7455 C   0  0  0  0  0  0  0  0  0  0  0  0
  -17.9224   -8.4162    4.7820 C   0  0  0  0  0  0  0  0  0  0  0  0
  -19.0483   -9.1632    5.1273 C   0  0  0  0  0  0  0  0  0  0  0  0
  -21.6846   -9.9777    6.1089 O   0  0  0  0  0  0  0  0  0  0  0  0
  -20.6545  -10.0025    6.8283 C   0  0  0  0  0  0  0  0  0  0  0  0
  -20.6327  -10.7624    7.9849 O   0  0  0  0  0  0  0  0  0  0  0  0
  -21.0611  -10.3706    8.8245 H   0  0  0  0  0  0  0  0  0  0  0  0
  -16.1416   -7.0194    5.3858 O   0  0  0  0  0  0  0  0  0  0  0  0
  -15.7428   -5.7800    5.1289 C   0  0  0  0  0  0  0  0  0  0  0  0
  -14.4177   -5.5670    4.3828 C   0  0  0  0  0  0  0  0  0  0  0  0
  -14.9198   -3.8181    4.2999 S   0  0  0  0  0  0  0  0  0  0  0  0
  -16.3743   -4.9145    4.0930 C   0  0  0  0  0  0  0  0  0  0  0  0
  7  8  2  0  0  0
  8  9  1  0  0  0
  8  1  1  0  0  0
  1  2  2  0  0  0
  2  3  1  0  0  0
  3  4  2  0  0  0
  4 11  1  0  0  0
 11 12  1  0  0  0
 12 13  1  0  0  0
 13 14  1  0  0  0
 14 15  1  0  0  0
  4  5  1  0  0  0
  5  6  2  0  0  0
  6  1  1  0  0  0
 15 12  1  0  0  0
  9 10  1  0  0  0
M  END
> <minimizedAffinity>
-2.31451

> <CNNscore>
0.5194626451

> <CNNaffinity>
4.4803075790

> <CNN_VS>
2.3273525238

> <CNNaffinity_variance>
0.2810379863

$$$$
[H]OC(=O)c1c([H])c([H])c(OC2([H])C([H])([H])SC2([H])[H])c([H])c1[H]


 15 16  0  0  0  0  0  0  0  0999 V2000
   -7.3826   -7.6871    6.7529 C   0  0  0  0  0  0  0  0  0  0  0  0
   -8.3588   -6.7547    7.0741 C   0  0  0  0  0  0  0  0  0  0  0  0
   -9.6006   -7.1924    7.5209 C   0  0  0  0  0  0  0  0  0  0  0  0
   -9.9071   -8.5261    7.6597 C   0  0  0  0  0  0  0  0  0  0  0  0
   -8.9222   -9.4493    7.3352 C   0  0  0  0  0  0  0  0  0  0  0  0
   -7.6697   -9.0326    6.8853 C   0  0  0  0  0  0  0  0  0  0  0  0
   -5.0640   -7.9584    6.4214 O   0  0  0  0  0  0  0  0  0  0  0  0
   -6.0746   -7.2244    6.2823 C   0  0  0  0  0  0  0  0  0  0  0  0
   -5.9538   -5.9812    5.6861 O   0  0  0  0  0  0  0  0  0  0  0  0
   -5.6202   -5.2048    6.2587 H   0  0  0  0  0  0  0  0  0  0  0  0
  -11.0855   -8.9534    8.0840 O   0  0  0  0  0  0  0  0  0  0  0  0
  -12.3885   -8.7850    7.8967 C   0  0  0  0  0  0  0  0  0  0  0  0
  -13.2832  -10.0245    7.7521 C   0  0  0  0  0  0  0  0  0  0  0  0
  -14.6704   -8.8474    7.8427 S   0  0  0  0  0  0  0  0  0  0  0  0
  -13.3190   -8.3358    8.9707 C   0  0  0  0  0  0  0  0  0  0  0  0
  7  8  2  0  0  0
  8  9  1  0  0  0
  8  1  1  0  0  0
  1  2  2  0  0  0
  2  3  1  0  0  0
  3  4  2  0  0  0
  4 11  1  0  0  0
 11 12  1  0  0  0
 12 13  1  0  0  0
 13 14  1  0  0  0
 14 15  1  0  0  0
  4  5  1  0  0  0
  5  6  2  0  0  0
  6  1  1  0  0  0
 15 12  1  0  0  0
  9 10  1  0  0  0
M  END
> <minimizedAffinity>
-5.65826

> <CNNscore>
0.4725124538

> <CNNaffinity>
4.2859759331

> <CNN_VS>
2.0251770020

> <CNNaffinity_variance>
0.3209065497

$$$$
[H]OC(=O)c1c([H])c([H])c(OC2([H])C([H])([H])SC2([H])[H])c([H])c1[H]


 15 16  0  0  0  0  0  0  0  0999 V2000
  -14.1634   -8.1057    7.7653 C   0  0  0  0  0  0  0  0  0  0  0  0
  -13.4126   -9.1710    7.2888 C   0  0  0  0  0  0  0  0  0  0  0  0
  -12.0300   -9.1510    7.4342 C   0  0  0  0  0  0  0  0  0  0  0  0
  -11.3661   -8.1082    8.0372 C   0  0  0  0  0  0  0  0  0  0  0  0
  -12.1282   -7.0483    8.5099 C   0  0  0  0  0  0  0  0  0  0  0  0
  -13.5162   -7.0474    8.3748 C   0  0  0  0  0  0  0  0  0  0  0  0
  -16.1395   -7.7862    6.5193 O   0  0  0  0  0  0  0  0  0  0  0  0
  -15.6202   -8.1281    7.6114 C   0  0  0  0  0  0  0  0  0  0  0  0
  -16.4216   -8.5251    8.6678 O   0  0  0  0  0  0  0  0  0  0  0  0
  -16.8544   -7.7996    9.2408 H   0  0  0  0  0  0  0  0  0  0  0  0
  -10.0508   -8.0792    8.1807 O   0  0  0  0  0  0  0  0  0  0  0  0
   -8.9212   -8.2731    7.5117 C   0  0  0  0  0  0  0  0  0  0  0  0
   -8.1269   -7.0513    7.0279 C   0  0  0  0  0  0  0  0  0  0  0  0
   -6.8320   -8.2553    6.5906 S   0  0  0  0  0  0  0  0  0  0  0  0
   -7.6597   -8.7409    8.1526 C   0  0  0  0  0  0  0  0  0  0  0  0
  7  8  2  0  0  0
  8  9  1  0  0  0
  8  1  1  0  0  0
  1  2  2  0  0  0
  2  3  1  0  0  0
  3  4  2  0  0  0
  4 11  1  0  0  0
 11 12  1  0  0  0
 12 13  1  0  0  0
 13 14  1  0  0  0
 14 15  1  0  0  0
  4  5  1  0  0  0
  5  6  2  0  0  0
  6  1  1  0  0  0
 15 12  1  0  0  0
  9 10  1  0  0  0
M  END
> <minimizedAffinity>
-5.87020

> <CNNscore>
0.4609734714

> <CNNaffinity>
4.5533723831

> <CNN_VS>
2.0989837646

> <CNNaffinity_variance>
0.2254602015

$$$$
[H]OC(=O)c1c([H])c([H])c(OC2([H])C([H])([H])SC2([H])[H])c([H])c1[H]


 15 16  0  0  0  0  0  0  0  0999 V2000
  -11.9395   -8.7567    7.2424 C   0  0  0  0  0  0  0  0  0  0  0  0
  -12.7281   -9.6123    6.4864 C   0  0  0  0  0  0  0  0  0  0  0  0
  -14.0618   -9.2906    6.2602 C   0  0  0  0  0  0  0  0  0  0  0  0
  -14.6403   -8.1470    6.7597 C   0  0  0  0  0  0  0  0  0  0  0  0
  -13.8410   -7.2990    7.5145 C   0  0  0  0  0  0  0  0  0  0  0  0
  -12.5008   -7.6019    7.7538 C   0  0  0  0  0  0  0  0  0  0  0  0
   -9.7533   -8.2347    7.9551 O   0  0  0  0  0  0  0  0  0  0  0  0
  -10.5343   -9.0970    7.4799 C   0  0  0  0  0  0  0  0  0  0  0  0
  -10.0696  -10.3660    7.1808 O   0  0  0  0  0  0  0  0  0  0  0  0
   -9.5783  -10.5009    6.2962 H   0  0  0  0  0  0  0  0  0  0  0  0
  -15.9083   -7.8313    6.5505 O   0  0  0  0  0  0  0  0  0  0  0  0
  -16.7626   -7.5188    5.5842 C   0  0  0  0  0  0  0  0  0  0  0  0
  -16.2119   -7.0213    4.2399 C   0  0  0  0  0  0  0  0  0  0  0  0
  -17.9303   -7.1674    3.6538 S   0  0  0  0  0  0  0  0  0  0  0  0
  -17.5261   -8.5348    4.8058 C   0  0  0  0  0  0  0  0  0  0  0  0
  7  8  2  0  0  0
  8  9  1  0  0  0
  8  1  1  0  0  0
  1  2  2  0  0  0
  2  3  1  0  0  0
  3  4  2  0  0  0
  4 11  1  0  0  0
 11 12  1  0  0  0
 12 13  1  0  0  0
 13 14  1  0  0  0
 14 15  1  0  0  0
  4  5  1  0  0  0
  5  6  2  0  0  0
  6  1  1  0  0  0
 15 12  1  0  0  0
  9 10  1  0  0  0
M  END
> <minimizedAffinity>
-5.97511

> <CNNscore>
0.4599702060

> <CNNaffinity>
4.7377052307

> <CNN_VS>
2.1792032719

> <CNNaffinity_variance>
0.4957830906

$$$$
[H]OC(=O)c1c([H])c([H])c(OC2([H])C([H])([H])SC2([H])[H])c([H])c1[H]


 15 16  0  0  0  0  0  0  0  0999 V2000
  -12.0975   -8.1815    7.5588 C   0  0  0  0  0  0  0  0  0  0  0  0
  -12.6901   -9.1831    6.8031 C   0  0  0  0  0  0  0  0  0  0  0  0
  -14.0476   -9.1066    6.5123 C   0  0  0  0  0  0  0  0  0  0  0  0
  -14.8383   -8.0683    6.9468 C   0  0  0  0  0  0  0  0  0  0  0  0
  -14.2339   -7.0722    7.7020 C   0  0  0  0  0  0  0  0  0  0  0  0
  -12.8739   -7.1288    8.0055 C   0  0  0  0  0  0  0  0  0  0  0  0
  -10.0025   -9.2610    7.4868 O   0  0  0  0  0  0  0  0  0  0  0  0
  -10.6670   -8.2634    7.8644 C   0  0  0  0  0  0  0  0  0  0  0  0
  -10.0502   -7.2433    8.5679 O   0  0  0  0  0  0  0  0  0  0  0  0
   -9.9038   -7.3719    9.5699 H   0  0  0  0  0  0  0  0  0  0  0  0
  -16.1310   -7.9857    6.6758 O   0  0  0  0  0  0  0  0  0  0  0  0
  -16.9783   -7.6224    5.7212 C   0  0  0  0  0  0  0  0  0  0  0  0
  -16.4377   -6.8695    4.4970 C   0  0  0  0  0  0  0  0  0  0  0  0
  -18.1050   -7.1070    3.8032 S   0  0  0  0  0  0  0  0  0  0  0  0
  -17.5915   -8.5833    4.7611 C   0  0  0  0  0  0  0  0  0  0  0  0
  7  8  2  0  0  0
  8  9  1  0  0  0
  8  1  1  0  0  0
  1  2  2  0  0  0
  2  3  1  0  0  0
  3  4  2  0  0  0
  4 11  1  0  0  0
 11 12  1  0  0  0
 12 13  1  0  0  0
 13 14  1  0  0  0
 14 15  1  0  0  0
  4  5  1  0  0  0
  5  6  2  0  0  0
  6  1  1  0  0  0
 15 12  1  0  0  0
  9 10  1  0  0  0
M  END
> <minimizedAffinity>
-5.88053

> <CNNscore>
0.4268585742

> <CNNaffinity>
4.7631630898

> <CNN_VS>
2.0331969261

> <CNNaffinity_variance>
0.5589910746

$$$$
[H]OC(=O)c1c([H])c([H])c(OC2([H])C([H])([H])SC2([H])[H])c([H])c1[H]


 15 16  0  0  0  0  0  0  0  0999 V2000
  -10.8766   -8.5525    7.8583 C   0  0  0  0  0  0  0  0  0  0  0  0
  -10.2158   -9.6662    7.3600 C   0  0  0  0  0  0  0  0  0  0  0  0
   -8.8482   -9.5976    7.1187 C   0  0  0  0  0  0  0  0  0  0  0  0
   -8.1130   -8.4594    7.3554 C   0  0  0  0  0  0  0  0  0  0  0  0
   -8.7854   -7.3517    7.8540 C   0  0  0  0  0  0  0  0  0  0  0  0
  -10.1568   -7.3983    8.1034 C   0  0  0  0  0  0  0  0  0  0  0  0
  -12.7594   -9.4116    8.9882 O   0  0  0  0  0  0  0  0  0  0  0  0
  -12.3177   -8.6263    8.1121 C   0  0  0  0  0  0  0  0  0  0  0  0
  -13.1894   -7.8319    7.3877 O   0  0  0  0  0  0  0  0  0  0  0  0
  -13.6730   -8.2518    6.5927 H   0  0  0  0  0  0  0  0  0  0  0  0
   -6.8113   -8.3833    7.1293 O   0  0  0  0  0  0  0  0  0  0  0  0
   -5.7986   -7.5256    7.1265 C   0  0  0  0  0  0  0  0  0  0  0  0
   -4.3892   -8.0434    6.8053 C   0  0  0  0  0  0  0  0  0  0  0  0
   -3.9147   -6.2851    6.7720 S   0  0  0  0  0  0  0  0  0  0  0  0
   -5.5857   -6.5133    6.0536 C   0  0  0  0  0  0  0  0  0  0  0  0
  7  8  2  0  0  0
  8  9  1  0  0  0
  8  1  1  0  0  0
  1  2  2  0  0  0
  2  3  1  0  0  0
  3  4  2  0  0  0
  4 11  1  0  0  0
 11 12  1  0  0  0
 12 13  1  0  0  0
 13 14  1  0  0  0
 14 15  1  0  0  0
  4  5  1  0  0  0
  5  6  2  0  0  0
  6  1  1  0  0  0
 15 12  1  0  0  0
  9 10  1  0  0  0
M  END
> <minimizedAffinity>
-5.27531

> <CNNscore>
0.3639146388

> <CNNaffinity>
3.9030063152

> <CNN_VS>
1.4203611612

> <CNNaffinity_variance>
0.1117738038

$$$$
[H]OC(=O)c1c([H])c([H])c(OC2([H])C([H])([H])SC2([H])[H])c([H])c1[H]


 15 16  0  0  0  0  0  0  0  0999 V2000
  -11.3223   -9.2552    7.3998 C   0  0  0  0  0  0  0  0  0  0  0  0
  -11.2863   -7.9530    7.8780 C   0  0  0  0  0  0  0  0  0  0  0  0
  -10.0578   -7.3388    8.0945 C   0  0  0  0  0  0  0  0  0  0  0  0
   -8.8620   -7.9739    7.8523 C   0  0  0  0  0  0  0  0  0  0  0  0
   -8.9111   -9.2765    7.3741 C   0  0  0  0  0  0  0  0  0  0  0  0
  -10.1321   -9.9119    7.1497 C   0  0  0  0  0  0  0  0  0  0  0  0
  -13.2523   -9.6739    6.1116 O   0  0  0  0  0  0  0  0  0  0  0  0
  -12.6175   -9.9011    7.1721 C   0  0  0  0  0  0  0  0  0  0  0  0
  -13.1394  -10.7596    8.1241 O   0  0  0  0  0  0  0  0  0  0  0  0
  -13.8418  -10.3926    8.7676 H   0  0  0  0  0  0  0  0  0  0  0  0
   -7.6875   -7.3987    8.0549 O   0  0  0  0  0  0  0  0  0  0  0  0
   -6.6952   -6.7933    7.4147 C   0  0  0  0  0  0  0  0  0  0  0  0
   -5.2910   -7.4121    7.4689 C   0  0  0  0  0  0  0  0  0  0  0  0
   -4.8573   -6.1649    6.2143 S   0  0  0  0  0  0  0  0  0  0  0  0
   -6.5542   -6.7980    5.9310 C   0  0  0  0  0  0  0  0  0  0  0  0
  7  8  2  0  0  0
  8  9  1  0  0  0
  8  1  1  0  0  0
  1  2  2  0  0  0
  2  3  1  0  0  0
  3  4  2  0  0  0
  4 11  1  0  0  0
 11 12  1  0  0  0
 12 13  1  0  0  0
 13 14  1  0  0  0
 14 15  1  0  0  0
  4  5  1  0  0  0
  5  6  2  0  0  0
  6  1  1  0  0  0
 15 12  1  0  0  0
  9 10  1  0  0  0
M  END
> <minimizedAffinity>
-6.20954

> <CNNscore>
0.3614364266

> <CNNaffinity>
4.0761775970

> <CNN_VS>
1.4732791185

> <CNNaffinity_variance>
0.1742895395

$$$$
[H]OC(=O)c1c([H])c([H])c(OC2([H])C([H])([H])SC2([H])[H])c([H])c1[H]


 15 16  0  0  0  0  0  0  0  0999 V2000
  -11.3242   -9.2589    7.3899 C   0  0  0  0  0  0  0  0  0  0  0  0
  -10.1599   -9.9603    7.1113 C   0  0  0  0  0  0  0  0  0  0  0  0
   -8.9281   -9.3542    7.3320 C   0  0  0  0  0  0  0  0  0  0  0  0
   -8.8125   -8.0736    7.8205 C   0  0  0  0  0  0  0  0  0  0  0  0
   -9.9846   -7.3821    8.0955 C   0  0  0  0  0  0  0  0  0  0  0  0
  -11.2308   -7.9705    7.8816 C   0  0  0  0  0  0  0  0  0  0  0  0
  -13.2469   -9.6751    6.0901 O   0  0  0  0  0  0  0  0  0  0  0  0
  -12.6214   -9.8988    7.1569 C   0  0  0  0  0  0  0  0  0  0  0  0
  -13.1556  -10.7476    8.1108 O   0  0  0  0  0  0  0  0  0  0  0  0
  -13.8606  -10.3721    8.7464 H   0  0  0  0  0  0  0  0  0  0  0  0
   -7.6454   -7.4874    8.0342 O   0  0  0  0  0  0  0  0  0  0  0  0
   -6.6929   -6.7984    7.4186 C   0  0  0  0  0  0  0  0  0  0  0  0
   -5.2274   -7.0596    7.7953 C   0  0  0  0  0  0  0  0  0  0  0  0
   -4.8293   -5.9963    6.3710 S   0  0  0  0  0  0  0  0  0  0  0  0
   -6.2903   -7.0410    6.0043 C   0  0  0  0  0  0  0  0  0  0  0  0
  7  8  2  0  0  0
  8  9  1  0  0  0
  8  1  1  0  0  0
  1  2  2  0  0  0
  2  3  1  0  0  0
  3  4  2  0  0  0
  4 11  1  0  0  0
 11 12  1  0  0  0
 12 13  1  0  0  0
 13 14  1  0  0  0
 14 15  1  0  0  0
  4  5  1  0  0  0
  5  6  2  0  0  0
  6  1  1  0  0  0
 15 12  1  0  0  0
  9 10  1  0  0  0
M  END
> <minimizedAffinity>
-6.17975

> <CNNscore>
0.3548919261

> <CNNaffinity>
4.0420732498

> <CNN_VS>
1.4344991446

> <CNNaffinity_variance>
0.1675314009

$$$$
[H]C([H])=C([H])C(=O)N([H])C([H])([H])C([H])([H])C([H])([H])C([H])([H])[C@@]([H])(C(=O)N1C([H])([H])C([H])([H])N(c2c([H])c([H])c([H])c(C([H])([H])[H])c2[H])C([H])([H])C1([H])[H])N([H])C(=O)C([H])([H])c1c([H])c([H])c([H])c([H])c1[H]


 37 39  0  0  0  0  0  0  0  0999 V2000
   -7.9693   -7.9844    8.2565 C   0  0  0  0  0  0  0  0  0  0  0  0
   -6.7226   -7.3784    8.7500 C   0  0  0  0  0  0  0  0  0  0  0  0
   -6.4041   -7.5849    9.9743 O   0  0  0  0  0  0  0  0  0  0  0  0
   -5.8649   -6.5921    7.9557 N   0  0  0  0  0  0  0  0  0  0  0  0
   -6.1270   -6.3295    6.5707 C   0  0  0  0  0  0  0  0  0  0  0  0
   -4.7957   -6.2670    5.8293 C   0  0  0  0  0  0  0  0  0  0  0  0
   -4.0475   -5.1604    6.3950 N   0  0  0  0  0  0  0  0  0  0  0  0
   -4.3334   -4.7407    7.7337 C   0  0  0  0  0  0  0  0  0  0  0  0
   -4.6526   -6.0102    8.5232 C   0  0  0  0  0  0  0  0  0  0  0  0
   -3.0410   -4.5098    5.6358 C   0  0  0  0  0  0  0  0  0  0  0  0
   -2.5152   -3.3202    6.1320 C   0  0  0  0  0  0  0  0  0  0  0  0
   -1.5371   -2.6740    5.4199 C   0  0  0  0  0  0  0  0  0  0  0  0
   -1.0617   -3.1647    4.2337 C   0  0  0  0  0  0  0  0  0  0  0  0
   -1.5638   -4.3372    3.7216 C   0  0  0  0  0  0  0  0  0  0  0  0
   -1.0794   -4.8950    2.4486 C   0  0  0  0  0  0  0  0  0  0  0  0
   -2.5507   -4.9862    4.4439 C   0  0  0  0  0  0  0  0  0  0  0  0
   -9.0893   -7.0257    8.4234 N   0  0  0  0  0  0  0  0  0  0  0  0
  -10.4233   -7.4542    8.3015 C   0  0  0  0  0  0  0  0  0  0  0  0
  -10.6567   -8.6619    8.0485 O   0  0  0  0  0  0  0  0  0  0  0  0
   -8.8499   -6.0575    8.6276 H   0  0  0  0  0  0  0  0  0  0  0  0
  -11.5141   -6.4888    8.4716 C   0  0  0  0  0  0  0  0  0  0  0  0
  -12.8388   -7.1041    8.5692 C   0  0  0  0  0  0  0  0  0  0  0  0
  -13.6477   -7.0673    7.4436 C   0  0  0  0  0  0  0  0  0  0  0  0
  -14.9141   -7.6206    7.4442 C   0  0  0  0  0  0  0  0  0  0  0  0
  -15.4176   -8.2290    8.5645 C   0  0  0  0  0  0  0  0  0  0  0  0
  -14.6291   -8.2748    9.6895 C   0  0  0  0  0  0  0  0  0  0  0  0
  -13.3543   -7.7167    9.6859 C   0  0  0  0  0  0  0  0  0  0  0  0
   -7.9450   -8.2277    6.7527 C   0  0  0  0  0  0  0  0  0  0  0  0
   -7.6007   -9.6284    6.3693 C   0  0  0  0  0  0  0  0  0  0  0  0
   -8.6783  -10.3212    5.5493 C   0  0  0  0  0  0  0  0  0  0  0  0
   -8.3622  -10.3014    4.0940 C   0  0  0  0  0  0  0  0  0  0  0  0
   -7.9681  -11.8959    2.2286 C   0  0  0  0  0  0  0  0  0  0  0  0
   -7.3709  -10.9840    1.5489 O   0  0  0  0  0  0  0  0  0  0  0  0
   -8.4820  -11.6190    3.5106 N   0  0  0  0  0  0  0  0  0  0  0  0
   -8.9691  -12.3706    4.0777 H   0  0  0  0  0  0  0  0  0  0  0  0
   -7.9013  -13.4229    0.3540 C   0  0  0  0  0  0  0  0  0  0  0  0
   -8.0903  -13.1982    1.6348 C   0  0  0  0  0  0  0  0  0  0  0  0
 36 37  2  0  0  0
 37 32  1  0  0  0
 32 33  2  0  0  0
 32 34  1  0  0  0
 34 31  1  0  0  0
 31 30  1  0  0  0
 30 29  1  0  0  0
 29 28  1  0  0  0
 28  1  1  0  0  0
  1 17  1  0  0  0
 17 18  1  0  0  0
 18 19  2  0  0  0
 18 21  1  0  0  0
 21 22  1  0  0  0
 22 23  2  0  0  0
 23 24  1  0  0  0
 24 25  2  0  0  0
 25 26  1  0  0  0
 26 27  2  0  0  0
  1  2  1  0  0  0
  2  3  2  0  0  0
  2  4  1  0  0  0
  4  5  1  0  0  0
  5  6  1  0  0  0
  6  7  1  0  0  0
  7 10  1  0  0  0
 10 11  2  0  0  0
 11 12  1  0  0  0
 12 13  2  0  0  0
 13 14  1  0  0  0
 14 15  1  0  0  0
 14 16  2  0  0  0
  7  8  1  0  0  0
  8  9  1  0  0  0
 27 22  1  0  0  0
  9  4  1  0  0  0
 16 10  1  0  0  0
 34 35  1  0  0  0
 17 20  1  0  0  0
M  END
> <minimizedAffinity>
-0.48683

> <CNNscore>
0.4819620252

> <CNNaffinity>
6.8296852112

> <CNN_VS>
3.2916488647

> <CNNaffinity_variance>
0.8219946027

$$$$
[H]C([H])=C([H])C(=O)N([H])C([H])([H])C([H])([H])C([H])([H])C([H])([H])[C@@]([H])(C(=O)N1C([H])([H])C([H])([H])N(c2c([H])c([H])c([H])c(C([H])([H])[H])c2[H])C([H])([H])C1([H])[H])N([H])C(=O)C([H])([H])c1c([H])c([H])c([H])c([H])c1[H]


 37 39  0  0  0  0  0  0  0  0999 V2000
  -10.5432   -8.0797    8.0889 C   0  0  0  0  0  0  0  0  0  0  0  0
  -11.3947   -8.9531    7.2661 C   0  0  0  0  0  0  0  0  0  0  0  0
  -11.0139  -10.1648    7.0935 O   0  0  0  0  0  0  0  0  0  0  0  0
  -12.5979   -8.5345    6.6647 N   0  0  0  0  0  0  0  0  0  0  0  0
  -13.1145   -7.2065    6.8239 C   0  0  0  0  0  0  0  0  0  0  0  0
  -14.6374   -7.2803    6.8598 C   0  0  0  0  0  0  0  0  0  0  0  0
  -15.0658   -7.8123    5.5801 N   0  0  0  0  0  0  0  0  0  0  0  0
  -14.1597   -8.6263    4.8276 C   0  0  0  0  0  0  0  0  0  0  0  0
  -13.3799   -9.4566    5.8470 C   0  0  0  0  0  0  0  0  0  0  0  0
  -16.3670   -7.5373    5.0859 C   0  0  0  0  0  0  0  0  0  0  0  0
  -17.1750   -8.6162    4.7382 C   0  0  0  0  0  0  0  0  0  0  0  0
  -18.4393   -8.3778    4.2629 C   0  0  0  0  0  0  0  0  0  0  0  0
  -18.9313   -7.1084    4.1201 C   0  0  0  0  0  0  0  0  0  0  0  0
  -18.1543   -6.0257    4.4561 C   0  0  0  0  0  0  0  0  0  0  0  0
  -18.6474   -4.6462    4.3145 C   0  0  0  0  0  0  0  0  0  0  0  0
  -16.8788   -6.2711    4.9357 C   0  0  0  0  0  0  0  0  0  0  0  0
  -11.2806   -7.6722    9.3102 N   0  0  0  0  0  0  0  0  0  0  0  0
  -11.3154   -6.3241    9.7097 C   0  0  0  0  0  0  0  0  0  0  0  0
  -10.7129   -5.4661    9.0187 O   0  0  0  0  0  0  0  0  0  0  0  0
  -11.7534   -8.4037    9.8373 H   0  0  0  0  0  0  0  0  0  0  0  0
  -12.0516   -5.9446   10.9200 C   0  0  0  0  0  0  0  0  0  0  0  0
  -11.1954   -5.7092   12.0838 C   0  0  0  0  0  0  0  0  0  0  0  0
  -11.7849   -5.1635   13.2140 C   0  0  0  0  0  0  0  0  0  0  0  0
  -11.0541   -4.9048   14.3580 C   0  0  0  0  0  0  0  0  0  0  0  0
   -9.7127   -5.1807   14.4157 C   0  0  0  0  0  0  0  0  0  0  0  0
   -9.1119   -5.7222   13.3043 C   0  0  0  0  0  0  0  0  0  0  0  0
   -9.8504   -5.9815   12.1537 C   0  0  0  0  0  0  0  0  0  0  0  0
   -9.3269   -8.8076    8.6473 C   0  0  0  0  0  0  0  0  0  0  0  0
   -8.0211   -8.2533    8.1836 C   0  0  0  0  0  0  0  0  0  0  0  0
   -7.7649   -8.4516    6.6974 C   0  0  0  0  0  0  0  0  0  0  0  0
   -6.7534   -7.4894    6.1788 C   0  0  0  0  0  0  0  0  0  0  0  0
   -4.3424   -6.9387    6.4265 C   0  0  0  0  0  0  0  0  0  0  0  0
   -4.5043   -5.8457    5.7714 O   0  0  0  0  0  0  0  0  0  0  0  0
   -5.4292   -7.8018    6.6682 N   0  0  0  0  0  0  0  0  0  0  0  0
   -5.3012   -8.7012    7.2146 H   0  0  0  0  0  0  0  0  0  0  0  0
   -2.6600   -8.4434    7.2955 C   0  0  0  0  0  0  0  0  0  0  0  0
   -3.0206   -7.2437    6.8989 C   0  0  0  0  0  0  0  0  0  0  0  0
 36 37  2  0  0  0
 37 32  1  0  0  0
 32 33  2  0  0  0
 32 34  1  0  0  0
 34 31  1  0  0  0
 31 30  1  0  0  0
 30 29  1  0  0  0
 29 28  1  0  0  0
 28  1  1  0  0  0
  1 17  1  0  0  0
 17 18  1  0  0  0
 18 19  2  0  0  0
 18 21  1  0  0  0
 21 22  1  0  0  0
 22 23  2  0  0  0
 23 24  1  0  0  0
 24 25  2  0  0  0
 25 26  1  0  0  0
 26 27  2  0  0  0
  1  2  1  0  0  0
  2  3  2  0  0  0
  2  4  1  0  0  0
  4  5  1  0  0  0
  5  6  1  0  0  0
  6  7  1  0  0  0
  7 10  1  0  0  0
 10 11  2  0  0  0
 11 12  1  0  0  0
 12 13  2  0  0  0
 13 14  1  0  0  0
 14 15  1  0  0  0
 14 16  2  0  0  0
  7  8  1  0  0  0
  8  9  1  0  0  0
 27 22  1  0  0  0
  9  4  1  0  0  0
 16 10  1  0  0  0
 34 35  1  0  0  0
 17 20  1  0  0  0
M  END
> <minimizedAffinity>
-1.93925

> <CNNscore>
0.3404044807

> <CNNaffinity>
6.7984619141

> <CNN_VS>
2.3142268658

> <CNNaffinity_variance>
0.1259780377

$$$$
[H]C([H])=C([H])C(=O)N([H])C([H])([H])C([H])([H])C([H])([H])C([H])([H])[C@@]([H])(C(=O)N1C([H])([H])C([H])([H])N(c2c([H])c([H])c([H])c(C([H])([H])[H])c2[H])C([H])([H])C1([H])[H])N([H])C(=O)C([H])([H])c1c([H])c([H])c([H])c([H])c1[H]


 37 39  0  0  0  0  0  0  0  0999 V2000
   -9.8667   -7.7380    8.5879 C   0  0  0  0  0  0  0  0  0  0  0  0
  -11.1596   -7.1783    9.0123 C   0  0  0  0  0  0  0  0  0  0  0  0
  -11.2095   -6.5912   10.1507 O   0  0  0  0  0  0  0  0  0  0  0  0
  -12.3361   -7.2494    8.2406 N   0  0  0  0  0  0  0  0  0  0  0  0
  -12.3689   -7.8636    6.9454 C   0  0  0  0  0  0  0  0  0  0  0  0
  -13.3539   -7.0959    6.0700 C   0  0  0  0  0  0  0  0  0  0  0  0
  -14.6583   -7.2180    6.6929 N   0  0  0  0  0  0  0  0  0  0  0  0
  -14.7353   -7.4657    8.1010 C   0  0  0  0  0  0  0  0  0  0  0  0
  -13.5864   -6.6843    8.7384 C   0  0  0  0  0  0  0  0  0  0  0  0
  -15.8402   -7.0847    5.9195 C   0  0  0  0  0  0  0  0  0  0  0  0
  -16.0318   -5.8971    5.2191 C   0  0  0  0  0  0  0  0  0  0  0  0
  -17.1637   -5.7450    4.4595 C   0  0  0  0  0  0  0  0  0  0  0  0
  -18.1121   -6.7280    4.3693 C   0  0  0  0  0  0  0  0  0  0  0  0
  -17.9473   -7.9101    5.0507 C   0  0  0  0  0  0  0  0  0  0  0  0
  -18.9458   -8.9891    4.9800 C   0  0  0  0  0  0  0  0  0  0  0  0
  -16.8031   -8.0593    5.8160 C   0  0  0  0  0  0  0  0  0  0  0  0
  -10.0730   -8.6511    7.4369 N   0  0  0  0  0  0  0  0  0  0  0  0
   -9.3100   -9.8257    7.3085 C   0  0  0  0  0  0  0  0  0  0  0  0
   -8.4490  -10.0937    8.1823 O   0  0  0  0  0  0  0  0  0  0  0  0
  -10.7825   -8.3911    6.7546 H   0  0  0  0  0  0  0  0  0  0  0  0
   -9.5321  -10.7137    6.1627 C   0  0  0  0  0  0  0  0  0  0  0  0
   -8.6486  -10.4459    5.0267 C   0  0  0  0  0  0  0  0  0  0  0  0
   -8.8369  -11.1970    3.8765 C   0  0  0  0  0  0  0  0  0  0  0  0
   -8.0488  -11.0147    2.7561 C   0  0  0  0  0  0  0  0  0  0  0  0
   -7.0473  -10.0788    2.7427 C   0  0  0  0  0  0  0  0  0  0  0  0
   -6.8467   -9.3250    3.8744 C   0  0  0  0  0  0  0  0  0  0  0  0
   -7.6419   -9.5109    5.0012 C   0  0  0  0  0  0  0  0  0  0  0  0
   -8.9286   -6.6784    8.0237 C   0  0  0  0  0  0  0  0  0  0  0  0
   -7.4831   -6.9495    8.2774 C   0  0  0  0  0  0  0  0  0  0  0  0
   -6.6746   -7.1926    7.0120 C   0  0  0  0  0  0  0  0  0  0  0  0
   -5.2143   -7.2653    7.2959 C   0  0  0  0  0  0  0  0  0  0  0  0
   -3.8425   -5.3440    6.5185 C   0  0  0  0  0  0  0  0  0  0  0  0
   -3.9561   -4.7739    7.6641 O   0  0  0  0  0  0  0  0  0  0  0  0
   -4.4445   -6.5937    6.2727 N   0  0  0  0  0  0  0  0  0  0  0  0
   -4.3471   -7.0708    5.3311 H   0  0  0  0  0  0  0  0  0  0  0  0
   -2.5054   -5.2844    4.5040 C   0  0  0  0  0  0  0  0  0  0  0  0
   -3.0842   -4.6627    5.5066 C   0  0  0  0  0  0  0  0  0  0  0  0
 36 37  2  0  0  0
 37 32  1  0  0  0
 32 33  2  0  0  0
 32 34  1  0  0  0
 34 31  1  0  0  0
 31 30  1  0  0  0
 30 29  1  0  0  0
 29 28  1  0  0  0
 28  1  1  0  0  0
  1 17  1  0  0  0
 17 18  1  0  0  0
 18 19  2  0  0  0
 18 21  1  0  0  0
 21 22  1  0  0  0
 22 23  2  0  0  0
 23 24  1  0  0  0
 24 25  2  0  0  0
 25 26  1  0  0  0
 26 27  2  0  0  0
  1  2  1  0  0  0
  2  3  2  0  0  0
  2  4  1  0  0  0
  4  5  1  0  0  0
  5  6  1  0  0  0
  6  7  1  0  0  0
  7 10  1  0  0  0
 10 11  2  0  0  0
 11 12  1  0  0  0
 12 13  2  0  0  0
 13 14  1  0  0  0
 14 15  1  0  0  0
 14 16  2  0  0  0
  7  8  1  0  0  0
  8  9  1  0  0  0
 27 22  1  0  0  0
  9  4  1  0  0  0
 16 10  1  0  0  0
 34 35  1  0  0  0
 17 20  1  0  0  0
M  END
> <minimizedAffinity>
0.33223

> <CNNscore>
0.2655297220

> <CNNaffinity>
6.8684029579

> <CNN_VS>
1.8237651587

> <CNNaffinity_variance>
0.2556235790

$$$$
[H]C([H])=C([H])C(=O)N([H])C([H])([H])C([H])([H])C([H])([H])C([H])([H])[C@@]([H])(C(=O)N1C([H])([H])C([H])([H])N(c2c([H])c([H])c([H])c(C([H])([H])[H])c2[H])C([H])([H])C1([H])[H])N([H])C(=O)C([H])([H])c1c([H])c([H])c([H])c([H])c1[H]


 37 39  0  0  0  0  0  0  0  0999 V2000
  -13.4239   -8.6515    6.9492 C   0  0  0  0  0  0  0  0  0  0  0  0
  -14.0067   -8.2010    8.2228 C   0  0  0  0  0  0  0  0  0  0  0  0
  -15.2389   -8.4762    8.4442 O   0  0  0  0  0  0  0  0  0  0  0  0
  -13.2892   -7.4916    9.2060 N   0  0  0  0  0  0  0  0  0  0  0  0
  -11.9018   -7.1623    9.0562 C   0  0  0  0  0  0  0  0  0  0  0  0
  -11.2381   -7.2258   10.4279 C   0  0  0  0  0  0  0  0  0  0  0  0
  -11.8827   -6.2250   11.2569 N   0  0  0  0  0  0  0  0  0  0  0  0
  -13.2172   -5.8147   10.9396 C   0  0  0  0  0  0  0  0  0  0  0  0
  -13.9431   -7.0633   10.4387 C   0  0  0  0  0  0  0  0  0  0  0  0
  -11.2037   -5.6678   12.3711 C   0  0  0  0  0  0  0  0  0  0  0  0
  -11.9499   -4.9392   13.2930 C   0  0  0  0  0  0  0  0  0  0  0  0
  -11.3184   -4.3945   14.3819 C   0  0  0  0  0  0  0  0  0  0  0  0
   -9.9739   -4.5462   14.5896 C   0  0  0  0  0  0  0  0  0  0  0  0
   -9.2141   -5.2608   13.6947 C   0  0  0  0  0  0  0  0  0  0  0  0
   -7.7659   -5.4439   13.8829 C   0  0  0  0  0  0  0  0  0  0  0  0
   -9.8558   -5.8091   12.5971 C   0  0  0  0  0  0  0  0  0  0  0  0
  -13.8177   -7.7197    5.8639 N   0  0  0  0  0  0  0  0  0  0  0  0
  -14.5336   -8.1838    4.7457 C   0  0  0  0  0  0  0  0  0  0  0  0
  -14.8367   -9.4004    4.6760 O   0  0  0  0  0  0  0  0  0  0  0  0
  -13.5493   -6.7429    5.9655 H   0  0  0  0  0  0  0  0  0  0  0  0
  -14.9130   -7.2440    3.6857 C   0  0  0  0  0  0  0  0  0  0  0  0
  -16.2200   -6.6174    3.8905 C   0  0  0  0  0  0  0  0  0  0  0  0
  -16.2403   -5.3260    4.3949 C   0  0  0  0  0  0  0  0  0  0  0  0
  -17.4277   -4.6566    4.6225 C   0  0  0  0  0  0  0  0  0  0  0  0
  -18.6343   -5.2498    4.3556 C   0  0  0  0  0  0  0  0  0  0  0  0
  -18.6329   -6.5298    3.8549 C   0  0  0  0  0  0  0  0  0  0  0  0
  -17.4355   -7.2014    3.6268 C   0  0  0  0  0  0  0  0  0  0  0  0
  -11.9027   -8.5674    6.9408 C   0  0  0  0  0  0  0  0  0  0  0  0
  -11.2228   -9.8796    6.7322 C   0  0  0  0  0  0  0  0  0  0  0  0
   -9.7689   -9.8936    7.1792 C   0  0  0  0  0  0  0  0  0  0  0  0
   -9.2335   -8.5153    7.3582 C   0  0  0  0  0  0  0  0  0  0  0  0
   -7.1832   -7.4163    6.4832 C   0  0  0  0  0  0  0  0  0  0  0  0
   -7.8808   -6.4474    6.0091 O   0  0  0  0  0  0  0  0  0  0  0  0
   -7.8000   -8.4785    7.1728 N   0  0  0  0  0  0  0  0  0  0  0  0
   -7.2271   -9.2763    7.5718 H   0  0  0  0  0  0  0  0  0  0  0  0
   -4.9013   -7.8627    7.1492 C   0  0  0  0  0  0  0  0  0  0  0  0
   -5.7612   -7.3743    6.2841 C   0  0  0  0  0  0  0  0  0  0  0  0
 36 37  2  0  0  0
 37 32  1  0  0  0
 32 33  2  0  0  0
 32 34  1  0  0  0
 34 31  1  0  0  0
 31 30  1  0  0  0
 30 29  1  0  0  0
 29 28  1  0  0  0
 28  1  1  0  0  0
  1 17  1  0  0  0
 17 18  1  0  0  0
 18 19  2  0  0  0
 18 21  1  0  0  0
 21 22  1  0  0  0
 22 23  2  0  0  0
 23 24  1  0  0  0
 24 25  2  0  0  0
 25 26  1  0  0  0
 26 27  2  0  0  0
  1  2  1  0  0  0
  2  3  2  0  0  0
  2  4  1  0  0  0
  4  5  1  0  0  0
  5  6  1  0  0  0
  6  7  1  0  0  0
  7 10  1  0  0  0
 10 11  2  0  0  0
 11 12  1  0  0  0
 12 13  2  0  0  0
 13 14  1  0  0  0
 14 15  1  0  0  0
 14 16  2  0  0  0
  7  8  1  0  0  0
  8  9  1  0  0  0
 27 22  1  0  0  0
  9  4  1  0  0  0
 16 10  1  0  0  0
 34 35  1  0  0  0
 17 20  1  0  0  0
M  END
> <minimizedAffinity>
-0.89702

> <CNNscore>
0.2592515945

> <CNNaffinity>
7.0088834763

> <CNN_VS>
1.8170641661

> <CNNaffinity_variance>
0.0502555668

$$$$
[H]C([H])=C([H])C(=O)N([H])C([H])([H])C([H])([H])C([H])([H])C([H])([H])[C@@]([H])(C(=O)N1C([H])([H])C([H])([H])N(c2c([H])c([H])c([H])c(C([H])([H])[H])c2[H])C([H])([H])C1([H])[H])N([H])C(=O)C([H])([H])c1c([H])c([H])c([H])c([H])c1[H]


 37 39  0  0  0  0  0  0  0  0999 V2000
  -14.2961   -8.9129    7.4070 C   0  0  0  0  0  0  0  0  0  0  0  0
  -13.5650   -7.6438    7.5478 C   0  0  0  0  0  0  0  0  0  0  0  0
  -13.5386   -6.8565    6.5367 O   0  0  0  0  0  0  0  0  0  0  0  0
  -12.9000   -7.2484    8.7252 N   0  0  0  0  0  0  0  0  0  0  0  0
  -12.8976   -8.0522    9.9125 C   0  0  0  0  0  0  0  0  0  0  0  0
  -12.9169   -7.1262   11.1242 C   0  0  0  0  0  0  0  0  0  0  0  0
  -11.6997   -6.3386   11.0746 N   0  0  0  0  0  0  0  0  0  0  0  0
  -11.0603   -6.1267    9.8112 C   0  0  0  0  0  0  0  0  0  0  0  0
  -12.1807   -5.9796    8.7818 C   0  0  0  0  0  0  0  0  0  0  0  0
  -11.1562   -5.7791   12.2597 C   0  0  0  0  0  0  0  0  0  0  0  0
  -12.0246   -5.1322   13.1344 C   0  0  0  0  0  0  0  0  0  0  0  0
  -11.5253   -4.5872   14.2898 C   0  0  0  0  0  0  0  0  0  0  0  0
  -10.1962   -4.6606   14.6091 C   0  0  0  0  0  0  0  0  0  0  0  0
   -9.3175   -5.2937   13.7629 C   0  0  0  0  0  0  0  0  0  0  0  0
   -7.8815   -5.3911   14.0709 C   0  0  0  0  0  0  0  0  0  0  0  0
   -9.8259   -5.8426   12.5979 C   0  0  0  0  0  0  0  0  0  0  0  0
  -15.4504   -8.7241    6.4942 N   0  0  0  0  0  0  0  0  0  0  0  0
  -16.5871   -8.0105    6.9147 C   0  0  0  0  0  0  0  0  0  0  0  0
  -16.6142   -7.5333    8.0759 O   0  0  0  0  0  0  0  0  0  0  0  0
  -15.3816   -9.1295    5.5628 H   0  0  0  0  0  0  0  0  0  0  0  0
  -17.7158   -7.8358    5.9947 C   0  0  0  0  0  0  0  0  0  0  0  0
  -18.8258   -8.7585    6.2381 C   0  0  0  0  0  0  0  0  0  0  0  0
  -19.1371   -9.0538    7.5566 C   0  0  0  0  0  0  0  0  0  0  0  0
  -20.1673   -9.9159    7.8812 C   0  0  0  0  0  0  0  0  0  0  0  0
  -20.9220  -10.5125    6.9049 C   0  0  0  0  0  0  0  0  0  0  0  0
  -20.6274  -10.2309    5.5922 C   0  0  0  0  0  0  0  0  0  0  0  0
  -19.5893   -9.3624    5.2683 C   0  0  0  0  0  0  0  0  0  0  0  0
  -13.4735   -9.9861    6.7052 C   0  0  0  0  0  0  0  0  0  0  0  0
  -12.1650   -9.5002    6.1767 C   0  0  0  0  0  0  0  0  0  0  0  0
  -10.9587  -10.1552    6.8321 C   0  0  0  0  0  0  0  0  0  0  0  0
  -10.3148   -9.2540    7.8278 C   0  0  0  0  0  0  0  0  0  0  0  0
   -7.8501   -9.3126    7.5123 C   0  0  0  0  0  0  0  0  0  0  0  0
   -7.7736  -10.4197    8.1594 O   0  0  0  0  0  0  0  0  0  0  0  0
   -9.0929   -8.6817    7.3080 N   0  0  0  0  0  0  0  0  0  0  0  0
   -9.1612   -7.7717    6.7684 H   0  0  0  0  0  0  0  0  0  0  0  0
   -6.4212   -8.5082    5.7343 C   0  0  0  0  0  0  0  0  0  0  0  0
   -6.6287   -8.7481    7.0095 C   0  0  0  0  0  0  0  0  0  0  0  0
 36 37  2  0  0  0
 37 32  1  0  0  0
 32 33  2  0  0  0
 32 34  1  0  0  0
 34 31  1  0  0  0
 31 30  1  0  0  0
 30 29  1  0  0  0
 29 28  1  0  0  0
 28  1  1  0  0  0
  1 17  1  0  0  0
 17 18  1  0  0  0
 18 19  2  0  0  0
 18 21  1  0  0  0
 21 22  1  0  0  0
 22 23  2  0  0  0
 23 24  1  0  0  0
 24 25  2  0  0  0
 25 26  1  0  0  0
 26 27  2  0  0  0
  1  2  1  0  0  0
  2  3  2  0  0  0
  2  4  1  0  0  0
  4  5  1  0  0  0
  5  6  1  0  0  0
  6  7  1  0  0  0
  7 10  1  0  0  0
 10 11  2  0  0  0
 11 12  1  0  0  0
 12 13  2  0  0  0
 13 14  1  0  0  0
 14 15  1  0  0  0
 14 16  2  0  0  0
  7  8  1  0  0  0
  8  9  1  0  0  0
 27 22  1  0  0  0
  9  4  1  0  0  0
 16 10  1  0  0  0
 34 35  1  0  0  0
 17 20  1  0  0  0
M  END
> <minimizedAffinity>
2.54351

> <CNNscore>
0.2587044239

> <CNNaffinity>
6.6474809647

> <CNN_VS>
1.7197327614

> <CNNaffinity_variance>
0.0964167267

$$$$
[H]C([H])=C([H])C(=O)N([H])C([H])([H])C([H])([H])C([H])([H])C([H])([H])[C@@]([H])(C(=O)N1C([H])([H])C([H])([H])N(c2c([H])c([H])c([H])c(C([H])([H])[H])c2[H])C([H])([H])C1([H])[H])N([H])C(=O)C([H])([H])c1c([H])c([H])c([H])c([H])c1[H]


 37 39  0  0  0  0  0  0  0  0999 V2000
   -3.6908   -6.1388    7.5387 C   0  0  0  0  0  0  0  0  0  0  0  0
   -4.8609   -6.1504    6.6467 C   0  0  0  0  0  0  0  0  0  0  0  0
   -4.6826   -5.8018    5.4262 O   0  0  0  0  0  0  0  0  0  0  0  0
   -6.1559   -6.5238    7.0568 N   0  0  0  0  0  0  0  0  0  0  0  0
   -6.4441   -6.9521    8.3944 C   0  0  0  0  0  0  0  0  0  0  0  0
   -7.5277   -8.0238    8.3370 C   0  0  0  0  0  0  0  0  0  0  0  0
   -8.7079   -7.4024    7.7666 N   0  0  0  0  0  0  0  0  0  0  0  0
   -8.5504   -6.2594    6.9189 C   0  0  0  0  0  0  0  0  0  0  0  0
   -7.2710   -6.4932    6.1155 C   0  0  0  0  0  0  0  0  0  0  0  0
   -9.9986   -7.9255    8.0377 C   0  0  0  0  0  0  0  0  0  0  0  0
  -10.3726   -9.1047    7.3995 C   0  0  0  0  0  0  0  0  0  0  0  0
  -11.6130   -9.6343    7.6484 C   0  0  0  0  0  0  0  0  0  0  0  0
  -12.4959   -9.0369    8.5073 C   0  0  0  0  0  0  0  0  0  0  0  0
  -12.1516   -7.8721    9.1503 C   0  0  0  0  0  0  0  0  0  0  0  0
  -13.0744   -7.1996   10.0789 C   0  0  0  0  0  0  0  0  0  0  0  0
  -10.8983   -7.3412    8.8962 C   0  0  0  0  0  0  0  0  0  0  0  0
   -4.0744   -5.5743    8.8561 N   0  0  0  0  0  0  0  0  0  0  0  0
   -3.3100   -4.5526    9.4478 C   0  0  0  0  0  0  0  0  0  0  0  0
   -2.2952   -4.1222    8.8464 O   0  0  0  0  0  0  0  0  0  0  0  0
   -4.9049   -5.9557    9.3047 H   0  0  0  0  0  0  0  0  0  0  0  0
   -3.7090   -4.0093   10.7503 C   0  0  0  0  0  0  0  0  0  0  0  0
   -3.1180   -2.7048   11.0533 C   0  0  0  0  0  0  0  0  0  0  0  0
   -3.4493   -1.6426   10.2259 C   0  0  0  0  0  0  0  0  0  0  0  0
   -2.9374   -0.3760   10.4343 C   0  0  0  0  0  0  0  0  0  0  0  0
   -2.0791   -0.1241   11.4729 C   0  0  0  0  0  0  0  0  0  0  0  0
   -1.7400   -1.1655   12.3033 C   0  0  0  0  0  0  0  0  0  0  0  0
   -2.2570   -2.4400   12.0909 C   0  0  0  0  0  0  0  0  0  0  0  0
   -3.2110   -7.5411    7.8910 C   0  0  0  0  0  0  0  0  0  0  0  0
   -2.3161   -8.1528    6.8651 C   0  0  0  0  0  0  0  0  0  0  0  0
   -1.1409   -8.9172    7.4554 C   0  0  0  0  0  0  0  0  0  0  0  0
   -1.4518  -10.3641    7.6222 C   0  0  0  0  0  0  0  0  0  0  0  0
   -1.3445  -12.1611    9.3359 C   0  0  0  0  0  0  0  0  0  0  0  0
   -1.7826  -13.0221    8.4892 O   0  0  0  0  0  0  0  0  0  0  0  0
   -1.1527  -10.8164    8.9625 N   0  0  0  0  0  0  0  0  0  0  0  0
   -0.7846  -10.1043    9.6563 H   0  0  0  0  0  0  0  0  0  0  0  0
   -1.6732  -13.6426   11.2193 C   0  0  0  0  0  0  0  0  0  0  0  0
   -1.0606  -12.6196   10.6673 C   0  0  0  0  0  0  0  0  0  0  0  0
 36 37  2  0  0  0
 37 32  1  0  0  0
 32 33  2  0  0  0
 32 34  1  0  0  0
 34 31  1  0  0  0
 31 30  1  0  0  0
 30 29  1  0  0  0
 29 28  1  0  0  0
 28  1  1  0  0  0
  1 17  1  0  0  0
 17 18  1  0  0  0
 18 19  2  0  0  0
 18 21  1  0  0  0
 21 22  1  0  0  0
 22 23  2  0  0  0
 23 24  1  0  0  0
 24 25  2  0  0  0
 25 26  1  0  0  0
 26 27  2  0  0  0
  1  2  1  0  0  0
  2  3  2  0  0  0
  2  4  1  0  0  0
  4  5  1  0  0  0
  5  6  1  0  0  0
  6  7  1  0  0  0
  7 10  1  0  0  0
 10 11  2  0  0  0
 11 12  1  0  0  0
 12 13  2  0  0  0
 13 14  1  0  0  0
 14 15  1  0  0  0
 14 16  2  0  0  0
  7  8  1  0  0  0
  8  9  1  0  0  0
 27 22  1  0  0  0
  9  4  1  0  0  0
 16 10  1  0  0  0
 34 35  1  0  0  0
 17 20  1  0  0  0
M  END
> <minimizedAffinity>
-6.25701

> <CNNscore>
0.2521933615

> <CNNaffinity>
6.0899653435

> <CNN_VS>
1.5358488560

> <CNNaffinity_variance>
0.0556202643

$$$$
[H]C([H])=C([H])C(=O)N([H])C([H])([H])C([H])([H])C([H])([H])C([H])([H])[C@@]([H])(C(=O)N1C([H])([H])C([H])([H])N(c2c([H])c([H])c([H])c(C([H])([H])[H])c2[H])C([H])([H])C1([H])[H])N([H])C(=O)C([H])([H])c1c([H])c([H])c([H])c([H])c1[H]


 37 39  0  0  0  0  0  0  0  0999 V2000
   -9.1268   -7.0149    8.5911 C   0  0  0  0  0  0  0  0  0  0  0  0
  -10.3092   -6.2983    9.0944 C   0  0  0  0  0  0  0  0  0  0  0  0
  -10.1313   -5.4370   10.0268 O   0  0  0  0  0  0  0  0  0  0  0  0
  -11.6158   -6.5034    8.6090 N   0  0  0  0  0  0  0  0  0  0  0  0
  -11.9059   -7.4268    7.5513 C   0  0  0  0  0  0  0  0  0  0  0  0
  -13.0453   -6.8590    6.7116 C   0  0  0  0  0  0  0  0  0  0  0  0
  -14.1996   -6.7488    7.5833 N   0  0  0  0  0  0  0  0  0  0  0  0
  -13.9947   -6.6227    8.9947 C   0  0  0  0  0  0  0  0  0  0  0  0
  -12.7419   -5.7650    9.1722 C   0  0  0  0  0  0  0  0  0  0  0  0
  -15.5118   -6.7569    7.0439 C   0  0  0  0  0  0  0  0  0  0  0  0
  -16.4616   -7.5749    7.6493 C   0  0  0  0  0  0  0  0  0  0  0  0
  -17.7391   -7.5970    7.1506 C   0  0  0  0  0  0  0  0  0  0  0  0
  -18.1087   -6.8374    6.0734 C   0  0  0  0  0  0  0  0  0  0  0  0
  -17.1904   -6.0213    5.4573 C   0  0  0  0  0  0  0  0  0  0  0  0
  -17.5495   -5.1917    4.2959 C   0  0  0  0  0  0  0  0  0  0  0  0
  -15.9021   -6.0019    5.9643 C   0  0  0  0  0  0  0  0  0  0  0  0
   -9.5536   -8.0873    7.6589 N   0  0  0  0  0  0  0  0  0  0  0  0
   -9.1026   -9.4082    7.8318 C   0  0  0  0  0  0  0  0  0  0  0  0
   -8.3315   -9.6707    8.7875 O   0  0  0  0  0  0  0  0  0  0  0  0
  -10.1792   -7.8256    6.8996 H   0  0  0  0  0  0  0  0  0  0  0  0
   -9.5386  -10.4520    6.8983 C   0  0  0  0  0  0  0  0  0  0  0  0
  -10.9431  -10.3412    6.5010 C   0  0  0  0  0  0  0  0  0  0  0  0
  -11.9048  -10.5664    7.4742 C   0  0  0  0  0  0  0  0  0  0  0  0
  -13.2548  -10.4859    7.1899 C   0  0  0  0  0  0  0  0  0  0  0  0
  -13.6928  -10.1784    5.9280 C   0  0  0  0  0  0  0  0  0  0  0  0
  -12.7531   -9.9518    4.9508 C   0  0  0  0  0  0  0  0  0  0  0  0
  -11.3943  -10.0337    5.2401 C   0  0  0  0  0  0  0  0  0  0  0  0
   -8.2374   -6.1355    7.7211 C   0  0  0  0  0  0  0  0  0  0  0  0
   -6.9969   -6.8124    7.2410 C   0  0  0  0  0  0  0  0  0  0  0  0
   -5.7926   -5.8880    7.1464 C   0  0  0  0  0  0  0  0  0  0  0  0
   -4.7060   -6.3005    8.0776 C   0  0  0  0  0  0  0  0  0  0  0  0
   -4.1980   -5.0163   10.1440 C   0  0  0  0  0  0  0  0  0  0  0  0
   -3.1695   -4.4865    9.5858 O   0  0  0  0  0  0  0  0  0  0  0  0
   -5.0103   -5.9275    9.4410 N   0  0  0  0  0  0  0  0  0  0  0  0
   -5.8641   -6.3614    9.8956 H   0  0  0  0  0  0  0  0  0  0  0  0
   -3.5559   -4.5249   12.4235 C   0  0  0  0  0  0  0  0  0  0  0  0
   -4.4847   -4.6462   11.5020 C   0  0  0  0  0  0  0  0  0  0  0  0
 36 37  2  0  0  0
 37 32  1  0  0  0
 32 33  2  0  0  0
 32 34  1  0  0  0
 34 31  1  0  0  0
 31 30  1  0  0  0
 30 29  1  0  0  0
 29 28  1  0  0  0
 28  1  1  0  0  0
  1 17  1  0  0  0
 17 18  1  0  0  0
 18 19  2  0  0  0
 18 21  1  0  0  0
 21 22  1  0  0  0
 22 23  2  0  0  0
 23 24  1  0  0  0
 24 25  2  0  0  0
 25 26  1  0  0  0
 26 27  2  0  0  0
  1  2  1  0  0  0
  2  3  2  0  0  0
  2  4  1  0  0  0
  4  5  1  0  0  0
  5  6  1  0  0  0
  6  7  1  0  0  0
  7 10  1  0  0  0
 10 11  2  0  0  0
 11 12  1  0  0  0
 12 13  2  0  0  0
 13 14  1  0  0  0
 14 15  1  0  0  0
 14 16  2  0  0  0
  7  8  1  0  0  0
  8  9  1  0  0  0
 27 22  1  0  0  0
  9  4  1  0  0  0
 16 10  1  0  0  0
 34 35  1  0  0  0
 17 20  1  0  0  0
M  END
> <minimizedAffinity>
-0.33921

> <CNNscore>
0.2496273071

> <CNNaffinity>
6.7075181007

> <CNN_VS>
1.6743797064

> <CNNaffinity_variance>
0.2538878918

$$$$
[H]C([H])=C([H])C(=O)N([H])C([H])([H])C([H])([H])C([H])([H])C([H])([H])[C@@]([H])(C(=O)N1C([H])([H])C([H])([H])N(c2c([H])c([H])c([H])c(C([H])([H])[H])c2[H])C([H])([H])C1([H])[H])N([H])C(=O)C([H])([H])c1c([H])c([H])c([H])c([H])c1[H]


 37 39  0  0  0  0  0  0  0  0999 V2000
   -3.4861   -5.5785    6.1365 C   0  0  0  0  0  0  0  0  0  0  0  0
   -4.1519   -6.0476    7.3618 C   0  0  0  0  0  0  0  0  0  0  0  0
   -3.5093   -5.9434    8.4659 O   0  0  0  0  0  0  0  0  0  0  0  0
   -5.4485   -6.5981    7.3880 N   0  0  0  0  0  0  0  0  0  0  0  0
   -6.2507   -6.7300    6.2070 C   0  0  0  0  0  0  0  0  0  0  0  0
   -7.7109   -6.5061    6.5859 C   0  0  0  0  0  0  0  0  0  0  0  0
   -8.0685   -7.5491    7.5287 N   0  0  0  0  0  0  0  0  0  0  0  0
   -7.0374   -8.1627    8.3099 C   0  0  0  0  0  0  0  0  0  0  0  0
   -6.0353   -7.0575    8.6431 C   0  0  0  0  0  0  0  0  0  0  0  0
   -9.4213   -7.9486    7.6805 C   0  0  0  0  0  0  0  0  0  0  0  0
   -9.8072   -9.1689    7.1331 C   0  0  0  0  0  0  0  0  0  0  0  0
  -11.1082   -9.5809    7.2707 C   0  0  0  0  0  0  0  0  0  0  0  0
  -12.0402   -8.8267    7.9314 C   0  0  0  0  0  0  0  0  0  0  0  0
  -11.6854   -7.6181    8.4810 C   0  0  0  0  0  0  0  0  0  0  0  0
  -12.6595   -6.7783    9.1967 C   0  0  0  0  0  0  0  0  0  0  0  0
  -10.3710   -7.2063    8.3401 C   0  0  0  0  0  0  0  0  0  0  0  0
   -3.3094   -4.1067    6.1978 N   0  0  0  0  0  0  0  0  0  0  0  0
   -3.8891   -3.2743    5.2235 C   0  0  0  0  0  0  0  0  0  0  0  0
   -4.5603   -3.7928    4.2975 O   0  0  0  0  0  0  0  0  0  0  0  0
   -2.7570   -3.7334    6.9672 H   0  0  0  0  0  0  0  0  0  0  0  0
   -3.7018   -1.8220    5.3051 C   0  0  0  0  0  0  0  0  0  0  0  0
   -3.6093   -1.1632    4.0012 C   0  0  0  0  0  0  0  0  0  0  0  0
   -4.7306   -0.4892    3.5420 C   0  0  0  0  0  0  0  0  0  0  0  0
   -4.7357    0.1597    2.3219 C   0  0  0  0  0  0  0  0  0  0  0  0
   -3.6253    0.1596    1.5182 C   0  0  0  0  0  0  0  0  0  0  0  0
   -2.5046   -0.5036    1.9578 C   0  0  0  0  0  0  0  0  0  0  0  0
   -2.5024   -1.1562    3.1870 C   0  0  0  0  0  0  0  0  0  0  0  0
   -2.0571   -6.0926    6.0149 C   0  0  0  0  0  0  0  0  0  0  0  0
   -1.8781   -7.5032    6.4684 C   0  0  0  0  0  0  0  0  0  0  0  0
   -1.0724   -8.3591    5.5030 C   0  0  0  0  0  0  0  0  0  0  0  0
   -1.8392   -9.5541    5.0534 C   0  0  0  0  0  0  0  0  0  0  0  0
   -1.5775  -11.0709    7.0049 C   0  0  0  0  0  0  0  0  0  0  0  0
   -2.2784  -10.2820    7.7373 O   0  0  0  0  0  0  0  0  0  0  0  0
   -1.3261  -10.7657    5.6528 N   0  0  0  0  0  0  0  0  0  0  0  0
   -0.7541  -11.4177    5.0431 H   0  0  0  0  0  0  0  0  0  0  0  0
   -1.7137  -12.9351    8.5399 C   0  0  0  0  0  0  0  0  0  0  0  0
   -1.0643  -12.2664    7.6138 C   0  0  0  0  0  0  0  0  0  0  0  0
 36 37  2  0  0  0
 37 32  1  0  0  0
 32 33  2  0  0  0
 32 34  1  0  0  0
 34 31  1  0  0  0
 31 30  1  0  0  0
 30 29  1  0  0  0
 29 28  1  0  0  0
 28  1  1  0  0  0
  1 17  1  0  0  0
 17 18  1  0  0  0
 18 19  2  0  0  0
 18 21  1  0  0  0
 21 22  1  0  0  0
 22 23  2  0  0  0
 23 24  1  0  0  0
 24 25  2  0  0  0
 25 26  1  0  0  0
 26 27  2  0  0  0
  1  2  1  0  0  0
  2  3  2  0  0  0
  2  4  1  0  0  0
  4  5  1  0  0  0
  5  6  1  0  0  0
  6  7  1  0  0  0
  7 10  1  0  0  0
 10 11  2  0  0  0
 11 12  1  0  0  0
 12 13  2  0  0  0
 13 14  1  0  0  0
 14 15  1  0  0  0
 14 16  2  0  0  0
  7  8  1  0  0  0
  8  9  1  0  0  0
 27 22  1  0  0  0
  9  4  1  0  0  0
 16 10  1  0  0  0
 34 35  1  0  0  0
 17 20  1  0  0  0
M  END
> <minimizedAffinity>
-5.72799

> <CNNscore>
0.2485548705

> <CNNaffinity>
6.0088315010

> <CNN_VS>
1.4935243130

> <CNNaffinity_variance>
0.1282192171

$$$$
[H]C([H])=C([H])C(=O)N([H])C([H])([H])C([H])([H])C([H])([H])C([H])([H])[C@@]([H])(C(=O)N1C([H])([H])C([H])([H])N(c2c([H])c([H])c([H])c(C([H])([H])[H])c2[H])C([H])([H])C1([H])[H])N([H])C(=O)C([H])([H])c1c([H])c([H])c([H])c([H])c1[H]


 37 39  0  0  0  0  0  0  0  0999 V2000
   -3.8784   -6.2656    7.5062 C   0  0  0  0  0  0  0  0  0  0  0  0
   -5.0702   -6.2031    6.6456 C   0  0  0  0  0  0  0  0  0  0  0  0
   -4.9190   -5.7664    5.4500 O   0  0  0  0  0  0  0  0  0  0  0  0
   -6.3579   -6.5967    7.0597 N   0  0  0  0  0  0  0  0  0  0  0  0
   -6.6167   -7.1208    8.3689 C   0  0  0  0  0  0  0  0  0  0  0  0
   -7.7108   -8.1777    8.2600 C   0  0  0  0  0  0  0  0  0  0  0  0
   -8.8992   -7.5076    7.7671 N   0  0  0  0  0  0  0  0  0  0  0  0
   -8.7526   -6.3061    7.0023 C   0  0  0  0  0  0  0  0  0  0  0  0
   -7.4956   -6.4888    6.1517 C   0  0  0  0  0  0  0  0  0  0  0  0
  -10.1874   -8.0403    8.0314 C   0  0  0  0  0  0  0  0  0  0  0  0
  -10.5529   -9.2171    7.3838 C   0  0  0  0  0  0  0  0  0  0  0  0
  -11.7908   -9.7558    7.6261 C   0  0  0  0  0  0  0  0  0  0  0  0
  -12.6791   -9.1699    8.4872 C   0  0  0  0  0  0  0  0  0  0  0  0
  -12.3431   -8.0078    9.1394 C   0  0  0  0  0  0  0  0  0  0  0  0
  -13.2720   -7.3475   10.0709 C   0  0  0  0  0  0  0  0  0  0  0  0
  -11.0925   -7.4677    8.8921 C   0  0  0  0  0  0  0  0  0  0  0  0
   -4.2292   -5.8170    8.8762 N   0  0  0  0  0  0  0  0  0  0  0  0
   -3.7562   -4.5882    9.3707 C   0  0  0  0  0  0  0  0  0  0  0  0
   -3.0309   -3.8724    8.6370 O   0  0  0  0  0  0  0  0  0  0  0  0
   -4.8197   -6.4315    9.4329 H   0  0  0  0  0  0  0  0  0  0  0  0
   -4.1168   -4.1649   10.7278 C   0  0  0  0  0  0  0  0  0  0  0  0
   -3.5233   -4.9892   11.7819 C   0  0  0  0  0  0  0  0  0  0  0  0
   -2.2061   -5.3900   11.6178 C   0  0  0  0  0  0  0  0  0  0  0  0
   -1.5646   -6.1712   12.5601 C   0  0  0  0  0  0  0  0  0  0  0  0
   -2.2123   -6.5794   13.6971 C   0  0  0  0  0  0  0  0  0  0  0  0
   -3.5186   -6.1911   13.8762 C   0  0  0  0  0  0  0  0  0  0  0  0
   -4.1620   -5.4044   12.9255 C   0  0  0  0  0  0  0  0  0  0  0  0
   -3.3901   -7.6920    7.7249 C   0  0  0  0  0  0  0  0  0  0  0  0
   -2.4000   -8.1578    6.7097 C   0  0  0  0  0  0  0  0  0  0  0  0
   -1.1798   -8.8377    7.3117 C   0  0  0  0  0  0  0  0  0  0  0  0
   -1.1554  -10.2958    7.0091 C   0  0  0  0  0  0  0  0  0  0  0  0
   -1.4332  -12.4908    8.1416 C   0  0  0  0  0  0  0  0  0  0  0  0
   -1.3123  -13.1067    7.0208 O   0  0  0  0  0  0  0  0  0  0  0  0
   -1.3590  -11.0854    8.2031 N   0  0  0  0  0  0  0  0  0  0  0  0
   -1.4511  -10.5737    9.1270 H   0  0  0  0  0  0  0  0  0  0  0  0
   -2.8140  -13.7919    9.6417 C   0  0  0  0  0  0  0  0  0  0  0  0
   -1.6454  -13.2848    9.3197 C   0  0  0  0  0  0  0  0  0  0  0  0
 36 37  2  0  0  0
 37 32  1  0  0  0
 32 33  2  0  0  0
 32 34  1  0  0  0
 34 31  1  0  0  0
 31 30  1  0  0  0
 30 29  1  0  0  0
 29 28  1  0  0  0
 28  1  1  0  0  0
  1 17  1  0  0  0
 17 18  1  0  0  0
 18 19  2  0  0  0
 18 21  1  0  0  0
 21 22  1  0  0  0
 22 23  2  0  0  0
 23 24  1  0  0  0
 24 25  2  0  0  0
 25 26  1  0  0  0
 26 27  2  0  0  0
  1  2  1  0  0  0
  2  3  2  0  0  0
  2  4  1  0  0  0
  4  5  1  0  0  0
  5  6  1  0  0  0
  6  7  1  0  0  0
  7 10  1  0  0  0
 10 11  2  0  0  0
 11 12  1  0  0  0
 12 13  2  0  0  0
 13 14  1  0  0  0
 14 15  1  0  0  0
 14 16  2  0  0  0
  7  8  1  0  0  0
  8  9  1  0  0  0
 27 22  1  0  0  0
  9  4  1  0  0  0
 16 10  1  0  0  0
 34 35  1  0  0  0
 17 20  1  0  0  0
M  END
> <minimizedAffinity>
-7.02485

> <CNNscore>
0.2476243526

> <CNNaffinity>
6.0960121155

> <CNN_VS>
1.5095210075

> <CNNaffinity_variance>
0.2153327763

$$$$
[H]c1nc([H])c(N([H])c2c([H])c(-c3c([H])c([H])c4c([H])c(C#N)c([H])nn34)nc([H])c2C(=O)N([H])[C@]2([H])C([H])([H])C([H])([H])[C@@]([H])(N([H])C(=O)C3([H])C([H])([H])C3([H])[H])C([H])([H])C2([H])[H])c([H])c1[H]


 42 47  0  0  0  0  0  0  0  0999 V2000
   -2.2141   -4.5652   14.0143 C   0  0  0  0  0  0  0  0  0  0  0  0
   -1.5971   -3.3503   14.0416 C   0  0  0  0  0  0  0  0  0  0  0  0
   -1.6609   -2.3661   13.0592 C   0  0  0  0  0  0  0  0  0  0  0  0
   -2.4411   -2.6691   11.9386 C   0  0  0  0  0  0  0  0  0  0  0  0
   -3.0800   -3.9170   11.8962 C   0  0  0  0  0  0  0  0  0  0  0  0
   -2.9604   -4.8012   12.8900 N   0  0  0  0  0  0  0  0  0  0  0  0
   -1.7354   -9.6262   15.1344 C   0  0  0  0  0  0  0  0  0  0  0  0
   -1.7392   -8.9946   13.9178 C   0  0  0  0  0  0  0  0  0  0  0  0
   -1.8749   -7.6676   13.8847 N   0  0  0  0  0  0  0  0  0  0  0  0
   -2.0074   -6.9109   14.9622 N   0  0  0  0  0  0  0  0  0  0  0  0
   -2.1504   -5.5934   15.0444 C   0  0  0  0  0  0  0  0  0  0  0  0
   -2.2500   -5.3084   16.4126 C   0  0  0  0  0  0  0  0  0  0  0  0
   -2.1612   -6.4865   17.1112 C   0  0  0  0  0  0  0  0  0  0  0  0
   -2.0062   -7.5013   16.1678 C   0  0  0  0  0  0  0  0  0  0  0  0
   -1.8707   -8.8653   16.2752 C   0  0  0  0  0  0  0  0  0  0  0  0
   -1.4853  -12.2016   15.2320 N   0  0  0  0  0  0  0  0  0  0  0  0
   -1.5962  -11.0490   15.1845 C   0  0  0  0  0  0  0  0  0  0  0  0
   -2.6755   -1.7114   10.8900 C   0  0  0  0  0  0  0  0  0  0  0  0
   -3.2328   -0.5938   11.1705 O   0  0  0  0  0  0  0  0  0  0  0  0
   -2.3237   -1.9224    9.5436 N   0  0  0  0  0  0  0  0  0  0  0  0
   -1.8614   -2.8073    9.2665 H   0  0  0  0  0  0  0  0  0  0  0  0
   -2.6206   -0.8752    8.5781 C   0  0  0  0  0  0  0  0  0  0  0  0
   -1.2690   -0.2992    8.1442 C   0  0  0  0  0  0  0  0  0  0  0  0
   -1.4969    0.6582    6.9800 C   0  0  0  0  0  0  0  0  0  0  0  0
   -1.8108   -0.2410    5.7751 C   0  0  0  0  0  0  0  0  0  0  0  0
   -2.4496   -1.5165    6.2024 C   0  0  0  0  0  0  0  0  0  0  0  0
   -3.3996   -1.3016    7.3925 C   0  0  0  0  0  0  0  0  0  0  0  0
   -2.7126    0.5125    4.9161 N   0  0  0  0  0  0  0  0  0  0  0  0
   -2.2208    1.0900    3.7273 C   0  0  0  0  0  0  0  0  0  0  0  0
   -0.9924    0.9560    3.4147 O   0  0  0  0  0  0  0  0  0  0  0  0
   -3.7094    0.6253    5.1670 H   0  0  0  0  0  0  0  0  0  0  0  0
   -3.1121    1.8524    2.8344 C   0  0  0  0  0  0  0  0  0  0  0  0
   -4.5460    1.5597    2.7911 C   0  0  0  0  0  0  0  0  0  0  0  0
   -3.6964    0.9675    1.7150 C   0  0  0  0  0  0  0  0  0  0  0  0
   -0.8730   -1.2195   13.1678 N   0  0  0  0  0  0  0  0  0  0  0  0
    0.0535   -1.1599   12.6929 H   0  0  0  0  0  0  0  0  0  0  0  0
   -1.2169   -0.0967   13.9480 C   0  0  0  0  0  0  0  0  0  0  0  0
   -0.8891    1.2253   13.6194 C   0  0  0  0  0  0  0  0  0  0  0  0
   -1.2497    2.2785   14.4196 C   0  0  0  0  0  0  0  0  0  0  0  0
   -1.9515    2.0320   15.5757 C   0  0  0  0  0  0  0  0  0  0  0  0
   -2.2817    0.7761   15.9217 N   0  0  0  0  0  0  0  0  0  0  0  0
   -1.9295   -0.2451   15.1401 C   0  0  0  0  0  0  0  0  0  0  0  0
 16 17  3  0  0  0
 17  7  1  0  0  0
  7  8  1  0  0  0
  8  9  2  0  0  0
  9 10  1  0  0  0
 10 11  1  0  0  0
 11  1  1  0  0  0
  1  2  2  0  0  0
  2  3  1  0  0  0
  3 35  1  0  0  0
 35 37  1  0  0  0
 37 38  2  0  0  0
 38 39  1  0  0  0
 39 40  2  0  0  0
 40 41  1  0  0  0
 41 42  2  0  0  0
  3  4  2  0  0  0
  4 18  1  0  0  0
 18 19  2  0  0  0
 18 20  1  0  0  0
 20 22  1  0  0  0
 22 23  1  0  0  0
 23 24  1  0  0  0
 24 25  1  0  0  0
 25 28  1  0  0  0
 28 29  1  0  0  0
 29 30  2  0  0  0
 29 32  1  0  0  0
 32 33  1  0  0  0
 33 34  1  0  0  0
 25 26  1  0  0  0
 26 27  1  0  0  0
  4  5  1  0  0  0
  5  6  2  0  0  0
 11 12  2  0  0  0
 12 13  1  0  0  0
 13 14  2  0  0  0
 14 15  1  0  0  0
 15  7  2  0  0  0
 14 10  1  0  0  0
  6  1  1  0  0  0
 42 37  1  0  0  0
 27 22  1  0  0  0
 34 32  1  0  0  0
 35 36  1  0  0  0
 20 21  1  0  0  0
 28 31  1  0  0  0
M  END
> <minimizedAffinity>
-2.64587

> <CNNscore>
0.5469219685

> <CNNaffinity>
6.3639545441

> <CNN_VS>
3.4805865288

> <CNNaffinity_variance>
1.6663074493

$$$$
[H]c1nc([H])c(N([H])c2c([H])c(-c3c([H])c([H])c4c([H])c(C#N)c([H])nn34)nc([H])c2C(=O)N([H])[C@]2([H])C([H])([H])C([H])([H])[C@@]([H])(N([H])C(=O)C3([H])C([H])([H])C3([H])[H])C([H])([H])C2([H])[H])c([H])c1[H]


 42 47  0  0  0  0  0  0  0  0999 V2000
   -3.1646   -3.3282   13.7402 C   0  0  0  0  0  0  0  0  0  0  0  0
   -2.6011   -3.7683   12.5799 C   0  0  0  0  0  0  0  0  0  0  0  0
   -2.4778   -3.0500   11.3938 C   0  0  0  0  0  0  0  0  0  0  0  0
   -2.9870   -1.7475   11.4110 C   0  0  0  0  0  0  0  0  0  0  0  0
   -3.5718   -1.2823   12.5980 C   0  0  0  0  0  0  0  0  0  0  0  0
   -3.6457   -2.0465   13.6907 N   0  0  0  0  0  0  0  0  0  0  0  0
   -1.8060   -7.5467   16.4707 C   0  0  0  0  0  0  0  0  0  0  0  0
   -1.4277   -7.1587   15.2116 C   0  0  0  0  0  0  0  0  0  0  0  0
   -1.9137   -6.0177   14.7192 N   0  0  0  0  0  0  0  0  0  0  0  0
   -2.7470   -5.2255   15.3741 N   0  0  0  0  0  0  0  0  0  0  0  0
   -3.2900   -4.0788   14.9824 C   0  0  0  0  0  0  0  0  0  0  0  0
   -4.0933   -3.6565   16.0500 C   0  0  0  0  0  0  0  0  0  0  0  0
   -3.9997   -4.5822   17.0590 C   0  0  0  0  0  0  0  0  0  0  0  0
   -3.1345   -5.5789   16.6098 C   0  0  0  0  0  0  0  0  0  0  0  0
   -2.6724   -6.7423   17.1785 C   0  0  0  0  0  0  0  0  0  0  0  0
   -0.8780   -9.7597   17.4437 N   0  0  0  0  0  0  0  0  0  0  0  0
   -1.2971   -8.7704   17.0091 C   0  0  0  0  0  0  0  0  0  0  0  0
   -2.8439   -0.8569   10.2894 C   0  0  0  0  0  0  0  0  0  0  0  0
   -3.0545    0.3955   10.4484 O   0  0  0  0  0  0  0  0  0  0  0  0
   -2.4769   -1.2774    8.9972 N   0  0  0  0  0  0  0  0  0  0  0  0
   -2.2862   -2.2800    8.8186 H   0  0  0  0  0  0  0  0  0  0  0  0
   -2.3719   -0.2760    7.9469 C   0  0  0  0  0  0  0  0  0  0  0  0
   -0.9774   -0.4435    7.3354 C   0  0  0  0  0  0  0  0  0  0  0  0
   -0.8798    0.4342    6.0929 C   0  0  0  0  0  0  0  0  0  0  0  0
   -1.7317   -0.2762    5.0306 C   0  0  0  0  0  0  0  0  0  0  0  0
   -2.8315   -1.0628    5.6547 C   0  0  0  0  0  0  0  0  0  0  0  0
   -3.4066   -0.3486    6.8894 C   0  0  0  0  0  0  0  0  0  0  0  0
   -2.2791    0.7634    4.1713 N   0  0  0  0  0  0  0  0  0  0  0  0
   -2.6674    0.4441    2.8537 C   0  0  0  0  0  0  0  0  0  0  0  0
   -2.5316   -0.7468    2.4205 O   0  0  0  0  0  0  0  0  0  0  0  0
   -2.3891    1.7313    4.5182 H   0  0  0  0  0  0  0  0  0  0  0  0
   -3.2315    1.4745    1.9632 C   0  0  0  0  0  0  0  0  0  0  0  0
   -3.2254    2.8833    2.3615 C   0  0  0  0  0  0  0  0  0  0  0  0
   -4.4948    2.1230    2.5640 C   0  0  0  0  0  0  0  0  0  0  0  0
   -1.9899   -3.6762   10.2461 N   0  0  0  0  0  0  0  0  0  0  0  0
   -0.9675   -3.6976   10.0418 H   0  0  0  0  0  0  0  0  0  0  0  0
   -2.8077   -4.2675    9.2617 C   0  0  0  0  0  0  0  0  0  0  0  0
   -2.5239   -4.2621    7.8897 C   0  0  0  0  0  0  0  0  0  0  0  0
   -3.3594   -4.8531    6.9774 C   0  0  0  0  0  0  0  0  0  0  0  0
   -4.5069   -5.4676    7.4196 C   0  0  0  0  0  0  0  0  0  0  0  0
   -4.8104   -5.4907    8.7285 N   0  0  0  0  0  0  0  0  0  0  0  0
   -3.9945   -4.9152    9.6123 C   0  0  0  0  0  0  0  0  0  0  0  0
 16 17  3  0  0  0
 17  7  1  0  0  0
  7  8  1  0  0  0
  8  9  2  0  0  0
  9 10  1  0  0  0
 10 11  1  0  0  0
 11  1  1  0  0  0
  1  2  2  0  0  0
  2  3  1  0  0  0
  3 35  1  0  0  0
 35 37  1  0  0  0
 37 38  2  0  0  0
 38 39  1  0  0  0
 39 40  2  0  0  0
 40 41  1  0  0  0
 41 42  2  0  0  0
  3  4  2  0  0  0
  4 18  1  0  0  0
 18 19  2  0  0  0
 18 20  1  0  0  0
 20 22  1  0  0  0
 22 23  1  0  0  0
 23 24  1  0  0  0
 24 25  1  0  0  0
 25 28  1  0  0  0
 28 29  1  0  0  0
 29 30  2  0  0  0
 29 32  1  0  0  0
 32 33  1  0  0  0
 33 34  1  0  0  0
 25 26  1  0  0  0
 26 27  1  0  0  0
  4  5  1  0  0  0
  5  6  2  0  0  0
 11 12  2  0  0  0
 12 13  1  0  0  0
 13 14  2  0  0  0
 14 15  1  0  0  0
 15  7  2  0  0  0
 14 10  1  0  0  0
  6  1  1  0  0  0
 42 37  1  0  0  0
 27 22  1  0  0  0
 34 32  1  0  0  0
 35 36  1  0  0  0
 20 21  1  0  0  0
 28 31  1  0  0  0
M  END
> <minimizedAffinity>
-1.74043

> <CNNscore>
0.4314979911

> <CNNaffinity>
6.1254420280

> <CNN_VS>
2.6431159973

> <CNNaffinity_variance>
1.1378413439

$$$$
[H]c1nc([H])c(N([H])c2c([H])c(-c3c([H])c([H])c4c([H])c(C#N)c([H])nn34)nc([H])c2C(=O)N([H])[C@]2([H])C([H])([H])C([H])([H])[C@@]([H])(N([H])C(=O)C3([H])C([H])([H])C3([H])[H])C([H])([H])C2([H])[H])c([H])c1[H]


 42 47  0  0  0  0  0  0  0  0999 V2000
   -1.9512   -4.6216    6.0572 C   0  0  0  0  0  0  0  0  0  0  0  0
   -1.5833   -3.3101    6.0115 C   0  0  0  0  0  0  0  0  0  0  0  0
   -1.6675   -2.4636    4.9096 C   0  0  0  0  0  0  0  0  0  0  0  0
   -2.1843   -3.0303    3.7401 C   0  0  0  0  0  0  0  0  0  0  0  0
   -2.5649   -4.3800    3.7722 C   0  0  0  0  0  0  0  0  0  0  0  0
   -2.4471   -5.1165    4.8799 N   0  0  0  0  0  0  0  0  0  0  0  0
   -1.2753   -9.4705    7.8257 C   0  0  0  0  0  0  0  0  0  0  0  0
   -1.2779   -8.9999    6.5383 C   0  0  0  0  0  0  0  0  0  0  0  0
   -1.4716   -7.6957    6.3328 N   0  0  0  0  0  0  0  0  0  0  0  0
   -1.6634   -6.8151    7.3017 N   0  0  0  0  0  0  0  0  0  0  0  0
   -1.8667   -5.5061    7.2116 C   0  0  0  0  0  0  0  0  0  0  0  0
   -2.0117   -5.0543    8.5299 C   0  0  0  0  0  0  0  0  0  0  0  0
   -1.8875   -6.1283    9.3754 C   0  0  0  0  0  0  0  0  0  0  0  0
   -1.6651   -7.2465    8.5729 C   0  0  0  0  0  0  0  0  0  0  0  0
   -1.4717   -8.5779    8.8568 C   0  0  0  0  0  0  0  0  0  0  0  0
   -0.9046  -11.9976    8.2519 N   0  0  0  0  0  0  0  0  0  0  0  0
   -1.0744  -10.8673    8.0604 C   0  0  0  0  0  0  0  0  0  0  0  0
   -2.4181   -2.2511    2.5527 C   0  0  0  0  0  0  0  0  0  0  0  0
   -1.6840   -1.2300    2.3146 O   0  0  0  0  0  0  0  0  0  0  0  0
   -3.4217   -2.5422    1.6098 N   0  0  0  0  0  0  0  0  0  0  0  0
   -4.0366   -3.3638    1.7518 H   0  0  0  0  0  0  0  0  0  0  0  0
   -3.5579   -1.6711    0.4523 C   0  0  0  0  0  0  0  0  0  0  0  0
   -3.8284   -2.5896   -0.7435 C   0  0  0  0  0  0  0  0  0  0  0  0
   -4.1879   -1.7290   -1.9492 C   0  0  0  0  0  0  0  0  0  0  0  0
   -5.6091   -1.2180   -1.6696 C   0  0  0  0  0  0  0  0  0  0  0  0
   -5.8663   -1.1044   -0.2071 C   0  0  0  0  0  0  0  0  0  0  0  0
   -4.6134   -0.6365    0.5522 C   0  0  0  0  0  0  0  0  0  0  0  0
   -5.7152    0.0878   -2.3039 N   0  0  0  0  0  0  0  0  0  0  0  0
   -6.9313    0.4723   -2.9056 C   0  0  0  0  0  0  0  0  0  0  0  0
   -7.9260   -0.3246   -2.8973 O   0  0  0  0  0  0  0  0  0  0  0  0
   -4.9100    0.7365   -2.3145 H   0  0  0  0  0  0  0  0  0  0  0  0
   -7.0703    1.7912   -3.5491 C   0  0  0  0  0  0  0  0  0  0  0  0
   -6.1536    2.8817   -3.2116 C   0  0  0  0  0  0  0  0  0  0  0  0
   -7.4879    2.8804   -2.5407 C   0  0  0  0  0  0  0  0  0  0  0  0
   -1.1344   -1.1756    4.9766 N   0  0  0  0  0  0  0  0  0  0  0  0
   -0.1508   -0.9878    4.6856 H   0  0  0  0  0  0  0  0  0  0  0  0
   -1.8318   -0.0582    5.4793 C   0  0  0  0  0  0  0  0  0  0  0  0
   -1.6890    1.2479    4.9928 C   0  0  0  0  0  0  0  0  0  0  0  0
   -2.3939    2.2970    5.5238 C   0  0  0  0  0  0  0  0  0  0  0  0
   -3.2642    2.0623    6.5618 C   0  0  0  0  0  0  0  0  0  0  0  0
   -3.4250    0.8221    7.0535 N   0  0  0  0  0  0  0  0  0  0  0  0
   -2.7378   -0.1954    6.5334 C   0  0  0  0  0  0  0  0  0  0  0  0
 16 17  3  0  0  0
 17  7  1  0  0  0
  7  8  1  0  0  0
  8  9  2  0  0  0
  9 10  1  0  0  0
 10 11  1  0  0  0
 11  1  1  0  0  0
  1  2  2  0  0  0
  2  3  1  0  0  0
  3 35  1  0  0  0
 35 37  1  0  0  0
 37 38  2  0  0  0
 38 39  1  0  0  0
 39 40  2  0  0  0
 40 41  1  0  0  0
 41 42  2  0  0  0
  3  4  2  0  0  0
  4 18  1  0  0  0
 18 19  2  0  0  0
 18 20  1  0  0  0
 20 22  1  0  0  0
 22 23  1  0  0  0
 23 24  1  0  0  0
 24 25  1  0  0  0
 25 28  1  0  0  0
 28 29  1  0  0  0
 29 30  2  0  0  0
 29 32  1  0  0  0
 32 33  1  0  0  0
 33 34  1  0  0  0
 25 26  1  0  0  0
 26 27  1  0  0  0
  4  5  1  0  0  0
  5  6  2  0  0  0
 11 12  2  0  0  0
 12 13  1  0  0  0
 13 14  2  0  0  0
 14 15  1  0  0  0
 15  7  2  0  0  0
 14 10  1  0  0  0
  6  1  1  0  0  0
 42 37  1  0  0  0
 27 22  1  0  0  0
 34 32  1  0  0  0
 35 36  1  0  0  0
 20 21  1  0  0  0
 28 31  1  0  0  0
M  END
> <minimizedAffinity>
-3.25487

> <CNNscore>
0.4030037820

> <CNNaffinity>
6.4371004105

> <CNN_VS>
2.5941758156

> <CNNaffinity_variance>
1.3885257244

$$$$
[H]c1nc([H])c(N([H])c2c([H])c(-c3c([H])c([H])c4c([H])c(C#N)c([H])nn34)nc([H])c2C(=O)N([H])[C@]2([H])C([H])([H])C([H])([H])[C@@]([H])(N([H])C(=O)C3([H])C([H])([H])C3([H])[H])C([H])([H])C2([H])[H])c([H])c1[H]


 42 47  0  0  0  0  0  0  0  0999 V2000
   -2.0730   -3.9941    3.4599 C   0  0  0  0  0  0  0  0  0  0  0  0
   -3.2343   -4.2010    4.1424 C   0  0  0  0  0  0  0  0  0  0  0  0
   -3.3869   -4.2407    5.5256 C   0  0  0  0  0  0  0  0  0  0  0  0
   -2.2228   -4.0461    6.2759 C   0  0  0  0  0  0  0  0  0  0  0  0
   -1.0199   -3.8343    5.5863 C   0  0  0  0  0  0  0  0  0  0  0  0
   -0.9701   -3.8127    4.2519 N   0  0  0  0  0  0  0  0  0  0  0  0
   -3.8840   -2.2480   -1.0973 C   0  0  0  0  0  0  0  0  0  0  0  0
   -4.3594   -2.0412    0.1716 C   0  0  0  0  0  0  0  0  0  0  0  0
   -3.7132   -2.5989    1.1972 N   0  0  0  0  0  0  0  0  0  0  0  0
   -2.6296   -3.3476    1.0691 N   0  0  0  0  0  0  0  0  0  0  0  0
   -1.9142   -3.9487    2.0125 C   0  0  0  0  0  0  0  0  0  0  0  0
   -0.8791   -4.6100    1.3384 C   0  0  0  0  0  0  0  0  0  0  0  0
   -1.0154   -4.3762   -0.0071 C   0  0  0  0  0  0  0  0  0  0  0  0
   -2.1402   -3.5669   -0.1615 C   0  0  0  0  0  0  0  0  0  0  0  0
   -2.7567   -3.0228   -1.2634 C   0  0  0  0  0  0  0  0  0  0  0  0
   -5.1206   -1.1868   -3.1098 N   0  0  0  0  0  0  0  0  0  0  0  0
   -4.5701   -1.6607   -2.2067 C   0  0  0  0  0  0  0  0  0  0  0  0
   -2.2451   -3.9661    7.7129 C   0  0  0  0  0  0  0  0  0  0  0  0
   -2.1373   -5.0372    8.4052 O   0  0  0  0  0  0  0  0  0  0  0  0
   -2.3784   -2.7613    8.4283 N   0  0  0  0  0  0  0  0  0  0  0  0
   -2.4597   -1.8654    7.9142 H   0  0  0  0  0  0  0  0  0  0  0  0
   -2.3921   -2.8173    9.8821 C   0  0  0  0  0  0  0  0  0  0  0  0
   -1.0062   -2.3524   10.3402 C   0  0  0  0  0  0  0  0  0  0  0  0
   -1.0219   -2.1881   11.8556 C   0  0  0  0  0  0  0  0  0  0  0  0
   -1.8375   -0.9125   12.1136 C   0  0  0  0  0  0  0  0  0  0  0  0
   -2.8454   -0.6872   11.0406 C   0  0  0  0  0  0  0  0  0  0  0  0
   -3.4460   -2.0124   10.5424 C   0  0  0  0  0  0  0  0  0  0  0  0
   -2.4988   -1.0929   13.3977 N   0  0  0  0  0  0  0  0  0  0  0  0
   -2.5900   -0.0063   14.2920 C   0  0  0  0  0  0  0  0  0  0  0  0
   -2.0892    1.1224   13.9762 O   0  0  0  0  0  0  0  0  0  0  0  0
   -2.9047   -2.0074   13.6586 H   0  0  0  0  0  0  0  0  0  0  0  0
   -3.2601   -0.1574   15.5963 C   0  0  0  0  0  0  0  0  0  0  0  0
   -4.7212   -0.1980   15.6794 C   0  0  0  0  0  0  0  0  0  0  0  0
   -4.0572    1.1051   15.9814 C   0  0  0  0  0  0  0  0  0  0  0  0
   -4.6186   -4.5879    6.0821 N   0  0  0  0  0  0  0  0  0  0  0  0
   -5.2280   -3.8668    6.5251 H   0  0  0  0  0  0  0  0  0  0  0  0
   -5.1116   -5.9072    6.1466 C   0  0  0  0  0  0  0  0  0  0  0  0
   -6.3111   -6.3329    5.5609 C   0  0  0  0  0  0  0  0  0  0  0  0
   -6.7411   -7.6310    5.6585 C   0  0  0  0  0  0  0  0  0  0  0  0
   -5.9758   -8.5401    6.3498 C   0  0  0  0  0  0  0  0  0  0  0  0
   -4.8204   -8.1656    6.9247 N   0  0  0  0  0  0  0  0  0  0  0  0
   -4.4057   -6.9022    6.8265 C   0  0  0  0  0  0  0  0  0  0  0  0
 16 17  3  0  0  0
 17  7  1  0  0  0
  7  8  1  0  0  0
  8  9  2  0  0  0
  9 10  1  0  0  0
 10 11  1  0  0  0
 11  1  1  0  0  0
  1  2  2  0  0  0
  2  3  1  0  0  0
  3 35  1  0  0  0
 35 37  1  0  0  0
 37 38  2  0  0  0
 38 39  1  0  0  0
 39 40  2  0  0  0
 40 41  1  0  0  0
 41 42  2  0  0  0
  3  4  2  0  0  0
  4 18  1  0  0  0
 18 19  2  0  0  0
 18 20  1  0  0  0
 20 22  1  0  0  0
 22 23  1  0  0  0
 23 24  1  0  0  0
 24 25  1  0  0  0
 25 28  1  0  0  0
 28 29  1  0  0  0
 29 30  2  0  0  0
 29 32  1  0  0  0
 32 33  1  0  0  0
 33 34  1  0  0  0
 25 26  1  0  0  0
 26 27  1  0  0  0
  4  5  1  0  0  0
  5  6  2  0  0  0
 11 12  2  0  0  0
 12 13  1  0  0  0
 13 14  2  0  0  0
 14 15  1  0  0  0
 15  7  2  0  0  0
 14 10  1  0  0  0
  6  1  1  0  0  0
 42 37  1  0  0  0
 27 22  1  0  0  0
 34 32  1  0  0  0
 35 36  1  0  0  0
 20 21  1  0  0  0
 28 31  1  0  0  0
M  END
> <minimizedAffinity>
-4.38117

> <CNNscore>
0.3453535736

> <CNNaffinity>
6.1585845947

> <CNN_VS>
2.1268892288

> <CNNaffinity_variance>
0.2796213031

$$$$
[H]c1nc([H])c(N([H])c2c([H])c(-c3c([H])c([H])c4c([H])c(C#N)c([H])nn34)nc([H])c2C(=O)N([H])[C@]2([H])C([H])([H])C([H])([H])[C@@]([H])(N([H])C(=O)C3([H])C([H])([H])C3([H])[H])C([H])([H])C2([H])[H])c([H])c1[H]


 42 47  0  0  0  0  0  0  0  0999 V2000
   -5.6593   -6.3246   11.4142 C   0  0  0  0  0  0  0  0  0  0  0  0
   -5.3201   -6.8163   10.1892 C   0  0  0  0  0  0  0  0  0  0  0  0
   -6.1964   -7.2563    9.2011 C   0  0  0  0  0  0  0  0  0  0  0  0
   -7.5580   -7.1786    9.5113 C   0  0  0  0  0  0  0  0  0  0  0  0
   -7.9214   -6.6766   10.7696 C   0  0  0  0  0  0  0  0  0  0  0  0
   -7.0067   -6.2767   11.6568 N   0  0  0  0  0  0  0  0  0  0  0  0
   -4.8596   -3.1596   15.4688 C   0  0  0  0  0  0  0  0  0  0  0  0
   -5.9762   -3.3212   14.6904 C   0  0  0  0  0  0  0  0  0  0  0  0
   -5.9411   -4.2097   13.6955 N   0  0  0  0  0  0  0  0  0  0  0  0
   -4.8865   -4.9550   13.4068 N   0  0  0  0  0  0  0  0  0  0  0  0
   -4.7422   -5.8606   12.4465 C   0  0  0  0  0  0  0  0  0  0  0  0
   -3.4362   -6.3501   12.5815 C   0  0  0  0  0  0  0  0  0  0  0  0
   -2.8366   -5.7083   13.6361 C   0  0  0  0  0  0  0  0  0  0  0  0
   -3.7785   -4.8195   14.1525 C   0  0  0  0  0  0  0  0  0  0  0  0
   -3.7453   -3.9221   15.1937 C   0  0  0  0  0  0  0  0  0  0  0  0
   -4.9051   -1.4374   17.4019 N   0  0  0  0  0  0  0  0  0  0  0  0
   -4.8812   -2.2067   16.5355 C   0  0  0  0  0  0  0  0  0  0  0  0
   -8.5796   -7.5078    8.5523 C   0  0  0  0  0  0  0  0  0  0  0  0
   -8.3296   -7.3955    7.3020 O   0  0  0  0  0  0  0  0  0  0  0  0
   -9.8663   -7.9584    8.9020 N   0  0  0  0  0  0  0  0  0  0  0  0
  -10.1154   -8.0751    9.9009 H   0  0  0  0  0  0  0  0  0  0  0  0
  -10.8106   -8.2528    7.8349 C   0  0  0  0  0  0  0  0  0  0  0  0
  -11.4722   -9.5837    8.2058 C   0  0  0  0  0  0  0  0  0  0  0  0
  -12.6202   -9.8454    7.2375 C   0  0  0  0  0  0  0  0  0  0  0  0
  -13.7273   -8.8647    7.6516 C   0  0  0  0  0  0  0  0  0  0  0  0
  -13.1588   -7.6350    8.2700 C   0  0  0  0  0  0  0  0  0  0  0  0
  -11.8428   -7.2183    7.5920 C   0  0  0  0  0  0  0  0  0  0  0  0
  -14.4607   -8.5281    6.4402 N   0  0  0  0  0  0  0  0  0  0  0  0
  -15.7178   -7.8970    6.5407 C   0  0  0  0  0  0  0  0  0  0  0  0
  -16.2074   -7.6314    7.6871 O   0  0  0  0  0  0  0  0  0  0  0  0
  -14.0680   -8.7436    5.5082 H   0  0  0  0  0  0  0  0  0  0  0  0
  -16.4801   -7.5378    5.3312 C   0  0  0  0  0  0  0  0  0  0  0  0
  -15.9998   -7.9349    4.0064 C   0  0  0  0  0  0  0  0  0  0  0  0
  -15.7119   -6.5367    4.4451 C   0  0  0  0  0  0  0  0  0  0  0  0
   -5.6986   -7.8529    8.0419 N   0  0  0  0  0  0  0  0  0  0  0  0
   -6.0337   -8.7922    7.7372 H   0  0  0  0  0  0  0  0  0  0  0  0
   -4.6908   -7.2878    7.2340 C   0  0  0  0  0  0  0  0  0  0  0  0
   -4.8592   -6.1425    6.4447 C   0  0  0  0  0  0  0  0  0  0  0  0
   -3.8413   -5.6393    5.6765 C   0  0  0  0  0  0  0  0  0  0  0  0
   -2.6223   -6.2749    5.6798 C   0  0  0  0  0  0  0  0  0  0  0  0
   -2.4264   -7.3763    6.4244 N   0  0  0  0  0  0  0  0  0  0  0  0
   -3.4191   -7.8617    7.1706 C   0  0  0  0  0  0  0  0  0  0  0  0
 16 17  3  0  0  0
 17  7  1  0  0  0
  7  8  1  0  0  0
  8  9  2  0  0  0
  9 10  1  0  0  0
 10 11  1  0  0  0
 11  1  1  0  0  0
  1  2  2  0  0  0
  2  3  1  0  0  0
  3 35  1  0  0  0
 35 37  1  0  0  0
 37 38  2  0  0  0
 38 39  1  0  0  0
 39 40  2  0  0  0
 40 41  1  0  0  0
 41 42  2  0  0  0
  3  4  2  0  0  0
  4 18  1  0  0  0
 18 19  2  0  0  0
 18 20  1  0  0  0
 20 22  1  0  0  0
 22 23  1  0  0  0
 23 24  1  0  0  0
 24 25  1  0  0  0
 25 28  1  0  0  0
 28 29  1  0  0  0
 29 30  2  0  0  0
 29 32  1  0  0  0
 32 33  1  0  0  0
 33 34  1  0  0  0
 25 26  1  0  0  0
 26 27  1  0  0  0
  4  5  1  0  0  0
  5  6  2  0  0  0
 11 12  2  0  0  0
 12 13  1  0  0  0
 13 14  2  0  0  0
 14 15  1  0  0  0
 15  7  2  0  0  0
 14 10  1  0  0  0
  6  1  1  0  0  0
 42 37  1  0  0  0
 27 22  1  0  0  0
 34 32  1  0  0  0
 35 36  1  0  0  0
 20 21  1  0  0  0
 28 31  1  0  0  0
M  END
> <minimizedAffinity>
1.19724

> <CNNscore>
0.3148060441

> <CNNaffinity>
7.0542974472

> <CNN_VS>
2.2207355499

> <CNNaffinity_variance>
0.7303348780

$$$$
[H]c1nc([H])c(N([H])c2c([H])c(-c3c([H])c([H])c4c([H])c(C#N)c([H])nn34)nc([H])c2C(=O)N([H])[C@]2([H])C([H])([H])C([H])([H])[C@@]([H])(N([H])C(=O)C3([H])C([H])([H])C3([H])[H])C([H])([H])C2([H])[H])c([H])c1[H]


 42 47  0  0  0  0  0  0  0  0999 V2000
  -13.2405   -8.3803    7.2968 C   0  0  0  0  0  0  0  0  0  0  0  0
  -12.4874   -7.5530    8.0752 C   0  0  0  0  0  0  0  0  0  0  0  0
  -11.1212   -7.6613    8.3198 C   0  0  0  0  0  0  0  0  0  0  0  0
  -10.4705   -8.7310    7.6965 C   0  0  0  0  0  0  0  0  0  0  0  0
  -11.2339   -9.5919    6.8943 C   0  0  0  0  0  0  0  0  0  0  0  0
  -12.5448   -9.4083    6.7172 N   0  0  0  0  0  0  0  0  0  0  0  0
  -17.0142   -7.6182    3.7933 C   0  0  0  0  0  0  0  0  0  0  0  0
  -15.6556   -7.6717    3.6200 C   0  0  0  0  0  0  0  0  0  0  0  0
  -14.8811   -7.8848    4.6855 N   0  0  0  0  0  0  0  0  0  0  0  0
  -15.3436   -8.0505    5.9142 N   0  0  0  0  0  0  0  0  0  0  0  0
  -14.6693   -8.2644    7.0379 C   0  0  0  0  0  0  0  0  0  0  0  0
  -15.6370   -8.3643    8.0464 C   0  0  0  0  0  0  0  0  0  0  0  0
  -16.8764   -8.2039    7.4791 C   0  0  0  0  0  0  0  0  0  0  0  0
  -16.6701   -8.0043    6.1148 C   0  0  0  0  0  0  0  0  0  0  0  0
  -17.5266   -7.7879    5.0612 C   0  0  0  0  0  0  0  0  0  0  0  0
  -18.5337   -7.1992    1.7388 N   0  0  0  0  0  0  0  0  0  0  0  0
  -17.8562   -7.3848    2.6607 C   0  0  0  0  0  0  0  0  0  0  0  0
   -9.0451   -8.9116    7.7815 C   0  0  0  0  0  0  0  0  0  0  0  0
   -8.5716  -10.0710    8.0460 O   0  0  0  0  0  0  0  0  0  0  0  0
   -8.1114   -7.8765    7.5869 N   0  0  0  0  0  0  0  0  0  0  0  0
   -8.4436   -6.9215    7.3611 H   0  0  0  0  0  0  0  0  0  0  0  0
   -6.6955   -8.1898    7.7060 C   0  0  0  0  0  0  0  0  0  0  0  0
   -6.1311   -8.1621    6.2821 C   0  0  0  0  0  0  0  0  0  0  0  0
   -4.6128   -8.2759    6.3559 C   0  0  0  0  0  0  0  0  0  0  0  0
   -4.1313   -6.9102    6.8678 C   0  0  0  0  0  0  0  0  0  0  0  0
   -5.1602   -6.2592    7.7253 C   0  0  0  0  0  0  0  0  0  0  0  0
   -5.9136   -7.2888    8.5841 C   0  0  0  0  0  0  0  0  0  0  0  0
   -2.9179   -7.1560    7.6335 N   0  0  0  0  0  0  0  0  0  0  0  0
   -2.1507   -6.0647    8.0907 C   0  0  0  0  0  0  0  0  0  0  0  0
   -2.5178   -4.8730    7.8269 O   0  0  0  0  0  0  0  0  0  0  0  0
   -2.6155   -8.1213    7.8480 H   0  0  0  0  0  0  0  0  0  0  0  0
   -0.9213   -6.2828    8.8743 C   0  0  0  0  0  0  0  0  0  0  0  0
   -0.8732   -7.3211    9.9053 C   0  0  0  0  0  0  0  0  0  0  0  0
   -1.1159   -5.9194   10.3600 C   0  0  0  0  0  0  0  0  0  0  0  0
  -10.5077   -6.8119    9.2414 N   0  0  0  0  0  0  0  0  0  0  0  0
   -9.4721   -6.6890    9.2491 H   0  0  0  0  0  0  0  0  0  0  0  0
  -11.1994   -6.1095   10.2492 C   0  0  0  0  0  0  0  0  0  0  0  0
  -12.3718   -5.3722   10.0372 C   0  0  0  0  0  0  0  0  0  0  0  0
  -13.0005   -4.7068   11.0578 C   0  0  0  0  0  0  0  0  0  0  0  0
  -12.4669   -4.7636   12.3235 C   0  0  0  0  0  0  0  0  0  0  0  0
  -11.3430   -5.4607   12.5621 N   0  0  0  0  0  0  0  0  0  0  0  0
  -10.7354   -6.1069   11.5666 C   0  0  0  0  0  0  0  0  0  0  0  0
 16 17  3  0  0  0
 17  7  1  0  0  0
  7  8  1  0  0  0
  8  9  2  0  0  0
  9 10  1  0  0  0
 10 11  1  0  0  0
 11  1  1  0  0  0
  1  2  2  0  0  0
  2  3  1  0  0  0
  3 35  1  0  0  0
 35 37  1  0  0  0
 37 38  2  0  0  0
 38 39  1  0  0  0
 39 40  2  0  0  0
 40 41  1  0  0  0
 41 42  2  0  0  0
  3  4  2  0  0  0
  4 18  1  0  0  0
 18 19  2  0  0  0
 18 20  1  0  0  0
 20 22  1  0  0  0
 22 23  1  0  0  0
 23 24  1  0  0  0
 24 25  1  0  0  0
 25 28  1  0  0  0
 28 29  1  0  0  0
 29 30  2  0  0  0
 29 32  1  0  0  0
 32 33  1  0  0  0
 33 34  1  0  0  0
 25 26  1  0  0  0
 26 27  1  0  0  0
  4  5  1  0  0  0
  5  6  2  0  0  0
 11 12  2  0  0  0
 12 13  1  0  0  0
 13 14  2  0  0  0
 14 15  1  0  0  0
 15  7  2  0  0  0
 14 10  1  0  0  0
  6  1  1  0  0  0
 42 37  1  0  0  0
 27 22  1  0  0  0
 34 32  1  0  0  0
 35 36  1  0  0  0
 20 21  1  0  0  0
 28 31  1  0  0  0
M  END
> <minimizedAffinity>
-3.63529

> <CNNscore>
0.3068903983

> <CNNaffinity>
7.5350990295

> <CNN_VS>
2.3124494553

> <CNNaffinity_variance>
0.0879352838

$$$$
[H]c1nc([H])c(N([H])c2c([H])c(-c3c([H])c([H])c4c([H])c(C#N)c([H])nn34)nc([H])c2C(=O)N([H])[C@]2([H])C([H])([H])C([H])([H])[C@@]([H])(N([H])C(=O)C3([H])C([H])([H])C3([H])[H])C([H])([H])C2([H])[H])c([H])c1[H]


 42 47  0  0  0  0  0  0  0  0999 V2000
  -14.1370   -6.9459    6.1527 C   0  0  0  0  0  0  0  0  0  0  0  0
  -13.9179   -7.1604    7.4806 C   0  0  0  0  0  0  0  0  0  0  0  0
  -12.6810   -7.2849    8.1070 C   0  0  0  0  0  0  0  0  0  0  0  0
  -11.5605   -7.1756    7.2770 C   0  0  0  0  0  0  0  0  0  0  0  0
  -11.7714   -6.9570    5.9077 C   0  0  0  0  0  0  0  0  0  0  0  0
  -12.9999   -6.8506    5.3947 N   0  0  0  0  0  0  0  0  0  0  0  0
  -19.0666   -8.5820    5.8074 C   0  0  0  0  0  0  0  0  0  0  0  0
  -18.0621   -8.9972    6.6427 C   0  0  0  0  0  0  0  0  0  0  0  0
  -16.8649   -8.4163    6.5439 N   0  0  0  0  0  0  0  0  0  0  0  0
  -16.5793   -7.4533    5.6824 N   0  0  0  0  0  0  0  0  0  0  0  0
  -15.4315   -6.8118    5.4981 C   0  0  0  0  0  0  0  0  0  0  0  0
  -15.6720   -5.8953    4.4658 C   0  0  0  0  0  0  0  0  0  0  0  0
  -16.9778   -6.0243    4.0634 C   0  0  0  0  0  0  0  0  0  0  0  0
  -17.5434   -7.0252    4.8521 C   0  0  0  0  0  0  0  0  0  0  0  0
  -18.8005   -7.5802    4.8996 C   0  0  0  0  0  0  0  0  0  0  0  0
  -21.3932   -9.7064    5.9749 N   0  0  0  0  0  0  0  0  0  0  0  0
  -20.3536   -9.1999    5.8986 C   0  0  0  0  0  0  0  0  0  0  0  0
  -10.2194   -7.1882    7.7994 C   0  0  0  0  0  0  0  0  0  0  0  0
  -10.0356   -7.3031    9.0608 O   0  0  0  0  0  0  0  0  0  0  0  0
   -9.0662   -7.0826    6.9993 N   0  0  0  0  0  0  0  0  0  0  0  0
   -9.1609   -6.9970    5.9711 H   0  0  0  0  0  0  0  0  0  0  0  0
   -7.7661   -7.1030    7.6524 C   0  0  0  0  0  0  0  0  0  0  0  0
   -7.2718   -8.5508    7.5738 C   0  0  0  0  0  0  0  0  0  0  0  0
   -5.8257   -8.6002    8.0533 C   0  0  0  0  0  0  0  0  0  0  0  0
   -5.0041   -7.9686    6.9197 C   0  0  0  0  0  0  0  0  0  0  0  0
   -5.8061   -6.9693    6.1607 C   0  0  0  0  0  0  0  0  0  0  0  0
   -6.7519   -6.1844    7.0851 C   0  0  0  0  0  0  0  0  0  0  0  0
   -3.8568   -7.3261    7.5441 N   0  0  0  0  0  0  0  0  0  0  0  0
   -2.7987   -6.8565    6.7387 C   0  0  0  0  0  0  0  0  0  0  0  0
   -2.8482   -7.0021    5.4735 O   0  0  0  0  0  0  0  0  0  0  0  0
   -3.8119   -7.2078    8.5704 H   0  0  0  0  0  0  0  0  0  0  0  0
   -1.6276   -6.1956    7.3424 C   0  0  0  0  0  0  0  0  0  0  0  0
   -1.7432   -5.5157    8.6339 C   0  0  0  0  0  0  0  0  0  0  0  0
   -1.8030   -4.6651    7.4079 C   0  0  0  0  0  0  0  0  0  0  0  0
  -12.6141   -7.6290    9.4578 N   0  0  0  0  0  0  0  0  0  0  0  0
  -11.7040   -7.6244    9.9668 H   0  0  0  0  0  0  0  0  0  0  0  0
  -13.7216   -8.0548   10.2192 C   0  0  0  0  0  0  0  0  0  0  0  0
  -13.7426   -8.1163   11.6188 C   0  0  0  0  0  0  0  0  0  0  0  0
  -14.8502   -8.5413   12.3060 C   0  0  0  0  0  0  0  0  0  0  0  0
  -15.9706   -8.9178   11.6040 C   0  0  0  0  0  0  0  0  0  0  0  0
  -15.9846   -8.8722   10.2610 N   0  0  0  0  0  0  0  0  0  0  0  0
  -14.9054   -8.4575    9.5969 C   0  0  0  0  0  0  0  0  0  0  0  0
 16 17  3  0  0  0
 17  7  1  0  0  0
  7  8  1  0  0  0
  8  9  2  0  0  0
  9 10  1  0  0  0
 10 11  1  0  0  0
 11  1  1  0  0  0
  1  2  2  0  0  0
  2  3  1  0  0  0
  3 35  1  0  0  0
 35 37  1  0  0  0
 37 38  2  0  0  0
 38 39  1  0  0  0
 39 40  2  0  0  0
 40 41  1  0  0  0
 41 42  2  0  0  0
  3  4  2  0  0  0
  4 18  1  0  0  0
 18 19  2  0  0  0
 18 20  1  0  0  0
 20 22  1  0  0  0
 22 23  1  0  0  0
 23 24  1  0  0  0
 24 25  1  0  0  0
 25 28  1  0  0  0
 28 29  1  0  0  0
 29 30  2  0  0  0
 29 32  1  0  0  0
 32 33  1  0  0  0
 33 34  1  0  0  0
 25 26  1  0  0  0
 26 27  1  0  0  0
  4  5  1  0  0  0
  5  6  2  0  0  0
 11 12  2  0  0  0
 12 13  1  0  0  0
 13 14  2  0  0  0
 14 15  1  0  0  0
 15  7  2  0  0  0
 14 10  1  0  0  0
  6  1  1  0  0  0
 42 37  1  0  0  0
 27 22  1  0  0  0
 34 32  1  0  0  0
 35 36  1  0  0  0
 20 21  1  0  0  0
 28 31  1  0  0  0
M  END
> <minimizedAffinity>
7.84786

> <CNNscore>
0.3054984510

> <CNNaffinity>
7.2122869492

> <CNN_VS>
2.2033424377

> <CNNaffinity_variance>
0.7699295282

$$$$
[H]c1nc([H])c(N([H])c2c([H])c(-c3c([H])c([H])c4c([H])c(C#N)c([H])nn34)nc([H])c2C(=O)N([H])[C@]2([H])C([H])([H])C([H])([H])[C@@]([H])(N([H])C(=O)C3([H])C([H])([H])C3([H])[H])C([H])([H])C2([H])[H])c([H])c1[H]


 42 47  0  0  0  0  0  0  0  0999 V2000
  -11.3556   -8.4030    7.3226 C   0  0  0  0  0  0  0  0  0  0  0  0
  -10.1457   -8.7910    6.8298 C   0  0  0  0  0  0  0  0  0  0  0  0
   -8.9088   -8.6306    7.4481 C   0  0  0  0  0  0  0  0  0  0  0  0
   -8.9264   -8.0081    8.7004 C   0  0  0  0  0  0  0  0  0  0  0  0
  -10.1647   -7.6014    9.2188 C   0  0  0  0  0  0  0  0  0  0  0  0
  -11.3042   -7.7981    8.5507 N   0  0  0  0  0  0  0  0  0  0  0  0
  -16.5146   -7.7689    7.6051 C   0  0  0  0  0  0  0  0  0  0  0  0
  -15.5400   -7.4348    8.5092 C   0  0  0  0  0  0  0  0  0  0  0  0
  -14.2673   -7.6979    8.2066 N   0  0  0  0  0  0  0  0  0  0  0  0
  -13.8784   -8.2669    7.0770 N   0  0  0  0  0  0  0  0  0  0  0  0
  -12.6502   -8.5745    6.6771 C   0  0  0  0  0  0  0  0  0  0  0  0
  -12.7994   -9.1579    5.4119 C   0  0  0  0  0  0  0  0  0  0  0  0
  -14.1348   -9.1783    5.0956 C   0  0  0  0  0  0  0  0  0  0  0  0
  -14.8105   -8.6045    6.1718 C   0  0  0  0  0  0  0  0  0  0  0  0
  -16.1412   -8.3623    6.4189 C   0  0  0  0  0  0  0  0  0  0  0  0
  -18.9924   -7.2716    8.1692 N   0  0  0  0  0  0  0  0  0  0  0  0
  -17.8837   -7.4976    7.9187 C   0  0  0  0  0  0  0  0  0  0  0  0
   -7.7366   -7.8618    9.4970 C   0  0  0  0  0  0  0  0  0  0  0  0
   -7.1368   -8.9058    9.9313 O   0  0  0  0  0  0  0  0  0  0  0  0
   -7.1707   -6.6192    9.8387 N   0  0  0  0  0  0  0  0  0  0  0  0
   -7.6131   -5.7442    9.5038 H   0  0  0  0  0  0  0  0  0  0  0  0
   -5.9667   -6.6079   10.6557 C   0  0  0  0  0  0  0  0  0  0  0  0
   -5.2452   -5.2953   10.3343 C   0  0  0  0  0  0  0  0  0  0  0  0
   -4.0853   -5.1239   11.3085 C   0  0  0  0  0  0  0  0  0  0  0  0
   -4.7374   -4.7565   12.6497 C   0  0  0  0  0  0  0  0  0  0  0  0
   -6.1045   -5.3357   12.7646 C   0  0  0  0  0  0  0  0  0  0  0  0
   -6.1846   -6.7279   12.1160 C   0  0  0  0  0  0  0  0  0  0  0  0
   -3.8738   -5.2897   13.6932 N   0  0  0  0  0  0  0  0  0  0  0  0
   -2.4854   -5.0489   13.6377 C   0  0  0  0  0  0  0  0  0  0  0  0
   -1.9939   -4.3740   12.6747 O   0  0  0  0  0  0  0  0  0  0  0  0
   -4.2682   -5.8394   14.4752 H   0  0  0  0  0  0  0  0  0  0  0  0
   -1.5873   -5.5702   14.6840 C   0  0  0  0  0  0  0  0  0  0  0  0
   -2.0423   -5.6656   16.0722 C   0  0  0  0  0  0  0  0  0  0  0  0
   -1.2073   -4.4821   15.7082 C   0  0  0  0  0  0  0  0  0  0  0  0
   -7.7386   -8.9651    6.7654 N   0  0  0  0  0  0  0  0  0  0  0  0
   -7.5803   -9.9357    6.4183 H   0  0  0  0  0  0  0  0  0  0  0  0
   -6.6739   -8.0692    6.5387 C   0  0  0  0  0  0  0  0  0  0  0  0
   -5.3411   -8.3191    6.8914 C   0  0  0  0  0  0  0  0  0  0  0  0
   -4.3468   -7.4074    6.6470 C   0  0  0  0  0  0  0  0  0  0  0  0
   -4.6649   -6.2157    6.0399 C   0  0  0  0  0  0  0  0  0  0  0  0
   -5.9331   -5.9430    5.6892 N   0  0  0  0  0  0  0  0  0  0  0  0
   -6.8969   -6.8329    5.9282 C   0  0  0  0  0  0  0  0  0  0  0  0
 16 17  3  0  0  0
 17  7  1  0  0  0
  7  8  1  0  0  0
  8  9  2  0  0  0
  9 10  1  0  0  0
 10 11  1  0  0  0
 11  1  1  0  0  0
  1  2  2  0  0  0
  2  3  1  0  0  0
  3 35  1  0  0  0
 35 37  1  0  0  0
 37 38  2  0  0  0
 38 39  1  0  0  0
 39 40  2  0  0  0
 40 41  1  0  0  0
 41 42  2  0  0  0
  3  4  2  0  0  0
  4 18  1  0  0  0
 18 19  2  0  0  0
 18 20  1  0  0  0
 20 22  1  0  0  0
 22 23  1  0  0  0
 23 24  1  0  0  0
 24 25  1  0  0  0
 25 28  1  0  0  0
 28 29  1  0  0  0
 29 30  2  0  0  0
 29 32  1  0  0  0
 32 33  1  0  0  0
 33 34  1  0  0  0
 25 26  1  0  0  0
 26 27  1  0  0  0
  4  5  1  0  0  0
  5  6  2  0  0  0
 11 12  2  0  0  0
 12 13  1  0  0  0
 13 14  2  0  0  0
 14 15  1  0  0  0
 15  7  2  0  0  0
 14 10  1  0  0  0
  6  1  1  0  0  0
 42 37  1  0  0  0
 27 22  1  0  0  0
 34 32  1  0  0  0
 35 36  1  0  0  0
 20 21  1  0  0  0
 28 31  1  0  0  0
M  END
> <minimizedAffinity>
2.74746

> <CNNscore>
0.3021528125

> <CNNaffinity>
7.0270857811

> <CNN_VS>
2.1232538223

> <CNNaffinity_variance>
0.2685970366

$$$$
[H]c1nc([H])c(N([H])c2c([H])c(-c3c([H])c([H])c4c([H])c(C#N)c([H])nn34)nc([H])c2C(=O)N([H])[C@]2([H])C([H])([H])C([H])([H])[C@@]([H])(N([H])C(=O)C3([H])C([H])([H])C3([H])[H])C([H])([H])C2([H])[H])c([H])c1[H]


 42 47  0  0  0  0  0  0  0  0999 V2000
  -14.6499   -8.2654    8.4009 C   0  0  0  0  0  0  0  0  0  0  0  0
  -14.3491   -7.5905    7.2557 C   0  0  0  0  0  0  0  0  0  0  0  0
  -13.1056   -7.0763    6.8991 C   0  0  0  0  0  0  0  0  0  0  0  0
  -12.0714   -7.2819    7.8180 C   0  0  0  0  0  0  0  0  0  0  0  0
  -12.3674   -7.9731    9.0021 C   0  0  0  0  0  0  0  0  0  0  0  0
  -13.5952   -8.4315    9.2592 N   0  0  0  0  0  0  0  0  0  0  0  0
  -19.5568   -9.2558    6.9734 C   0  0  0  0  0  0  0  0  0  0  0  0
  -18.5349   -8.6855    6.2598 C   0  0  0  0  0  0  0  0  0  0  0  0
  -17.3467   -8.5369    6.8485 N   0  0  0  0  0  0  0  0  0  0  0  0
  -17.0858   -8.9087    8.0914 N   0  0  0  0  0  0  0  0  0  0  0  0
  -15.9503   -8.8069    8.7721 C   0  0  0  0  0  0  0  0  0  0  0  0
  -16.2181   -9.3465   10.0372 C   0  0  0  0  0  0  0  0  0  0  0  0
  -17.5268   -9.7588   10.0675 C   0  0  0  0  0  0  0  0  0  0  0  0
  -18.0669   -9.4712    8.8147 C   0  0  0  0  0  0  0  0  0  0  0  0
  -19.3161   -9.6543    8.2704 C   0  0  0  0  0  0  0  0  0  0  0  0
  -21.8721   -9.5449    5.8506 N   0  0  0  0  0  0  0  0  0  0  0  0
  -20.8375   -9.4163    6.3567 C   0  0  0  0  0  0  0  0  0  0  0  0
  -10.7145   -6.8903    7.5405 C   0  0  0  0  0  0  0  0  0  0  0  0
  -10.4900   -5.9324    6.7218 O   0  0  0  0  0  0  0  0  0  0  0  0
   -9.5882   -7.5013    8.1231 N   0  0  0  0  0  0  0  0  0  0  0  0
   -9.7167   -8.2754    8.7997 H   0  0  0  0  0  0  0  0  0  0  0  0
   -8.2678   -7.0144    7.7539 C   0  0  0  0  0  0  0  0  0  0  0  0
   -7.3032   -7.5489    8.8172 C   0  0  0  0  0  0  0  0  0  0  0  0
   -5.8750   -7.2504    8.3757 C   0  0  0  0  0  0  0  0  0  0  0  0
   -5.5935   -8.2350    7.2310 C   0  0  0  0  0  0  0  0  0  0  0  0
   -6.8436   -8.5956    6.5064 C   0  0  0  0  0  0  0  0  0  0  0  0
   -7.8012   -7.3968    6.4010 C   0  0  0  0  0  0  0  0  0  0  0  0
   -4.6612   -7.5724    6.3307 N   0  0  0  0  0  0  0  0  0  0  0  0
   -3.2766   -7.7992    6.4727 C   0  0  0  0  0  0  0  0  0  0  0  0
   -2.8489   -8.5748    7.3892 O   0  0  0  0  0  0  0  0  0  0  0  0
   -5.0039   -6.9408    5.5872 H   0  0  0  0  0  0  0  0  0  0  0  0
   -2.3094   -7.1476    5.5712 C   0  0  0  0  0  0  0  0  0  0  0  0
   -1.5884   -5.9474    5.9991 C   0  0  0  0  0  0  0  0  0  0  0  0
   -2.7874   -5.7493    5.1309 C   0  0  0  0  0  0  0  0  0  0  0  0
  -12.9765   -6.2966    5.7489 N   0  0  0  0  0  0  0  0  0  0  0  0
  -12.0360   -6.0323    5.3843 H   0  0  0  0  0  0  0  0  0  0  0  0
  -14.0664   -5.7642    5.0302 C   0  0  0  0  0  0  0  0  0  0  0  0
  -14.2114   -4.4100    4.7014 C   0  0  0  0  0  0  0  0  0  0  0  0
  -15.2961   -3.9495    4.0008 C   0  0  0  0  0  0  0  0  0  0  0  0
  -16.2684   -4.8396    3.6102 C   0  0  0  0  0  0  0  0  0  0  0  0
  -16.1616   -6.1452    3.9095 N   0  0  0  0  0  0  0  0  0  0  0  0
  -15.1045   -6.5887    4.5905 C   0  0  0  0  0  0  0  0  0  0  0  0
 16 17  3  0  0  0
 17  7  1  0  0  0
  7  8  1  0  0  0
  8  9  2  0  0  0
  9 10  1  0  0  0
 10 11  1  0  0  0
 11  1  1  0  0  0
  1  2  2  0  0  0
  2  3  1  0  0  0
  3 35  1  0  0  0
 35 37  1  0  0  0
 37 38  2  0  0  0
 38 39  1  0  0  0
 39 40  2  0  0  0
 40 41  1  0  0  0
 41 42  2  0  0  0
  3  4  2  0  0  0
  4 18  1  0  0  0
 18 19  2  0  0  0
 18 20  1  0  0  0
 20 22  1  0  0  0
 22 23  1  0  0  0
 23 24  1  0  0  0
 24 25  1  0  0  0
 25 28  1  0  0  0
 28 29  1  0  0  0
 29 30  2  0  0  0
 29 32  1  0  0  0
 32 33  1  0  0  0
 33 34  1  0  0  0
 25 26  1  0  0  0
 26 27  1  0  0  0
  4  5  1  0  0  0
  5  6  2  0  0  0
 11 12  2  0  0  0
 12 13  1  0  0  0
 13 14  2  0  0  0
 14 15  1  0  0  0
 15  7  2  0  0  0
 14 10  1  0  0  0
  6  1  1  0  0  0
 42 37  1  0  0  0
 27 22  1  0  0  0
 34 32  1  0  0  0
 35 36  1  0  0  0
 20 21  1  0  0  0
 28 31  1  0  0  0
M  END
> <minimizedAffinity>
11.12056

> <CNNscore>
0.2553610802

> <CNNaffinity>
7.2245635986

> <CNN_VS>
1.8448723555

> <CNNaffinity_variance>
0.9492672086

$$$$
[H]c1c([H])c([H])c(N2C(N3C([H])([H])C([H])([H])C([H])([H])C([H])([H])C3([H])[H])=Nc3c([H])c([H])c([H])c([H])c3C2([H])C([H])([H])C(=O)N([H])C([H])([H])c2c([H])c([H])c([H])c([H])c2[H])c([H])c1[H]


 34 38  0  0  0  0  0  0  0  0999 V2000
  -11.6113   -8.1356    9.4843 C   0  0  0  0  0  0  0  0  0  0  0  0
  -12.2162   -6.8345    9.7871 C   0  0  0  0  0  0  0  0  0  0  0  0
  -13.5051   -6.6623   10.2489 C   0  0  0  0  0  0  0  0  0  0  0  0
  -13.9227   -5.3918   10.6361 C   0  0  0  0  0  0  0  0  0  0  0  0
  -13.0911   -4.3005   10.5715 C   0  0  0  0  0  0  0  0  0  0  0  0
  -11.8119   -4.4569   10.1105 C   0  0  0  0  0  0  0  0  0  0  0  0
  -11.3739   -5.7379    9.7114 C   0  0  0  0  0  0  0  0  0  0  0  0
  -10.1134   -5.8265    9.0547 N   0  0  0  0  0  0  0  0  0  0  0  0
   -9.7381   -6.9413    8.4975 C   0  0  0  0  0  0  0  0  0  0  0  0
  -10.6106   -8.0602    8.4722 N   0  0  0  0  0  0  0  0  0  0  0  0
   -8.4601   -6.9646    7.8630 N   0  0  0  0  0  0  0  0  0  0  0  0
   -7.3611   -7.5637    8.5585 C   0  0  0  0  0  0  0  0  0  0  0  0
   -6.4634   -8.3475    7.5826 C   0  0  0  0  0  0  0  0  0  0  0  0
   -6.0503   -7.3535    6.5205 C   0  0  0  0  0  0  0  0  0  0  0  0
   -7.2515   -6.9772    5.7261 C   0  0  0  0  0  0  0  0  0  0  0  0
   -8.3684   -6.3836    6.5450 C   0  0  0  0  0  0  0  0  0  0  0  0
  -10.4760   -9.0484    7.4712 C   0  0  0  0  0  0  0  0  0  0  0  0
  -11.3366   -9.1549    6.4017 C   0  0  0  0  0  0  0  0  0  0  0  0
  -11.1733  -10.1337    5.4511 C   0  0  0  0  0  0  0  0  0  0  0  0
  -10.1522  -11.0521    5.5140 C   0  0  0  0  0  0  0  0  0  0  0  0
   -9.2935  -10.9415    6.5862 C   0  0  0  0  0  0  0  0  0  0  0  0
   -9.4399   -9.9750    7.5412 C   0  0  0  0  0  0  0  0  0  0  0  0
  -12.4459   -9.3452    9.5307 C   0  0  0  0  0  0  0  0  0  0  0  0
  -13.6672  -10.6290    7.9398 O   0  0  0  0  0  0  0  0  0  0  0  0
  -13.4039   -9.4941    8.4155 C   0  0  0  0  0  0  0  0  0  0  0  0
  -14.0659   -8.3719    7.8344 N   0  0  0  0  0  0  0  0  0  0  0  0
  -13.8964   -7.3950    8.1788 H   0  0  0  0  0  0  0  0  0  0  0  0
  -14.9928   -8.5602    6.7466 C   0  0  0  0  0  0  0  0  0  0  0  0
  -15.3104   -7.3007    6.0339 C   0  0  0  0  0  0  0  0  0  0  0  0
  -16.6226   -6.9479    5.8447 C   0  0  0  0  0  0  0  0  0  0  0  0
  -16.9737   -5.7727    5.1832 C   0  0  0  0  0  0  0  0  0  0  0  0
  -15.9843   -4.9373    4.7033 C   0  0  0  0  0  0  0  0  0  0  0  0
  -14.6533   -5.2995    4.8975 C   0  0  0  0  0  0  0  0  0  0  0  0
  -14.3205   -6.4774    5.5607 C   0  0  0  0  0  0  0  0  0  0  0  0
 24 25  2  0  0  0
 25 23  1  0  0  0
 23  1  1  0  0  0
  1  2  1  0  0  0
  2  3  2  0  0  0
  3  4  1  0  0  0
  4  5  2  0  0  0
  5  6  1  0  0  0
  6  7  2  0  0  0
  7  8  1  0  0  0
  8  9  2  0  0  0
  9 11  1  0  0  0
 11 12  1  0  0  0
 12 13  1  0  0  0
 13 14  1  0  0  0
 14 15  1  0  0  0
 15 16  1  0  0  0
  9 10  1  0  0  0
 10 17  1  0  0  0
 17 18  2  0  0  0
 18 19  1  0  0  0
 19 20  2  0  0  0
 20 21  1  0  0  0
 21 22  2  0  0  0
 25 26  1  0  0  0
 26 28  1  0  0  0
 28 29  1  0  0  0
 29 30  2  0  0  0
 30 31  1  0  0  0
 31 32  2  0  0  0
 32 33  1  0  0  0
 33 34  2  0  0  0
 10  1  1  0  0  0
 22 17  1  0  0  0
 34 29  1  0  0  0
  7  2  1  0  0  0
 16 11  1  0  0  0
 26 27  1  0  0  0
M  END
> <minimizedAffinity>
-5.42280

> <CNNscore>
0.5596593022

> <CNNaffinity>
7.4517264366

> <CNN_VS>
4.1704277992

> <CNNaffinity_variance>
0.1983303428

$$$$
[H]c1c([H])c([H])c(N2C(N3C([H])([H])C([H])([H])C([H])([H])C([H])([H])C3([H])[H])=Nc3c([H])c([H])c([H])c([H])c3C2([H])C([H])([H])C(=O)N([H])C([H])([H])c2c([H])c([H])c([H])c([H])c2[H])c([H])c1[H]


 34 38  0  0  0  0  0  0  0  0999 V2000
  -11.6663   -6.9702    8.8915 C   0  0  0  0  0  0  0  0  0  0  0  0
  -11.9080   -6.2157   10.1254 C   0  0  0  0  0  0  0  0  0  0  0  0
  -11.0998   -6.2685   11.2427 C   0  0  0  0  0  0  0  0  0  0  0  0
  -11.3503   -5.4011   12.3025 C   0  0  0  0  0  0  0  0  0  0  0  0
  -12.3802   -4.4927   12.2726 C   0  0  0  0  0  0  0  0  0  0  0  0
  -13.1922   -4.4337   11.1724 C   0  0  0  0  0  0  0  0  0  0  0  0
  -12.9533   -5.3081   10.0906 C   0  0  0  0  0  0  0  0  0  0  0  0
  -13.9309   -5.3564    9.0562 N   0  0  0  0  0  0  0  0  0  0  0  0
  -13.8664   -6.2698    8.1312 C   0  0  0  0  0  0  0  0  0  0  0  0
  -12.8652   -7.2741    8.1831 N   0  0  0  0  0  0  0  0  0  0  0  0
  -14.8729   -6.2572    7.1196 N   0  0  0  0  0  0  0  0  0  0  0  0
  -14.6644   -5.4487    5.9563 C   0  0  0  0  0  0  0  0  0  0  0  0
  -15.1796   -6.1683    4.6956 C   0  0  0  0  0  0  0  0  0  0  0  0
  -16.6322   -6.4851    4.9718 C   0  0  0  0  0  0  0  0  0  0  0  0
  -16.7010   -7.5033    6.0553 C   0  0  0  0  0  0  0  0  0  0  0  0
  -16.0391   -7.0782    7.3406 C   0  0  0  0  0  0  0  0  0  0  0  0
  -13.0713   -8.5214    7.5519 C   0  0  0  0  0  0  0  0  0  0  0  0
  -13.4315   -9.6592    8.2386 C   0  0  0  0  0  0  0  0  0  0  0  0
  -13.6184  -10.8548    7.5872 C   0  0  0  0  0  0  0  0  0  0  0  0
  -13.4576  -10.9806    6.2277 C   0  0  0  0  0  0  0  0  0  0  0  0
  -13.0970   -9.8391    5.5449 C   0  0  0  0  0  0  0  0  0  0  0  0
  -12.9068   -8.6416    6.1751 C   0  0  0  0  0  0  0  0  0  0  0  0
  -10.5817   -7.9623    8.8556 C   0  0  0  0  0  0  0  0  0  0  0  0
   -9.3614   -8.7479    6.9675 O   0  0  0  0  0  0  0  0  0  0  0  0
   -9.6117   -7.7971    7.7530 C   0  0  0  0  0  0  0  0  0  0  0  0
   -8.9232   -6.5675    7.5315 N   0  0  0  0  0  0  0  0  0  0  0  0
   -9.0806   -5.7311    8.1458 H   0  0  0  0  0  0  0  0  0  0  0  0
   -7.9834   -6.4482    6.4450 C   0  0  0  0  0  0  0  0  0  0  0  0
   -6.6035   -6.8251    6.8309 C   0  0  0  0  0  0  0  0  0  0  0  0
   -5.9994   -7.8898    6.2116 C   0  0  0  0  0  0  0  0  0  0  0  0
   -4.7025   -8.2827    6.5366 C   0  0  0  0  0  0  0  0  0  0  0  0
   -4.0011   -7.5899    7.5037 C   0  0  0  0  0  0  0  0  0  0  0  0
   -4.6183   -6.5096    8.1299 C   0  0  0  0  0  0  0  0  0  0  0  0
   -5.9149   -6.1308    7.7929 C   0  0  0  0  0  0  0  0  0  0  0  0
 24 25  2  0  0  0
 25 23  1  0  0  0
 23  1  1  0  0  0
  1  2  1  0  0  0
  2  3  2  0  0  0
  3  4  1  0  0  0
  4  5  2  0  0  0
  5  6  1  0  0  0
  6  7  2  0  0  0
  7  8  1  0  0  0
  8  9  2  0  0  0
  9 11  1  0  0  0
 11 12  1  0  0  0
 12 13  1  0  0  0
 13 14  1  0  0  0
 14 15  1  0  0  0
 15 16  1  0  0  0
  9 10  1  0  0  0
 10 17  1  0  0  0
 17 18  2  0  0  0
 18 19  1  0  0  0
 19 20  2  0  0  0
 20 21  1  0  0  0
 21 22  2  0  0  0
 25 26  1  0  0  0
 26 28  1  0  0  0
 28 29  1  0  0  0
 29 30  2  0  0  0
 30 31  1  0  0  0
 31 32  2  0  0  0
 32 33  1  0  0  0
 33 34  2  0  0  0
 10  1  1  0  0  0
 22 17  1  0  0  0
 34 29  1  0  0  0
  7  2  1  0  0  0
 16 11  1  0  0  0
 26 27  1  0  0  0
M  END
> <minimizedAffinity>
0.03009

> <CNNscore>
0.5090590119

> <CNNaffinity>
7.2516126633

> <CNN_VS>
3.6914987564

> <CNNaffinity_variance>
0.2630373836

$$$$
[H]c1c([H])c([H])c(N2C(N3C([H])([H])C([H])([H])C([H])([H])C([H])([H])C3([H])[H])=Nc3c([H])c([H])c([H])c([H])c3C2([H])C([H])([H])C(=O)N([H])C([H])([H])c2c([H])c([H])c([H])c([H])c2[H])c([H])c1[H]


 34 38  0  0  0  0  0  0  0  0999 V2000
  -11.7555   -7.8714    9.4951 C   0  0  0  0  0  0  0  0  0  0  0  0
  -12.1750   -6.4910    9.7574 C   0  0  0  0  0  0  0  0  0  0  0  0
  -13.4460   -6.1234   10.1497 C   0  0  0  0  0  0  0  0  0  0  0  0
  -13.6894   -4.7998   10.5062 C   0  0  0  0  0  0  0  0  0  0  0  0
  -12.7028   -3.8445   10.4785 C   0  0  0  0  0  0  0  0  0  0  0  0
  -11.4391   -4.1951   10.0864 C   0  0  0  0  0  0  0  0  0  0  0  0
  -11.1765   -5.5322    9.7191 C   0  0  0  0  0  0  0  0  0  0  0  0
   -9.9112   -5.8157    9.1301 N   0  0  0  0  0  0  0  0  0  0  0  0
   -9.6777   -6.9815    8.6006 C   0  0  0  0  0  0  0  0  0  0  0  0
  -10.7043   -7.9592    8.5366 N   0  0  0  0  0  0  0  0  0  0  0  0
   -8.3866   -7.2027    8.0343 N   0  0  0  0  0  0  0  0  0  0  0  0
   -8.1747   -6.8636    6.6594 C   0  0  0  0  0  0  0  0  0  0  0  0
   -6.7748   -6.2525    6.4605 C   0  0  0  0  0  0  0  0  0  0  0  0
   -5.8021   -7.2782    6.9977 C   0  0  0  0  0  0  0  0  0  0  0  0
   -5.9772   -7.3754    8.4726 C   0  0  0  0  0  0  0  0  0  0  0  0
   -7.3720   -7.7506    8.9022 C   0  0  0  0  0  0  0  0  0  0  0  0
  -10.6671   -8.9705    7.5504 C   0  0  0  0  0  0  0  0  0  0  0  0
   -9.6281   -9.8663    7.4333 C   0  0  0  0  0  0  0  0  0  0  0  0
   -9.6282  -10.8332    6.4568 C   0  0  0  0  0  0  0  0  0  0  0  0
  -10.6550  -10.9589    5.5513 C   0  0  0  0  0  0  0  0  0  0  0  0
  -11.6926  -10.0600    5.6725 C   0  0  0  0  0  0  0  0  0  0  0  0
  -11.7101   -9.0920    6.6369 C   0  0  0  0  0  0  0  0  0  0  0  0
  -12.7617   -8.9434    9.5054 C   0  0  0  0  0  0  0  0  0  0  0  0
  -15.0466   -8.3967    9.8945 O   0  0  0  0  0  0  0  0  0  0  0  0
  -14.1139   -8.5440    9.0627 C   0  0  0  0  0  0  0  0  0  0  0  0
  -14.4198   -8.3100    7.6891 N   0  0  0  0  0  0  0  0  0  0  0  0
  -13.6929   -8.4132    6.9389 H   0  0  0  0  0  0  0  0  0  0  0  0
  -15.7523   -7.9229    7.2987 C   0  0  0  0  0  0  0  0  0  0  0  0
  -15.7659   -6.8834    6.2430 C   0  0  0  0  0  0  0  0  0  0  0  0
  -16.9649   -6.4798    5.7125 C   0  0  0  0  0  0  0  0  0  0  0  0
  -17.0316   -5.5040    4.7198 C   0  0  0  0  0  0  0  0  0  0  0  0
  -15.8685   -4.9241    4.2529 C   0  0  0  0  0  0  0  0  0  0  0  0
  -14.6533   -5.3370    4.7943 C   0  0  0  0  0  0  0  0  0  0  0  0
  -14.6051   -6.3133    5.7856 C   0  0  0  0  0  0  0  0  0  0  0  0
 24 25  2  0  0  0
 25 23  1  0  0  0
 23  1  1  0  0  0
  1  2  1  0  0  0
  2  3  2  0  0  0
  3  4  1  0  0  0
  4  5  2  0  0  0
  5  6  1  0  0  0
  6  7  2  0  0  0
  7  8  1  0  0  0
  8  9  2  0  0  0
  9 11  1  0  0  0
 11 12  1  0  0  0
 12 13  1  0  0  0
 13 14  1  0  0  0
 14 15  1  0  0  0
 15 16  1  0  0  0
  9 10  1  0  0  0
 10 17  1  0  0  0
 17 18  2  0  0  0
 18 19  1  0  0  0
 19 20  2  0  0  0
 20 21  1  0  0  0
 21 22  2  0  0  0
 25 26  1  0  0  0
 26 28  1  0  0  0
 28 29  1  0  0  0
 29 30  2  0  0  0
 30 31  1  0  0  0
 31 32  2  0  0  0
 32 33  1  0  0  0
 33 34  2  0  0  0
 10  1  1  0  0  0
 22 17  1  0  0  0
 34 29  1  0  0  0
  7  2  1  0  0  0
 16 11  1  0  0  0
 26 27  1  0  0  0
M  END
> <minimizedAffinity>
-4.85066

> <CNNscore>
0.5051458478

> <CNNaffinity>
7.4362578392

> <CNN_VS>
3.7563948631

> <CNNaffinity_variance>
0.2980713844

$$$$
[H]c1c([H])c([H])c(N2C(N3C([H])([H])C([H])([H])C([H])([H])C([H])([H])C3([H])[H])=Nc3c([H])c([H])c([H])c([H])c3C2([H])C([H])([H])C(=O)N([H])C([H])([H])c2c([H])c([H])c([H])c([H])c2[H])c([H])c1[H]


 34 38  0  0  0  0  0  0  0  0999 V2000
  -12.7985   -7.3760    7.2992 C   0  0  0  0  0  0  0  0  0  0  0  0
  -11.8572   -8.4868    7.1249 C   0  0  0  0  0  0  0  0  0  0  0  0
  -10.5750   -8.5098    7.6346 C   0  0  0  0  0  0  0  0  0  0  0  0
   -9.8228   -9.6763    7.5258 C   0  0  0  0  0  0  0  0  0  0  0  0
  -10.3165  -10.8081    6.9244 C   0  0  0  0  0  0  0  0  0  0  0  0
  -11.5850  -10.7969    6.4102 C   0  0  0  0  0  0  0  0  0  0  0  0
  -12.3597   -9.6213    6.5099 C   0  0  0  0  0  0  0  0  0  0  0  0
  -13.5897   -9.5820    5.7933 N   0  0  0  0  0  0  0  0  0  0  0  0
  -14.2567   -8.4690    5.6904 C   0  0  0  0  0  0  0  0  0  0  0  0
  -13.7306   -7.2651    6.2266 N   0  0  0  0  0  0  0  0  0  0  0  0
  -15.4855   -8.5004    4.9656 N   0  0  0  0  0  0  0  0  0  0  0  0
  -15.4605   -8.9054    3.5924 C   0  0  0  0  0  0  0  0  0  0  0  0
  -16.6934   -9.7659    3.2576 C   0  0  0  0  0  0  0  0  0  0  0  0
  -17.8923   -8.9220    3.6278 C   0  0  0  0  0  0  0  0  0  0  0  0
  -17.9228   -8.7590    5.1069 C   0  0  0  0  0  0  0  0  0  0  0  0
  -16.6818   -8.1258    5.6809 C   0  0  0  0  0  0  0  0  0  0  0  0
  -14.1275   -6.0153    5.7002 C   0  0  0  0  0  0  0  0  0  0  0  0
  -15.0320   -5.1895    6.3292 C   0  0  0  0  0  0  0  0  0  0  0  0
  -15.3949   -3.9825    5.7813 C   0  0  0  0  0  0  0  0  0  0  0  0
  -14.8807   -3.5367    4.5868 C   0  0  0  0  0  0  0  0  0  0  0  0
  -13.9760   -4.3668    3.9610 C   0  0  0  0  0  0  0  0  0  0  0  0
  -13.6030   -5.5702    4.4903 C   0  0  0  0  0  0  0  0  0  0  0  0
  -12.3347   -6.1326    7.9322 C   0  0  0  0  0  0  0  0  0  0  0  0
  -10.9712   -6.3930    9.8672 O   0  0  0  0  0  0  0  0  0  0  0  0
  -11.0307   -6.2238    8.6217 C   0  0  0  0  0  0  0  0  0  0  0  0
   -9.7952   -6.1254    7.9154 N   0  0  0  0  0  0  0  0  0  0  0  0
   -9.7662   -5.9840    6.8757 H   0  0  0  0  0  0  0  0  0  0  0  0
   -8.5444   -6.2182    8.6259 C   0  0  0  0  0  0  0  0  0  0  0  0
   -7.4514   -6.7821    7.7999 C   0  0  0  0  0  0  0  0  0  0  0  0
   -7.5976   -6.8351    6.4368 C   0  0  0  0  0  0  0  0  0  0  0  0
   -6.5981   -7.3535    5.6157 C   0  0  0  0  0  0  0  0  0  0  0  0
   -5.4294   -7.8274    6.1784 C   0  0  0  0  0  0  0  0  0  0  0  0
   -5.2852   -7.7717    7.5627 C   0  0  0  0  0  0  0  0  0  0  0  0
   -6.2941   -7.2505    8.3681 C   0  0  0  0  0  0  0  0  0  0  0  0
 24 25  2  0  0  0
 25 23  1  0  0  0
 23  1  1  0  0  0
  1  2  1  0  0  0
  2  3  2  0  0  0
  3  4  1  0  0  0
  4  5  2  0  0  0
  5  6  1  0  0  0
  6  7  2  0  0  0
  7  8  1  0  0  0
  8  9  2  0  0  0
  9 11  1  0  0  0
 11 12  1  0  0  0
 12 13  1  0  0  0
 13 14  1  0  0  0
 14 15  1  0  0  0
 15 16  1  0  0  0
  9 10  1  0  0  0
 10 17  1  0  0  0
 17 18  2  0  0  0
 18 19  1  0  0  0
 19 20  2  0  0  0
 20 21  1  0  0  0
 21 22  2  0  0  0
 25 26  1  0  0  0
 26 28  1  0  0  0
 28 29  1  0  0  0
 29 30  2  0  0  0
 30 31  1  0  0  0
 31 32  2  0  0  0
 32 33  1  0  0  0
 33 34  2  0  0  0
 10  1  1  0  0  0
 22 17  1  0  0  0
 34 29  1  0  0  0
  7  2  1  0  0  0
 16 11  1  0  0  0
 26 27  1  0  0  0
M  END
> <minimizedAffinity>
0.46532

> <CNNscore>
0.4871639609

> <CNNaffinity>
7.2877721786

> <CNN_VS>
3.5503399372

> <CNNaffinity_variance>
0.6223344803

$$$$
[H]c1c([H])c([H])c(N2C(N3C([H])([H])C([H])([H])C([H])([H])C([H])([H])C3([H])[H])=Nc3c([H])c([H])c([H])c([H])c3C2([H])C([H])([H])C(=O)N([H])C([H])([H])c2c([H])c([H])c([H])c([H])c2[H])c([H])c1[H]


 34 38  0  0  0  0  0  0  0  0999 V2000
  -11.8754   -9.0092    7.2088 C   0  0  0  0  0  0  0  0  0  0  0  0
  -10.4739   -9.4403    7.2286 C   0  0  0  0  0  0  0  0  0  0  0  0
  -10.0051  -10.5961    6.6381 C   0  0  0  0  0  0  0  0  0  0  0  0
   -8.6332  -10.8299    6.6000 C   0  0  0  0  0  0  0  0  0  0  0  0
   -7.7283   -9.9453    7.1341 C   0  0  0  0  0  0  0  0  0  0  0  0
   -8.1806   -8.7976    7.7271 C   0  0  0  0  0  0  0  0  0  0  0  0
   -9.5686   -8.5469    7.7765 C   0  0  0  0  0  0  0  0  0  0  0  0
  -10.0108   -7.4507    8.5707 N   0  0  0  0  0  0  0  0  0  0  0  0
  -11.2789   -7.2796    8.8093 C   0  0  0  0  0  0  0  0  0  0  0  0
  -12.2304   -8.2240    8.3441 N   0  0  0  0  0  0  0  0  0  0  0  0
  -11.6551   -6.1568    9.6058 N   0  0  0  0  0  0  0  0  0  0  0  0
  -12.7671   -5.3596    9.1836 C   0  0  0  0  0  0  0  0  0  0  0  0
  -13.6045   -4.9106   10.3960 C   0  0  0  0  0  0  0  0  0  0  0  0
  -12.6420   -4.1875   11.3110 C   0  0  0  0  0  0  0  0  0  0  0  0
  -11.6688   -5.1735   11.8553 C   0  0  0  0  0  0  0  0  0  0  0  0
  -10.8834   -5.9082   10.7998 C   0  0  0  0  0  0  0  0  0  0  0  0
  -13.4749   -8.3656    8.9982 C   0  0  0  0  0  0  0  0  0  0  0  0
  -14.6819   -8.2743    8.3421 C   0  0  0  0  0  0  0  0  0  0  0  0
  -15.8712   -8.4141    9.0163 C   0  0  0  0  0  0  0  0  0  0  0  0
  -15.9220   -8.6503   10.3697 C   0  0  0  0  0  0  0  0  0  0  0  0
  -14.7114   -8.7407   11.0220 C   0  0  0  0  0  0  0  0  0  0  0  0
  -13.5189   -8.6045   10.3686 C   0  0  0  0  0  0  0  0  0  0  0  0
  -12.8972   -9.9095    6.6545 C   0  0  0  0  0  0  0  0  0  0  0  0
  -12.9133   -9.3706    4.3350 O   0  0  0  0  0  0  0  0  0  0  0  0
  -13.5519   -9.4354    5.4173 C   0  0  0  0  0  0  0  0  0  0  0  0
  -14.9207   -9.0344    5.3940 N   0  0  0  0  0  0  0  0  0  0  0  0
  -15.5161   -9.0613    6.2580 H   0  0  0  0  0  0  0  0  0  0  0  0
  -15.5214   -8.5766    4.1662 C   0  0  0  0  0  0  0  0  0  0  0  0
  -15.7817   -7.1181    4.1592 C   0  0  0  0  0  0  0  0  0  0  0  0
  -14.8057   -6.2589    4.5965 C   0  0  0  0  0  0  0  0  0  0  0  0
  -15.0000   -4.8791    4.6073 C   0  0  0  0  0  0  0  0  0  0  0  0
  -16.2004   -4.3550    4.1694 C   0  0  0  0  0  0  0  0  0  0  0  0
  -17.1886   -5.2310    3.7264 C   0  0  0  0  0  0  0  0  0  0  0  0
  -16.9774   -6.6070    3.7224 C   0  0  0  0  0  0  0  0  0  0  0  0
 24 25  2  0  0  0
 25 23  1  0  0  0
 23  1  1  0  0  0
  1  2  1  0  0  0
  2  3  2  0  0  0
  3  4  1  0  0  0
  4  5  2  0  0  0
  5  6  1  0  0  0
  6  7  2  0  0  0
  7  8  1  0  0  0
  8  9  2  0  0  0
  9 11  1  0  0  0
 11 12  1  0  0  0
 12 13  1  0  0  0
 13 14  1  0  0  0
 14 15  1  0  0  0
 15 16  1  0  0  0
  9 10  1  0  0  0
 10 17  1  0  0  0
 17 18  2  0  0  0
 18 19  1  0  0  0
 19 20  2  0  0  0
 20 21  1  0  0  0
 21 22  2  0  0  0
 25 26  1  0  0  0
 26 28  1  0  0  0
 28 29  1  0  0  0
 29 30  2  0  0  0
 30 31  1  0  0  0
 31 32  2  0  0  0
 32 33  1  0  0  0
 33 34  2  0  0  0
 10  1  1  0  0  0
 22 17  1  0  0  0
 34 29  1  0  0  0
  7  2  1  0  0  0
 16 11  1  0  0  0
 26 27  1  0  0  0
M  END
> <minimizedAffinity>
-2.33133

> <CNNscore>
0.4869610071

> <CNNaffinity>
7.4163985252

> <CNN_VS>
3.6114969254

> <CNNaffinity_variance>
0.2246280164

$$$$
[H]c1c([H])c([H])c(N2C(N3C([H])([H])C([H])([H])C([H])([H])C([H])([H])C3([H])[H])=Nc3c([H])c([H])c([H])c([H])c3C2([H])C([H])([H])C(=O)N([H])C([H])([H])c2c([H])c([H])c([H])c([H])c2[H])c([H])c1[H]


 34 38  0  0  0  0  0  0  0  0999 V2000
  -15.2294   -8.1140    6.9007 C   0  0  0  0  0  0  0  0  0  0  0  0
  -15.4056   -8.2608    8.3491 C   0  0  0  0  0  0  0  0  0  0  0  0
  -16.6294   -8.3392    8.9818 C   0  0  0  0  0  0  0  0  0  0  0  0
  -16.6714   -8.6197   10.3449 C   0  0  0  0  0  0  0  0  0  0  0  0
  -15.5304   -8.8200   11.0829 C   0  0  0  0  0  0  0  0  0  0  0  0
  -14.3101   -8.7400   10.4683 C   0  0  0  0  0  0  0  0  0  0  0  0
  -14.2501   -8.4537    9.0876 C   0  0  0  0  0  0  0  0  0  0  0  0
  -12.9691   -8.1824    8.5276 N   0  0  0  0  0  0  0  0  0  0  0  0
  -12.8644   -7.7305    7.3115 C   0  0  0  0  0  0  0  0  0  0  0  0
  -14.0268   -7.4318    6.5544 N   0  0  0  0  0  0  0  0  0  0  0  0
  -11.5513   -7.4870    6.8085 N   0  0  0  0  0  0  0  0  0  0  0  0
  -11.1902   -6.1466    6.4573 C   0  0  0  0  0  0  0  0  0  0  0  0
   -9.7317   -5.8546    6.8577 C   0  0  0  0  0  0  0  0  0  0  0  0
   -8.9004   -6.9151    6.1715 C   0  0  0  0  0  0  0  0  0  0  0  0
   -9.2134   -8.2360    6.7820 C   0  0  0  0  0  0  0  0  0  0  0  0
  -10.6675   -8.6226    6.6977 C   0  0  0  0  0  0  0  0  0  0  0  0
  -13.9720   -6.4888    5.5035 C   0  0  0  0  0  0  0  0  0  0  0  0
  -14.2237   -5.1474    5.6854 C   0  0  0  0  0  0  0  0  0  0  0  0
  -14.1639   -4.2629    4.6354 C   0  0  0  0  0  0  0  0  0  0  0  0
  -13.8529   -4.6636    3.3576 C   0  0  0  0  0  0  0  0  0  0  0  0
  -13.6019   -6.0070    3.1805 C   0  0  0  0  0  0  0  0  0  0  0  0
  -13.6565   -6.9014    4.2123 C   0  0  0  0  0  0  0  0  0  0  0  0
  -16.4090   -7.8928    6.0513 C   0  0  0  0  0  0  0  0  0  0  0  0
  -18.4961   -7.0111    6.7844 O   0  0  0  0  0  0  0  0  0  0  0  0
  -17.7117   -7.9941    6.7416 C   0  0  0  0  0  0  0  0  0  0  0  0
  -18.1343   -9.1962    7.3831 N   0  0  0  0  0  0  0  0  0  0  0  0
  -17.5332  -10.0567    7.3887 H   0  0  0  0  0  0  0  0  0  0  0  0
  -19.4126   -9.2531    8.0469 C   0  0  0  0  0  0  0  0  0  0  0  0
  -20.1688  -10.4894    7.7388 C   0  0  0  0  0  0  0  0  0  0  0  0
  -20.2779  -11.4667    8.6953 C   0  0  0  0  0  0  0  0  0  0  0  0
  -20.9803  -12.6462    8.4561 C   0  0  0  0  0  0  0  0  0  0  0  0
  -21.5841  -12.8449    7.2301 C   0  0  0  0  0  0  0  0  0  0  0  0
  -21.4707  -11.8500    6.2617 C   0  0  0  0  0  0  0  0  0  0  0  0
  -20.7650  -10.6776    6.5178 C   0  0  0  0  0  0  0  0  0  0  0  0
 24 25  2  0  0  0
 25 23  1  0  0  0
 23  1  1  0  0  0
  1  2  1  0  0  0
  2  3  2  0  0  0
  3  4  1  0  0  0
  4  5  2  0  0  0
  5  6  1  0  0  0
  6  7  2  0  0  0
  7  8  1  0  0  0
  8  9  2  0  0  0
  9 11  1  0  0  0
 11 12  1  0  0  0
 12 13  1  0  0  0
 13 14  1  0  0  0
 14 15  1  0  0  0
 15 16  1  0  0  0
  9 10  1  0  0  0
 10 17  1  0  0  0
 17 18  2  0  0  0
 18 19  1  0  0  0
 19 20  2  0  0  0
 20 21  1  0  0  0
 21 22  2  0  0  0
 25 26  1  0  0  0
 26 28  1  0  0  0
 28 29  1  0  0  0
 29 30  2  0  0  0
 30 31  1  0  0  0
 31 32  2  0  0  0
 32 33  1  0  0  0
 33 34  2  0  0  0
 10  1  1  0  0  0
 22 17  1  0  0  0
 34 29  1  0  0  0
  7  2  1  0  0  0
 16 11  1  0  0  0
 26 27  1  0  0  0
M  END
> <minimizedAffinity>
19.88598

> <CNNscore>
0.4629843533

> <CNNaffinity>
7.1235313416

> <CNN_VS>
3.2980835438

> <CNNaffinity_variance>
1.4921581745

$$$$
[H]c1c([H])c([H])c(N2C(N3C([H])([H])C([H])([H])C([H])([H])C([H])([H])C3([H])[H])=Nc3c([H])c([H])c([H])c([H])c3C2([H])C([H])([H])C(=O)N([H])C([H])([H])c2c([H])c([H])c([H])c([H])c2[H])c([H])c1[H]


 34 38  0  0  0  0  0  0  0  0999 V2000
  -12.9358   -9.5837    6.9713 C   0  0  0  0  0  0  0  0  0  0  0  0
  -14.0252   -9.1782    6.0774 C   0  0  0  0  0  0  0  0  0  0  0  0
  -14.3379   -9.8115    4.8919 C   0  0  0  0  0  0  0  0  0  0  0  0
  -15.4813   -9.4252    4.1977 C   0  0  0  0  0  0  0  0  0  0  0  0
  -16.3099   -8.4299    4.6553 C   0  0  0  0  0  0  0  0  0  0  0  0
  -16.0083   -7.7904    5.8273 C   0  0  0  0  0  0  0  0  0  0  0  0
  -14.8513   -8.1683    6.5417 C   0  0  0  0  0  0  0  0  0  0  0  0
  -14.4634   -7.3532    7.6432 N   0  0  0  0  0  0  0  0  0  0  0  0
  -13.3126   -7.5346    8.2237 C   0  0  0  0  0  0  0  0  0  0  0  0
  -12.3987   -8.4964    7.7202 N   0  0  0  0  0  0  0  0  0  0  0  0
  -12.9890   -6.6889    9.3266 N   0  0  0  0  0  0  0  0  0  0  0  0
  -12.3298   -7.2640   10.4602 C   0  0  0  0  0  0  0  0  0  0  0  0
  -11.2751   -6.2938   11.0250 C   0  0  0  0  0  0  0  0  0  0  0  0
  -12.0206   -5.0143   11.3311 C   0  0  0  0  0  0  0  0  0  0  0  0
  -12.4643   -4.4020   10.0490 C   0  0  0  0  0  0  0  0  0  0  0  0
  -13.3456   -5.2949    9.2144 C   0  0  0  0  0  0  0  0  0  0  0  0
  -11.0132   -8.3601    7.9618 C   0  0  0  0  0  0  0  0  0  0  0  0
  -10.2206   -9.4009    8.3911 C   0  0  0  0  0  0  0  0  0  0  0  0
   -8.8767   -9.2256    8.6187 C   0  0  0  0  0  0  0  0  0  0  0  0
   -8.2547   -8.0138    8.4324 C   0  0  0  0  0  0  0  0  0  0  0  0
   -9.0522   -6.9752    8.0027 C   0  0  0  0  0  0  0  0  0  0  0  0
  -10.3900   -7.1303    7.7712 C   0  0  0  0  0  0  0  0  0  0  0  0
  -12.0088  -10.6411    6.5420 C   0  0  0  0  0  0  0  0  0  0  0  0
  -10.9576   -9.0582    5.1066 O   0  0  0  0  0  0  0  0  0  0  0  0
  -10.9364  -10.2055    5.6231 C   0  0  0  0  0  0  0  0  0  0  0  0
   -9.8419  -11.0553    5.2839 N   0  0  0  0  0  0  0  0  0  0  0  0
   -9.7573  -12.0253    5.6759 H   0  0  0  0  0  0  0  0  0  0  0  0
   -8.8169  -10.5924    4.3823 C   0  0  0  0  0  0  0  0  0  0  0  0
   -8.5037  -11.5693    3.3134 C   0  0  0  0  0  0  0  0  0  0  0  0
   -8.1238  -11.1136    2.0764 C   0  0  0  0  0  0  0  0  0  0  0  0
   -7.8162  -11.9912    1.0387 C   0  0  0  0  0  0  0  0  0  0  0  0
   -7.8928  -13.3536    1.2510 C   0  0  0  0  0  0  0  0  0  0  0  0
   -8.2790  -13.8120    2.5084 C   0  0  0  0  0  0  0  0  0  0  0  0
   -8.5828  -12.9209    3.5340 C   0  0  0  0  0  0  0  0  0  0  0  0
 24 25  2  0  0  0
 25 23  1  0  0  0
 23  1  1  0  0  0
  1  2  1  0  0  0
  2  3  2  0  0  0
  3  4  1  0  0  0
  4  5  2  0  0  0
  5  6  1  0  0  0
  6  7  2  0  0  0
  7  8  1  0  0  0
  8  9  2  0  0  0
  9 11  1  0  0  0
 11 12  1  0  0  0
 12 13  1  0  0  0
 13 14  1  0  0  0
 14 15  1  0  0  0
 15 16  1  0  0  0
  9 10  1  0  0  0
 10 17  1  0  0  0
 17 18  2  0  0  0
 18 19  1  0  0  0
 19 20  2  0  0  0
 20 21  1  0  0  0
 21 22  2  0  0  0
 25 26  1  0  0  0
 26 28  1  0  0  0
 28 29  1  0  0  0
 29 30  2  0  0  0
 30 31  1  0  0  0
 31 32  2  0  0  0
 32 33  1  0  0  0
 33 34  2  0  0  0
 10  1  1  0  0  0
 22 17  1  0  0  0
 34 29  1  0  0  0
  7  2  1  0  0  0
 16 11  1  0  0  0
 26 27  1  0  0  0
M  END
> <minimizedAffinity>
9.63171

> <CNNscore>
0.4446494877

> <CNNaffinity>
6.6870293617

> <CNN_VS>
2.9733841419

> <CNNaffinity_variance>
0.3774316013

$$$$
[H]c1c([H])c([H])c(N2C(N3C([H])([H])C([H])([H])C([H])([H])C([H])([H])C3([H])[H])=Nc3c([H])c([H])c([H])c([H])c3C2([H])C([H])([H])C(=O)N([H])C([H])([H])c2c([H])c([H])c([H])c([H])c2[H])c([H])c1[H]


 34 38  0  0  0  0  0  0  0  0999 V2000
  -11.2213   -8.2271    7.1730 C   0  0  0  0  0  0  0  0  0  0  0  0
  -10.9289   -9.6562    7.0225 C   0  0  0  0  0  0  0  0  0  0  0  0
  -11.8849  -10.6309    6.8219 C   0  0  0  0  0  0  0  0  0  0  0  0
  -11.4778  -11.9346    6.5518 C   0  0  0  0  0  0  0  0  0  0  0  0
  -10.1513  -12.2835    6.4799 C   0  0  0  0  0  0  0  0  0  0  0  0
   -9.1932  -11.3272    6.6820 C   0  0  0  0  0  0  0  0  0  0  0  0
   -9.5892  -10.0013    6.9595 C   0  0  0  0  0  0  0  0  0  0  0  0
   -8.5768   -9.0827    7.3587 N   0  0  0  0  0  0  0  0  0  0  0  0
   -8.8971   -7.9036    7.8073 C   0  0  0  0  0  0  0  0  0  0  0  0
  -10.2599   -7.5454    7.9746 N   0  0  0  0  0  0  0  0  0  0  0  0
   -7.8339   -7.0289    8.1827 N   0  0  0  0  0  0  0  0  0  0  0  0
   -7.3571   -7.0705    9.5323 C   0  0  0  0  0  0  0  0  0  0  0  0
   -5.8259   -6.9085    9.5724 C   0  0  0  0  0  0  0  0  0  0  0  0
   -5.5345   -5.6084    8.8573 C   0  0  0  0  0  0  0  0  0  0  0  0
   -5.8700   -5.7707    7.4163 C   0  0  0  0  0  0  0  0  0  0  0  0
   -7.3026   -6.1610    7.1593 C   0  0  0  0  0  0  0  0  0  0  0  0
  -10.6275   -6.5502    8.9079 C   0  0  0  0  0  0  0  0  0  0  0  0
  -10.3396   -5.2151    8.7334 C   0  0  0  0  0  0  0  0  0  0  0  0
  -10.7114   -4.2784    9.6677 C   0  0  0  0  0  0  0  0  0  0  0  0
  -11.3845   -4.6184   10.8173 C   0  0  0  0  0  0  0  0  0  0  0  0
  -11.6702   -5.9558   10.9875 C   0  0  0  0  0  0  0  0  0  0  0  0
  -11.3087   -6.9015   10.0696 C   0  0  0  0  0  0  0  0  0  0  0  0
  -12.6207   -7.7845    7.2605 C   0  0  0  0  0  0  0  0  0  0  0  0
  -13.6006   -8.7631    5.3233 O   0  0  0  0  0  0  0  0  0  0  0  0
  -13.3429   -7.7167    5.9730 C   0  0  0  0  0  0  0  0  0  0  0  0
  -13.7755   -6.4772    5.4148 N   0  0  0  0  0  0  0  0  0  0  0  0
  -13.5962   -5.5637    5.8997 H   0  0  0  0  0  0  0  0  0  0  0  0
  -14.4761   -6.4545    4.1552 C   0  0  0  0  0  0  0  0  0  0  0  0
  -15.9422   -6.3100    4.3124 C   0  0  0  0  0  0  0  0  0  0  0  0
  -16.7438   -7.4166    4.1894 C   0  0  0  0  0  0  0  0  0  0  0  0
  -18.1277   -7.3341    4.3310 C   0  0  0  0  0  0  0  0  0  0  0  0
  -18.7150   -6.1139    4.6015 C   0  0  0  0  0  0  0  0  0  0  0  0
  -17.8974   -4.9930    4.7255 C   0  0  0  0  0  0  0  0  0  0  0  0
  -16.5164   -5.0935    4.5809 C   0  0  0  0  0  0  0  0  0  0  0  0
 24 25  2  0  0  0
 25 23  1  0  0  0
 23  1  1  0  0  0
  1  2  1  0  0  0
  2  3  2  0  0  0
  3  4  1  0  0  0
  4  5  2  0  0  0
  5  6  1  0  0  0
  6  7  2  0  0  0
  7  8  1  0  0  0
  8  9  2  0  0  0
  9 11  1  0  0  0
 11 12  1  0  0  0
 12 13  1  0  0  0
 13 14  1  0  0  0
 14 15  1  0  0  0
 15 16  1  0  0  0
  9 10  1  0  0  0
 10 17  1  0  0  0
 17 18  2  0  0  0
 18 19  1  0  0  0
 19 20  2  0  0  0
 20 21  1  0  0  0
 21 22  2  0  0  0
 25 26  1  0  0  0
 26 28  1  0  0  0
 28 29  1  0  0  0
 29 30  2  0  0  0
 30 31  1  0  0  0
 31 32  2  0  0  0
 32 33  1  0  0  0
 33 34  2  0  0  0
 10  1  1  0  0  0
 22 17  1  0  0  0
 34 29  1  0  0  0
  7  2  1  0  0  0
 16 11  1  0  0  0
 26 27  1  0  0  0
M  END
> <minimizedAffinity>
8.06578

> <CNNscore>
0.4407960474

> <CNNaffinity>
7.0802659988

> <CNN_VS>
3.1209533215

> <CNNaffinity_variance>
1.3326655626

$$$$
[H]c1c([H])c([H])c(N2C(N3C([H])([H])C([H])([H])C([H])([H])C([H])([H])C3([H])[H])=Nc3c([H])c([H])c([H])c([H])c3C2([H])C([H])([H])C(=O)N([H])C([H])([H])c2c([H])c([H])c([H])c([H])c2[H])c([H])c1[H]


 34 38  0  0  0  0  0  0  0  0999 V2000
  -10.8160   -6.6309    8.8735 C   0  0  0  0  0  0  0  0  0  0  0  0
  -11.4414   -6.1272   10.1005 C   0  0  0  0  0  0  0  0  0  0  0  0
  -10.7543   -5.8243   11.2583 C   0  0  0  0  0  0  0  0  0  0  0  0
  -11.4345   -5.2200   12.3121 C   0  0  0  0  0  0  0  0  0  0  0  0
  -12.7718   -4.9159   12.2370 C   0  0  0  0  0  0  0  0  0  0  0  0
  -13.4660   -5.2158   11.0961 C   0  0  0  0  0  0  0  0  0  0  0  0
  -12.7917   -5.8311   10.0196 C   0  0  0  0  0  0  0  0  0  0  0  0
  -13.5821   -6.3066    8.9346 N   0  0  0  0  0  0  0  0  0  0  0  0
  -13.0484   -7.0452    8.0052 C   0  0  0  0  0  0  0  0  0  0  0  0
  -11.6909   -7.4478    8.0998 N   0  0  0  0  0  0  0  0  0  0  0  0
  -13.8942   -7.4819    6.9420 N   0  0  0  0  0  0  0  0  0  0  0  0
  -14.8677   -8.4961    7.2140 C   0  0  0  0  0  0  0  0  0  0  0  0
  -16.1789   -8.2063    6.4594 C   0  0  0  0  0  0  0  0  0  0  0  0
  -15.7946   -8.0985    5.0008 C   0  0  0  0  0  0  0  0  0  0  0  0
  -14.9624   -6.8784    4.8155 C   0  0  0  0  0  0  0  0  0  0  0  0
  -13.7112   -6.8550    5.6550 C   0  0  0  0  0  0  0  0  0  0  0  0
  -11.2460   -8.6189    7.4461 C   0  0  0  0  0  0  0  0  0  0  0  0
  -12.0411   -9.3489    6.5912 C   0  0  0  0  0  0  0  0  0  0  0  0
  -11.5713  -10.4855    5.9780 C   0  0  0  0  0  0  0  0  0  0  0  0
  -10.2944  -10.9527    6.1818 C   0  0  0  0  0  0  0  0  0  0  0  0
   -9.5026  -10.2187    7.0382 C   0  0  0  0  0  0  0  0  0  0  0  0
   -9.9521   -9.0862    7.6570 C   0  0  0  0  0  0  0  0  0  0  0  0
   -9.3877   -6.9799    8.8849 C   0  0  0  0  0  0  0  0  0  0  0  0
   -9.1660   -5.8393    6.8062 O   0  0  0  0  0  0  0  0  0  0  0  0
   -8.6106   -6.4961    7.7247 C   0  0  0  0  0  0  0  0  0  0  0  0
   -7.2126   -6.7486    7.5947 N   0  0  0  0  0  0  0  0  0  0  0  0
   -6.6819   -7.2894    8.3211 H   0  0  0  0  0  0  0  0  0  0  0  0
   -6.4912   -6.2601    6.4463 C   0  0  0  0  0  0  0  0  0  0  0  0
   -5.0863   -6.7286    6.4044 C   0  0  0  0  0  0  0  0  0  0  0  0
   -4.1098   -5.8846    5.9397 C   0  0  0  0  0  0  0  0  0  0  0  0
   -2.7736   -6.2763    5.8827 C   0  0  0  0  0  0  0  0  0  0  0  0
   -2.4146   -7.5423    6.3019 C   0  0  0  0  0  0  0  0  0  0  0  0
   -3.4094   -8.3960    6.7729 C   0  0  0  0  0  0  0  0  0  0  0  0
   -4.7395   -7.9881    6.8229 C   0  0  0  0  0  0  0  0  0  0  0  0
 24 25  2  0  0  0
 25 23  1  0  0  0
 23  1  1  0  0  0
  1  2  1  0  0  0
  2  3  2  0  0  0
  3  4  1  0  0  0
  4  5  2  0  0  0
  5  6  1  0  0  0
  6  7  2  0  0  0
  7  8  1  0  0  0
  8  9  2  0  0  0
  9 11  1  0  0  0
 11 12  1  0  0  0
 12 13  1  0  0  0
 13 14  1  0  0  0
 14 15  1  0  0  0
 15 16  1  0  0  0
  9 10  1  0  0  0
 10 17  1  0  0  0
 17 18  2  0  0  0
 18 19  1  0  0  0
 19 20  2  0  0  0
 20 21  1  0  0  0
 21 22  2  0  0  0
 25 26  1  0  0  0
 26 28  1  0  0  0
 28 29  1  0  0  0
 29 30  2  0  0  0
 30 31  1  0  0  0
 31 32  2  0  0  0
 32 33  1  0  0  0
 33 34  2  0  0  0
 10  1  1  0  0  0
 22 17  1  0  0  0
 34 29  1  0  0  0
  7  2  1  0  0  0
 16 11  1  0  0  0
 26 27  1  0  0  0
M  END
> <minimizedAffinity>
-4.28253

> <CNNscore>
0.4392748177

> <CNNaffinity>
6.9209585190

> <CNN_VS>
3.0402028561

> <CNNaffinity_variance>
0.1687855273

$$$$
[H]c1c([H])c([H])c(C([H])(N2C([H])([H])C([H])([H])N(C([H])([H])C#N)C([H])([H])C2([H])[H])C([H])([H])OC([H])([H])c2c([H])c(C(F)(F)F)c([H])c(C(F)(F)F)c2[H])c([H])c1[H]


 33 35  0  0  0  0  0  0  0  0999 V2000
  -12.0749   -8.8762    7.4215 C   0  0  0  0  0  0  0  0  0  0  0  0
  -11.3209   -7.6026    7.6056 C   0  0  0  0  0  0  0  0  0  0  0  0
   -7.1939   -8.3729    7.3108 N   0  0  0  0  0  0  0  0  0  0  0  0
   -7.6263   -7.0621    7.6359 C   0  0  0  0  0  0  0  0  0  0  0  0
   -9.0568   -6.8108    7.1671 C   0  0  0  0  0  0  0  0  0  0  0  0
   -9.9318   -7.8215    7.6326 N   0  0  0  0  0  0  0  0  0  0  0  0
   -9.5082   -9.1731    7.5224 C   0  0  0  0  0  0  0  0  0  0  0  0
   -8.2037   -9.2190    6.7729 C   0  0  0  0  0  0  0  0  0  0  0  0
   -5.8749   -8.5371    6.8259 C   0  0  0  0  0  0  0  0  0  0  0  0
   -4.9462   -6.2019    5.9860 N   0  0  0  0  0  0  0  0  0  0  0  0
   -5.3679   -7.2351    6.3636 C   0  0  0  0  0  0  0  0  0  0  0  0
  -11.8724   -6.8701    8.7729 C   0  0  0  0  0  0  0  0  0  0  0  0
  -13.2133   -6.6172    8.9609 C   0  0  0  0  0  0  0  0  0  0  0  0
  -13.6819   -5.8973   10.0431 C   0  0  0  0  0  0  0  0  0  0  0  0
  -12.8237   -5.3940   10.9922 C   0  0  0  0  0  0  0  0  0  0  0  0
  -11.4733   -5.6401   10.8222 C   0  0  0  0  0  0  0  0  0  0  0  0
  -11.0196   -6.3618    9.7327 C   0  0  0  0  0  0  0  0  0  0  0  0
  -12.8129   -8.9680    6.2442 O   0  0  0  0  0  0  0  0  0  0  0  0
  -14.1505   -8.8031    6.6859 C   0  0  0  0  0  0  0  0  0  0  0  0
  -14.9334   -7.8866    5.8810 C   0  0  0  0  0  0  0  0  0  0  0  0
  -16.2199   -8.2655    5.4376 C   0  0  0  0  0  0  0  0  0  0  0  0
  -17.0092   -7.4520    4.6837 C   0  0  0  0  0  0  0  0  0  0  0  0
  -16.5515   -6.2068    4.3303 C   0  0  0  0  0  0  0  0  0  0  0  0
  -15.3012   -5.8218    4.7528 C   0  0  0  0  0  0  0  0  0  0  0  0
  -14.4797   -6.6444    5.5271 C   0  0  0  0  0  0  0  0  0  0  0  0
  -18.3690   -7.8529    4.2129 C   0  0  0  0  0  0  0  0  0  0  0  0
  -18.8746   -8.8803    4.9339 F   0  0  0  0  0  0  0  0  0  0  0  0
  -18.2299   -8.1609    2.8668 F   0  0  0  0  0  0  0  0  0  0  0  0
  -19.1596   -6.7154    4.2636 F   0  0  0  0  0  0  0  0  0  0  0  0
  -14.8565   -4.4499    4.3487 C   0  0  0  0  0  0  0  0  0  0  0  0
  -13.6346   -4.5274    3.6674 F   0  0  0  0  0  0  0  0  0  0  0  0
  -15.7998   -3.9664    3.4796 F   0  0  0  0  0  0  0  0  0  0  0  0
  -14.6783   -3.6026    5.4224 F   0  0  0  0  0  0  0  0  0  0  0  0
 10 11  3  0  0  0
 11  9  1  0  0  0
  9  3  1  0  0  0
  3  4  1  0  0  0
  4  5  1  0  0  0
  5  6  1  0  0  0
  6  2  1  0  0  0
  2  1  1  0  0  0
  1 18  1  0  0  0
 18 19  1  0  0  0
 19 20  1  0  0  0
 20 21  2  0  0  0
 21 22  1  0  0  0
 22 26  1  0  0  0
 26 27  1  0  0  0
 26 28  1  0  0  0
 26 29  1  0  0  0
 22 23  2  0  0  0
 23 24  1  0  0  0
 24 30  1  0  0  0
 30 31  1  0  0  0
 30 32  1  0  0  0
 30 33  1  0  0  0
 24 25  2  0  0  0
  2 12  1  0  0  0
 12 13  2  0  0  0
 13 14  1  0  0  0
 14 15  2  0  0  0
 15 16  1  0  0  0
 16 17  2  0  0  0
  6  7  1  0  0  0
  7  8  1  0  0  0
  8  3  1  0  0  0
 25 20  1  0  0  0
 17 12  1  0  0  0
M  END
> <minimizedAffinity>
-9.43627

> <CNNscore>
0.2533950508

> <CNNaffinity>
6.9163141251

> <CNN_VS>
1.7525597811

> <CNNaffinity_variance>
0.1492858678

$$$$
[H]c1c([H])c([H])c(C([H])(N2C([H])([H])C([H])([H])N(C([H])([H])C#N)C([H])([H])C2([H])[H])C([H])([H])OC([H])([H])c2c([H])c(C(F)(F)F)c([H])c(C(F)(F)F)c2[H])c([H])c1[H]


 33 35  0  0  0  0  0  0  0  0999 V2000
  -12.0857   -8.8753    7.4069 C   0  0  0  0  0  0  0  0  0  0  0  0
  -11.3339   -7.6010    7.5939 C   0  0  0  0  0  0  0  0  0  0  0  0
   -7.2033   -8.3566    7.3120 N   0  0  0  0  0  0  0  0  0  0  0  0
   -7.6406   -7.0555    7.6678 C   0  0  0  0  0  0  0  0  0  0  0  0
   -9.0678   -6.7942    7.1944 C   0  0  0  0  0  0  0  0  0  0  0  0
   -9.9447   -7.8182    7.6262 N   0  0  0  0  0  0  0  0  0  0  0  0
   -9.5177   -9.1658    7.4840 C   0  0  0  0  0  0  0  0  0  0  0  0
   -8.2073   -9.1900    6.7440 C   0  0  0  0  0  0  0  0  0  0  0  0
   -5.8802   -8.5059    6.8334 C   0  0  0  0  0  0  0  0  0  0  0  0
   -5.0032   -6.1644    5.9563 N   0  0  0  0  0  0  0  0  0  0  0  0
   -5.3996   -7.2063    6.3375 C   0  0  0  0  0  0  0  0  0  0  0  0
  -11.8907   -6.8691    8.7591 C   0  0  0  0  0  0  0  0  0  0  0  0
  -13.2267   -6.5733    8.9169 C   0  0  0  0  0  0  0  0  0  0  0  0
  -13.6989   -5.8554    9.9989 C   0  0  0  0  0  0  0  0  0  0  0  0
  -12.8494   -5.3976   10.9783 C   0  0  0  0  0  0  0  0  0  0  0  0
  -11.5041   -5.6873   10.8389 C   0  0  0  0  0  0  0  0  0  0  0  0
  -11.0467   -6.4062    9.7492 C   0  0  0  0  0  0  0  0  0  0  0  0
  -12.8561   -8.9495    6.2493 O   0  0  0  0  0  0  0  0  0  0  0  0
  -14.1799   -8.7792    6.7289 C   0  0  0  0  0  0  0  0  0  0  0  0
  -15.0076   -7.9268    5.8988 C   0  0  0  0  0  0  0  0  0  0  0  0
  -14.5292   -6.6598    5.4978 C   0  0  0  0  0  0  0  0  0  0  0  0
  -15.2522   -5.8125    4.7152 C   0  0  0  0  0  0  0  0  0  0  0  0
  -16.5014   -6.1893    4.2881 C   0  0  0  0  0  0  0  0  0  0  0  0
  -16.9831   -7.4192    4.6694 C   0  0  0  0  0  0  0  0  0  0  0  0
  -16.2536   -8.2999    5.4714 C   0  0  0  0  0  0  0  0  0  0  0  0
  -14.7476   -4.4716    4.2924 C   0  0  0  0  0  0  0  0  0  0  0  0
  -13.5424   -4.5508    3.6823 F   0  0  0  0  0  0  0  0  0  0  0  0
  -14.7150   -3.6972    5.4436 F   0  0  0  0  0  0  0  0  0  0  0  0
  -15.7270   -3.9135    3.4857 F   0  0  0  0  0  0  0  0  0  0  0  0
  -18.3458   -7.7843    4.1663 C   0  0  0  0  0  0  0  0  0  0  0  0
  -19.2000   -6.6777    4.2609 F   0  0  0  0  0  0  0  0  0  0  0  0
  -18.2071   -8.1043    2.8407 F   0  0  0  0  0  0  0  0  0  0  0  0
  -18.9245   -8.8153    4.8765 F   0  0  0  0  0  0  0  0  0  0  0  0
 10 11  3  0  0  0
 11  9  1  0  0  0
  9  3  1  0  0  0
  3  4  1  0  0  0
  4  5  1  0  0  0
  5  6  1  0  0  0
  6  2  1  0  0  0
  2  1  1  0  0  0
  1 18  1  0  0  0
 18 19  1  0  0  0
 19 20  1  0  0  0
 20 21  2  0  0  0
 21 22  1  0  0  0
 22 26  1  0  0  0
 26 27  1  0  0  0
 26 28  1  0  0  0
 26 29  1  0  0  0
 22 23  2  0  0  0
 23 24  1  0  0  0
 24 30  1  0  0  0
 30 31  1  0  0  0
 30 32  1  0  0  0
 30 33  1  0  0  0
 24 25  2  0  0  0
  2 12  1  0  0  0
 12 13  2  0  0  0
 13 14  1  0  0  0
 14 15  2  0  0  0
 15 16  1  0  0  0
 16 17  2  0  0  0
  6  7  1  0  0  0
  7  8  1  0  0  0
  8  3  1  0  0  0
 25 20  1  0  0  0
 17 12  1  0  0  0
M  END
> <minimizedAffinity>
-9.35986

> <CNNscore>
0.2452980429

> <CNNaffinity>
6.9174523354

> <CNN_VS>
1.6968375444

> <CNNaffinity_variance>
0.1438241154

$$$$
[H]c1c([H])c([H])c(C([H])(N2C([H])([H])C([H])([H])N(C([H])([H])C#N)C([H])([H])C2([H])[H])C([H])([H])OC([H])([H])c2c([H])c(C(F)(F)F)c([H])c(C(F)(F)F)c2[H])c([H])c1[H]


 33 35  0  0  0  0  0  0  0  0999 V2000
  -12.0387   -9.4760    6.8506 C   0  0  0  0  0  0  0  0  0  0  0  0
  -11.1839   -9.0866    8.0090 C   0  0  0  0  0  0  0  0  0  0  0  0
  -12.7351   -5.9777   10.3842 N   0  0  0  0  0  0  0  0  0  0  0  0
  -11.5453   -5.7504    9.6469 C   0  0  0  0  0  0  0  0  0  0  0  0
  -10.8318   -7.0583    9.3158 C   0  0  0  0  0  0  0  0  0  0  0  0
  -11.7111   -7.9761    8.6926 N   0  0  0  0  0  0  0  0  0  0  0  0
  -13.0077   -8.1408    9.2494 C   0  0  0  0  0  0  0  0  0  0  0  0
  -13.0988   -7.3463   10.5245 C   0  0  0  0  0  0  0  0  0  0  0  0
  -13.0257   -5.1087   11.4623 C   0  0  0  0  0  0  0  0  0  0  0  0
  -11.2808   -5.5124   13.4151 N   0  0  0  0  0  0  0  0  0  0  0  0
  -12.0497   -5.3375   12.5398 C   0  0  0  0  0  0  0  0  0  0  0  0
   -9.7775   -8.9458    7.5557 C   0  0  0  0  0  0  0  0  0  0  0  0
   -8.8764   -9.9862    7.5040 C   0  0  0  0  0  0  0  0  0  0  0  0
   -7.5639   -9.8046    7.1121 C   0  0  0  0  0  0  0  0  0  0  0  0
   -7.0908   -8.5648    6.7523 C   0  0  0  0  0  0  0  0  0  0  0  0
   -7.9817   -7.5077    6.7950 C   0  0  0  0  0  0  0  0  0  0  0  0
   -9.2924   -7.7055    7.1905 C   0  0  0  0  0  0  0  0  0  0  0  0
  -12.6562   -8.4213    6.1832 O   0  0  0  0  0  0  0  0  0  0  0  0
  -13.9118   -8.9644    5.8092 C   0  0  0  0  0  0  0  0  0  0  0  0
  -14.8337   -7.9977    5.2469 C   0  0  0  0  0  0  0  0  0  0  0  0
  -14.4060   -6.6712    5.0180 C   0  0  0  0  0  0  0  0  0  0  0  0
  -15.2182   -5.7155    4.4885 C   0  0  0  0  0  0  0  0  0  0  0  0
  -16.5110   -6.0374    4.1569 C   0  0  0  0  0  0  0  0  0  0  0  0
  -16.9443   -7.3239    4.3734 C   0  0  0  0  0  0  0  0  0  0  0  0
  -16.1233   -8.3157    4.9152 C   0  0  0  0  0  0  0  0  0  0  0  0
  -14.7670   -4.3120    4.2480 C   0  0  0  0  0  0  0  0  0  0  0  0
  -13.5436   -4.2626    3.6719 F   0  0  0  0  0  0  0  0  0  0  0  0
  -14.8021   -3.6840    5.4851 F   0  0  0  0  0  0  0  0  0  0  0  0
  -15.7501   -3.7029    3.4837 F   0  0  0  0  0  0  0  0  0  0  0  0
  -18.3590   -7.6232    3.9832 C   0  0  0  0  0  0  0  0  0  0  0  0
  -18.8536   -8.6792    4.7602 F   0  0  0  0  0  0  0  0  0  0  0  0
  -19.0952   -6.5025    4.2681 F   0  0  0  0  0  0  0  0  0  0  0  0
  -18.4876   -7.9884    2.6594 F   0  0  0  0  0  0  0  0  0  0  0  0
 10 11  3  0  0  0
 11  9  1  0  0  0
  9  3  1  0  0  0
  3  4  1  0  0  0
  4  5  1  0  0  0
  5  6  1  0  0  0
  6  2  1  0  0  0
  2  1  1  0  0  0
  1 18  1  0  0  0
 18 19  1  0  0  0
 19 20  1  0  0  0
 20 21  2  0  0  0
 21 22  1  0  0  0
 22 26  1  0  0  0
 26 27  1  0  0  0
 26 28  1  0  0  0
 26 29  1  0  0  0
 22 23  2  0  0  0
 23 24  1  0  0  0
 24 30  1  0  0  0
 30 31  1  0  0  0
 30 32  1  0  0  0
 30 33  1  0  0  0
 24 25  2  0  0  0
  2 12  1  0  0  0
 12 13  2  0  0  0
 13 14  1  0  0  0
 14 15  2  0  0  0
 15 16  1  0  0  0
 16 17  2  0  0  0
  6  7  1  0  0  0
  7  8  1  0  0  0
  8  3  1  0  0  0
 25 20  1  0  0  0
 17 12  1  0  0  0
M  END
> <minimizedAffinity>
-6.88508

> <CNNscore>
0.2068905234

> <CNNaffinity>
6.7396440506

> <CNN_VS>
1.3943685293

> <CNNaffinity_variance>
0.0453526825

$$$$
[H]c1c([H])c([H])c(C([H])(N2C([H])([H])C([H])([H])N(C([H])([H])C#N)C([H])([H])C2([H])[H])C([H])([H])OC([H])([H])c2c([H])c(C(F)(F)F)c([H])c(C(F)(F)F)c2[H])c([H])c1[H]


 33 35  0  0  0  0  0  0  0  0999 V2000
  -11.6955   -6.1469    7.9733 C   0  0  0  0  0  0  0  0  0  0  0  0
  -12.2120   -7.5408    7.8529 C   0  0  0  0  0  0  0  0  0  0  0  0
  -14.6621   -8.3042    4.5173 N   0  0  0  0  0  0  0  0  0  0  0  0
  -14.4745   -6.9634    4.9389 C   0  0  0  0  0  0  0  0  0  0  0  0
  -14.0641   -6.8892    6.4071 C   0  0  0  0  0  0  0  0  0  0  0  0
  -12.9486   -7.7205    6.6682 N   0  0  0  0  0  0  0  0  0  0  0  0
  -12.9547   -9.0342    6.1274 C   0  0  0  0  0  0  0  0  0  0  0  0
  -14.2857   -9.2894    5.4728 C   0  0  0  0  0  0  0  0  0  0  0  0
  -15.7680   -8.5903    3.6823 C   0  0  0  0  0  0  0  0  0  0  0  0
  -17.9986   -8.4287    5.1035 N   0  0  0  0  0  0  0  0  0  0  0  0
  -17.0036   -8.5091    4.4776 C   0  0  0  0  0  0  0  0  0  0  0  0
  -12.9188   -7.9121    9.1042 C   0  0  0  0  0  0  0  0  0  0  0  0
  -13.7642   -7.0692    9.7912 C   0  0  0  0  0  0  0  0  0  0  0  0
  -14.3728   -7.4412   10.9746 C   0  0  0  0  0  0  0  0  0  0  0  0
  -14.1608   -8.6819   11.5278 C   0  0  0  0  0  0  0  0  0  0  0  0
  -13.3170   -9.5438   10.8509 C   0  0  0  0  0  0  0  0  0  0  0  0
  -12.7143   -9.1562    9.6676 C   0  0  0  0  0  0  0  0  0  0  0  0
  -10.4795   -6.0164    8.6392 O   0  0  0  0  0  0  0  0  0  0  0  0
   -9.5643   -5.7383    7.5921 C   0  0  0  0  0  0  0  0  0  0  0  0
   -8.4641   -6.6774    7.4995 C   0  0  0  0  0  0  0  0  0  0  0  0
   -7.2056   -6.2395    7.0309 C   0  0  0  0  0  0  0  0  0  0  0  0
   -6.1299   -7.0670    6.9240 C   0  0  0  0  0  0  0  0  0  0  0  0
   -6.2557   -8.3863    7.2825 C   0  0  0  0  0  0  0  0  0  0  0  0
   -7.4738   -8.8297    7.7403 C   0  0  0  0  0  0  0  0  0  0  0  0
   -8.5865   -7.9934    7.8563 C   0  0  0  0  0  0  0  0  0  0  0  0
   -4.7993   -6.6049    6.4267 C   0  0  0  0  0  0  0  0  0  0  0  0
   -4.1439   -5.8586    7.3458 F   0  0  0  0  0  0  0  0  0  0  0  0
   -5.0527   -5.9084    5.2534 F   0  0  0  0  0  0  0  0  0  0  0  0
   -4.0980   -7.7403    6.0516 F   0  0  0  0  0  0  0  0  0  0  0  0
   -7.5521  -10.2743    8.1282 C   0  0  0  0  0  0  0  0  0  0  0  0
   -8.6373  -10.8820    7.4830 F   0  0  0  0  0  0  0  0  0  0  0  0
   -6.4014  -10.8689    7.6796 F   0  0  0  0  0  0  0  0  0  0  0  0
   -7.7205  -10.4601    9.4845 F   0  0  0  0  0  0  0  0  0  0  0  0
 10 11  3  0  0  0
 11  9  1  0  0  0
  9  3  1  0  0  0
  3  4  1  0  0  0
  4  5  1  0  0  0
  5  6  1  0  0  0
  6  2  1  0  0  0
  2  1  1  0  0  0
  1 18  1  0  0  0
 18 19  1  0  0  0
 19 20  1  0  0  0
 20 21  2  0  0  0
 21 22  1  0  0  0
 22 26  1  0  0  0
 26 27  1  0  0  0
 26 28  1  0  0  0
 26 29  1  0  0  0
 22 23  2  0  0  0
 23 24  1  0  0  0
 24 30  1  0  0  0
 30 31  1  0  0  0
 30 32  1  0  0  0
 30 33  1  0  0  0
 24 25  2  0  0  0
  2 12  1  0  0  0
 12 13  2  0  0  0
 13 14  1  0  0  0
 14 15  2  0  0  0
 15 16  1  0  0  0
 16 17  2  0  0  0
  6  7  1  0  0  0
  7  8  1  0  0  0
  8  3  1  0  0  0
 25 20  1  0  0  0
 17 12  1  0  0  0
M  END
> <minimizedAffinity>
-1.63942

> <CNNscore>
0.1710414588

> <CNNaffinity>
6.4403619766

> <CNN_VS>
1.1015689373

> <CNNaffinity_variance>
0.1038616672

$$$$
[H]c1c([H])c([H])c(C([H])(N2C([H])([H])C([H])([H])N(C([H])([H])C#N)C([H])([H])C2([H])[H])C([H])([H])OC([H])([H])c2c([H])c(C(F)(F)F)c([H])c(C(F)(F)F)c2[H])c([H])c1[H]


 33 35  0  0  0  0  0  0  0  0999 V2000
  -15.0631   -8.4557    6.3291 C   0  0  0  0  0  0  0  0  0  0  0  0
  -16.0771   -7.3704    6.4642 C   0  0  0  0  0  0  0  0  0  0  0  0
  -19.8375   -9.2038    6.0054 N   0  0  0  0  0  0  0  0  0  0  0  0
  -19.5138   -8.6025    7.2481 C   0  0  0  0  0  0  0  0  0  0  0  0
  -18.0039   -8.4981    7.4446 C   0  0  0  0  0  0  0  0  0  0  0  0
  -17.3873   -7.8660    6.3382 N   0  0  0  0  0  0  0  0  0  0  0  0
  -17.7820   -8.2695    5.0344 C   0  0  0  0  0  0  0  0  0  0  0  0
  -18.7268   -9.4357    5.1465 C   0  0  0  0  0  0  0  0  0  0  0  0
  -20.8953  -10.1431    5.9765 C   0  0  0  0  0  0  0  0  0  0  0  0
  -20.9739  -11.4456    8.2826 N   0  0  0  0  0  0  0  0  0  0  0  0
  -20.9282  -10.8685    7.2565 C   0  0  0  0  0  0  0  0  0  0  0  0
  -15.7277   -6.2556    5.5485 C   0  0  0  0  0  0  0  0  0  0  0  0
  -14.4422   -5.9541    5.1565 C   0  0  0  0  0  0  0  0  0  0  0  0
  -14.1561   -4.8825    4.3325 C   0  0  0  0  0  0  0  0  0  0  0  0
  -15.1504   -4.0584    3.8609 C   0  0  0  0  0  0  0  0  0  0  0  0
  -16.4486   -4.3468    4.2414 C   0  0  0  0  0  0  0  0  0  0  0  0
  -16.7188   -5.4227    5.0678 C   0  0  0  0  0  0  0  0  0  0  0  0
  -14.5760   -8.9701    7.5279 O   0  0  0  0  0  0  0  0  0  0  0  0
  -13.2122   -9.2309    7.2389 C   0  0  0  0  0  0  0  0  0  0  0  0
  -12.2873   -8.2888    7.8370 C   0  0  0  0  0  0  0  0  0  0  0  0
  -12.7447   -7.3862    8.8226 C   0  0  0  0  0  0  0  0  0  0  0  0
  -11.9289   -6.4799    9.4279 C   0  0  0  0  0  0  0  0  0  0  0  0
  -10.6024   -6.4272    9.0779 C   0  0  0  0  0  0  0  0  0  0  0  0
  -10.1402   -7.2981    8.1199 C   0  0  0  0  0  0  0  0  0  0  0  0
  -10.9641   -8.2339    7.4902 C   0  0  0  0  0  0  0  0  0  0  0  0
  -12.4125   -5.5238   10.4688 C   0  0  0  0  0  0  0  0  0  0  0  0
  -12.1557   -4.2374   10.1365 F   0  0  0  0  0  0  0  0  0  0  0  0
  -11.7946   -5.9048   11.6516 F   0  0  0  0  0  0  0  0  0  0  0  0
  -13.7636   -5.7777   10.6460 F   0  0  0  0  0  0  0  0  0  0  0  0
   -8.6834   -7.2052    7.7847 C   0  0  0  0  0  0  0  0  0  0  0  0
   -8.3664   -8.1298    6.7807 F   0  0  0  0  0  0  0  0  0  0  0  0
   -8.4697   -5.9457    7.2880 F   0  0  0  0  0  0  0  0  0  0  0  0
   -7.8642   -7.4683    8.8627 F   0  0  0  0  0  0  0  0  0  0  0  0
 10 11  3  0  0  0
 11  9  1  0  0  0
  9  3  1  0  0  0
  3  4  1  0  0  0
  4  5  1  0  0  0
  5  6  1  0  0  0
  6  2  1  0  0  0
  2  1  1  0  0  0
  1 18  1  0  0  0
 18 19  1  0  0  0
 19 20  1  0  0  0
 20 21  2  0  0  0
 21 22  1  0  0  0
 22 26  1  0  0  0
 26 27  1  0  0  0
 26 28  1  0  0  0
 26 29  1  0  0  0
 22 23  2  0  0  0
 23 24  1  0  0  0
 24 30  1  0  0  0
 30 31  1  0  0  0
 30 32  1  0  0  0
 30 33  1  0  0  0
 24 25  2  0  0  0
  2 12  1  0  0  0
 12 13  2  0  0  0
 13 14  1  0  0  0
 14 15  2  0  0  0
 15 16  1  0  0  0
 16 17  2  0  0  0
  6  7  1  0  0  0
  7  8  1  0  0  0
  8  3  1  0  0  0
 25 20  1  0  0  0
 17 12  1  0  0  0
M  END
> <minimizedAffinity>
-6.80431

> <CNNscore>
0.1571302712

> <CNNaffinity>
6.7932915688

> <CNN_VS>
1.0674316883

> <CNNaffinity_variance>
0.0417668372

$$$$
[H]c1c([H])c([H])c(C([H])(N2C([H])([H])C([H])([H])N(C([H])([H])C#N)C([H])([H])C2([H])[H])C([H])([H])OC([H])([H])c2c([H])c(C(F)(F)F)c([H])c(C(F)(F)F)c2[H])c([H])c1[H]


 33 35  0  0  0  0  0  0  0  0999 V2000
  -15.0693   -8.4576    6.2657 C   0  0  0  0  0  0  0  0  0  0  0  0
  -16.0829   -7.3755    6.4267 C   0  0  0  0  0  0  0  0  0  0  0  0
  -19.8463   -9.2107    6.0010 N   0  0  0  0  0  0  0  0  0  0  0  0
  -19.5141   -8.6045    7.2391 C   0  0  0  0  0  0  0  0  0  0  0  0
  -18.0028   -8.4994    7.4248 C   0  0  0  0  0  0  0  0  0  0  0  0
  -17.3940   -7.8716    6.3117 N   0  0  0  0  0  0  0  0  0  0  0  0
  -17.7976   -8.2802    5.0122 C   0  0  0  0  0  0  0  0  0  0  0  0
  -18.7416   -9.4460    5.1354 C   0  0  0  0  0  0  0  0  0  0  0  0
  -20.9043  -10.1501    5.9831 C   0  0  0  0  0  0  0  0  0  0  0  0
  -20.9454  -11.4297    8.3030 N   0  0  0  0  0  0  0  0  0  0  0  0
  -20.9380  -10.8598    7.2718 C   0  0  0  0  0  0  0  0  0  0  0  0
  -15.7468   -6.2494    5.5199 C   0  0  0  0  0  0  0  0  0  0  0  0
  -14.4623   -5.9063    5.1602 C   0  0  0  0  0  0  0  0  0  0  0  0
  -14.1904   -4.8255    4.3434 C   0  0  0  0  0  0  0  0  0  0  0  0
  -15.1988   -4.0336    3.8469 C   0  0  0  0  0  0  0  0  0  0  0  0
  -16.4960   -4.3640    4.1948 C   0  0  0  0  0  0  0  0  0  0  0  0
  -16.7520   -5.4486    5.0144 C   0  0  0  0  0  0  0  0  0  0  0  0
  -14.5991   -9.0163    7.4515 O   0  0  0  0  0  0  0  0  0  0  0  0
  -13.2149   -9.1948    7.1996 C   0  0  0  0  0  0  0  0  0  0  0  0
  -12.3596   -8.2419    7.8787 C   0  0  0  0  0  0  0  0  0  0  0  0
  -10.9918   -8.1584    7.5361 C   0  0  0  0  0  0  0  0  0  0  0  0
  -10.1350   -7.2832    8.1303 C   0  0  0  0  0  0  0  0  0  0  0  0
  -10.6031   -6.4382    9.1059 C   0  0  0  0  0  0  0  0  0  0  0  0
  -11.9317   -6.5063    9.4523 C   0  0  0  0  0  0  0  0  0  0  0  0
  -12.8235   -7.3981    8.8519 C   0  0  0  0  0  0  0  0  0  0  0  0
   -8.6880   -7.1957    7.7698 C   0  0  0  0  0  0  0  0  0  0  0  0
   -7.8852   -7.3352    8.8501 F   0  0  0  0  0  0  0  0  0  0  0  0
   -8.5269   -5.9707    7.1376 F   0  0  0  0  0  0  0  0  0  0  0  0
   -8.4606   -8.1582    6.7985 F   0  0  0  0  0  0  0  0  0  0  0  0
  -12.3914   -5.5546   10.5136 C   0  0  0  0  0  0  0  0  0  0  0  0
  -13.7682   -5.7067   10.7250 F   0  0  0  0  0  0  0  0  0  0  0  0
  -11.7411   -5.9036   11.6687 F   0  0  0  0  0  0  0  0  0  0  0  0
  -12.1666   -4.2335   10.1873 F   0  0  0  0  0  0  0  0  0  0  0  0
 10 11  3  0  0  0
 11  9  1  0  0  0
  9  3  1  0  0  0
  3  4  1  0  0  0
  4  5  1  0  0  0
  5  6  1  0  0  0
  6  2  1  0  0  0
  2  1  1  0  0  0
  1 18  1  0  0  0
 18 19  1  0  0  0
 19 20  1  0  0  0
 20 21  2  0  0  0
 21 22  1  0  0  0
 22 26  1  0  0  0
 26 27  1  0  0  0
 26 28  1  0  0  0
 26 29  1  0  0  0
 22 23  2  0  0  0
 23 24  1  0  0  0
 24 30  1  0  0  0
 30 31  1  0  0  0
 30 32  1  0  0  0
 30 33  1  0  0  0
 24 25  2  0  0  0
  2 12  1  0  0  0
 12 13  2  0  0  0
 13 14  1  0  0  0
 14 15  2  0  0  0
 15 16  1  0  0  0
 16 17  2  0  0  0
  6  7  1  0  0  0
  7  8  1  0  0  0
  8  3  1  0  0  0
 25 20  1  0  0  0
 17 12  1  0  0  0
M  END
> <minimizedAffinity>
-6.83282

> <CNNscore>
0.1550550163

> <CNNaffinity>
6.7685790062

> <CNN_VS>
1.0495021343

> <CNNaffinity_variance>
0.0381485112

$$$$
[H]c1c([H])c([H])c(C([H])(N2C([H])([H])C([H])([H])N(C([H])([H])C#N)C([H])([H])C2([H])[H])C([H])([H])OC([H])([H])c2c([H])c(C(F)(F)F)c([H])c(C(F)(F)F)c2[H])c([H])c1[H]


 33 35  0  0  0  0  0  0  0  0999 V2000
   -5.9385   -6.4536    7.5643 C   0  0  0  0  0  0  0  0  0  0  0  0
   -4.7162   -6.4815    8.4183 C   0  0  0  0  0  0  0  0  0  0  0  0
   -3.1040   -2.7678    9.5678 N   0  0  0  0  0  0  0  0  0  0  0  0
   -3.3108   -3.0296    8.1896 C   0  0  0  0  0  0  0  0  0  0  0  0
   -3.3509   -4.5281    7.9030 C   0  0  0  0  0  0  0  0  0  0  0  0
   -4.2812   -5.1843    8.7442 N   0  0  0  0  0  0  0  0  0  0  0  0
   -4.2815   -4.8518   10.1255 C   0  0  0  0  0  0  0  0  0  0  0  0
   -3.1352   -3.9176   10.4057 C   0  0  0  0  0  0  0  0  0  0  0  0
   -2.2163   -1.7240    9.9206 C   0  0  0  0  0  0  0  0  0  0  0  0
   -2.4835   -1.1750   12.4991 N   0  0  0  0  0  0  0  0  0  0  0  0
   -2.3674   -1.4295   11.3546 C   0  0  0  0  0  0  0  0  0  0  0  0
   -3.6958   -7.3547    7.7861 C   0  0  0  0  0  0  0  0  0  0  0  0
   -3.8654   -7.9854    6.5734 C   0  0  0  0  0  0  0  0  0  0  0  0
   -2.9047   -8.8218    6.0379 C   0  0  0  0  0  0  0  0  0  0  0  0
   -1.7231   -9.0667    6.6968 C   0  0  0  0  0  0  0  0  0  0  0  0
   -1.5330   -8.4400    7.9151 C   0  0  0  0  0  0  0  0  0  0  0  0
   -2.5048   -7.6062    8.4385 C   0  0  0  0  0  0  0  0  0  0  0  0
   -7.0558   -7.0888    8.1004 O   0  0  0  0  0  0  0  0  0  0  0  0
   -8.1380   -6.4585    7.4348 C   0  0  0  0  0  0  0  0  0  0  0  0
   -9.4451   -6.8467    7.9262 C   0  0  0  0  0  0  0  0  0  0  0  0
  -10.0665   -8.0109    7.4227 C   0  0  0  0  0  0  0  0  0  0  0  0
  -11.2897   -8.4348    7.8439 C   0  0  0  0  0  0  0  0  0  0  0  0
  -11.9620   -7.7122    8.7983 C   0  0  0  0  0  0  0  0  0  0  0  0
  -11.3722   -6.5759    9.2990 C   0  0  0  0  0  0  0  0  0  0  0  0
  -10.1179   -6.1282    8.8778 C   0  0  0  0  0  0  0  0  0  0  0  0
  -11.9482   -9.6649    7.3104 C   0  0  0  0  0  0  0  0  0  0  0  0
  -12.6957  -10.2898    8.2495 F   0  0  0  0  0  0  0  0  0  0  0  0
  -10.9235  -10.4638    6.8229 F   0  0  0  0  0  0  0  0  0  0  0  0
  -12.6856   -9.2739    6.2037 F   0  0  0  0  0  0  0  0  0  0  0  0
  -12.1439   -5.8326   10.3456 C   0  0  0  0  0  0  0  0  0  0  0  0
  -13.4517   -6.3308   10.4159 F   0  0  0  0  0  0  0  0  0  0  0  0
  -11.5277   -6.0806   11.5446 F   0  0  0  0  0  0  0  0  0  0  0  0
  -12.2300   -4.4794   10.0927 F   0  0  0  0  0  0  0  0  0  0  0  0
 10 11  3  0  0  0
 11  9  1  0  0  0
  9  3  1  0  0  0
  3  4  1  0  0  0
  4  5  1  0  0  0
  5  6  1  0  0  0
  6  2  1  0  0  0
  2  1  1  0  0  0
  1 18  1  0  0  0
 18 19  1  0  0  0
 19 20  1  0  0  0
 20 21  2  0  0  0
 21 22  1  0  0  0
 22 26  1  0  0  0
 26 27  1  0  0  0
 26 28  1  0  0  0
 26 29  1  0  0  0
 22 23  2  0  0  0
 23 24  1  0  0  0
 24 30  1  0  0  0
 30 31  1  0  0  0
 30 32  1  0  0  0
 30 33  1  0  0  0
 24 25  2  0  0  0
  2 12  1  0  0  0
 12 13  2  0  0  0
 13 14  1  0  0  0
 14 15  2  0  0  0
 15 16  1  0  0  0
 16 17  2  0  0  0
  6  7  1  0  0  0
  7  8  1  0  0  0
  8  3  1  0  0  0
 25 20  1  0  0  0
 17 12  1  0  0  0
M  END
> <minimizedAffinity>
-7.34249

> <CNNscore>
0.1477307081

> <CNNaffinity>
5.5268669128

> <CNN_VS>
0.8164879680

> <CNNaffinity_variance>
0.1136719137

$$$$
[H]c1c([H])c([H])c(C([H])(N2C([H])([H])C([H])([H])N(C([H])([H])C#N)C([H])([H])C2([H])[H])C([H])([H])OC([H])([H])c2c([H])c(C(F)(F)F)c([H])c(C(F)(F)F)c2[H])c([H])c1[H]


 33 35  0  0  0  0  0  0  0  0999 V2000
  -11.9339   -8.4302    7.5742 C   0  0  0  0  0  0  0  0  0  0  0  0
  -13.2338   -8.0708    8.2109 C   0  0  0  0  0  0  0  0  0  0  0  0
  -16.1044   -7.5226    5.1825 N   0  0  0  0  0  0  0  0  0  0  0  0
  -16.5154   -7.4576    6.5380 C   0  0  0  0  0  0  0  0  0  0  0  0
  -15.5480   -8.2022    7.4540 C   0  0  0  0  0  0  0  0  0  0  0  0
  -14.2159   -7.7687    7.2505 N   0  0  0  0  0  0  0  0  0  0  0  0
  -13.7597   -7.6203    5.9132 C   0  0  0  0  0  0  0  0  0  0  0  0
  -14.8268   -8.1134    4.9731 C   0  0  0  0  0  0  0  0  0  0  0  0
  -17.0958   -7.7393    4.1965 C   0  0  0  0  0  0  0  0  0  0  0  0
  -19.0301   -9.2337    5.2196 N   0  0  0  0  0  0  0  0  0  0  0  0
  -18.1632   -8.5778    4.7653 C   0  0  0  0  0  0  0  0  0  0  0  0
  -13.0044   -7.0237    9.2376 C   0  0  0  0  0  0  0  0  0  0  0  0
  -12.3807   -7.2509   10.4445 C   0  0  0  0  0  0  0  0  0  0  0  0
  -12.2215   -6.2557   11.3897 C   0  0  0  0  0  0  0  0  0  0  0  0
  -12.6831   -4.9796   11.1683 C   0  0  0  0  0  0  0  0  0  0  0  0
  -13.3099   -4.7311    9.9607 C   0  0  0  0  0  0  0  0  0  0  0  0
  -13.4625   -5.7384    9.0249 C   0  0  0  0  0  0  0  0  0  0  0  0
  -10.9110   -7.4999    7.7394 O   0  0  0  0  0  0  0  0  0  0  0  0
   -9.9195   -8.2293    8.4439 C   0  0  0  0  0  0  0  0  0  0  0  0
   -8.5695   -8.0150    7.9621 C   0  0  0  0  0  0  0  0  0  0  0  0
   -8.2055   -8.4623    6.6727 C   0  0  0  0  0  0  0  0  0  0  0  0
   -6.9575   -8.2891    6.1571 C   0  0  0  0  0  0  0  0  0  0  0  0
   -5.9995   -7.6545    6.9085 C   0  0  0  0  0  0  0  0  0  0  0  0
   -6.3364   -7.2130    8.1661 C   0  0  0  0  0  0  0  0  0  0  0  0
   -7.6121   -7.3826    8.7090 C   0  0  0  0  0  0  0  0  0  0  0  0
   -6.5715   -8.7636    4.7943 C   0  0  0  0  0  0  0  0  0  0  0  0
   -7.2678   -9.8626    4.4222 F   0  0  0  0  0  0  0  0  0  0  0  0
   -5.2028   -8.9882    4.8434 F   0  0  0  0  0  0  0  0  0  0  0  0
   -6.7509   -7.6919    3.9337 F   0  0  0  0  0  0  0  0  0  0  0  0
   -5.2571   -6.5178    8.9375 C   0  0  0  0  0  0  0  0  0  0  0  0
   -5.1434   -5.1898    8.5051 F   0  0  0  0  0  0  0  0  0  0  0  0
   -5.6512   -6.5069   10.2503 F   0  0  0  0  0  0  0  0  0  0  0  0
   -4.0201   -7.1090    8.7868 F   0  0  0  0  0  0  0  0  0  0  0  0
 10 11  3  0  0  0
 11  9  1  0  0  0
  9  3  1  0  0  0
  3  4  1  0  0  0
  4  5  1  0  0  0
  5  6  1  0  0  0
  6  2  1  0  0  0
  2  1  1  0  0  0
  1 18  1  0  0  0
 18 19  1  0  0  0
 19 20  1  0  0  0
 20 21  2  0  0  0
 21 22  1  0  0  0
 22 26  1  0  0  0
 26 27  1  0  0  0
 26 28  1  0  0  0
 26 29  1  0  0  0
 22 23  2  0  0  0
 23 24  1  0  0  0
 24 30  1  0  0  0
 30 31  1  0  0  0
 30 32  1  0  0  0
 30 33  1  0  0  0
 24 25  2  0  0  0
  2 12  1  0  0  0
 12 13  2  0  0  0
 13 14  1  0  0  0
 14 15  2  0  0  0
 15 16  1  0  0  0
 16 17  2  0  0  0
  6  7  1  0  0  0
  7  8  1  0  0  0
  8  3  1  0  0  0
 25 20  1  0  0  0
 17 12  1  0  0  0
M  END
> <minimizedAffinity>
-4.78485

> <CNNscore>
0.1249135509

> <CNNaffinity>
6.5321984291

> <CNN_VS>
0.8159601092

> <CNNaffinity_variance>
0.2361564636

$$$$
[H]c1c([H])c([H])c(C([H])(N2C([H])([H])C([H])([H])N(C([H])([H])C#N)C([H])([H])C2([H])[H])C([H])([H])OC([H])([H])c2c([H])c(C(F)(F)F)c([H])c(C(F)(F)F)c2[H])c([H])c1[H]


 33 35  0  0  0  0  0  0  0  0999 V2000
   -5.9155   -6.5103    7.5145 C   0  0  0  0  0  0  0  0  0  0  0  0
   -4.6589   -6.4811    8.3173 C   0  0  0  0  0  0  0  0  0  0  0  0
   -2.9340   -2.7073    9.0215 N   0  0  0  0  0  0  0  0  0  0  0  0
   -3.3006   -3.0585    7.6975 C   0  0  0  0  0  0  0  0  0  0  0  0
   -3.3696   -4.5725    7.5172 C   0  0  0  0  0  0  0  0  0  0  0  0
   -4.1926   -5.1673    8.5034 N   0  0  0  0  0  0  0  0  0  0  0  0
   -4.0316   -4.7444    9.8501 C   0  0  0  0  0  0  0  0  0  0  0  0
   -2.8632   -3.7992    9.9314 C   0  0  0  0  0  0  0  0  0  0  0  0
   -2.0142   -1.6468    9.1979 C   0  0  0  0  0  0  0  0  0  0  0  0
   -2.2992   -0.6752   11.6465 N   0  0  0  0  0  0  0  0  0  0  0  0
   -2.1694   -1.0973   10.5542 C   0  0  0  0  0  0  0  0  0  0  0  0
   -3.6782   -7.4269    7.7283 C   0  0  0  0  0  0  0  0  0  0  0  0
   -2.4433   -7.6969    8.2754 C   0  0  0  0  0  0  0  0  0  0  0  0
   -1.5436   -8.5558    7.6738 C   0  0  0  0  0  0  0  0  0  0  0  0
   -1.8411   -9.1871    6.4891 C   0  0  0  0  0  0  0  0  0  0  0  0
   -3.0779   -8.9307    5.9255 C   0  0  0  0  0  0  0  0  0  0  0  0
   -3.9675   -8.0675    6.5396 C   0  0  0  0  0  0  0  0  0  0  0  0
   -7.0165   -7.0791    8.1496 O   0  0  0  0  0  0  0  0  0  0  0  0
   -8.1167   -6.4199    7.5444 C   0  0  0  0  0  0  0  0  0  0  0  0
   -9.4100   -6.9578    7.9169 C   0  0  0  0  0  0  0  0  0  0  0  0
  -10.1671   -6.3268    8.9287 C   0  0  0  0  0  0  0  0  0  0  0  0
  -11.3901   -6.7764    9.3233 C   0  0  0  0  0  0  0  0  0  0  0  0
  -11.9256   -7.8888    8.7228 C   0  0  0  0  0  0  0  0  0  0  0  0
  -11.2020   -8.5159    7.7363 C   0  0  0  0  0  0  0  0  0  0  0  0
   -9.9466   -8.0668    7.3200 C   0  0  0  0  0  0  0  0  0  0  0  0
  -12.1904   -6.1107   10.3946 C   0  0  0  0  0  0  0  0  0  0  0  0
  -11.5064   -6.0203   11.5587 F   0  0  0  0  0  0  0  0  0  0  0  0
  -13.3566   -6.8533   10.5151 F   0  0  0  0  0  0  0  0  0  0  0  0
  -12.5750   -4.8760    9.8955 F   0  0  0  0  0  0  0  0  0  0  0  0
  -11.8379   -9.7173    7.1075 C   0  0  0  0  0  0  0  0  0  0  0  0
  -12.5701   -9.3310    5.9769 F   0  0  0  0  0  0  0  0  0  0  0  0
  -10.8189  -10.5368    6.6965 F   0  0  0  0  0  0  0  0  0  0  0  0
  -12.7038  -10.3753    7.9558 F   0  0  0  0  0  0  0  0  0  0  0  0
 10 11  3  0  0  0
 11  9  1  0  0  0
  9  3  1  0  0  0
  3  4  1  0  0  0
  4  5  1  0  0  0
  5  6  1  0  0  0
  6  2  1  0  0  0
  2  1  1  0  0  0
  1 18  1  0  0  0
 18 19  1  0  0  0
 19 20  1  0  0  0
 20 21  2  0  0  0
 21 22  1  0  0  0
 22 26  1  0  0  0
 26 27  1  0  0  0
 26 28  1  0  0  0
 26 29  1  0  0  0
 22 23  2  0  0  0
 23 24  1  0  0  0
 24 30  1  0  0  0
 30 31  1  0  0  0
 30 32  1  0  0  0
 30 33  1  0  0  0
 24 25  2  0  0  0
  2 12  1  0  0  0
 12 13  2  0  0  0
 13 14  1  0  0  0
 14 15  2  0  0  0
 15 16  1  0  0  0
 16 17  2  0  0  0
  6  7  1  0  0  0
  7  8  1  0  0  0
  8  3  1  0  0  0
 25 20  1  0  0  0
 17 12  1  0  0  0
M  END
> <minimizedAffinity>
-7.24187

> <CNNscore>
0.1240333915

> <CNNaffinity>
5.4713001251

> <CNN_VS>
0.6786239147

> <CNNaffinity_variance>
0.1250692606

$$$$
[H]OC(=O)c1c([H])c([H])c([H])c(O[H])c1C(=O)c1c(O[H])c([H])c(C(=O)OC([H])([H])[C@]2([H])C([H])([H])C([H])([H])C([H])([H])[C@@]2([H])N([H])C(=O)c2c([H])c([H])c(O[H])c([H])c2[H])c([H])c1O[H]


 45 48  0  0  0  0  0  0  0  0999 V2000
  -10.6305   -9.7510    6.9789 C   0  0  0  0  0  0  0  0  0  0  0  0
  -10.9550   -9.6977    5.6564 C   0  0  0  0  0  0  0  0  0  0  0  0
  -10.3980  -10.5928    4.7324 C   0  0  0  0  0  0  0  0  0  0  0  0
  -10.8015  -10.4504    3.4274 O   0  0  0  0  0  0  0  0  0  0  0  0
   -9.4994  -11.5632    5.1166 C   0  0  0  0  0  0  0  0  0  0  0  0
   -9.1706  -11.6101    6.4787 C   0  0  0  0  0  0  0  0  0  0  0  0
   -8.2590  -12.5518    6.9904 O   0  0  0  0  0  0  0  0  0  0  0  0
   -9.7342  -10.7198    7.3615 C   0  0  0  0  0  0  0  0  0  0  0  0
  -10.5826  -10.9525    2.6193 H   0  0  0  0  0  0  0  0  0  0  0  0
   -8.0422  -12.5669    7.9556 H   0  0  0  0  0  0  0  0  0  0  0  0
  -11.2134   -8.8141    7.9663 C   0  0  0  0  0  0  0  0  0  0  0  0
  -12.2379   -9.1738    8.5606 O   0  0  0  0  0  0  0  0  0  0  0  0
  -10.6629   -7.6415    8.2032 O   0  0  0  0  0  0  0  0  0  0  0  0
   -9.6911   -7.0249    8.8981 C   0  0  0  0  0  0  0  0  0  0  0  0
   -7.3625   -7.7029    8.9130 C   0  0  0  0  0  0  0  0  0  0  0  0
   -6.9748   -8.7185    7.8657 C   0  0  0  0  0  0  0  0  0  0  0  0
   -7.4405   -8.2274    6.5379 C   0  0  0  0  0  0  0  0  0  0  0  0
   -8.3279   -7.0150    6.7854 C   0  0  0  0  0  0  0  0  0  0  0  0
   -8.3923   -6.8022    8.2220 C   0  0  0  0  0  0  0  0  0  0  0  0
   -5.9424   -6.0066    7.3148 O   0  0  0  0  0  0  0  0  0  0  0  0
   -5.5358   -6.0993    8.5100 C   0  0  0  0  0  0  0  0  0  0  0  0
   -6.2161   -6.9530    9.3876 N   0  0  0  0  0  0  0  0  0  0  0  0
   -5.8945   -7.0491   10.3858 H   0  0  0  0  0  0  0  0  0  0  0  0
   -4.3942   -5.3220    8.9071 C   0  0  0  0  0  0  0  0  0  0  0  0
   -3.3104   -5.1958    8.0741 C   0  0  0  0  0  0  0  0  0  0  0  0
   -2.1943   -4.4443    8.4505 C   0  0  0  0  0  0  0  0  0  0  0  0
   -2.1828   -3.8217    9.6744 C   0  0  0  0  0  0  0  0  0  0  0  0
   -1.0768   -3.0655   10.0695 O   0  0  0  0  0  0  0  0  0  0  0  0
   -3.2729   -3.9498   10.5100 C   0  0  0  0  0  0  0  0  0  0  0  0
   -4.3765   -4.6880   10.1476 C   0  0  0  0  0  0  0  0  0  0  0  0
   -1.0084   -2.0850    9.8690 H   0  0  0  0  0  0  0  0  0  0  0  0
   -8.7574  -12.4120    4.2427 C   0  0  0  0  0  0  0  0  0  0  0  0
   -8.3683  -13.5216    4.8289 O   0  0  0  0  0  0  0  0  0  0  0  0
   -8.3755  -12.2903    2.8599 C   0  0  0  0  0  0  0  0  0  0  0  0
   -8.7182  -13.4240    2.0784 C   0  0  0  0  0  0  0  0  0  0  0  0
   -9.3696  -14.4925    2.6781 O   0  0  0  0  0  0  0  0  0  0  0  0
   -8.4302  -13.5049    0.7512 C   0  0  0  0  0  0  0  0  0  0  0  0
   -7.7854  -12.4316    0.1875 C   0  0  0  0  0  0  0  0  0  0  0  0
   -7.4413  -11.3342    0.9118 C   0  0  0  0  0  0  0  0  0  0  0  0
   -7.7340  -11.2388    2.3057 C   0  0  0  0  0  0  0  0  0  0  0  0
   -9.6073  -15.2892    2.1137 H   0  0  0  0  0  0  0  0  0  0  0  0
   -7.1292  -10.1363    3.0184 C   0  0  0  0  0  0  0  0  0  0  0  0
   -5.8893   -9.9091    2.8062 O   0  0  0  0  0  0  0  0  0  0  0  0
   -7.7194   -9.3076    3.9052 O   0  0  0  0  0  0  0  0  0  0  0  0
   -7.2707   -8.6904    4.5525 H   0  0  0  0  0  0  0  0  0  0  0  0
 20 21  2  0  0  0
 21 22  1  0  0  0
 22 15  1  0  0  0
 15 16  1  0  0  0
 16 17  1  0  0  0
 17 18  1  0  0  0
 18 19  1  0  0  0
 19 14  1  0  0  0
 14 13  1  0  0  0
 13 11  1  0  0  0
 11 12  2  0  0  0
 11  1  1  0  0  0
  1  2  2  0  0  0
  2  3  1  0  0  0
  3  4  1  0  0  0
  3  5  2  0  0  0
  5 32  1  0  0  0
 32 33  2  0  0  0
 32 34  1  0  0  0
 34 35  2  0  0  0
 35 36  1  0  0  0
 35 37  1  0  0  0
 37 38  2  0  0  0
 38 39  1  0  0  0
 39 40  2  0  0  0
 40 42  1  0  0  0
 42 43  2  0  0  0
 42 44  1  0  0  0
  5  6  1  0  0  0
  6  7  1  0  0  0
  6  8  2  0  0  0
 21 24  1  0  0  0
 24 25  2  0  0  0
 25 26  1  0  0  0
 26 27  2  0  0  0
 27 28  1  0  0  0
 27 29  1  0  0  0
 29 30  2  0  0  0
 19 15  1  0  0  0
  8  1  1  0  0  0
 30 24  1  0  0  0
 40 34  1  0  0  0
 22 23  1  0  0  0
  4  9  1  0  0  0
 36 41  1  0  0  0
 44 45  1  0  0  0
  7 10  1  0  0  0
 28 31  1  0  0  0
M  END
> <minimizedAffinity>
20.63437

> <CNNscore>
0.5258235931

> <CNNaffinity>
5.6886544228

> <CNN_VS>
2.9912288189

> <CNNaffinity_variance>
0.4223586619

$$$$
[H]OC(=O)c1c([H])c([H])c([H])c(O[H])c1C(=O)c1c(O[H])c([H])c(C(=O)OC([H])([H])[C@]2([H])C([H])([H])C([H])([H])C([H])([H])[C@@]2([H])N([H])C(=O)c2c([H])c([H])c(O[H])c([H])c2[H])c([H])c1O[H]


 45 48  0  0  0  0  0  0  0  0999 V2000
  -13.9390   -7.8268    9.2443 C   0  0  0  0  0  0  0  0  0  0  0  0
  -13.7210   -6.9901    8.1911 C   0  0  0  0  0  0  0  0  0  0  0  0
  -14.7036   -6.7763    7.2143 C   0  0  0  0  0  0  0  0  0  0  0  0
  -14.3767   -5.9082    6.2015 O   0  0  0  0  0  0  0  0  0  0  0  0
  -15.9298   -7.4006    7.2729 C   0  0  0  0  0  0  0  0  0  0  0  0
  -16.1449   -8.2604    8.3591 C   0  0  0  0  0  0  0  0  0  0  0  0
  -17.3543   -8.9605    8.5237 O   0  0  0  0  0  0  0  0  0  0  0  0
  -15.1628   -8.4491    9.3023 C   0  0  0  0  0  0  0  0  0  0  0  0
  -14.8839   -5.5824    5.4336 H   0  0  0  0  0  0  0  0  0  0  0  0
  -17.4843   -9.5618    9.2986 H   0  0  0  0  0  0  0  0  0  0  0  0
  -12.9114   -8.0596   10.2848 C   0  0  0  0  0  0  0  0  0  0  0  0
  -13.3049   -8.3299   11.4268 O   0  0  0  0  0  0  0  0  0  0  0  0
  -11.6268   -7.9816   10.0059 O   0  0  0  0  0  0  0  0  0  0  0  0
  -10.7214   -8.1532    9.0269 C   0  0  0  0  0  0  0  0  0  0  0  0
   -8.8994   -7.4576    7.5851 C   0  0  0  0  0  0  0  0  0  0  0  0
   -9.2218   -6.3384    6.6249 C   0  0  0  0  0  0  0  0  0  0  0  0
   -9.8291   -5.2165    7.3955 C   0  0  0  0  0  0  0  0  0  0  0  0
  -10.1032   -5.7263    8.8040 C   0  0  0  0  0  0  0  0  0  0  0  0
   -9.6781   -7.1154    8.8602 C   0  0  0  0  0  0  0  0  0  0  0  0
   -7.1155   -8.1672    5.6455 O   0  0  0  0  0  0  0  0  0  0  0  0
   -6.6178   -7.9327    6.7856 C   0  0  0  0  0  0  0  0  0  0  0  0
   -7.4746   -7.5642    7.8305 N   0  0  0  0  0  0  0  0  0  0  0  0
   -7.0842   -7.3672    8.7886 H   0  0  0  0  0  0  0  0  0  0  0  0
   -5.1956   -8.0565    6.9506 C   0  0  0  0  0  0  0  0  0  0  0  0
   -4.4426   -8.7448    6.0320 C   0  0  0  0  0  0  0  0  0  0  0  0
   -3.0597   -8.8732    6.1832 C   0  0  0  0  0  0  0  0  0  0  0  0
   -2.4445   -8.3005    7.2691 C   0  0  0  0  0  0  0  0  0  0  0  0
   -1.0628   -8.4171    7.4386 O   0  0  0  0  0  0  0  0  0  0  0  0
   -3.2030   -7.6092    8.1910 C   0  0  0  0  0  0  0  0  0  0  0  0
   -4.5657   -7.4776    8.0502 C   0  0  0  0  0  0  0  0  0  0  0  0
   -0.4253   -7.7425    7.0584 H   0  0  0  0  0  0  0  0  0  0  0  0
  -16.9309   -7.3792    6.2570 C   0  0  0  0  0  0  0  0  0  0  0  0
  -18.0768   -7.8724    6.6690 O   0  0  0  0  0  0  0  0  0  0  0  0
  -16.9258   -6.9126    4.8950 C   0  0  0  0  0  0  0  0  0  0  0  0
  -17.6631   -5.7150    4.7065 C   0  0  0  0  0  0  0  0  0  0  0  0
  -18.2834   -5.1189    5.7955 O   0  0  0  0  0  0  0  0  0  0  0  0
  -17.7868   -5.1226    3.4880 C   0  0  0  0  0  0  0  0  0  0  0  0
  -17.1616   -5.7368    2.4309 C   0  0  0  0  0  0  0  0  0  0  0  0
  -16.4519   -6.8862    2.5805 C   0  0  0  0  0  0  0  0  0  0  0  0
  -16.3182   -7.5198    3.8528 C   0  0  0  0  0  0  0  0  0  0  0  0
  -18.8021   -4.2708    5.6488 H   0  0  0  0  0  0  0  0  0  0  0  0
  -15.7376   -8.8435    3.8569 C   0  0  0  0  0  0  0  0  0  0  0  0
  -16.2324   -9.7046    3.0522 O   0  0  0  0  0  0  0  0  0  0  0  0
  -14.7254   -9.2951    4.6271 O   0  0  0  0  0  0  0  0  0  0  0  0
  -14.4625  -10.2469    4.7891 H   0  0  0  0  0  0  0  0  0  0  0  0
 20 21  2  0  0  0
 21 22  1  0  0  0
 22 15  1  0  0  0
 15 16  1  0  0  0
 16 17  1  0  0  0
 17 18  1  0  0  0
 18 19  1  0  0  0
 19 14  1  0  0  0
 14 13  1  0  0  0
 13 11  1  0  0  0
 11 12  2  0  0  0
 11  1  1  0  0  0
  1  2  2  0  0  0
  2  3  1  0  0  0
  3  4  1  0  0  0
  3  5  2  0  0  0
  5 32  1  0  0  0
 32 33  2  0  0  0
 32 34  1  0  0  0
 34 35  2  0  0  0
 35 36  1  0  0  0
 35 37  1  0  0  0
 37 38  2  0  0  0
 38 39  1  0  0  0
 39 40  2  0  0  0
 40 42  1  0  0  0
 42 43  2  0  0  0
 42 44  1  0  0  0
  5  6  1  0  0  0
  6  7  1  0  0  0
  6  8  2  0  0  0
 21 24  1  0  0  0
 24 25  2  0  0  0
 25 26  1  0  0  0
 26 27  2  0  0  0
 27 28  1  0  0  0
 27 29  1  0  0  0
 29 30  2  0  0  0
 19 15  1  0  0  0
  8  1  1  0  0  0
 30 24  1  0  0  0
 40 34  1  0  0  0
 22 23  1  0  0  0
  4  9  1  0  0  0
 36 41  1  0  0  0
 44 45  1  0  0  0
  7 10  1  0  0  0
 28 31  1  0  0  0
M  END
> <minimizedAffinity>
-0.60893

> <CNNscore>
0.3640770316

> <CNNaffinity>
6.4865226746

> <CNN_VS>
2.3615939617

> <CNNaffinity_variance>
2.4725549221

$$$$
[H]OC(=O)c1c([H])c([H])c([H])c(O[H])c1C(=O)c1c(O[H])c([H])c(C(=O)OC([H])([H])[C@]2([H])C([H])([H])C([H])([H])C([H])([H])[C@@]2([H])N([H])C(=O)c2c([H])c([H])c(O[H])c([H])c2[H])c([H])c1O[H]


 45 48  0  0  0  0  0  0  0  0999 V2000
  -11.7821   -7.3302    8.4489 C   0  0  0  0  0  0  0  0  0  0  0  0
  -12.5293   -6.3675    7.8390 C   0  0  0  0  0  0  0  0  0  0  0  0
  -13.7299   -6.6808    7.1864 C   0  0  0  0  0  0  0  0  0  0  0  0
  -14.4028   -5.6303    6.6120 O   0  0  0  0  0  0  0  0  0  0  0  0
  -14.2075   -7.9713    7.1305 C   0  0  0  0  0  0  0  0  0  0  0  0
  -13.4319   -8.9553    7.7597 C   0  0  0  0  0  0  0  0  0  0  0  0
  -13.8119  -10.3101    7.7637 O   0  0  0  0  0  0  0  0  0  0  0  0
  -12.2595   -8.6175    8.3931 C   0  0  0  0  0  0  0  0  0  0  0  0
  -15.2517   -5.5848    6.1321 H   0  0  0  0  0  0  0  0  0  0  0  0
  -13.2491  -10.9874    8.2146 H   0  0  0  0  0  0  0  0  0  0  0  0
  -10.5138   -7.0132    9.1443 C   0  0  0  0  0  0  0  0  0  0  0  0
  -10.5772   -6.2945   10.1501 O   0  0  0  0  0  0  0  0  0  0  0  0
   -9.3612   -7.4781    8.7090 O   0  0  0  0  0  0  0  0  0  0  0  0
   -8.0745   -7.6673    9.0498 C   0  0  0  0  0  0  0  0  0  0  0  0
   -7.8867   -7.9688    6.6506 C   0  0  0  0  0  0  0  0  0  0  0  0
   -7.2542   -6.8225    5.8993 C   0  0  0  0  0  0  0  0  0  0  0  0
   -5.9602   -6.4848    6.5572 C   0  0  0  0  0  0  0  0  0  0  0  0
   -5.8946   -7.2657    7.8628 C   0  0  0  0  0  0  0  0  0  0  0  0
   -7.1221   -8.0362    7.9773 C   0  0  0  0  0  0  0  0  0  0  0  0
   -9.8143   -9.8969    6.7719 O   0  0  0  0  0  0  0  0  0  0  0  0
   -8.8295  -10.1561    6.0200 C   0  0  0  0  0  0  0  0  0  0  0  0
   -7.8007   -9.2121    5.9099 N   0  0  0  0  0  0  0  0  0  0  0  0
   -6.9696   -9.4066    5.2930 H   0  0  0  0  0  0  0  0  0  0  0  0
   -8.8168  -11.4086    5.3155 C   0  0  0  0  0  0  0  0  0  0  0  0
   -8.5224  -11.4538    3.9754 C   0  0  0  0  0  0  0  0  0  0  0  0
   -8.5091  -12.6655    3.2799 C   0  0  0  0  0  0  0  0  0  0  0  0
   -8.7950  -13.8298    3.9493 C   0  0  0  0  0  0  0  0  0  0  0  0
   -8.7867  -15.0517    3.2723 O   0  0  0  0  0  0  0  0  0  0  0  0
   -9.0905  -13.7822    5.2959 C   0  0  0  0  0  0  0  0  0  0  0  0
   -9.1061  -12.5933    5.9891 C   0  0  0  0  0  0  0  0  0  0  0  0
   -7.9568  -15.6105    3.2012 H   0  0  0  0  0  0  0  0  0  0  0  0
  -15.3229   -8.4200    6.3628 C   0  0  0  0  0  0  0  0  0  0  0  0
  -15.6007   -9.6871    6.5715 O   0  0  0  0  0  0  0  0  0  0  0  0
  -16.1949   -7.7532    5.4313 C   0  0  0  0  0  0  0  0  0  0  0  0
  -17.2042   -6.9784    6.0594 C   0  0  0  0  0  0  0  0  0  0  0  0
  -17.2551   -6.9213    7.4450 O   0  0  0  0  0  0  0  0  0  0  0  0
  -18.1328   -6.2826    5.3491 C   0  0  0  0  0  0  0  0  0  0  0  0
  -18.0555   -6.3595    3.9804 C   0  0  0  0  0  0  0  0  0  0  0  0
  -17.1025   -7.0964    3.3512 C   0  0  0  0  0  0  0  0  0  0  0  0
  -16.1252   -7.8342    4.0850 C   0  0  0  0  0  0  0  0  0  0  0  0
  -17.9744   -6.3687    7.8776 H   0  0  0  0  0  0  0  0  0  0  0  0
  -15.3071   -8.7537    3.3269 C   0  0  0  0  0  0  0  0  0  0  0  0
  -15.7412   -9.9478    3.1866 O   0  0  0  0  0  0  0  0  0  0  0  0
  -14.1141   -8.5064    2.7464 O   0  0  0  0  0  0  0  0  0  0  0  0
  -13.4511   -9.1762    2.4099 H   0  0  0  0  0  0  0  0  0  0  0  0
 20 21  2  0  0  0
 21 22  1  0  0  0
 22 15  1  0  0  0
 15 16  1  0  0  0
 16 17  1  0  0  0
 17 18  1  0  0  0
 18 19  1  0  0  0
 19 14  1  0  0  0
 14 13  1  0  0  0
 13 11  1  0  0  0
 11 12  2  0  0  0
 11  1  1  0  0  0
  1  2  2  0  0  0
  2  3  1  0  0  0
  3  4  1  0  0  0
  3  5  2  0  0  0
  5 32  1  0  0  0
 32 33  2  0  0  0
 32 34  1  0  0  0
 34 35  2  0  0  0
 35 36  1  0  0  0
 35 37  1  0  0  0
 37 38  2  0  0  0
 38 39  1  0  0  0
 39 40  2  0  0  0
 40 42  1  0  0  0
 42 43  2  0  0  0
 42 44  1  0  0  0
  5  6  1  0  0  0
  6  7  1  0  0  0
  6  8  2  0  0  0
 21 24  1  0  0  0
 24 25  2  0  0  0
 25 26  1  0  0  0
 26 27  2  0  0  0
 27 28  1  0  0  0
 27 29  1  0  0  0
 29 30  2  0  0  0
 19 15  1  0  0  0
  8  1  1  0  0  0
 30 24  1  0  0  0
 40 34  1  0  0  0
 22 23  1  0  0  0
  4  9  1  0  0  0
 36 41  1  0  0  0
 44 45  1  0  0  0
  7 10  1  0  0  0
 28 31  1  0  0  0
M  END
> <minimizedAffinity>
7.35773

> <CNNscore>
0.3529359102

> <CNNaffinity>
6.2874555588

> <CNN_VS>
2.2190687656

> <CNNaffinity_variance>
1.0203936100

$$$$
[H]OC(=O)c1c([H])c([H])c([H])c(O[H])c1C(=O)c1c(O[H])c([H])c(C(=O)OC([H])([H])[C@]2([H])C([H])([H])C([H])([H])C([H])([H])[C@@]2([H])N([H])C(=O)c2c([H])c([H])c(O[H])c([H])c2[H])c([H])c1O[H]


 45 48  0  0  0  0  0  0  0  0999 V2000
  -14.5728   -8.3320    4.2270 C   0  0  0  0  0  0  0  0  0  0  0  0
  -13.8299   -7.2647    4.6344 C   0  0  0  0  0  0  0  0  0  0  0  0
  -13.0066   -7.3391    5.7666 C   0  0  0  0  0  0  0  0  0  0  0  0
  -12.2989   -6.2047    6.0805 O   0  0  0  0  0  0  0  0  0  0  0  0
  -12.9114   -8.4897    6.5176 C   0  0  0  0  0  0  0  0  0  0  0  0
  -13.6799   -9.5823    6.0918 C   0  0  0  0  0  0  0  0  0  0  0  0
  -13.6724  -10.8089    6.7811 O   0  0  0  0  0  0  0  0  0  0  0  0
  -14.4771   -9.4797    4.9766 C   0  0  0  0  0  0  0  0  0  0  0  0
  -11.6547   -6.0139    6.7888 H   0  0  0  0  0  0  0  0  0  0  0  0
  -14.2224  -11.5668    6.4621 H   0  0  0  0  0  0  0  0  0  0  0  0
  -15.4444   -8.2684    3.0316 C   0  0  0  0  0  0  0  0  0  0  0  0
  -14.9188   -8.4701    1.9293 O   0  0  0  0  0  0  0  0  0  0  0  0
  -16.7307   -8.0067    3.1370 O   0  0  0  0  0  0  0  0  0  0  0  0
  -17.7879   -8.0991    3.9624 C   0  0  0  0  0  0  0  0  0  0  0  0
  -16.5349   -6.6219    5.4219 C   0  0  0  0  0  0  0  0  0  0  0  0
  -16.4231   -5.1903    4.9565 C   0  0  0  0  0  0  0  0  0  0  0  0
  -17.7906   -4.6897    4.6392 C   0  0  0  0  0  0  0  0  0  0  0  0
  -18.7347   -5.8837    4.6817 C   0  0  0  0  0  0  0  0  0  0  0  0
  -17.9436   -7.0595    5.0057 C   0  0  0  0  0  0  0  0  0  0  0  0
  -16.0086   -9.0049    6.6435 O   0  0  0  0  0  0  0  0  0  0  0  0
  -16.0612   -7.9985    7.4097 C   0  0  0  0  0  0  0  0  0  0  0  0
  -16.3288   -6.7419    6.8519 N   0  0  0  0  0  0  0  0  0  0  0  0
  -16.3806   -5.8905    7.4695 H   0  0  0  0  0  0  0  0  0  0  0  0
  -15.8430   -8.1965    8.8162 C   0  0  0  0  0  0  0  0  0  0  0  0
  -14.8358   -7.5294    9.4681 C   0  0  0  0  0  0  0  0  0  0  0  0
  -14.6133   -7.7156   10.8348 C   0  0  0  0  0  0  0  0  0  0  0  0
  -15.4165   -8.5804   11.5366 C   0  0  0  0  0  0  0  0  0  0  0  0
  -15.2107   -8.7804   12.9037 O   0  0  0  0  0  0  0  0  0  0  0  0
  -16.4281   -9.2498   10.8797 C   0  0  0  0  0  0  0  0  0  0  0  0
  -16.6546   -9.0727    9.5337 C   0  0  0  0  0  0  0  0  0  0  0  0
  -15.6693   -8.2165   13.5949 H   0  0  0  0  0  0  0  0  0  0  0  0
  -12.2357   -8.6221    7.7668 C   0  0  0  0  0  0  0  0  0  0  0  0
  -12.7235   -9.5953    8.5024 O   0  0  0  0  0  0  0  0  0  0  0  0
  -11.1296   -7.9127    8.3552 C   0  0  0  0  0  0  0  0  0  0  0  0
  -11.5204   -6.7481    9.0655 C   0  0  0  0  0  0  0  0  0  0  0  0
  -12.8657   -6.4158    9.1403 O   0  0  0  0  0  0  0  0  0  0  0  0
  -10.6189   -5.9370    9.6821 C   0  0  0  0  0  0  0  0  0  0  0  0
   -9.2959   -6.2930    9.5897 C   0  0  0  0  0  0  0  0  0  0  0  0
   -8.8917   -7.4003    8.9131 C   0  0  0  0  0  0  0  0  0  0  0  0
   -9.8273   -8.2571    8.2584 C   0  0  0  0  0  0  0  0  0  0  0  0
  -13.1295   -5.5888    9.6467 H   0  0  0  0  0  0  0  0  0  0  0  0
   -9.2752   -9.2706    7.3881 C   0  0  0  0  0  0  0  0  0  0  0  0
   -8.4135  -10.0702    7.8901 O   0  0  0  0  0  0  0  0  0  0  0  0
   -9.5540   -9.4750    6.0835 O   0  0  0  0  0  0  0  0  0  0  0  0
   -9.0320  -10.0228    5.4288 H   0  0  0  0  0  0  0  0  0  0  0  0
 20 21  2  0  0  0
 21 22  1  0  0  0
 22 15  1  0  0  0
 15 16  1  0  0  0
 16 17  1  0  0  0
 17 18  1  0  0  0
 18 19  1  0  0  0
 19 14  1  0  0  0
 14 13  1  0  0  0
 13 11  1  0  0  0
 11 12  2  0  0  0
 11  1  1  0  0  0
  1  2  2  0  0  0
  2  3  1  0  0  0
  3  4  1  0  0  0
  3  5  2  0  0  0
  5 32  1  0  0  0
 32 33  2  0  0  0
 32 34  1  0  0  0
 34 35  2  0  0  0
 35 36  1  0  0  0
 35 37  1  0  0  0
 37 38  2  0  0  0
 38 39  1  0  0  0
 39 40  2  0  0  0
 40 42  1  0  0  0
 42 43  2  0  0  0
 42 44  1  0  0  0
  5  6  1  0  0  0
  6  7  1  0  0  0
  6  8  2  0  0  0
 21 24  1  0  0  0
 24 25  2  0  0  0
 25 26  1  0  0  0
 26 27  2  0  0  0
 27 28  1  0  0  0
 27 29  1  0  0  0
 29 30  2  0  0  0
 19 15  1  0  0  0
  8  1  1  0  0  0
 30 24  1  0  0  0
 40 34  1  0  0  0
 22 23  1  0  0  0
  4  9  1  0  0  0
 36 41  1  0  0  0
 44 45  1  0  0  0
  7 10  1  0  0  0
 28 31  1  0  0  0
M  END
> <minimizedAffinity>
8.01945

> <CNNscore>
0.2836887836

> <CNNaffinity>
6.1465148926

> <CNN_VS>
1.7436972857

> <CNNaffinity_variance>
0.8792406321

$$$$
[H]OC(=O)c1c([H])c([H])c([H])c(O[H])c1C(=O)c1c(O[H])c([H])c(C(=O)OC([H])([H])[C@]2([H])C([H])([H])C([H])([H])C([H])([H])[C@@]2([H])N([H])C(=O)c2c([H])c([H])c(O[H])c([H])c2[H])c([H])c1O[H]


 45 48  0  0  0  0  0  0  0  0999 V2000
   -6.6376   -8.4253    7.7873 C   0  0  0  0  0  0  0  0  0  0  0  0
   -5.6523   -8.6262    6.8676 C   0  0  0  0  0  0  0  0  0  0  0  0
   -4.5016   -7.8258    6.8452 C   0  0  0  0  0  0  0  0  0  0  0  0
   -3.5723   -8.1224    5.8785 O   0  0  0  0  0  0  0  0  0  0  0  0
   -4.3147   -6.8023    7.7476 C   0  0  0  0  0  0  0  0  0  0  0  0
   -5.3337   -6.6021    8.6894 C   0  0  0  0  0  0  0  0  0  0  0  0
   -5.2606   -5.5834    9.6572 O   0  0  0  0  0  0  0  0  0  0  0  0
   -6.4502   -7.4042    8.6875 C   0  0  0  0  0  0  0  0  0  0  0  0
   -2.6987   -7.7371    5.6745 H   0  0  0  0  0  0  0  0  0  0  0  0
   -5.9915   -5.4608   10.3126 H   0  0  0  0  0  0  0  0  0  0  0  0
   -7.8567   -9.2649    7.8244 C   0  0  0  0  0  0  0  0  0  0  0  0
   -7.7282  -10.4445    8.1769 O   0  0  0  0  0  0  0  0  0  0  0  0
   -9.0338   -8.7753    7.4945 O   0  0  0  0  0  0  0  0  0  0  0  0
  -10.3574   -8.9340    7.6691 C   0  0  0  0  0  0  0  0  0  0  0  0
  -12.5292   -8.1513    8.4126 C   0  0  0  0  0  0  0  0  0  0  0  0
  -12.5596   -7.5279    9.7870 C   0  0  0  0  0  0  0  0  0  0  0  0
  -11.4984   -6.4836    9.8544 C   0  0  0  0  0  0  0  0  0  0  0  0
  -10.6478   -6.6158    8.5982 C   0  0  0  0  0  0  0  0  0  0  0  0
  -11.1867   -7.7157    7.8151 C   0  0  0  0  0  0  0  0  0  0  0  0
  -13.5430   -9.6601    6.3770 O   0  0  0  0  0  0  0  0  0  0  0  0
  -14.1186   -8.5498    6.5725 C   0  0  0  0  0  0  0  0  0  0  0  0
  -13.6506   -7.7215    7.6005 N   0  0  0  0  0  0  0  0  0  0  0  0
  -14.1113   -6.7917    7.7802 H   0  0  0  0  0  0  0  0  0  0  0  0
  -15.2258   -8.1943    5.7282 C   0  0  0  0  0  0  0  0  0  0  0  0
  -16.2224   -7.3718    6.1916 C   0  0  0  0  0  0  0  0  0  0  0  0
  -17.3045   -7.0212    5.3802 C   0  0  0  0  0  0  0  0  0  0  0  0
  -17.3708   -7.5080    4.0980 C   0  0  0  0  0  0  0  0  0  0  0  0
  -18.4441   -7.1692    3.2706 O   0  0  0  0  0  0  0  0  0  0  0  0
  -16.3683   -8.3344    3.6342 C   0  0  0  0  0  0  0  0  0  0  0  0
  -15.2987   -8.6850    4.4263 C   0  0  0  0  0  0  0  0  0  0  0  0
  -18.4190   -6.3608    2.6773 H   0  0  0  0  0  0  0  0  0  0  0  0
   -3.2674   -5.8344    7.7125 C   0  0  0  0  0  0  0  0  0  0  0  0
   -2.0863   -6.3622    7.9418 O   0  0  0  0  0  0  0  0  0  0  0  0
   -3.2601   -4.4167    7.4620 C   0  0  0  0  0  0  0  0  0  0  0  0
   -3.5808   -4.0793    6.1215 C   0  0  0  0  0  0  0  0  0  0  0  0
   -3.8716   -5.0900    5.2162 O   0  0  0  0  0  0  0  0  0  0  0  0
   -3.6146   -2.7911    5.6852 C   0  0  0  0  0  0  0  0  0  0  0  0
   -3.3221   -1.8145    6.6051 C   0  0  0  0  0  0  0  0  0  0  0  0
   -3.0078   -2.1077    7.8945 C   0  0  0  0  0  0  0  0  0  0  0  0
   -2.9648   -3.4553    8.3635 C   0  0  0  0  0  0  0  0  0  0  0  0
   -4.0976   -4.8379    4.2700 H   0  0  0  0  0  0  0  0  0  0  0  0
   -2.4053   -3.6632    9.6800 C   0  0  0  0  0  0  0  0  0  0  0  0
   -1.1599   -3.4199    9.8341 O   0  0  0  0  0  0  0  0  0  0  0  0
   -3.0442   -4.1006   10.7854 O   0  0  0  0  0  0  0  0  0  0  0  0
   -2.6321   -4.4463   11.6292 H   0  0  0  0  0  0  0  0  0  0  0  0
 20 21  2  0  0  0
 21 22  1  0  0  0
 22 15  1  0  0  0
 15 16  1  0  0  0
 16 17  1  0  0  0
 17 18  1  0  0  0
 18 19  1  0  0  0
 19 14  1  0  0  0
 14 13  1  0  0  0
 13 11  1  0  0  0
 11 12  2  0  0  0
 11  1  1  0  0  0
  1  2  2  0  0  0
  2  3  1  0  0  0
  3  4  1  0  0  0
  3  5  2  0  0  0
  5 32  1  0  0  0
 32 33  2  0  0  0
 32 34  1  0  0  0
 34 35  2  0  0  0
 35 36  1  0  0  0
 35 37  1  0  0  0
 37 38  2  0  0  0
 38 39  1  0  0  0
 39 40  2  0  0  0
 40 42  1  0  0  0
 42 43  2  0  0  0
 42 44  1  0  0  0
  5  6  1  0  0  0
  6  7  1  0  0  0
  6  8  2  0  0  0
 21 24  1  0  0  0
 24 25  2  0  0  0
 25 26  1  0  0  0
 26 27  2  0  0  0
 27 28  1  0  0  0
 27 29  1  0  0  0
 29 30  2  0  0  0
 19 15  1  0  0  0
  8  1  1  0  0  0
 30 24  1  0  0  0
 40 34  1  0  0  0
 22 23  1  0  0  0
  4  9  1  0  0  0
 36 41  1  0  0  0
 44 45  1  0  0  0
  7 10  1  0  0  0
 28 31  1  0  0  0
M  END
> <minimizedAffinity>
-9.28946

> <CNNscore>
0.2520232201

> <CNNaffinity>
6.1522741318

> <CNN_VS>
1.5505158901

> <CNNaffinity_variance>
0.1403162628

$$$$
[H]OC(=O)c1c([H])c([H])c([H])c(O[H])c1C(=O)c1c(O[H])c([H])c(C(=O)OC([H])([H])[C@]2([H])C([H])([H])C([H])([H])C([H])([H])[C@@]2([H])N([H])C(=O)c2c([H])c([H])c(O[H])c([H])c2[H])c([H])c1O[H]


 45 48  0  0  0  0  0  0  0  0999 V2000
  -11.5159   -9.9656    6.5009 C   0  0  0  0  0  0  0  0  0  0  0  0
  -12.1206   -9.8478    5.2854 C   0  0  0  0  0  0  0  0  0  0  0  0
  -13.3354   -9.1636    5.1388 C   0  0  0  0  0  0  0  0  0  0  0  0
  -13.8502   -9.1025    3.8670 O   0  0  0  0  0  0  0  0  0  0  0  0
  -13.9724   -8.5820    6.2125 C   0  0  0  0  0  0  0  0  0  0  0  0
  -13.3437   -8.7091    7.4591 C   0  0  0  0  0  0  0  0  0  0  0  0
  -13.9009   -8.1642    8.6306 O   0  0  0  0  0  0  0  0  0  0  0  0
  -12.1518   -9.3847    7.5717 C   0  0  0  0  0  0  0  0  0  0  0  0
  -14.6507   -8.6742    3.5080 H   0  0  0  0  0  0  0  0  0  0  0  0
  -13.4393   -8.2656    9.4998 H   0  0  0  0  0  0  0  0  0  0  0  0
  -10.2314  -10.6827    6.6699 C   0  0  0  0  0  0  0  0  0  0  0  0
  -10.2510  -11.9176    6.5889 O   0  0  0  0  0  0  0  0  0  0  0  0
   -9.1100  -10.0311    6.8983 O   0  0  0  0  0  0  0  0  0  0  0  0
   -8.2286   -9.1740    6.3543 C   0  0  0  0  0  0  0  0  0  0  0  0
   -7.8036   -7.9088    8.3794 C   0  0  0  0  0  0  0  0  0  0  0  0
   -6.4335   -7.2831    8.4790 C   0  0  0  0  0  0  0  0  0  0  0  0
   -6.1773   -6.5086    7.2317 C   0  0  0  0  0  0  0  0  0  0  0  0
   -7.2923   -6.8428    6.2500 C   0  0  0  0  0  0  0  0  0  0  0  0
   -8.1777   -7.7970    6.8973 C   0  0  0  0  0  0  0  0  0  0  0  0
  -10.2376   -7.0596    7.4837 O   0  0  0  0  0  0  0  0  0  0  0  0
   -9.9964   -6.8337    8.7056 C   0  0  0  0  0  0  0  0  0  0  0  0
   -8.7651   -7.2410    9.2346 N   0  0  0  0  0  0  0  0  0  0  0  0
   -8.5403   -7.0612   10.2476 H   0  0  0  0  0  0  0  0  0  0  0  0
  -11.0004   -6.1695    9.4904 C   0  0  0  0  0  0  0  0  0  0  0  0
  -11.8285   -6.8866   10.3179 C   0  0  0  0  0  0  0  0  0  0  0  0
  -12.8094   -6.2517   11.0839 C   0  0  0  0  0  0  0  0  0  0  0  0
  -12.9461   -4.8875   11.0072 C   0  0  0  0  0  0  0  0  0  0  0  0
  -13.9204   -4.2336   11.7651 O   0  0  0  0  0  0  0  0  0  0  0  0
  -12.1129   -4.1688   10.1751 C   0  0  0  0  0  0  0  0  0  0  0  0
  -11.1440   -4.7857    9.4169 C   0  0  0  0  0  0  0  0  0  0  0  0
  -13.7307   -3.8945   12.6899 H   0  0  0  0  0  0  0  0  0  0  0  0
  -15.2780   -8.0075    6.2022 C   0  0  0  0  0  0  0  0  0  0  0  0
  -16.0576   -8.5128    7.1312 O   0  0  0  0  0  0  0  0  0  0  0  0
  -15.8854   -6.9855    5.3902 C   0  0  0  0  0  0  0  0  0  0  0  0
  -15.2419   -5.7252    5.4953 C   0  0  0  0  0  0  0  0  0  0  0  0
  -14.1322   -5.5940    6.3183 O   0  0  0  0  0  0  0  0  0  0  0  0
  -15.6746   -4.6300    4.8140 C   0  0  0  0  0  0  0  0  0  0  0  0
  -16.7746   -4.7924    4.0084 C   0  0  0  0  0  0  0  0  0  0  0  0
  -17.4137   -5.9862    3.8910 C   0  0  0  0  0  0  0  0  0  0  0  0
  -16.9721   -7.1417    4.6036 C   0  0  0  0  0  0  0  0  0  0  0  0
  -13.6852   -4.6964    6.3836 H   0  0  0  0  0  0  0  0  0  0  0  0
  -17.8504   -8.2895    4.5800 C   0  0  0  0  0  0  0  0  0  0  0  0
  -19.0448   -8.1068    4.1629 O   0  0  0  0  0  0  0  0  0  0  0  0
  -17.5640   -9.5521    4.9610 O   0  0  0  0  0  0  0  0  0  0  0  0
  -18.2108  -10.2923    5.1482 H   0  0  0  0  0  0  0  0  0  0  0  0
 20 21  2  0  0  0
 21 22  1  0  0  0
 22 15  1  0  0  0
 15 16  1  0  0  0
 16 17  1  0  0  0
 17 18  1  0  0  0
 18 19  1  0  0  0
 19 14  1  0  0  0
 14 13  1  0  0  0
 13 11  1  0  0  0
 11 12  2  0  0  0
 11  1  1  0  0  0
  1  2  2  0  0  0
  2  3  1  0  0  0
  3  4  1  0  0  0
  3  5  2  0  0  0
  5 32  1  0  0  0
 32 33  2  0  0  0
 32 34  1  0  0  0
 34 35  2  0  0  0
 35 36  1  0  0  0
 35 37  1  0  0  0
 37 38  2  0  0  0
 38 39  1  0  0  0
 39 40  2  0  0  0
 40 42  1  0  0  0
 42 43  2  0  0  0
 42 44  1  0  0  0
  5  6  1  0  0  0
  6  7  1  0  0  0
  6  8  2  0  0  0
 21 24  1  0  0  0
 24 25  2  0  0  0
 25 26  1  0  0  0
 26 27  2  0  0  0
 27 28  1  0  0  0
 27 29  1  0  0  0
 29 30  2  0  0  0
 19 15  1  0  0  0
  8  1  1  0  0  0
 30 24  1  0  0  0
 40 34  1  0  0  0
 22 23  1  0  0  0
  4  9  1  0  0  0
 36 41  1  0  0  0
 44 45  1  0  0  0
  7 10  1  0  0  0
 28 31  1  0  0  0
M  END
> <minimizedAffinity>
-3.03939

> <CNNscore>
0.2177387476

> <CNNaffinity>
6.3332810402

> <CNN_VS>
1.3790006638

> <CNNaffinity_variance>
0.1864844710

$$$$
[H]OC(=O)c1c([H])c([H])c([H])c(O[H])c1C(=O)c1c(O[H])c([H])c(C(=O)OC([H])([H])[C@]2([H])C([H])([H])C([H])([H])C([H])([H])[C@@]2([H])N([H])C(=O)c2c([H])c([H])c(O[H])c([H])c2[H])c([H])c1O[H]


 45 48  0  0  0  0  0  0  0  0999 V2000
   -7.1189   -8.4331    7.1235 C   0  0  0  0  0  0  0  0  0  0  0  0
   -7.2994   -7.4865    6.1598 C   0  0  0  0  0  0  0  0  0  0  0  0
   -6.2630   -6.6194    5.7866 C   0  0  0  0  0  0  0  0  0  0  0  0
   -6.5560   -5.7092    4.8007 O   0  0  0  0  0  0  0  0  0  0  0  0
   -5.0195   -6.6827    6.3751 C   0  0  0  0  0  0  0  0  0  0  0  0
   -4.8432   -7.6586    7.3661 C   0  0  0  0  0  0  0  0  0  0  0  0
   -3.6205   -7.8155    8.0444 O   0  0  0  0  0  0  0  0  0  0  0  0
   -5.8778   -8.4959    7.7099 C   0  0  0  0  0  0  0  0  0  0  0  0
   -6.0120   -5.0293    4.3592 H   0  0  0  0  0  0  0  0  0  0  0  0
   -3.5185   -8.5115    8.7401 H   0  0  0  0  0  0  0  0  0  0  0  0
   -8.2036   -9.3575    7.5255 C   0  0  0  0  0  0  0  0  0  0  0  0
   -7.8766  -10.4239    8.0620 O   0  0  0  0  0  0  0  0  0  0  0  0
   -9.4690   -9.0566    7.3196 O   0  0  0  0  0  0  0  0  0  0  0  0
  -10.6431   -8.8425    7.9387 C   0  0  0  0  0  0  0  0  0  0  0  0
  -12.5049   -7.4915    8.7072 C   0  0  0  0  0  0  0  0  0  0  0  0
  -12.3192   -6.8352   10.0538 C   0  0  0  0  0  0  0  0  0  0  0  0
  -11.0201   -6.1048   10.0470 C   0  0  0  0  0  0  0  0  0  0  0  0
  -10.2818   -6.4989    8.7748 C   0  0  0  0  0  0  0  0  0  0  0  0
  -11.1188   -7.4448    8.0549 C   0  0  0  0  0  0  0  0  0  0  0  0
  -14.0632   -8.7823    6.8758 O   0  0  0  0  0  0  0  0  0  0  0  0
  -14.2694   -7.5384    6.9880 C   0  0  0  0  0  0  0  0  0  0  0  0
  -13.5048   -6.8103    7.9084 N   0  0  0  0  0  0  0  0  0  0  0  0
  -13.6560   -5.7738    8.0173 H   0  0  0  0  0  0  0  0  0  0  0  0
  -15.2800   -6.9347    6.1638 C   0  0  0  0  0  0  0  0  0  0  0  0
  -16.5303   -7.4935    6.0688 C   0  0  0  0  0  0  0  0  0  0  0  0
  -17.5199   -6.9164    5.2690 C   0  0  0  0  0  0  0  0  0  0  0  0
  -17.2359   -5.7708    4.5672 C   0  0  0  0  0  0  0  0  0  0  0  0
  -18.2115   -5.1779    3.7621 O   0  0  0  0  0  0  0  0  0  0  0  0
  -15.9789   -5.2108    4.6641 C   0  0  0  0  0  0  0  0  0  0  0  0
  -14.9979   -5.7724    5.4493 C   0  0  0  0  0  0  0  0  0  0  0  0
  -18.8409   -4.4836    4.1197 H   0  0  0  0  0  0  0  0  0  0  0  0
   -3.9543   -5.7528    6.1865 C   0  0  0  0  0  0  0  0  0  0  0  0
   -3.7635   -4.9862    7.2364 O   0  0  0  0  0  0  0  0  0  0  0  0
   -3.0555   -5.5119    5.0880 C   0  0  0  0  0  0  0  0  0  0  0  0
   -2.0168   -6.4734    4.9880 C   0  0  0  0  0  0  0  0  0  0  0  0
   -1.9650   -7.5170    5.9013 O   0  0  0  0  0  0  0  0  0  0  0  0
   -1.0605   -6.4114    4.0223 C   0  0  0  0  0  0  0  0  0  0  0  0
   -1.1394   -5.3672    3.1342 C   0  0  0  0  0  0  0  0  0  0  0  0
   -2.1204   -4.4294    3.2076 C   0  0  0  0  0  0  0  0  0  0  0  0
   -3.1270   -4.4808    4.2185 C   0  0  0  0  0  0  0  0  0  0  0  0
   -1.2247   -8.1916    5.8194 H   0  0  0  0  0  0  0  0  0  0  0  0
   -3.9803   -3.3204    4.3396 C   0  0  0  0  0  0  0  0  0  0  0  0
   -4.3965   -2.7818    3.2577 O   0  0  0  0  0  0  0  0  0  0  0  0
   -4.3915   -2.7168    5.4746 O   0  0  0  0  0  0  0  0  0  0  0  0
   -4.7967   -1.8066    5.5668 H   0  0  0  0  0  0  0  0  0  0  0  0
 20 21  2  0  0  0
 21 22  1  0  0  0
 22 15  1  0  0  0
 15 16  1  0  0  0
 16 17  1  0  0  0
 17 18  1  0  0  0
 18 19  1  0  0  0
 19 14  1  0  0  0
 14 13  1  0  0  0
 13 11  1  0  0  0
 11 12  2  0  0  0
 11  1  1  0  0  0
  1  2  2  0  0  0
  2  3  1  0  0  0
  3  4  1  0  0  0
  3  5  2  0  0  0
  5 32  1  0  0  0
 32 33  2  0  0  0
 32 34  1  0  0  0
 34 35  2  0  0  0
 35 36  1  0  0  0
 35 37  1  0  0  0
 37 38  2  0  0  0
 38 39  1  0  0  0
 39 40  2  0  0  0
 40 42  1  0  0  0
 42 43  2  0  0  0
 42 44  1  0  0  0
  5  6  1  0  0  0
  6  7  1  0  0  0
  6  8  2  0  0  0
 21 24  1  0  0  0
 24 25  2  0  0  0
 25 26  1  0  0  0
 26 27  2  0  0  0
 27 28  1  0  0  0
 27 29  1  0  0  0
 29 30  2  0  0  0
 19 15  1  0  0  0
  8  1  1  0  0  0
 30 24  1  0  0  0
 40 34  1  0  0  0
 22 23  1  0  0  0
  4  9  1  0  0  0
 36 41  1  0  0  0
 44 45  1  0  0  0
  7 10  1  0  0  0
 28 31  1  0  0  0
M  END
> <minimizedAffinity>
-9.91020

> <CNNscore>
0.2169315368

> <CNNaffinity>
6.1732468605

> <CNN_VS>
1.3391718864

> <CNNaffinity_variance>
0.0595588014

$$$$
[H]OC(=O)c1c([H])c([H])c([H])c(O[H])c1C(=O)c1c(O[H])c([H])c(C(=O)OC([H])([H])[C@]2([H])C([H])([H])C([H])([H])C([H])([H])[C@@]2([H])N([H])C(=O)c2c([H])c([H])c(O[H])c([H])c2[H])c([H])c1O[H]


 45 48  0  0  0  0  0  0  0  0999 V2000
   -7.1473   -8.4352    7.1016 C   0  0  0  0  0  0  0  0  0  0  0  0
   -7.3608   -7.5241    6.1110 C   0  0  0  0  0  0  0  0  0  0  0  0
   -6.3823   -6.5822    5.7636 C   0  0  0  0  0  0  0  0  0  0  0  0
   -6.7039   -5.7169    4.7467 O   0  0  0  0  0  0  0  0  0  0  0  0
   -5.1649   -6.5333    6.4056 C   0  0  0  0  0  0  0  0  0  0  0  0
   -4.9543   -7.4736    7.4240 C   0  0  0  0  0  0  0  0  0  0  0  0
   -3.7541   -7.5180    8.1570 O   0  0  0  0  0  0  0  0  0  0  0  0
   -5.9323   -8.3861    7.7415 C   0  0  0  0  0  0  0  0  0  0  0  0
   -6.1976   -5.0030    4.3142 H   0  0  0  0  0  0  0  0  0  0  0  0
   -3.6272   -8.1908    8.8712 H   0  0  0  0  0  0  0  0  0  0  0  0
   -8.1706   -9.4375    7.4770 C   0  0  0  0  0  0  0  0  0  0  0  0
   -7.7860  -10.4515    8.0737 O   0  0  0  0  0  0  0  0  0  0  0  0
   -9.4423   -9.2574    7.1865 O   0  0  0  0  0  0  0  0  0  0  0  0
  -10.6466   -8.9956    7.7238 C   0  0  0  0  0  0  0  0  0  0  0  0
  -12.4120   -7.5559    8.5564 C   0  0  0  0  0  0  0  0  0  0  0  0
  -12.1242   -6.8673    9.8685 C   0  0  0  0  0  0  0  0  0  0  0  0
  -10.8034   -6.1850    9.7630 C   0  0  0  0  0  0  0  0  0  0  0  0
  -10.1559   -6.6429    8.4631 C   0  0  0  0  0  0  0  0  0  0  0  0
  -11.0662   -7.5787    7.8233 C   0  0  0  0  0  0  0  0  0  0  0  0
  -14.0473   -8.8261    6.7787 O   0  0  0  0  0  0  0  0  0  0  0  0
  -14.2375   -7.5807    6.9018 C   0  0  0  0  0  0  0  0  0  0  0  0
  -13.4334   -6.8628    7.7961 N   0  0  0  0  0  0  0  0  0  0  0  0
  -13.5707   -5.8252    7.9133 H   0  0  0  0  0  0  0  0  0  0  0  0
  -15.2713   -6.9649    6.1162 C   0  0  0  0  0  0  0  0  0  0  0  0
  -15.0467   -5.7701    5.4785 C   0  0  0  0  0  0  0  0  0  0  0  0
  -16.0450   -5.1614    4.7138 C   0  0  0  0  0  0  0  0  0  0  0  0
  -17.2708   -5.7695    4.5987 C   0  0  0  0  0  0  0  0  0  0  0  0
  -18.2822   -5.1774    3.8386 O   0  0  0  0  0  0  0  0  0  0  0  0
  -17.4945   -6.9701    5.2403 C   0  0  0  0  0  0  0  0  0  0  0  0
  -16.5171   -7.5770    5.9957 C   0  0  0  0  0  0  0  0  0  0  0  0
  -18.3916   -5.3733    2.8610 H   0  0  0  0  0  0  0  0  0  0  0  0
   -4.1709   -5.5232    6.2425 C   0  0  0  0  0  0  0  0  0  0  0  0
   -4.1207   -4.6969    7.2628 O   0  0  0  0  0  0  0  0  0  0  0  0
   -3.2193   -5.2539    5.1962 C   0  0  0  0  0  0  0  0  0  0  0  0
   -3.5984   -4.1778    4.3526 C   0  0  0  0  0  0  0  0  0  0  0  0
   -4.7852   -3.5031    4.6017 O   0  0  0  0  0  0  0  0  0  0  0  0
   -2.8363   -3.7780    3.2989 C   0  0  0  0  0  0  0  0  0  0  0  0
   -1.6683   -4.4656    3.0790 C   0  0  0  0  0  0  0  0  0  0  0  0
   -1.2814   -5.5026    3.8678 C   0  0  0  0  0  0  0  0  0  0  0  0
   -2.0741   -5.9344    4.9737 C   0  0  0  0  0  0  0  0  0  0  0  0
   -5.0422   -2.7425    3.9971 H   0  0  0  0  0  0  0  0  0  0  0  0
   -1.6843   -7.1768    5.6014 C   0  0  0  0  0  0  0  0  0  0  0  0
   -1.1887   -7.1105    6.7778 O   0  0  0  0  0  0  0  0  0  0  0  0
   -1.7704   -8.4211    5.0858 O   0  0  0  0  0  0  0  0  0  0  0  0
   -1.3160   -9.2490    5.4164 H   0  0  0  0  0  0  0  0  0  0  0  0
 20 21  2  0  0  0
 21 22  1  0  0  0
 22 15  1  0  0  0
 15 16  1  0  0  0
 16 17  1  0  0  0
 17 18  1  0  0  0
 18 19  1  0  0  0
 19 14  1  0  0  0
 14 13  1  0  0  0
 13 11  1  0  0  0
 11 12  2  0  0  0
 11  1  1  0  0  0
  1  2  2  0  0  0
  2  3  1  0  0  0
  3  4  1  0  0  0
  3  5  2  0  0  0
  5 32  1  0  0  0
 32 33  2  0  0  0
 32 34  1  0  0  0
 34 35  2  0  0  0
 35 36  1  0  0  0
 35 37  1  0  0  0
 37 38  2  0  0  0
 38 39  1  0  0  0
 39 40  2  0  0  0
 40 42  1  0  0  0
 42 43  2  0  0  0
 42 44  1  0  0  0
  5  6  1  0  0  0
  6  7  1  0  0  0
  6  8  2  0  0  0
 21 24  1  0  0  0
 24 25  2  0  0  0
 25 26  1  0  0  0
 26 27  2  0  0  0
 27 28  1  0  0  0
 27 29  1  0  0  0
 29 30  2  0  0  0
 19 15  1  0  0  0
  8  1  1  0  0  0
 30 24  1  0  0  0
 40 34  1  0  0  0
 22 23  1  0  0  0
  4  9  1  0  0  0
 36 41  1  0  0  0
 44 45  1  0  0  0
  7 10  1  0  0  0
 28 31  1  0  0  0
M  END
> <minimizedAffinity>
-9.99501

> <CNNscore>
0.2053857297

> <CNNaffinity>
6.1035432816

> <CNN_VS>
1.2535806894

> <CNNaffinity_variance>
0.0475877002

$$$$
[H]OC(=O)c1c([H])c([H])c([H])c(O[H])c1C(=O)c1c(O[H])c([H])c(C(=O)OC([H])([H])[C@]2([H])C([H])([H])C([H])([H])C([H])([H])[C@@]2([H])N([H])C(=O)c2c([H])c([H])c(O[H])c([H])c2[H])c([H])c1O[H]


 45 48  0  0  0  0  0  0  0  0999 V2000
  -11.7451   -8.9659    6.9820 C   0  0  0  0  0  0  0  0  0  0  0  0
  -12.5806   -9.5360    6.0688 C   0  0  0  0  0  0  0  0  0  0  0  0
  -13.8533   -9.0060    5.8144 C   0  0  0  0  0  0  0  0  0  0  0  0
  -14.6070   -9.6586    4.8698 O   0  0  0  0  0  0  0  0  0  0  0  0
  -14.3171   -7.8895    6.4740 C   0  0  0  0  0  0  0  0  0  0  0  0
  -13.4514   -7.3103    7.4124 C   0  0  0  0  0  0  0  0  0  0  0  0
  -13.8153   -6.1716    8.1545 O   0  0  0  0  0  0  0  0  0  0  0  0
  -12.2084   -7.8517    7.6394 C   0  0  0  0  0  0  0  0  0  0  0  0
  -15.4943   -9.4773    4.5054 H   0  0  0  0  0  0  0  0  0  0  0  0
  -13.1879   -5.7793    8.8112 H   0  0  0  0  0  0  0  0  0  0  0  0
  -10.3973   -9.5132    7.2585 C   0  0  0  0  0  0  0  0  0  0  0  0
  -10.1199  -10.6198    6.7784 O   0  0  0  0  0  0  0  0  0  0  0  0
   -9.5262   -8.8478    7.9884 O   0  0  0  0  0  0  0  0  0  0  0  0
   -8.2306   -8.4989    8.0732 C   0  0  0  0  0  0  0  0  0  0  0  0
   -6.3437   -7.1139    7.4377 C   0  0  0  0  0  0  0  0  0  0  0  0
   -6.1875   -6.8685    5.9565 C   0  0  0  0  0  0  0  0  0  0  0  0
   -7.4891   -6.3791    5.4200 C   0  0  0  0  0  0  0  0  0  0  0  0
   -8.5271   -6.5421    6.5222 C   0  0  0  0  0  0  0  0  0  0  0  0
   -7.8578   -7.1218    7.6753 C   0  0  0  0  0  0  0  0  0  0  0  0
   -3.6714   -7.1905    7.9862 O   0  0  0  0  0  0  0  0  0  0  0  0
   -4.2991   -6.2017    8.4664 C   0  0  0  0  0  0  0  0  0  0  0  0
   -5.6751   -6.0976    8.2262 N   0  0  0  0  0  0  0  0  0  0  0  0
   -6.2193   -5.2856    8.6180 H   0  0  0  0  0  0  0  0  0  0  0  0
   -3.5667   -5.2335    9.2353 C   0  0  0  0  0  0  0  0  0  0  0  0
   -2.3071   -4.8446    8.8522 C   0  0  0  0  0  0  0  0  0  0  0  0
   -1.5850   -3.9056    9.5931 C   0  0  0  0  0  0  0  0  0  0  0  0
   -2.1460   -3.3631   10.7230 C   0  0  0  0  0  0  0  0  0  0  0  0
   -1.4408   -2.4226   11.4776 O   0  0  0  0  0  0  0  0  0  0  0  0
   -3.4119   -3.7552   11.1063 C   0  0  0  0  0  0  0  0  0  0  0  0
   -4.1304   -4.6795   10.3827 C   0  0  0  0  0  0  0  0  0  0  0  0
   -1.5105   -1.4388   11.2943 H   0  0  0  0  0  0  0  0  0  0  0  0
  -15.6431   -7.3678    6.4092 C   0  0  0  0  0  0  0  0  0  0  0  0
  -16.2363   -7.3537    7.5814 O   0  0  0  0  0  0  0  0  0  0  0  0
  -16.4330   -6.8488    5.3232 C   0  0  0  0  0  0  0  0  0  0  0  0
  -17.5187   -7.6888    4.9639 C   0  0  0  0  0  0  0  0  0  0  0  0
  -17.7246   -8.8709    5.6612 O   0  0  0  0  0  0  0  0  0  0  0  0
  -18.3740   -7.3774    3.9528 C   0  0  0  0  0  0  0  0  0  0  0  0
  -18.1436   -6.2014    3.2824 C   0  0  0  0  0  0  0  0  0  0  0  0
  -17.1096   -5.3790    3.6016 C   0  0  0  0  0  0  0  0  0  0  0  0
  -16.2029   -5.6964    4.6575 C   0  0  0  0  0  0  0  0  0  0  0  0
  -18.4973   -9.4567    5.3974 H   0  0  0  0  0  0  0  0  0  0  0  0
  -15.0200   -4.8722    4.7623 C   0  0  0  0  0  0  0  0  0  0  0  0
  -13.9414   -5.3244    4.2465 O   0  0  0  0  0  0  0  0  0  0  0  0
  -14.9082   -3.6662    5.3577 O   0  0  0  0  0  0  0  0  0  0  0  0
  -14.0662   -3.1932    5.6196 H   0  0  0  0  0  0  0  0  0  0  0  0
 20 21  2  0  0  0
 21 22  1  0  0  0
 22 15  1  0  0  0
 15 16  1  0  0  0
 16 17  1  0  0  0
 17 18  1  0  0  0
 18 19  1  0  0  0
 19 14  1  0  0  0
 14 13  1  0  0  0
 13 11  1  0  0  0
 11 12  2  0  0  0
 11  1  1  0  0  0
  1  2  2  0  0  0
  2  3  1  0  0  0
  3  4  1  0  0  0
  3  5  2  0  0  0
  5 32  1  0  0  0
 32 33  2  0  0  0
 32 34  1  0  0  0
 34 35  2  0  0  0
 35 36  1  0  0  0
 35 37  1  0  0  0
 37 38  2  0  0  0
 38 39  1  0  0  0
 39 40  2  0  0  0
 40 42  1  0  0  0
 42 43  2  0  0  0
 42 44  1  0  0  0
  5  6  1  0  0  0
  6  7  1  0  0  0
  6  8  2  0  0  0
 21 24  1  0  0  0
 24 25  2  0  0  0
 25 26  1  0  0  0
 26 27  2  0  0  0
 27 28  1  0  0  0
 27 29  1  0  0  0
 29 30  2  0  0  0
 19 15  1  0  0  0
  8  1  1  0  0  0
 30 24  1  0  0  0
 40 34  1  0  0  0
 22 23  1  0  0  0
  4  9  1  0  0  0
 36 41  1  0  0  0
 44 45  1  0  0  0
  7 10  1  0  0  0
 28 31  1  0  0  0
M  END
> <minimizedAffinity>
-8.96754

> <CNNscore>
0.1978406310

> <CNNaffinity>
5.9655714035

> <CNN_VS>
1.1802324057

> <CNNaffinity_variance>
0.1024610773

$$$$
[H]OC(=O)C([H])([H])C([H])([H])c1c2c(n([H])c1C([H])=C1C(=O)N([H])c3c([H])c([H])c(S(=O)(=O)N([H])C([H])([H])[H])c([H])c31)C([H])([H])C([H])([H])C([H])([H])C2=O


 35 38  0  0  0  0  0  0  0  0999 V2000
  -15.7738   -7.0435    4.8825 C   0  0  0  0  0  0  0  0  0  0  0  0
  -16.7218   -8.0357    5.0119 C   0  0  0  0  0  0  0  0  0  0  0  0
  -16.9937   -8.6070    6.2312 C   0  0  0  0  0  0  0  0  0  0  0  0
  -16.3231   -8.2089    7.3946 C   0  0  0  0  0  0  0  0  0  0  0  0
  -15.3754   -7.2186    7.2715 C   0  0  0  0  0  0  0  0  0  0  0  0
  -15.1251   -6.6613    6.0183 C   0  0  0  0  0  0  0  0  0  0  0  0
  -14.7700   -6.9167    8.5853 C   0  0  0  0  0  0  0  0  0  0  0  0
  -13.8577   -6.0094    8.8219 C   0  0  0  0  0  0  0  0  0  0  0  0
  -15.4586   -7.8280    9.4857 C   0  0  0  0  0  0  0  0  0  0  0  0
  -15.2856   -7.9431   10.7260 O   0  0  0  0  0  0  0  0  0  0  0  0
  -16.4082   -8.6159    8.7443 N   0  0  0  0  0  0  0  0  0  0  0  0
  -17.0447   -9.3485    9.1090 H   0  0  0  0  0  0  0  0  0  0  0  0
  -13.2447   -5.6952   10.0972 C   0  0  0  0  0  0  0  0  0  0  0  0
  -13.1560   -4.5798   10.8187 N   0  0  0  0  0  0  0  0  0  0  0  0
  -12.4507   -4.7812   11.9486 C   0  0  0  0  0  0  0  0  0  0  0  0
  -12.0513   -6.1002   11.9781 C   0  0  0  0  0  0  0  0  0  0  0  0
  -12.5475   -6.6659   10.8246 C   0  0  0  0  0  0  0  0  0  0  0  0
  -11.2693   -6.5534   13.1144 C   0  0  0  0  0  0  0  0  0  0  0  0
  -11.3559   -7.7640   13.4343 O   0  0  0  0  0  0  0  0  0  0  0  0
  -10.3860   -5.6413   13.8938 C   0  0  0  0  0  0  0  0  0  0  0  0
  -10.5463   -4.2233   13.3281 C   0  0  0  0  0  0  0  0  0  0  0  0
  -12.0356   -3.9311   13.1062 C   0  0  0  0  0  0  0  0  0  0  0  0
  -13.5678   -3.6695   10.5937 H   0  0  0  0  0  0  0  0  0  0  0  0
  -12.3556   -8.0690   10.4576 C   0  0  0  0  0  0  0  0  0  0  0  0
  -11.4373   -8.2775    9.2744 C   0  0  0  0  0  0  0  0  0  0  0  0
  -12.1441   -9.1636    8.3251 C   0  0  0  0  0  0  0  0  0  0  0  0
  -12.2443   -8.8683    7.1193 O   0  0  0  0  0  0  0  0  0  0  0  0
  -12.7036  -10.3398    8.7819 O   0  0  0  0  0  0  0  0  0  0  0  0
  -13.4052  -10.3860    9.5088 H   0  0  0  0  0  0  0  0  0  0  0  0
  -15.4131   -6.2940    3.3534 S   0  0  0  0  0  0  0  0  0  0  0  0
  -16.7251   -5.9449    2.7085 O   0  0  0  0  0  0  0  0  0  0  0  0
  -14.6879   -7.2279    2.4518 O   0  0  0  0  0  0  0  0  0  0  0  0
  -14.9156   -4.0761    4.6790 C   0  0  0  0  0  0  0  0  0  0  0  0
  -14.5121   -4.8419    3.5143 N   0  0  0  0  0  0  0  0  0  0  0  0
  -14.4557   -4.2838    2.6599 H   0  0  0  0  0  0  0  0  0  0  0  0
 33 34  1  0  0  0
 34 30  1  0  0  0
 30 31  2  0  0  0
 30 32  2  0  0  0
 30  1  1  0  0  0
  1  2  2  0  0  0
  2  3  1  0  0  0
  3  4  2  0  0  0
  4  5  1  0  0  0
  5  6  2  0  0  0
  5  7  1  0  0  0
  7  8  2  0  0  0
  8 13  1  0  0  0
 13 14  1  0  0  0
 14 15  1  0  0  0
 15 16  2  0  0  0
 16 17  1  0  0  0
 17 24  1  0  0  0
 24 25  1  0  0  0
 25 26  1  0  0  0
 26 27  2  0  0  0
 26 28  1  0  0  0
 16 18  1  0  0  0
 18 19  2  0  0  0
 18 20  1  0  0  0
 20 21  1  0  0  0
 21 22  1  0  0  0
  7  9  1  0  0  0
  9 10  2  0  0  0
  9 11  1  0  0  0
  6  1  1  0  0  0
 17 13  2  0  0  0
 11  4  1  0  0  0
 22 15  1  0  0  0
 34 35  1  0  0  0
 14 23  1  0  0  0
 28 29  1  0  0  0
 11 12  1  0  0  0
M  END
> <minimizedAffinity>
11.84272

> <CNNscore>
0.5325769782

> <CNNaffinity>
6.9097242355

> <CNN_VS>
3.6799600124

> <CNNaffinity_variance>
0.8050639033

$$$$
[H]OC(=O)C([H])([H])C([H])([H])c1c2c(n([H])c1C([H])=C1C(=O)N([H])c3c([H])c([H])c(S(=O)(=O)N([H])C([H])([H])[H])c([H])c31)C([H])([H])C([H])([H])C([H])([H])C2=O


 35 38  0  0  0  0  0  0  0  0999 V2000
  -12.3186   -5.8615   11.6477 C   0  0  0  0  0  0  0  0  0  0  0  0
  -12.2931   -4.4853   11.5746 C   0  0  0  0  0  0  0  0  0  0  0  0
  -12.7074   -3.8238   10.4443 C   0  0  0  0  0  0  0  0  0  0  0  0
  -13.1732   -4.5145    9.3184 C   0  0  0  0  0  0  0  0  0  0  0  0
  -13.2008   -5.8888    9.3855 C   0  0  0  0  0  0  0  0  0  0  0  0
  -12.7726   -6.5270   10.5487 C   0  0  0  0  0  0  0  0  0  0  0  0
  -13.7195   -6.4574    8.1240 C   0  0  0  0  0  0  0  0  0  0  0  0
  -13.8983   -7.7279    7.8688 C   0  0  0  0  0  0  0  0  0  0  0  0
  -13.9918   -5.2792    7.3158 C   0  0  0  0  0  0  0  0  0  0  0  0
  -14.4537   -5.2523    6.1464 O   0  0  0  0  0  0  0  0  0  0  0  0
  -13.6524   -4.0936    8.0583 N   0  0  0  0  0  0  0  0  0  0  0  0
  -13.7351   -3.1075    7.7489 H   0  0  0  0  0  0  0  0  0  0  0  0
  -14.4007   -8.3127    6.6413 C   0  0  0  0  0  0  0  0  0  0  0  0
  -13.8276   -8.9963    5.6529 N   0  0  0  0  0  0  0  0  0  0  0  0
  -14.7196   -9.3140    4.6948 C   0  0  0  0  0  0  0  0  0  0  0  0
  -15.9493   -8.8155    5.0682 C   0  0  0  0  0  0  0  0  0  0  0  0
  -15.7471   -8.1933    6.2801 C   0  0  0  0  0  0  0  0  0  0  0  0
  -17.0766   -9.0384    4.1805 C   0  0  0  0  0  0  0  0  0  0  0  0
  -18.2202   -9.0920    4.6950 O   0  0  0  0  0  0  0  0  0  0  0  0
  -16.9167   -9.2012    2.7082 C   0  0  0  0  0  0  0  0  0  0  0  0
  -15.4165   -9.1719    2.3850 C   0  0  0  0  0  0  0  0  0  0  0  0
  -14.6630  -10.0481    3.3936 C   0  0  0  0  0  0  0  0  0  0  0  0
  -12.8458   -9.2812    5.5933 H   0  0  0  0  0  0  0  0  0  0  0  0
  -16.8046   -7.5267    7.0400 C   0  0  0  0  0  0  0  0  0  0  0  0
  -16.8784   -6.0332    6.8153 C   0  0  0  0  0  0  0  0  0  0  0  0
  -17.4705   -5.8226    5.4770 C   0  0  0  0  0  0  0  0  0  0  0  0
  -18.7011   -5.7030    5.3275 O   0  0  0  0  0  0  0  0  0  0  0  0
  -16.6457   -5.7573    4.3722 O   0  0  0  0  0  0  0  0  0  0  0  0
  -16.0176   -6.4989    4.0922 H   0  0  0  0  0  0  0  0  0  0  0  0
  -11.8088   -6.7281   13.0686 S   0  0  0  0  0  0  0  0  0  0  0  0
  -12.1450   -5.8712   14.2569 O   0  0  0  0  0  0  0  0  0  0  0  0
  -10.3396   -6.9572   13.0637 O   0  0  0  0  0  0  0  0  0  0  0  0
  -13.3640   -8.6058   12.0790 C   0  0  0  0  0  0  0  0  0  0  0  0
  -12.6190   -8.2284   13.2658 N   0  0  0  0  0  0  0  0  0  0  0  0
  -13.1622   -8.3041   14.1283 H   0  0  0  0  0  0  0  0  0  0  0  0
 33 34  1  0  0  0
 34 30  1  0  0  0
 30 31  2  0  0  0
 30 32  2  0  0  0
 30  1  1  0  0  0
  1  2  2  0  0  0
  2  3  1  0  0  0
  3  4  2  0  0  0
  4  5  1  0  0  0
  5  6  2  0  0  0
  5  7  1  0  0  0
  7  8  2  0  0  0
  8 13  1  0  0  0
 13 14  1  0  0  0
 14 15  1  0  0  0
 15 16  2  0  0  0
 16 17  1  0  0  0
 17 24  1  0  0  0
 24 25  1  0  0  0
 25 26  1  0  0  0
 26 27  2  0  0  0
 26 28  1  0  0  0
 16 18  1  0  0  0
 18 19  2  0  0  0
 18 20  1  0  0  0
 20 21  1  0  0  0
 21 22  1  0  0  0
  7  9  1  0  0  0
  9 10  2  0  0  0
  9 11  1  0  0  0
  6  1  1  0  0  0
 17 13  2  0  0  0
 11  4  1  0  0  0
 22 15  1  0  0  0
 34 35  1  0  0  0
 14 23  1  0  0  0
 28 29  1  0  0  0
 11 12  1  0  0  0
M  END
> <minimizedAffinity>
25.54337

> <CNNscore>
0.4652547836

> <CNNaffinity>
6.3010845184

> <CNN_VS>
2.9316096306

> <CNNaffinity_variance>
0.7610958815

$$$$
[H]OC(=O)C([H])([H])C([H])([H])c1c2c(n([H])c1C([H])=C1C(=O)N([H])c3c([H])c([H])c(S(=O)(=O)N([H])C([H])([H])[H])c([H])c31)C([H])([H])C([H])([H])C([H])([H])C2=O


 35 38  0  0  0  0  0  0  0  0999 V2000
  -12.1461   -5.3413   11.6656 C   0  0  0  0  0  0  0  0  0  0  0  0
  -11.9624   -3.9793   11.5593 C   0  0  0  0  0  0  0  0  0  0  0  0
  -12.4377   -3.2783   10.4778 C   0  0  0  0  0  0  0  0  0  0  0  0
  -13.1284   -3.9127    9.4375 C   0  0  0  0  0  0  0  0  0  0  0  0
  -13.3148   -5.2725    9.5382 C   0  0  0  0  0  0  0  0  0  0  0  0
  -12.8186   -5.9519   10.6499 C   0  0  0  0  0  0  0  0  0  0  0  0
  -14.0604   -5.7799    8.3676 C   0  0  0  0  0  0  0  0  0  0  0  0
  -14.4252   -7.0200    8.1661 C   0  0  0  0  0  0  0  0  0  0  0  0
  -14.2905   -4.5820    7.5756 C   0  0  0  0  0  0  0  0  0  0  0  0
  -14.8954   -4.5050    6.4756 O   0  0  0  0  0  0  0  0  0  0  0  0
  -13.7140   -3.4432    8.2412 N   0  0  0  0  0  0  0  0  0  0  0  0
  -13.7155   -2.4564    7.9232 H   0  0  0  0  0  0  0  0  0  0  0  0
  -15.1523   -7.5453    7.0275 C   0  0  0  0  0  0  0  0  0  0  0  0
  -16.4474   -7.6329    6.7312 N   0  0  0  0  0  0  0  0  0  0  0  0
  -16.6388   -8.2355    5.5418 C   0  0  0  0  0  0  0  0  0  0  0  0
  -15.4053   -8.5641    5.0216 C   0  0  0  0  0  0  0  0  0  0  0  0
  -14.4827   -8.1329    5.9487 C   0  0  0  0  0  0  0  0  0  0  0  0
  -15.3615   -9.2299    3.7320 C   0  0  0  0  0  0  0  0  0  0  0  0
  -14.3406   -9.0573    3.0227 O   0  0  0  0  0  0  0  0  0  0  0  0
  -16.4706  -10.0937    3.2385 C   0  0  0  0  0  0  0  0  0  0  0  0
  -17.6050  -10.0504    4.2717 C   0  0  0  0  0  0  0  0  0  0  0  0
  -17.8309   -8.6001    4.7166 C   0  0  0  0  0  0  0  0  0  0  0  0
  -17.2299   -7.2866    7.2939 H   0  0  0  0  0  0  0  0  0  0  0  0
  -13.0362   -8.2821    5.7887 C   0  0  0  0  0  0  0  0  0  0  0  0
  -12.2707   -8.3106    7.0925 C   0  0  0  0  0  0  0  0  0  0  0  0
  -11.8134   -9.7013    7.2991 C   0  0  0  0  0  0  0  0  0  0  0  0
  -10.6546  -10.0499    7.0045 O   0  0  0  0  0  0  0  0  0  0  0  0
  -12.6855  -10.6314    7.8278 O   0  0  0  0  0  0  0  0  0  0  0  0
  -13.5729  -10.8753    7.4084 H   0  0  0  0  0  0  0  0  0  0  0  0
  -11.5637   -6.2558   13.0274 S   0  0  0  0  0  0  0  0  0  0  0  0
  -11.8176   -5.4316   14.2583 O   0  0  0  0  0  0  0  0  0  0  0  0
  -10.1005   -6.5008   12.9278 O   0  0  0  0  0  0  0  0  0  0  0  0
  -13.0763   -8.1600   12.0224 C   0  0  0  0  0  0  0  0  0  0  0  0
  -12.3798   -7.7524   13.2285 N   0  0  0  0  0  0  0  0  0  0  0  0
  -12.9570   -7.8082   14.0702 H   0  0  0  0  0  0  0  0  0  0  0  0
 33 34  1  0  0  0
 34 30  1  0  0  0
 30 31  2  0  0  0
 30 32  2  0  0  0
 30  1  1  0  0  0
  1  2  2  0  0  0
  2  3  1  0  0  0
  3  4  2  0  0  0
  4  5  1  0  0  0
  5  6  2  0  0  0
  5  7  1  0  0  0
  7  8  2  0  0  0
  8 13  1  0  0  0
 13 14  1  0  0  0
 14 15  1  0  0  0
 15 16  2  0  0  0
 16 17  1  0  0  0
 17 24  1  0  0  0
 24 25  1  0  0  0
 25 26  1  0  0  0
 26 27  2  0  0  0
 26 28  1  0  0  0
 16 18  1  0  0  0
 18 19  2  0  0  0
 18 20  1  0  0  0
 20 21  1  0  0  0
 21 22  1  0  0  0
  7  9  1  0  0  0
  9 10  2  0  0  0
  9 11  1  0  0  0
  6  1  1  0  0  0
 17 13  2  0  0  0
 11  4  1  0  0  0
 22 15  1  0  0  0
 34 35  1  0  0  0
 14 23  1  0  0  0
 28 29  1  0  0  0
 11 12  1  0  0  0
M  END
> <minimizedAffinity>
25.17831

> <CNNscore>
0.4494953752

> <CNNaffinity>
6.4295439720

> <CNN_VS>
2.8900501728

> <CNNaffinity_variance>
0.9380483627

$$$$
[H]OC(=O)C([H])([H])C([H])([H])c1c2c(n([H])c1C([H])=C1C(=O)N([H])c3c([H])c([H])c(S(=O)(=O)N([H])C([H])([H])[H])c([H])c31)C([H])([H])C([H])([H])C([H])([H])C2=O


 35 38  0  0  0  0  0  0  0  0999 V2000
  -12.8156   -7.2460    7.5749 C   0  0  0  0  0  0  0  0  0  0  0  0
  -13.1674   -7.0562    8.8941 C   0  0  0  0  0  0  0  0  0  0  0  0
  -12.2191   -6.8036    9.8553 C   0  0  0  0  0  0  0  0  0  0  0  0
  -10.8565   -6.7273    9.5404 C   0  0  0  0  0  0  0  0  0  0  0  0
  -10.4993   -6.9160    8.2248 C   0  0  0  0  0  0  0  0  0  0  0  0
  -11.4884   -7.1706    7.2758 C   0  0  0  0  0  0  0  0  0  0  0  0
   -9.0349   -6.7992    8.0651 C   0  0  0  0  0  0  0  0  0  0  0  0
   -8.3731   -6.8984    6.9410 C   0  0  0  0  0  0  0  0  0  0  0  0
   -8.5743   -6.5233    9.4168 C   0  0  0  0  0  0  0  0  0  0  0  0
   -7.3876   -6.3402    9.7908 O   0  0  0  0  0  0  0  0  0  0  0  0
   -9.7000   -6.4822   10.3131 N   0  0  0  0  0  0  0  0  0  0  0  0
   -9.6895   -6.3076   11.3350 H   0  0  0  0  0  0  0  0  0  0  0  0
   -6.9393   -6.7921    6.7562 C   0  0  0  0  0  0  0  0  0  0  0  0
   -6.1189   -5.7658    6.5410 N   0  0  0  0  0  0  0  0  0  0  0  0
   -4.8432   -6.1772    6.4078 C   0  0  0  0  0  0  0  0  0  0  0  0
   -4.8162   -7.5488    6.5427 C   0  0  0  0  0  0  0  0  0  0  0  0
   -6.1223   -7.9279    6.7596 C   0  0  0  0  0  0  0  0  0  0  0  0
   -3.5343   -8.2222    6.4352 C   0  0  0  0  0  0  0  0  0  0  0  0
   -3.3920   -9.3043    7.0550 O   0  0  0  0  0  0  0  0  0  0  0  0
   -2.4081   -7.6762    5.6269 C   0  0  0  0  0  0  0  0  0  0  0  0
   -2.8430   -6.3182    5.0587 C   0  0  0  0  0  0  0  0  0  0  0  0
   -3.5313   -5.5039    6.1612 C   0  0  0  0  0  0  0  0  0  0  0  0
   -6.3754   -4.7755    6.4923 H   0  0  0  0  0  0  0  0  0  0  0  0
   -6.5455   -9.3137    6.9617 C   0  0  0  0  0  0  0  0  0  0  0  0
   -7.7343   -9.4678    7.8833 C   0  0  0  0  0  0  0  0  0  0  0  0
   -8.8483  -10.0031    7.0719 C   0  0  0  0  0  0  0  0  0  0  0  0
   -8.7843  -10.0333    5.8285 O   0  0  0  0  0  0  0  0  0  0  0  0
   -9.9805  -10.4782    7.7024 O   0  0  0  0  0  0  0  0  0  0  0  0
  -10.5588   -9.9223    8.3184 H   0  0  0  0  0  0  0  0  0  0  0  0
  -13.9943   -7.5588    6.3328 S   0  0  0  0  0  0  0  0  0  0  0  0
  -13.2403   -7.8087    5.0568 O   0  0  0  0  0  0  0  0  0  0  0  0
  -14.8829   -6.3852    6.1233 O   0  0  0  0  0  0  0  0  0  0  0  0
  -14.1862  -10.0006    7.2943 C   0  0  0  0  0  0  0  0  0  0  0  0
  -14.9505   -8.9485    6.6503 N   0  0  0  0  0  0  0  0  0  0  0  0
  -15.4989   -9.2744    5.8518 H   0  0  0  0  0  0  0  0  0  0  0  0
 33 34  1  0  0  0
 34 30  1  0  0  0
 30 31  2  0  0  0
 30 32  2  0  0  0
 30  1  1  0  0  0
  1  2  2  0  0  0
  2  3  1  0  0  0
  3  4  2  0  0  0
  4  5  1  0  0  0
  5  6  2  0  0  0
  5  7  1  0  0  0
  7  8  2  0  0  0
  8 13  1  0  0  0
 13 14  1  0  0  0
 14 15  1  0  0  0
 15 16  2  0  0  0
 16 17  1  0  0  0
 17 24  1  0  0  0
 24 25  1  0  0  0
 25 26  1  0  0  0
 26 27  2  0  0  0
 26 28  1  0  0  0
 16 18  1  0  0  0
 18 19  2  0  0  0
 18 20  1  0  0  0
 20 21  1  0  0  0
 21 22  1  0  0  0
  7  9  1  0  0  0
  9 10  2  0  0  0
  9 11  1  0  0  0
  6  1  1  0  0  0
 17 13  2  0  0  0
 11  4  1  0  0  0
 22 15  1  0  0  0
 34 35  1  0  0  0
 14 23  1  0  0  0
 28 29  1  0  0  0
 11 12  1  0  0  0
M  END
> <minimizedAffinity>
-0.61432

> <CNNscore>
0.3902523816

> <CNNaffinity>
6.2909193039

> <CNN_VS>
2.4550461769

> <CNNaffinity_variance>
0.5323368907

$$$$
[H]OC(=O)C([H])([H])C([H])([H])c1c2c(n([H])c1C([H])=C1C(=O)N([H])c3c([H])c([H])c(S(=O)(=O)N([H])C([H])([H])[H])c([H])c31)C([H])([H])C([H])([H])C([H])([H])C2=O


 35 38  0  0  0  0  0  0  0  0999 V2000
  -12.9015   -8.3919   12.2831 C   0  0  0  0  0  0  0  0  0  0  0  0
  -12.1473   -7.2989   12.6527 C   0  0  0  0  0  0  0  0  0  0  0  0
  -12.0567   -6.1901   11.8470 C   0  0  0  0  0  0  0  0  0  0  0  0
  -12.7241   -6.1193   10.6176 C   0  0  0  0  0  0  0  0  0  0  0  0
  -13.4786   -7.2076   10.2433 C   0  0  0  0  0  0  0  0  0  0  0  0
  -13.5478   -8.3162   11.0859 C   0  0  0  0  0  0  0  0  0  0  0  0
  -14.1152   -6.9684    8.9313 C   0  0  0  0  0  0  0  0  0  0  0  0
  -14.9166   -7.7901    8.3037 C   0  0  0  0  0  0  0  0  0  0  0  0
  -13.6578   -5.6336    8.5786 C   0  0  0  0  0  0  0  0  0  0  0  0
  -13.9394   -4.9861    7.5379 O   0  0  0  0  0  0  0  0  0  0  0  0
  -12.8049   -5.1231    9.6198 N   0  0  0  0  0  0  0  0  0  0  0  0
  -12.3290   -4.2026    9.6538 H   0  0  0  0  0  0  0  0  0  0  0  0
  -15.5508   -7.5834    7.0168 C   0  0  0  0  0  0  0  0  0  0  0  0
  -16.4265   -6.6893    6.5623 N   0  0  0  0  0  0  0  0  0  0  0  0
  -16.7442   -6.9246    5.2746 C   0  0  0  0  0  0  0  0  0  0  0  0
  -16.0413   -8.0328    4.8527 C   0  0  0  0  0  0  0  0  0  0  0  0
  -15.2996   -8.4399    5.9394 C   0  0  0  0  0  0  0  0  0  0  0  0
  -16.2251   -8.4797    3.4835 C   0  0  0  0  0  0  0  0  0  0  0  0
  -15.2712   -9.0845    2.9360 O   0  0  0  0  0  0  0  0  0  0  0  0
  -17.4873   -8.2457    2.7272 C   0  0  0  0  0  0  0  0  0  0  0  0
  -18.4294   -7.4207    3.6148 C   0  0  0  0  0  0  0  0  0  0  0  0
  -17.6408   -6.2786    4.2677 C   0  0  0  0  0  0  0  0  0  0  0  0
  -16.8214   -5.8994    7.0808 H   0  0  0  0  0  0  0  0  0  0  0  0
  -14.3981   -9.5920    5.9250 C   0  0  0  0  0  0  0  0  0  0  0  0
  -12.9565   -9.2441    5.6300 C   0  0  0  0  0  0  0  0  0  0  0  0
  -12.2288   -9.2746    6.9167 C   0  0  0  0  0  0  0  0  0  0  0  0
  -12.2477  -10.2849    7.6448 O   0  0  0  0  0  0  0  0  0  0  0  0
  -11.5151   -8.1640    7.3198 O   0  0  0  0  0  0  0  0  0  0  0  0
  -11.9237   -7.2485    7.4535 H   0  0  0  0  0  0  0  0  0  0  0  0
  -13.0432   -9.8075   13.2861 S   0  0  0  0  0  0  0  0  0  0  0  0
  -14.3252   -9.6781   14.0599 O   0  0  0  0  0  0  0  0  0  0  0  0
  -11.9220   -9.8950   14.2588 O   0  0  0  0  0  0  0  0  0  0  0  0
  -12.9762  -12.4372   13.2225 C   0  0  0  0  0  0  0  0  0  0  0  0
  -13.1285  -11.2641   12.3820 N   0  0  0  0  0  0  0  0  0  0  0  0
  -12.5345  -11.2796   11.5503 H   0  0  0  0  0  0  0  0  0  0  0  0
 33 34  1  0  0  0
 34 30  1  0  0  0
 30 31  2  0  0  0
 30 32  2  0  0  0
 30  1  1  0  0  0
  1  2  2  0  0  0
  2  3  1  0  0  0
  3  4  2  0  0  0
  4  5  1  0  0  0
  5  6  2  0  0  0
  5  7  1  0  0  0
  7  8  2  0  0  0
  8 13  1  0  0  0
 13 14  1  0  0  0
 14 15  1  0  0  0
 15 16  2  0  0  0
 16 17  1  0  0  0
 17 24  1  0  0  0
 24 25  1  0  0  0
 25 26  1  0  0  0
 26 27  2  0  0  0
 26 28  1  0  0  0
 16 18  1  0  0  0
 18 19  2  0  0  0
 18 20  1  0  0  0
 20 21  1  0  0  0
 21 22  1  0  0  0
  7  9  1  0  0  0
  9 10  2  0  0  0
  9 11  1  0  0  0
  6  1  1  0  0  0
 17 13  2  0  0  0
 11  4  1  0  0  0
 22 15  1  0  0  0
 34 35  1  0  0  0
 14 23  1  0  0  0
 28 29  1  0  0  0
 11 12  1  0  0  0
M  END
> <minimizedAffinity>
15.80198

> <CNNscore>
0.3730882108

> <CNNaffinity>
6.2533454895

> <CNN_VS>
2.3330495358

> <CNNaffinity_variance>
0.5170097947

$$$$
[H]OC(=O)C([H])([H])C([H])([H])c1c2c(n([H])c1C([H])=C1C(=O)N([H])c3c([H])c([H])c(S(=O)(=O)N([H])C([H])([H])[H])c([H])c31)C([H])([H])C([H])([H])C([H])([H])C2=O


 35 38  0  0  0  0  0  0  0  0999 V2000
  -15.5162   -6.6367    4.8862 C   0  0  0  0  0  0  0  0  0  0  0  0
  -15.4332   -7.9095    4.3634 C   0  0  0  0  0  0  0  0  0  0  0  0
  -14.7547   -8.9070    5.0203 C   0  0  0  0  0  0  0  0  0  0  0  0
  -14.1186   -8.6778    6.2469 C   0  0  0  0  0  0  0  0  0  0  0  0
  -14.1980   -7.4089    6.7738 C   0  0  0  0  0  0  0  0  0  0  0  0
  -14.8949   -6.4208    6.0796 C   0  0  0  0  0  0  0  0  0  0  0  0
  -13.4822   -7.3397    8.0647 C   0  0  0  0  0  0  0  0  0  0  0  0
  -13.3880   -6.2880    8.8370 C   0  0  0  0  0  0  0  0  0  0  0  0
  -12.9785   -8.6931    8.2382 C   0  0  0  0  0  0  0  0  0  0  0  0
  -12.3003   -9.1318    9.2022 O   0  0  0  0  0  0  0  0  0  0  0  0
  -13.3744   -9.5046    7.1171 N   0  0  0  0  0  0  0  0  0  0  0  0
  -13.1655  -10.5072    6.9563 H   0  0  0  0  0  0  0  0  0  0  0  0
  -12.6904   -6.1909   10.1038 C   0  0  0  0  0  0  0  0  0  0  0  0
  -13.0938   -6.2003   11.3726 N   0  0  0  0  0  0  0  0  0  0  0  0
  -12.0556   -6.0544   12.2185 C   0  0  0  0  0  0  0  0  0  0  0  0
  -10.9028   -5.9432   11.4710 C   0  0  0  0  0  0  0  0  0  0  0  0
  -11.3017   -6.0289   10.1555 C   0  0  0  0  0  0  0  0  0  0  0  0
   -9.6439   -5.7759   12.1748 C   0  0  0  0  0  0  0  0  0  0  0  0
   -8.6035   -6.1984   11.6141 O   0  0  0  0  0  0  0  0  0  0  0  0
   -9.5550   -5.1306   13.5147 C   0  0  0  0  0  0  0  0  0  0  0  0
  -10.9794   -4.7948   13.9780 C   0  0  0  0  0  0  0  0  0  0  0  0
  -11.8976   -5.9923   13.7038 C   0  0  0  0  0  0  0  0  0  0  0  0
  -14.0536   -6.3176   11.7101 H   0  0  0  0  0  0  0  0  0  0  0  0
  -10.3824   -5.9606    9.0195 C   0  0  0  0  0  0  0  0  0  0  0  0
   -9.8045   -7.2972    8.6119 C   0  0  0  0  0  0  0  0  0  0  0  0
   -8.4699   -7.0362    8.0317 C   0  0  0  0  0  0  0  0  0  0  0  0
   -8.3390   -6.7038    6.8386 O   0  0  0  0  0  0  0  0  0  0  0  0
   -7.3478   -7.1629    8.8253 O   0  0  0  0  0  0  0  0  0  0  0  0
   -7.0880   -8.0154    9.3035 H   0  0  0  0  0  0  0  0  0  0  0  0
  -16.3758   -5.3542    4.0825 S   0  0  0  0  0  0  0  0  0  0  0  0
  -16.8893   -5.9087    2.7833 O   0  0  0  0  0  0  0  0  0  0  0  0
  -15.4763   -4.2109    3.7747 O   0  0  0  0  0  0  0  0  0  0  0  0
  -18.9832   -5.0803    4.3068 C   0  0  0  0  0  0  0  0  0  0  0  0
  -17.7286   -4.7907    4.9762 N   0  0  0  0  0  0  0  0  0  0  0  0
  -17.6507   -3.8222    5.2933 H   0  0  0  0  0  0  0  0  0  0  0  0
 33 34  1  0  0  0
 34 30  1  0  0  0
 30 31  2  0  0  0
 30 32  2  0  0  0
 30  1  1  0  0  0
  1  2  2  0  0  0
  2  3  1  0  0  0
  3  4  2  0  0  0
  4  5  1  0  0  0
  5  6  2  0  0  0
  5  7  1  0  0  0
  7  8  2  0  0  0
  8 13  1  0  0  0
 13 14  1  0  0  0
 14 15  1  0  0  0
 15 16  2  0  0  0
 16 17  1  0  0  0
 17 24  1  0  0  0
 24 25  1  0  0  0
 25 26  1  0  0  0
 26 27  2  0  0  0
 26 28  1  0  0  0
 16 18  1  0  0  0
 18 19  2  0  0  0
 18 20  1  0  0  0
 20 21  1  0  0  0
 21 22  1  0  0  0
  7  9  1  0  0  0
  9 10  2  0  0  0
  9 11  1  0  0  0
  6  1  1  0  0  0
 17 13  2  0  0  0
 11  4  1  0  0  0
 22 15  1  0  0  0
 34 35  1  0  0  0
 14 23  1  0  0  0
 28 29  1  0  0  0
 11 12  1  0  0  0
M  END
> <minimizedAffinity>
1.96827

> <CNNscore>
0.3239547312

> <CNNaffinity>
6.6493568420

> <CNN_VS>
2.1540906429

> <CNNaffinity_variance>
0.4024245739

$$$$
[H]OC(=O)C([H])([H])C([H])([H])c1c2c(n([H])c1C([H])=C1C(=O)N([H])c3c([H])c([H])c(S(=O)(=O)N([H])C([H])([H])[H])c([H])c31)C([H])([H])C([H])([H])C([H])([H])C2=O


 35 38  0  0  0  0  0  0  0  0999 V2000
  -14.7358   -9.0356   11.1873 C   0  0  0  0  0  0  0  0  0  0  0  0
  -15.6504   -9.7329   11.9471 C   0  0  0  0  0  0  0  0  0  0  0  0
  -16.9124  -10.0005   11.4753 C   0  0  0  0  0  0  0  0  0  0  0  0
  -17.3262   -9.5792   10.2053 C   0  0  0  0  0  0  0  0  0  0  0  0
  -16.4173   -8.8825    9.4422 C   0  0  0  0  0  0  0  0  0  0  0  0
  -15.1452   -8.6285    9.9530 C   0  0  0  0  0  0  0  0  0  0  0  0
  -17.0089   -8.5188    8.1378 C   0  0  0  0  0  0  0  0  0  0  0  0
  -16.4046   -7.8778    7.1707 C   0  0  0  0  0  0  0  0  0  0  0  0
  -18.3515   -9.0726    8.2160 C   0  0  0  0  0  0  0  0  0  0  0  0
  -19.2458   -9.0200    7.3333 O   0  0  0  0  0  0  0  0  0  0  0  0
  -18.5350   -9.7200    9.4886 N   0  0  0  0  0  0  0  0  0  0  0  0
  -19.3833  -10.2043    9.8359 H   0  0  0  0  0  0  0  0  0  0  0  0
  -16.9607   -7.5051    5.8850 C   0  0  0  0  0  0  0  0  0  0  0  0
  -17.9097   -8.0302    5.1127 N   0  0  0  0  0  0  0  0  0  0  0  0
  -18.0594   -7.3274    3.9733 C   0  0  0  0  0  0  0  0  0  0  0  0
  -17.1628   -6.2806    3.9915 C   0  0  0  0  0  0  0  0  0  0  0  0
  -16.4811   -6.3942    5.1828 C   0  0  0  0  0  0  0  0  0  0  0  0
  -17.1415   -5.3776    2.8547 C   0  0  0  0  0  0  0  0  0  0  0  0
  -16.7736   -4.1950    3.0581 O   0  0  0  0  0  0  0  0  0  0  0  0
  -17.5354   -5.8068    1.4834 C   0  0  0  0  0  0  0  0  0  0  0  0
  -18.0112   -7.2642    1.5578 C   0  0  0  0  0  0  0  0  0  0  0  0
  -18.9377   -7.4343    2.7683 C   0  0  0  0  0  0  0  0  0  0  0  0
  -18.4880   -8.8489    5.3228 H   0  0  0  0  0  0  0  0  0  0  0  0
  -15.4287   -5.4722    5.6103 C   0  0  0  0  0  0  0  0  0  0  0  0
  -14.0260   -5.9944    5.3958 C   0  0  0  0  0  0  0  0  0  0  0  0
  -13.6122   -6.6596    6.6497 C   0  0  0  0  0  0  0  0  0  0  0  0
  -12.8947   -7.6775    6.6336 O   0  0  0  0  0  0  0  0  0  0  0  0
  -14.0277   -6.1444    7.8609 O   0  0  0  0  0  0  0  0  0  0  0  0
  -14.9980   -6.0269    8.1212 H   0  0  0  0  0  0  0  0  0  0  0  0
  -13.1267   -8.6886   11.7535 S   0  0  0  0  0  0  0  0  0  0  0  0
  -12.1940   -9.6347   11.0506 O   0  0  0  0  0  0  0  0  0  0  0  0
  -13.0068   -8.9221   13.2171 O   0  0  0  0  0  0  0  0  0  0  0  0
  -11.8755   -7.0273   10.1416 C   0  0  0  0  0  0  0  0  0  0  0  0
  -12.6170   -7.0910   11.3874 N   0  0  0  0  0  0  0  0  0  0  0  0
  -12.1552   -6.6080   12.1609 H   0  0  0  0  0  0  0  0  0  0  0  0
 33 34  1  0  0  0
 34 30  1  0  0  0
 30 31  2  0  0  0
 30 32  2  0  0  0
 30  1  1  0  0  0
  1  2  2  0  0  0
  2  3  1  0  0  0
  3  4  2  0  0  0
  4  5  1  0  0  0
  5  6  2  0  0  0
  5  7  1  0  0  0
  7  8  2  0  0  0
  8 13  1  0  0  0
 13 14  1  0  0  0
 14 15  1  0  0  0
 15 16  2  0  0  0
 16 17  1  0  0  0
 17 24  1  0  0  0
 24 25  1  0  0  0
 25 26  1  0  0  0
 26 27  2  0  0  0
 26 28  1  0  0  0
 16 18  1  0  0  0
 18 19  2  0  0  0
 18 20  1  0  0  0
 20 21  1  0  0  0
 21 22  1  0  0  0
  7  9  1  0  0  0
  9 10  2  0  0  0
  9 11  1  0  0  0
  6  1  1  0  0  0
 17 13  2  0  0  0
 11  4  1  0  0  0
 22 15  1  0  0  0
 34 35  1  0  0  0
 14 23  1  0  0  0
 28 29  1  0  0  0
 11 12  1  0  0  0
M  END
> <minimizedAffinity>
31.37822

> <CNNscore>
0.2589314580

> <CNNaffinity>
5.9959750175

> <CNN_VS>
1.5525465012

> <CNNaffinity_variance>
0.8730427027

$$$$
[H]OC(=O)C([H])([H])C([H])([H])c1c2c(n([H])c1C([H])=C1C(=O)N([H])c3c([H])c([H])c(S(=O)(=O)N([H])C([H])([H])[H])c([H])c31)C([H])([H])C([H])([H])C([H])([H])C2=O


 35 38  0  0  0  0  0  0  0  0999 V2000
   -3.6101   -5.2752    5.5977 C   0  0  0  0  0  0  0  0  0  0  0  0
   -2.6813   -6.1721    6.0803 C   0  0  0  0  0  0  0  0  0  0  0  0
   -3.0326   -7.1448    6.9843 C   0  0  0  0  0  0  0  0  0  0  0  0
   -4.3457   -7.2699    7.4553 C   0  0  0  0  0  0  0  0  0  0  0  0
   -5.2775   -6.3771    6.9770 C   0  0  0  0  0  0  0  0  0  0  0  0
   -4.8855   -5.4025    6.0603 C   0  0  0  0  0  0  0  0  0  0  0  0
   -6.6045   -6.6491    7.5676 C   0  0  0  0  0  0  0  0  0  0  0  0
   -7.7108   -6.0021    7.3050 C   0  0  0  0  0  0  0  0  0  0  0  0
   -6.3542   -7.7883    8.4364 C   0  0  0  0  0  0  0  0  0  0  0  0
   -7.1903   -8.3890    9.1587 O   0  0  0  0  0  0  0  0  0  0  0  0
   -4.9655   -8.1599    8.3598 N   0  0  0  0  0  0  0  0  0  0  0  0
   -4.4877   -8.9302    8.8630 H   0  0  0  0  0  0  0  0  0  0  0  0
   -9.0229   -6.2445    7.8714 C   0  0  0  0  0  0  0  0  0  0  0  0
   -9.7809   -5.5784    8.7399 N   0  0  0  0  0  0  0  0  0  0  0  0
  -10.9367   -6.2271    8.9806 C   0  0  0  0  0  0  0  0  0  0  0  0
  -10.9457   -7.3841    8.2314 C   0  0  0  0  0  0  0  0  0  0  0  0
   -9.7534   -7.3915    7.5423 C   0  0  0  0  0  0  0  0  0  0  0  0
  -12.1041   -8.2541    8.3294 C   0  0  0  0  0  0  0  0  0  0  0  0
  -12.3831   -8.9655    7.3337 O   0  0  0  0  0  0  0  0  0  0  0  0
  -12.9518   -8.3244    9.5526 C   0  0  0  0  0  0  0  0  0  0  0  0
  -12.4219   -7.2948   10.5602 C   0  0  0  0  0  0  0  0  0  0  0  0
  -12.1378   -5.9740    9.8340 C   0  0  0  0  0  0  0  0  0  0  0  0
   -9.5638   -4.6795    9.1801 H   0  0  0  0  0  0  0  0  0  0  0  0
   -9.3541   -8.4515    6.6164 C   0  0  0  0  0  0  0  0  0  0  0  0
   -9.1043   -9.7877    7.2787 C   0  0  0  0  0  0  0  0  0  0  0  0
   -9.7779  -10.8147    6.4557 C   0  0  0  0  0  0  0  0  0  0  0  0
  -10.4949  -10.4977    5.4879 O   0  0  0  0  0  0  0  0  0  0  0  0
   -9.6102  -12.1496    6.7643 O   0  0  0  0  0  0  0  0  0  0  0  0
   -9.8528  -12.5571    7.6576 H   0  0  0  0  0  0  0  0  0  0  0  0
   -3.1980   -4.0375    4.4452 S   0  0  0  0  0  0  0  0  0  0  0  0
   -2.8401   -4.7283    3.1592 O   0  0  0  0  0  0  0  0  0  0  0  0
   -2.0170   -3.2533    4.8938 O   0  0  0  0  0  0  0  0  0  0  0  0
   -4.0500   -1.6009    3.9344 C   0  0  0  0  0  0  0  0  0  0  0  0
   -4.4998   -2.9688    4.1145 N   0  0  0  0  0  0  0  0  0  0  0  0
   -5.2904   -3.0560    4.7564 H   0  0  0  0  0  0  0  0  0  0  0  0
 33 34  1  0  0  0
 34 30  1  0  0  0
 30 31  2  0  0  0
 30 32  2  0  0  0
 30  1  1  0  0  0
  1  2  2  0  0  0
  2  3  1  0  0  0
  3  4  2  0  0  0
  4  5  1  0  0  0
  5  6  2  0  0  0
  5  7  1  0  0  0
  7  8  2  0  0  0
  8 13  1  0  0  0
 13 14  1  0  0  0
 14 15  1  0  0  0
 15 16  2  0  0  0
 16 17  1  0  0  0
 17 24  1  0  0  0
 24 25  1  0  0  0
 25 26  1  0  0  0
 26 27  2  0  0  0
 26 28  1  0  0  0
 16 18  1  0  0  0
 18 19  2  0  0  0
 18 20  1  0  0  0
 20 21  1  0  0  0
 21 22  1  0  0  0
  7  9  1  0  0  0
  9 10  2  0  0  0
  9 11  1  0  0  0
  6  1  1  0  0  0
 17 13  2  0  0  0
 11  4  1  0  0  0
 22 15  1  0  0  0
 34 35  1  0  0  0
 14 23  1  0  0  0
 28 29  1  0  0  0
 11 12  1  0  0  0
M  END
> <minimizedAffinity>
-3.62598

> <CNNscore>
0.2559736371

> <CNNaffinity>
5.8769626617

> <CNN_VS>
1.5043475628

> <CNNaffinity_variance>
0.2099302709

$$$$
[H]OC(=O)C([H])([H])C([H])([H])c1c2c(n([H])c1C([H])=C1C(=O)N([H])c3c([H])c([H])c(S(=O)(=O)N([H])C([H])([H])[H])c([H])c31)C([H])([H])C([H])([H])C([H])([H])C2=O


 35 38  0  0  0  0  0  0  0  0999 V2000
   -4.6013   -5.5486    4.4367 C   0  0  0  0  0  0  0  0  0  0  0  0
   -3.8098   -5.8627    5.5207 C   0  0  0  0  0  0  0  0  0  0  0  0
   -3.7056   -7.1543    5.9765 C   0  0  0  0  0  0  0  0  0  0  0  0
   -4.3958   -8.2075    5.3633 C   0  0  0  0  0  0  0  0  0  0  0  0
   -5.1877   -7.8998    4.2806 C   0  0  0  0  0  0  0  0  0  0  0  0
   -5.2701   -6.5779    3.8452 C   0  0  0  0  0  0  0  0  0  0  0  0
   -5.8373   -9.1177    3.7528 C   0  0  0  0  0  0  0  0  0  0  0  0
   -6.6310   -9.1782    2.7147 C   0  0  0  0  0  0  0  0  0  0  0  0
   -5.3454  -10.1650    4.6341 C   0  0  0  0  0  0  0  0  0  0  0  0
   -5.6199  -11.3912    4.5812 O   0  0  0  0  0  0  0  0  0  0  0  0
   -4.4628   -9.5949    5.6181 N   0  0  0  0  0  0  0  0  0  0  0  0
   -3.9601  -10.0882    6.3790 H   0  0  0  0  0  0  0  0  0  0  0  0
   -7.2838  -10.3560    2.1783 C   0  0  0  0  0  0  0  0  0  0  0  0
   -7.4773  -10.8108    0.9421 N   0  0  0  0  0  0  0  0  0  0  0  0
   -8.1755  -11.9628    0.9469 C   0  0  0  0  0  0  0  0  0  0  0  0
   -8.4592  -12.2894    2.2557 C   0  0  0  0  0  0  0  0  0  0  0  0
   -7.9025  -11.2875    3.0192 C   0  0  0  0  0  0  0  0  0  0  0  0
   -9.2121  -13.5046    2.5102 C   0  0  0  0  0  0  0  0  0  0  0  0
   -9.0245  -14.0861    3.6065 O   0  0  0  0  0  0  0  0  0  0  0  0
  -10.1802  -14.0676    1.5276 C   0  0  0  0  0  0  0  0  0  0  0  0
  -10.1369  -13.1982    0.2633 C   0  0  0  0  0  0  0  0  0  0  0  0
   -8.6762  -12.9046   -0.1006 C   0  0  0  0  0  0  0  0  0  0  0  0
   -7.1434  -10.3848    0.0727 H   0  0  0  0  0  0  0  0  0  0  0  0
   -7.9677  -11.2447    4.4801 C   0  0  0  0  0  0  0  0  0  0  0  0
   -7.4503   -9.9584    5.0836 C   0  0  0  0  0  0  0  0  0  0  0  0
   -7.1408  -10.2363    6.5024 C   0  0  0  0  0  0  0  0  0  0  0  0
   -6.0035  -10.6010    6.8551 O   0  0  0  0  0  0  0  0  0  0  0  0
   -8.1294  -10.0893    7.4544 O   0  0  0  0  0  0  0  0  0  0  0  0
   -9.0067  -10.5922    7.4393 H   0  0  0  0  0  0  0  0  0  0  0  0
   -4.7470   -3.9236    3.8300 S   0  0  0  0  0  0  0  0  0  0  0  0
   -6.1839   -3.5144    3.9945 O   0  0  0  0  0  0  0  0  0  0  0  0
   -4.4084   -3.8544    2.3838 O   0  0  0  0  0  0  0  0  0  0  0  0
   -3.1306   -1.8474    3.8132 C   0  0  0  0  0  0  0  0  0  0  0  0
   -3.7848   -2.7959    4.6953 N   0  0  0  0  0  0  0  0  0  0  0  0
   -3.1533   -3.2178    5.3793 H   0  0  0  0  0  0  0  0  0  0  0  0
 33 34  1  0  0  0
 34 30  1  0  0  0
 30 31  2  0  0  0
 30 32  2  0  0  0
 30  1  1  0  0  0
  1  2  2  0  0  0
  2  3  1  0  0  0
  3  4  2  0  0  0
  4  5  1  0  0  0
  5  6  2  0  0  0
  5  7  1  0  0  0
  7  8  2  0  0  0
  8 13  1  0  0  0
 13 14  1  0  0  0
 14 15  1  0  0  0
 15 16  2  0  0  0
 16 17  1  0  0  0
 17 24  1  0  0  0
 24 25  1  0  0  0
 25 26  1  0  0  0
 26 27  2  0  0  0
 26 28  1  0  0  0
 16 18  1  0  0  0
 18 19  2  0  0  0
 18 20  1  0  0  0
 20 21  1  0  0  0
 21 22  1  0  0  0
  7  9  1  0  0  0
  9 10  2  0  0  0
  9 11  1  0  0  0
  6  1  1  0  0  0
 17 13  2  0  0  0
 11  4  1  0  0  0
 22 15  1  0  0  0
 34 35  1  0  0  0
 14 23  1  0  0  0
 28 29  1  0  0  0
 11 12  1  0  0  0
M  END
> <minimizedAffinity>
61.04651

> <CNNscore>
0.2331775427

> <CNNaffinity>
4.9368481636

> <CNN_VS>
1.1511621475

> <CNNaffinity_variance>
1.0867754221

$$$$
[H]c1nc(OC([H])([H])[H])c(N([H])S(=O)(=O)c2c([H])c([H])c(F)c([H])c2F)c([H])c1-c1nc([H])c2nc(N([H])[H])c(-c3c([H])c([H])c([H])c([H])c3[H])c([H])c2c1[H]


 40 44  0  0  0  0  0  0  0  0999 V2000
  -15.3323   -6.4246    4.1338 C   0  0  0  0  0  0  0  0  0  0  0  0
  -14.5194   -7.4112    3.7299 N   0  0  0  0  0  0  0  0  0  0  0  0
  -13.4800   -7.8791    4.4897 C   0  0  0  0  0  0  0  0  0  0  0  0
  -13.2182   -7.3465    5.7269 C   0  0  0  0  0  0  0  0  0  0  0  0
  -14.0536   -6.3267    6.1511 C   0  0  0  0  0  0  0  0  0  0  0  0
  -15.1076   -5.8603    5.3681 C   0  0  0  0  0  0  0  0  0  0  0  0
  -12.1211   -7.8040    6.5868 C   0  0  0  0  0  0  0  0  0  0  0  0
  -10.8495   -7.3719    6.4131 C   0  0  0  0  0  0  0  0  0  0  0  0
   -9.8091   -7.8153    7.2404 C   0  0  0  0  0  0  0  0  0  0  0  0
   -8.5216   -7.3609    7.0441 C   0  0  0  0  0  0  0  0  0  0  0  0
   -7.5222   -7.8356    7.8979 C   0  0  0  0  0  0  0  0  0  0  0  0
   -7.8452   -8.7352    8.9031 C   0  0  0  0  0  0  0  0  0  0  0  0
   -6.7926   -9.1775    9.7456 N   0  0  0  0  0  0  0  0  0  0  0  0
   -9.1198   -9.1644    9.0722 N   0  0  0  0  0  0  0  0  0  0  0  0
  -10.0834   -8.7104    8.2530 C   0  0  0  0  0  0  0  0  0  0  0  0
  -11.4012   -9.1353    8.4050 C   0  0  0  0  0  0  0  0  0  0  0  0
  -12.3644   -8.6873    7.5936 N   0  0  0  0  0  0  0  0  0  0  0  0
   -6.1256   -8.4673   10.1041 H   0  0  0  0  0  0  0  0  0  0  0  0
   -6.6837  -10.1654    9.9998 H   0  0  0  0  0  0  0  0  0  0  0  0
   -6.1865   -7.3637    7.6802 C   0  0  0  0  0  0  0  0  0  0  0  0
   -5.2420   -8.1642    7.0826 C   0  0  0  0  0  0  0  0  0  0  0  0
   -3.9571   -7.7460    6.8681 C   0  0  0  0  0  0  0  0  0  0  0  0
   -3.5788   -6.4851    7.2571 C   0  0  0  0  0  0  0  0  0  0  0  0
   -4.4953   -5.6518    7.8596 C   0  0  0  0  0  0  0  0  0  0  0  0
   -5.7927   -6.1049    8.0640 C   0  0  0  0  0  0  0  0  0  0  0  0
  -17.1814   -6.8652    2.5755 C   0  0  0  0  0  0  0  0  0  0  0  0
  -16.3828   -5.9895    3.3052 O   0  0  0  0  0  0  0  0  0  0  0  0
  -15.9592   -4.8139    5.7983 N   0  0  0  0  0  0  0  0  0  0  0  0
  -15.4936   -3.9752    6.2494 H   0  0  0  0  0  0  0  0  0  0  0  0
  -17.6804   -4.8412    5.6286 S   0  0  0  0  0  0  0  0  0  0  0  0
  -18.3048   -3.9956    6.7159 O   0  0  0  0  0  0  0  0  0  0  0  0
  -18.0452   -4.1837    4.3305 O   0  0  0  0  0  0  0  0  0  0  0  0
  -18.3364   -6.4407    5.6587 C   0  0  0  0  0  0  0  0  0  0  0  0
  -18.9531   -6.9808    4.5550 C   0  0  0  0  0  0  0  0  0  0  0  0
  -19.4580   -8.2647    4.6209 C   0  0  0  0  0  0  0  0  0  0  0  0
  -19.3522   -9.0076    5.7730 C   0  0  0  0  0  0  0  0  0  0  0  0
  -19.8466  -10.2814    5.8568 F   0  0  0  0  0  0  0  0  0  0  0  0
  -18.7332   -8.4811    6.8986 C   0  0  0  0  0  0  0  0  0  0  0  0
  -18.2395   -7.1968    6.8006 C   0  0  0  0  0  0  0  0  0  0  0  0
  -17.6292   -6.6496    7.8783 F   0  0  0  0  0  0  0  0  0  0  0  0
 26 27  1  0  0  0
 27  1  1  0  0  0
  1  2  2  0  0  0
  2  3  1  0  0  0
  3  4  2  0  0  0
  4  7  1  0  0  0
  7  8  2  0  0  0
  8  9  1  0  0  0
  9 10  2  0  0  0
 10 11  1  0  0  0
 11 20  1  0  0  0
 20 21  2  0  0  0
 21 22  1  0  0  0
 22 23  2  0  0  0
 23 24  1  0  0  0
 24 25  2  0  0  0
 11 12  2  0  0  0
 12 13  1  0  0  0
 12 14  1  0  0  0
 14 15  2  0  0  0
 15 16  1  0  0  0
 16 17  2  0  0  0
  4  5  1  0  0  0
  5  6  2  0  0  0
  6 28  1  0  0  0
 28 30  1  0  0  0
 30 31  2  0  0  0
 30 32  2  0  0  0
 30 33  1  0  0  0
 33 34  2  0  0  0
 34 35  1  0  0  0
 35 36  2  0  0  0
 36 37  1  0  0  0
 36 38  1  0  0  0
 38 39  2  0  0  0
 39 40  1  0  0  0
  6  1  1  0  0  0
 39 33  1  0  0  0
 17  7  1  0  0  0
 15  9  1  0  0  0
 25 20  1  0  0  0
 13 18  1  0  0  0
 13 19  1  0  0  0
 28 29  1  0  0  0
M  END
> <minimizedAffinity>
12.31177

> <CNNscore>
0.4413587153

> <CNNaffinity>
7.3482389450

> <CNN_VS>
3.2432093620

> <CNNaffinity_variance>
1.8116176128

$$$$
[H]c1nc(OC([H])([H])[H])c(N([H])S(=O)(=O)c2c([H])c([H])c(F)c([H])c2F)c([H])c1-c1nc([H])c2nc(N([H])[H])c(-c3c([H])c([H])c([H])c([H])c3[H])c([H])c2c1[H]


 40 44  0  0  0  0  0  0  0  0999 V2000
   -8.5992  -10.5711    6.5452 C   0  0  0  0  0  0  0  0  0  0  0  0
   -9.5690  -11.4785    6.3629 N   0  0  0  0  0  0  0  0  0  0  0  0
  -10.8880  -11.2246    6.6322 C   0  0  0  0  0  0  0  0  0  0  0  0
  -11.2847  -10.0018    7.1119 C   0  0  0  0  0  0  0  0  0  0  0  0
  -10.2884   -9.0590    7.3030 C   0  0  0  0  0  0  0  0  0  0  0  0
   -8.9504   -9.3305    7.0248 C   0  0  0  0  0  0  0  0  0  0  0  0
  -12.6802   -9.6695    7.4191 C   0  0  0  0  0  0  0  0  0  0  0  0
  -13.3760   -8.7644    6.6906 C   0  0  0  0  0  0  0  0  0  0  0  0
  -14.7088   -8.4546    6.9926 C   0  0  0  0  0  0  0  0  0  0  0  0
  -15.3971   -7.5290    6.2361 C   0  0  0  0  0  0  0  0  0  0  0  0
  -16.7239   -7.2577    6.5812 C   0  0  0  0  0  0  0  0  0  0  0  0
  -17.3041   -7.9146    7.6563 C   0  0  0  0  0  0  0  0  0  0  0  0
  -18.6562   -7.6064    7.9565 N   0  0  0  0  0  0  0  0  0  0  0  0
  -16.6027   -8.8195    8.3820 N   0  0  0  0  0  0  0  0  0  0  0  0
  -15.3267   -9.0829    8.0533 C   0  0  0  0  0  0  0  0  0  0  0  0
  -14.5836  -10.0084    8.7825 C   0  0  0  0  0  0  0  0  0  0  0  0
  -13.3139  -10.2751    8.4605 N   0  0  0  0  0  0  0  0  0  0  0  0
  -19.3290   -7.5509    7.1678 H   0  0  0  0  0  0  0  0  0  0  0  0
  -18.9712   -7.4414    8.9188 H   0  0  0  0  0  0  0  0  0  0  0  0
  -17.4275   -6.2885    5.7940 C   0  0  0  0  0  0  0  0  0  0  0  0
  -17.6553   -6.4957    4.4541 C   0  0  0  0  0  0  0  0  0  0  0  0
  -18.3163   -5.5865    3.6743 C   0  0  0  0  0  0  0  0  0  0  0  0
  -18.7760   -4.4195    4.2320 C   0  0  0  0  0  0  0  0  0  0  0  0
  -18.5680   -4.1735    5.5712 C   0  0  0  0  0  0  0  0  0  0  0  0
  -17.8932   -5.1159    6.3374 C   0  0  0  0  0  0  0  0  0  0  0  0
   -6.8004  -11.0804    4.9495 C   0  0  0  0  0  0  0  0  0  0  0  0
   -7.2624  -10.8949    6.2492 O   0  0  0  0  0  0  0  0  0  0  0  0
   -7.9300   -8.3692    7.2251 N   0  0  0  0  0  0  0  0  0  0  0  0
   -7.6363   -7.8022    6.3789 H   0  0  0  0  0  0  0  0  0  0  0  0
   -7.1585   -8.0862    8.7472 S   0  0  0  0  0  0  0  0  0  0  0  0
   -8.0786   -7.2755    9.6324 O   0  0  0  0  0  0  0  0  0  0  0  0
   -6.9687   -9.4026    9.4412 O   0  0  0  0  0  0  0  0  0  0  0  0
   -5.6264   -7.3003    8.5917 C   0  0  0  0  0  0  0  0  0  0  0  0
   -5.3709   -6.1030    9.2175 C   0  0  0  0  0  0  0  0  0  0  0  0
   -4.1308   -5.5126    9.0711 C   0  0  0  0  0  0  0  0  0  0  0  0
   -3.1512   -6.1052    8.3098 C   0  0  0  0  0  0  0  0  0  0  0  0
   -1.9166   -5.5349    8.1534 F   0  0  0  0  0  0  0  0  0  0  0  0
   -3.3886   -7.3140    7.6696 C   0  0  0  0  0  0  0  0  0  0  0  0
   -4.6366   -7.8778    7.8355 C   0  0  0  0  0  0  0  0  0  0  0  0
   -4.9050   -9.0567    7.2261 F   0  0  0  0  0  0  0  0  0  0  0  0
 26 27  1  0  0  0
 27  1  1  0  0  0
  1  2  2  0  0  0
  2  3  1  0  0  0
  3  4  2  0  0  0
  4  7  1  0  0  0
  7  8  2  0  0  0
  8  9  1  0  0  0
  9 10  2  0  0  0
 10 11  1  0  0  0
 11 20  1  0  0  0
 20 21  2  0  0  0
 21 22  1  0  0  0
 22 23  2  0  0  0
 23 24  1  0  0  0
 24 25  2  0  0  0
 11 12  2  0  0  0
 12 13  1  0  0  0
 12 14  1  0  0  0
 14 15  2  0  0  0
 15 16  1  0  0  0
 16 17  2  0  0  0
  4  5  1  0  0  0
  5  6  2  0  0  0
  6 28  1  0  0  0
 28 30  1  0  0  0
 30 31  2  0  0  0
 30 32  2  0  0  0
 30 33  1  0  0  0
 33 34  2  0  0  0
 34 35  1  0  0  0
 35 36  2  0  0  0
 36 37  1  0  0  0
 36 38  1  0  0  0
 38 39  2  0  0  0
 39 40  1  0  0  0
  6  1  1  0  0  0
 39 33  1  0  0  0
 17  7  1  0  0  0
 15  9  1  0  0  0
 25 20  1  0  0  0
 13 18  1  0  0  0
 13 19  1  0  0  0
 28 29  1  0  0  0
M  END
> <minimizedAffinity>
15.58593

> <CNNscore>
0.4377782643

> <CNNaffinity>
6.9990196228

> <CNN_VS>
3.0640187263

> <CNNaffinity_variance>
1.0038131475

$$$$
[H]c1nc(OC([H])([H])[H])c(N([H])S(=O)(=O)c2c([H])c([H])c(F)c([H])c2F)c([H])c1-c1nc([H])c2nc(N([H])[H])c(-c3c([H])c([H])c([H])c([H])c3[H])c([H])c2c1[H]


 40 44  0  0  0  0  0  0  0  0999 V2000
  -19.2132   -5.7040    4.8075 C   0  0  0  0  0  0  0  0  0  0  0  0
  -19.1184   -5.9345    6.1247 N   0  0  0  0  0  0  0  0  0  0  0  0
  -18.0477   -6.5707    6.6953 C   0  0  0  0  0  0  0  0  0  0  0  0
  -17.0001   -7.0108    5.9262 C   0  0  0  0  0  0  0  0  0  0  0  0
  -17.0907   -6.7764    4.5643 C   0  0  0  0  0  0  0  0  0  0  0  0
  -18.1857   -6.1278    3.9969 C   0  0  0  0  0  0  0  0  0  0  0  0
  -15.8269   -7.6979    6.4776 C   0  0  0  0  0  0  0  0  0  0  0  0
  -15.6900   -7.9233    7.8059 C   0  0  0  0  0  0  0  0  0  0  0  0
  -14.5653   -8.5807    8.3220 C   0  0  0  0  0  0  0  0  0  0  0  0
  -14.4479   -8.7988    9.6789 C   0  0  0  0  0  0  0  0  0  0  0  0
  -13.3058   -9.4592   10.1398 C   0  0  0  0  0  0  0  0  0  0  0  0
  -12.3368   -9.8710    9.2367 C   0  0  0  0  0  0  0  0  0  0  0  0
  -11.2021  -10.5439    9.7591 N   0  0  0  0  0  0  0  0  0  0  0  0
  -12.4792   -9.6426    7.9081 N   0  0  0  0  0  0  0  0  0  0  0  0
  -13.5760   -9.0078    7.4613 C   0  0  0  0  0  0  0  0  0  0  0  0
  -13.7471   -8.7605    6.1012 C   0  0  0  0  0  0  0  0  0  0  0  0
  -14.8360   -8.1297    5.6503 N   0  0  0  0  0  0  0  0  0  0  0  0
  -11.3598  -11.2809   10.4730 H   0  0  0  0  0  0  0  0  0  0  0  0
  -10.2506  -10.3182    9.4489 H   0  0  0  0  0  0  0  0  0  0  0  0
  -13.1897   -9.6735   11.5521 C   0  0  0  0  0  0  0  0  0  0  0  0
  -13.4501   -8.6611   12.4451 C   0  0  0  0  0  0  0  0  0  0  0  0
  -13.3405   -8.8317   13.7982 C   0  0  0  0  0  0  0  0  0  0  0  0
  -12.9579  -10.0504   14.3008 C   0  0  0  0  0  0  0  0  0  0  0  0
  -12.6876  -11.0908   13.4395 C   0  0  0  0  0  0  0  0  0  0  0  0
  -12.8076  -10.8869   12.0704 C   0  0  0  0  0  0  0  0  0  0  0  0
  -20.5286   -3.6700    4.3907 C   0  0  0  0  0  0  0  0  0  0  0  0
  -20.3404   -5.0448    4.2838 O   0  0  0  0  0  0  0  0  0  0  0  0
  -18.2821   -5.8924    2.6039 N   0  0  0  0  0  0  0  0  0  0  0  0
  -19.0863   -6.3603    2.0958 H   0  0  0  0  0  0  0  0  0  0  0  0
  -17.1752   -4.9041    1.7151 S   0  0  0  0  0  0  0  0  0  0  0  0
  -16.4193   -5.7630    0.7260 O   0  0  0  0  0  0  0  0  0  0  0  0
  -17.9595   -3.9214    0.8968 O   0  0  0  0  0  0  0  0  0  0  0  0
  -16.0722   -4.0440    2.7314 C   0  0  0  0  0  0  0  0  0  0  0  0
  -16.0844   -2.6707    2.7977 C   0  0  0  0  0  0  0  0  0  0  0  0
  -15.1894   -2.0241    3.6275 C   0  0  0  0  0  0  0  0  0  0  0  0
  -14.2888   -2.7340    4.3861 C   0  0  0  0  0  0  0  0  0  0  0  0
  -13.3945   -2.1104    5.2139 F   0  0  0  0  0  0  0  0  0  0  0  0
  -14.2599   -4.1211    4.3338 C   0  0  0  0  0  0  0  0  0  0  0  0
  -15.1662   -4.7367    3.4958 C   0  0  0  0  0  0  0  0  0  0  0  0
  -15.1678   -6.0885    3.4184 F   0  0  0  0  0  0  0  0  0  0  0  0
 26 27  1  0  0  0
 27  1  1  0  0  0
  1  2  2  0  0  0
  2  3  1  0  0  0
  3  4  2  0  0  0
  4  7  1  0  0  0
  7  8  2  0  0  0
  8  9  1  0  0  0
  9 10  2  0  0  0
 10 11  1  0  0  0
 11 20  1  0  0  0
 20 21  2  0  0  0
 21 22  1  0  0  0
 22 23  2  0  0  0
 23 24  1  0  0  0
 24 25  2  0  0  0
 11 12  2  0  0  0
 12 13  1  0  0  0
 12 14  1  0  0  0
 14 15  2  0  0  0
 15 16  1  0  0  0
 16 17  2  0  0  0
  4  5  1  0  0  0
  5  6  2  0  0  0
  6 28  1  0  0  0
 28 30  1  0  0  0
 30 31  2  0  0  0
 30 32  2  0  0  0
 30 33  1  0  0  0
 33 34  2  0  0  0
 34 35  1  0  0  0
 35 36  2  0  0  0
 36 37  1  0  0  0
 36 38  1  0  0  0
 38 39  2  0  0  0
 39 40  1  0  0  0
  6  1  1  0  0  0
 39 33  1  0  0  0
 17  7  1  0  0  0
 15  9  1  0  0  0
 25 20  1  0  0  0
 13 18  1  0  0  0
 13 19  1  0  0  0
 28 29  1  0  0  0
M  END
> <minimizedAffinity>
45.34361

> <CNNscore>
0.4287738204

> <CNNaffinity>
6.9697189331

> <CNN_VS>
2.9884331226

> <CNNaffinity_variance>
1.1089460850

$$$$
[H]c1nc(OC([H])([H])[H])c(N([H])S(=O)(=O)c2c([H])c([H])c(F)c([H])c2F)c([H])c1-c1nc([H])c2nc(N([H])[H])c(-c3c([H])c([H])c([H])c([H])c3[H])c([H])c2c1[H]


 40 44  0  0  0  0  0  0  0  0999 V2000
  -16.2679   -8.2363    3.7581 C   0  0  0  0  0  0  0  0  0  0  0  0
  -15.3244   -9.1780    3.6152 N   0  0  0  0  0  0  0  0  0  0  0  0
  -14.2346   -9.2728    4.4398 C   0  0  0  0  0  0  0  0  0  0  0  0
  -14.0556   -8.3875    5.4728 C   0  0  0  0  0  0  0  0  0  0  0  0
  -15.0261   -7.4116    5.6268 C   0  0  0  0  0  0  0  0  0  0  0  0
  -16.1301   -7.3267    4.7809 C   0  0  0  0  0  0  0  0  0  0  0  0
  -12.9107   -8.4369    6.3888 C   0  0  0  0  0  0  0  0  0  0  0  0
  -11.7007   -7.9334    6.0476 C   0  0  0  0  0  0  0  0  0  0  0  0
  -10.6137   -7.9857    6.9303 C   0  0  0  0  0  0  0  0  0  0  0  0
   -9.3907   -7.4661    6.5604 C   0  0  0  0  0  0  0  0  0  0  0  0
   -8.3407   -7.5447    7.4793 C   0  0  0  0  0  0  0  0  0  0  0  0
   -8.5519   -8.1327    8.7177 C   0  0  0  0  0  0  0  0  0  0  0  0
   -7.4529   -8.1780    9.6142 N   0  0  0  0  0  0  0  0  0  0  0  0
   -9.7652   -8.6352    9.0537 N   0  0  0  0  0  0  0  0  0  0  0  0
  -10.7771   -8.5615    8.1727 C   0  0  0  0  0  0  0  0  0  0  0  0
  -12.0338   -9.0701    8.4928 C   0  0  0  0  0  0  0  0  0  0  0  0
  -13.0447   -8.9997    7.6209 N   0  0  0  0  0  0  0  0  0  0  0  0
   -6.8763   -7.3212    9.7203 H   0  0  0  0  0  0  0  0  0  0  0  0
   -7.2252   -9.0249   10.1464 H   0  0  0  0  0  0  0  0  0  0  0  0
   -7.0720   -7.0095    7.0819 C   0  0  0  0  0  0  0  0  0  0  0  0
   -6.8324   -6.6520    5.7762 C   0  0  0  0  0  0  0  0  0  0  0  0
   -5.6300   -6.1460    5.3640 C   0  0  0  0  0  0  0  0  0  0  0  0
   -4.6141   -5.9824    6.2725 C   0  0  0  0  0  0  0  0  0  0  0  0
   -4.8135   -6.3287    7.5907 C   0  0  0  0  0  0  0  0  0  0  0  0
   -6.0456   -6.8401    7.9791 C   0  0  0  0  0  0  0  0  0  0  0  0
  -18.6852   -8.2174    3.3133 C   0  0  0  0  0  0  0  0  0  0  0  0
  -17.3638   -8.1933    2.8769 O   0  0  0  0  0  0  0  0  0  0  0  0
  -17.1202   -6.3260    4.9338 N   0  0  0  0  0  0  0  0  0  0  0  0
  -18.1122   -6.5927    4.6718 H   0  0  0  0  0  0  0  0  0  0  0  0
  -16.7940   -4.7285    5.5114 S   0  0  0  0  0  0  0  0  0  0  0  0
  -16.1339   -4.8116    6.8696 O   0  0  0  0  0  0  0  0  0  0  0  0
  -15.7905   -4.0845    4.6010 O   0  0  0  0  0  0  0  0  0  0  0  0
  -18.2082   -3.7368    5.5893 C   0  0  0  0  0  0  0  0  0  0  0  0
  -18.3054   -2.7004    6.4874 C   0  0  0  0  0  0  0  0  0  0  0  0
  -19.4512   -1.9295    6.5116 C   0  0  0  0  0  0  0  0  0  0  0  0
  -20.4931   -2.1845    5.6515 C   0  0  0  0  0  0  0  0  0  0  0  0
  -21.6361   -1.4313    5.6611 F   0  0  0  0  0  0  0  0  0  0  0  0
  -20.4152   -3.2262    4.7370 C   0  0  0  0  0  0  0  0  0  0  0  0
  -19.2582   -3.9771    4.7378 C   0  0  0  0  0  0  0  0  0  0  0  0
  -19.1459   -5.0017    3.8598 F   0  0  0  0  0  0  0  0  0  0  0  0
 26 27  1  0  0  0
 27  1  1  0  0  0
  1  2  2  0  0  0
  2  3  1  0  0  0
  3  4  2  0  0  0
  4  7  1  0  0  0
  7  8  2  0  0  0
  8  9  1  0  0  0
  9 10  2  0  0  0
 10 11  1  0  0  0
 11 20  1  0  0  0
 20 21  2  0  0  0
 21 22  1  0  0  0
 22 23  2  0  0  0
 23 24  1  0  0  0
 24 25  2  0  0  0
 11 12  2  0  0  0
 12 13  1  0  0  0
 12 14  1  0  0  0
 14 15  2  0  0  0
 15 16  1  0  0  0
 16 17  2  0  0  0
  4  5  1  0  0  0
  5  6  2  0  0  0
  6 28  1  0  0  0
 28 30  1  0  0  0
 30 31  2  0  0  0
 30 32  2  0  0  0
 30 33  1  0  0  0
 33 34  2  0  0  0
 34 35  1  0  0  0
 35 36  2  0  0  0
 36 37  1  0  0  0
 36 38  1  0  0  0
 38 39  2  0  0  0
 39 40  1  0  0  0
  6  1  1  0  0  0
 39 33  1  0  0  0
 17  7  1  0  0  0
 15  9  1  0  0  0
 25 20  1  0  0  0
 13 18  1  0  0  0
 13 19  1  0  0  0
 28 29  1  0  0  0
M  END
> <minimizedAffinity>
13.25836

> <CNNscore>
0.4177951217

> <CNNaffinity>
7.1592493057

> <CNN_VS>
2.9910993576

> <CNNaffinity_variance>
0.8413066864

$$$$
[H]c1nc(OC([H])([H])[H])c(N([H])S(=O)(=O)c2c([H])c([H])c(F)c([H])c2F)c([H])c1-c1nc([H])c2nc(N([H])[H])c(-c3c([H])c([H])c([H])c([H])c3[H])c([H])c2c1[H]


 40 44  0  0  0  0  0  0  0  0999 V2000
   -4.9180   -8.4673    6.1549 C   0  0  0  0  0  0  0  0  0  0  0  0
   -5.9542   -9.1800    5.6905 N   0  0  0  0  0  0  0  0  0  0  0  0
   -7.2534   -8.9214    6.0397 C   0  0  0  0  0  0  0  0  0  0  0  0
   -7.5594   -7.8976    6.9006 C   0  0  0  0  0  0  0  0  0  0  0  0
   -6.4942   -7.1568    7.3848 C   0  0  0  0  0  0  0  0  0  0  0  0
   -5.1772   -7.4305    7.0211 C   0  0  0  0  0  0  0  0  0  0  0  0
   -8.9293   -7.5715    7.3122 C   0  0  0  0  0  0  0  0  0  0  0  0
   -9.9968   -7.8520    6.5275 C   0  0  0  0  0  0  0  0  0  0  0  0
  -11.3012   -7.5363    6.9305 C   0  0  0  0  0  0  0  0  0  0  0  0
  -12.3729   -7.8317    6.1139 C   0  0  0  0  0  0  0  0  0  0  0  0
  -13.6521   -7.4952    6.5648 C   0  0  0  0  0  0  0  0  0  0  0  0
  -13.8083   -6.8836    7.8000 C   0  0  0  0  0  0  0  0  0  0  0  0
  -15.1301   -6.5717    8.2110 N   0  0  0  0  0  0  0  0  0  0  0  0
  -12.7360   -6.6051    8.5812 N   0  0  0  0  0  0  0  0  0  0  0  0
  -11.5044   -6.9271    8.1509 C   0  0  0  0  0  0  0  0  0  0  0  0
  -10.3857   -6.6521    8.9339 C   0  0  0  0  0  0  0  0  0  0  0  0
   -9.1579   -6.9701    8.5117 N   0  0  0  0  0  0  0  0  0  0  0  0
  -15.8645   -7.2927    8.0752 H   0  0  0  0  0  0  0  0  0  0  0  0
  -15.3650   -5.6655    8.6305 H   0  0  0  0  0  0  0  0  0  0  0  0
  -14.7581   -7.7989    5.7053 C   0  0  0  0  0  0  0  0  0  0  0  0
  -15.7758   -8.6221    6.1257 C   0  0  0  0  0  0  0  0  0  0  0  0
  -16.8405   -8.9373    5.3265 C   0  0  0  0  0  0  0  0  0  0  0  0
  -16.9125   -8.4229    4.0560 C   0  0  0  0  0  0  0  0  0  0  0  0
  -15.9129   -7.5940    3.5964 C   0  0  0  0  0  0  0  0  0  0  0  0
  -14.8442   -7.2922    4.4314 C   0  0  0  0  0  0  0  0  0  0  0  0
   -3.3209   -9.5030    4.6000 C   0  0  0  0  0  0  0  0  0  0  0  0
   -3.6063   -8.7843    5.7572 O   0  0  0  0  0  0  0  0  0  0  0  0
   -4.0867   -6.6773    7.5198 N   0  0  0  0  0  0  0  0  0  0  0  0
   -3.2997   -6.4704    6.8405 H   0  0  0  0  0  0  0  0  0  0  0  0
   -3.9809   -6.0960    9.1456 S   0  0  0  0  0  0  0  0  0  0  0  0
   -5.3713   -5.9878    9.7307 O   0  0  0  0  0  0  0  0  0  0  0  0
   -3.2601   -7.1176    9.9747 O   0  0  0  0  0  0  0  0  0  0  0  0
   -3.1566   -4.5811    9.2685 C   0  0  0  0  0  0  0  0  0  0  0  0
   -3.6365   -3.5694   10.0663 C   0  0  0  0  0  0  0  0  0  0  0  0
   -2.9432   -2.3771   10.1398 C   0  0  0  0  0  0  0  0  0  0  0  0
   -1.7822   -2.1895    9.4275 C   0  0  0  0  0  0  0  0  0  0  0  0
   -1.0817   -1.0149    9.4880 F   0  0  0  0  0  0  0  0  0  0  0  0
   -1.2804   -3.1981    8.6162 C   0  0  0  0  0  0  0  0  0  0  0  0
   -1.9959   -4.3763    8.5643 C   0  0  0  0  0  0  0  0  0  0  0  0
   -1.5374   -5.3830    7.7836 F   0  0  0  0  0  0  0  0  0  0  0  0
 26 27  1  0  0  0
 27  1  1  0  0  0
  1  2  2  0  0  0
  2  3  1  0  0  0
  3  4  2  0  0  0
  4  7  1  0  0  0
  7  8  2  0  0  0
  8  9  1  0  0  0
  9 10  2  0  0  0
 10 11  1  0  0  0
 11 20  1  0  0  0
 20 21  2  0  0  0
 21 22  1  0  0  0
 22 23  2  0  0  0
 23 24  1  0  0  0
 24 25  2  0  0  0
 11 12  2  0  0  0
 12 13  1  0  0  0
 12 14  1  0  0  0
 14 15  2  0  0  0
 15 16  1  0  0  0
 16 17  2  0  0  0
  4  5  1  0  0  0
  5  6  2  0  0  0
  6 28  1  0  0  0
 28 30  1  0  0  0
 30 31  2  0  0  0
 30 32  2  0  0  0
 30 33  1  0  0  0
 33 34  2  0  0  0
 34 35  1  0  0  0
 35 36  2  0  0  0
 36 37  1  0  0  0
 36 38  1  0  0  0
 38 39  2  0  0  0
 39 40  1  0  0  0
  6  1  1  0  0  0
 39 33  1  0  0  0
 17  7  1  0  0  0
 15  9  1  0  0  0
 25 20  1  0  0  0
 13 18  1  0  0  0
 13 19  1  0  0  0
 28 29  1  0  0  0
M  END
> <minimizedAffinity>
1.91263

> <CNNscore>
0.2842418253

> <CNNaffinity>
6.8999848366

> <CNN_VS>
1.9612642527

> <CNNaffinity_variance>
1.1515834332

$$$$
[H]c1nc(OC([H])([H])[H])c(N([H])S(=O)(=O)c2c([H])c([H])c(F)c([H])c2F)c([H])c1-c1nc([H])c2nc(N([H])[H])c(-c3c([H])c([H])c([H])c([H])c3[H])c([H])c2c1[H]


 40 44  0  0  0  0  0  0  0  0999 V2000
  -16.3867   -5.6872    6.3907 C   0  0  0  0  0  0  0  0  0  0  0  0
  -15.2214   -5.0516    6.5791 N   0  0  0  0  0  0  0  0  0  0  0  0
  -14.0494   -5.7075    6.8489 C   0  0  0  0  0  0  0  0  0  0  0  0
  -14.0148   -7.0762    6.9406 C   0  0  0  0  0  0  0  0  0  0  0  0
  -15.2148   -7.7399    6.7473 C   0  0  0  0  0  0  0  0  0  0  0  0
  -16.4000   -7.0603    6.4733 C   0  0  0  0  0  0  0  0  0  0  0  0
  -12.7924   -7.8352    7.2267 C   0  0  0  0  0  0  0  0  0  0  0  0
  -11.5671   -7.2605    7.1792 C   0  0  0  0  0  0  0  0  0  0  0  0
  -10.4059   -7.9948    7.4545 C   0  0  0  0  0  0  0  0  0  0  0  0
   -9.1686   -7.3874    7.3998 C   0  0  0  0  0  0  0  0  0  0  0  0
   -8.0435   -8.1664    7.6833 C   0  0  0  0  0  0  0  0  0  0  0  0
   -8.1974   -9.5064    8.0069 C   0  0  0  0  0  0  0  0  0  0  0  0
   -7.0217  -10.2474    8.2936 N   0  0  0  0  0  0  0  0  0  0  0  0
   -9.4264  -10.0765    8.0527 N   0  0  0  0  0  0  0  0  0  0  0  0
  -10.5105   -9.3306    7.7805 C   0  0  0  0  0  0  0  0  0  0  0  0
  -11.7849   -9.8916    7.8206 C   0  0  0  0  0  0  0  0  0  0  0  0
  -12.8674   -9.1551    7.5510 N   0  0  0  0  0  0  0  0  0  0  0  0
   -6.3105   -9.8112    8.9113 H   0  0  0  0  0  0  0  0  0  0  0  0
   -6.8679  -11.1857    7.9084 H   0  0  0  0  0  0  0  0  0  0  0  0
   -6.7622   -7.5278    7.6156 C   0  0  0  0  0  0  0  0  0  0  0  0
   -6.0707   -7.4531    6.4297 C   0  0  0  0  0  0  0  0  0  0  0  0
   -4.8427   -6.8576    6.3340 C   0  0  0  0  0  0  0  0  0  0  0  0
   -4.2642   -6.3095    7.4517 C   0  0  0  0  0  0  0  0  0  0  0  0
   -4.9243   -6.3636    8.6595 C   0  0  0  0  0  0  0  0  0  0  0  0
   -6.1702   -6.9751    8.7251 C   0  0  0  0  0  0  0  0  0  0  0  0
  -17.9419   -4.6025    4.8266 C   0  0  0  0  0  0  0  0  0  0  0  0
  -17.5561   -4.9545    6.1168 O   0  0  0  0  0  0  0  0  0  0  0  0
  -17.6286   -7.7375    6.2809 N   0  0  0  0  0  0  0  0  0  0  0  0
  -18.2995   -7.7506    7.1016 H   0  0  0  0  0  0  0  0  0  0  0  0
  -18.0732   -8.5264    4.8071 S   0  0  0  0  0  0  0  0  0  0  0  0
  -18.7830   -9.8230    5.1270 O   0  0  0  0  0  0  0  0  0  0  0  0
  -19.0747   -7.6715    4.0882 O   0  0  0  0  0  0  0  0  0  0  0  0
  -16.7251   -8.8195    3.7650 C   0  0  0  0  0  0  0  0  0  0  0  0
  -16.3380  -10.0982    3.4402 C   0  0  0  0  0  0  0  0  0  0  0  0
  -15.2586  -10.2868    2.5993 C   0  0  0  0  0  0  0  0  0  0  0  0
  -14.5681   -9.2152    2.0842 C   0  0  0  0  0  0  0  0  0  0  0  0
  -13.4962   -9.3828    1.2495 F   0  0  0  0  0  0  0  0  0  0  0  0
  -14.9425   -7.9160    2.3996 C   0  0  0  0  0  0  0  0  0  0  0  0
  -16.0242   -7.7613    3.2415 C   0  0  0  0  0  0  0  0  0  0  0  0
  -16.4187   -6.5089    3.5717 F   0  0  0  0  0  0  0  0  0  0  0  0
 26 27  1  0  0  0
 27  1  1  0  0  0
  1  2  2  0  0  0
  2  3  1  0  0  0
  3  4  2  0  0  0
  4  7  1  0  0  0
  7  8  2  0  0  0
  8  9  1  0  0  0
  9 10  2  0  0  0
 10 11  1  0  0  0
 11 20  1  0  0  0
 20 21  2  0  0  0
 21 22  1  0  0  0
 22 23  2  0  0  0
 23 24  1  0  0  0
 24 25  2  0  0  0
 11 12  2  0  0  0
 12 13  1  0  0  0
 12 14  1  0  0  0
 14 15  2  0  0  0
 15 16  1  0  0  0
 16 17  2  0  0  0
  4  5  1  0  0  0
  5  6  2  0  0  0
  6 28  1  0  0  0
 28 30  1  0  0  0
 30 31  2  0  0  0
 30 32  2  0  0  0
 30 33  1  0  0  0
 33 34  2  0  0  0
 34 35  1  0  0  0
 35 36  2  0  0  0
 36 37  1  0  0  0
 36 38  1  0  0  0
 38 39  2  0  0  0
 39 40  1  0  0  0
  6  1  1  0  0  0
 39 33  1  0  0  0
 17  7  1  0  0  0
 15  9  1  0  0  0
 25 20  1  0  0  0
 13 18  1  0  0  0
 13 19  1  0  0  0
 28 29  1  0  0  0
M  END
> <minimizedAffinity>
4.89369

> <CNNscore>
0.2794143856

> <CNNaffinity>
7.3989548683

> <CNN_VS>
2.0673744678

> <CNNaffinity_variance>
0.4572434425

$$$$
[H]c1nc(OC([H])([H])[H])c(N([H])S(=O)(=O)c2c([H])c([H])c(F)c([H])c2F)c([H])c1-c1nc([H])c2nc(N([H])[H])c(-c3c([H])c([H])c([H])c([H])c3[H])c([H])c2c1[H]


 40 44  0  0  0  0  0  0  0  0999 V2000
   -7.3316   -8.7007    5.9317 C   0  0  0  0  0  0  0  0  0  0  0  0
   -6.0681   -8.6301    5.4889 N   0  0  0  0  0  0  0  0  0  0  0  0
   -5.1938   -7.6515    5.8822 C   0  0  0  0  0  0  0  0  0  0  0  0
   -5.5811   -6.6772    6.7673 C   0  0  0  0  0  0  0  0  0  0  0  0
   -6.8850   -6.7434    7.2291 C   0  0  0  0  0  0  0  0  0  0  0  0
   -7.7641   -7.7445    6.8210 C   0  0  0  0  0  0  0  0  0  0  0  0
   -4.6922   -5.6039    7.2259 C   0  0  0  0  0  0  0  0  0  0  0  0
   -4.4920   -5.3557    8.5421 C   0  0  0  0  0  0  0  0  0  0  0  0
   -3.6406   -4.3281    8.9692 C   0  0  0  0  0  0  0  0  0  0  0  0
   -3.4524   -4.0941   10.3155 C   0  0  0  0  0  0  0  0  0  0  0  0
   -2.5926   -3.0566   10.6861 C   0  0  0  0  0  0  0  0  0  0  0  0
   -1.9617   -2.3024    9.7078 C   0  0  0  0  0  0  0  0  0  0  0  0
   -1.0933   -1.2672   10.1411 N   0  0  0  0  0  0  0  0  0  0  0  0
   -2.1660   -2.5553    8.3918 N   0  0  0  0  0  0  0  0  0  0  0  0
   -2.9921   -3.5520    8.0317 C   0  0  0  0  0  0  0  0  0  0  0  0
   -3.2195   -3.8329    6.6864 C   0  0  0  0  0  0  0  0  0  0  0  0
   -4.0400   -4.8231    6.3216 N   0  0  0  0  0  0  0  0  0  0  0  0
   -0.4295   -1.4796   10.9105 H   0  0  0  0  0  0  0  0  0  0  0  0
   -1.1114   -0.3341    9.7152 H   0  0  0  0  0  0  0  0  0  0  0  0
   -2.4105   -2.8165   12.0873 C   0  0  0  0  0  0  0  0  0  0  0  0
   -2.0653   -1.5697   12.5525 C   0  0  0  0  0  0  0  0  0  0  0  0
   -1.8765   -1.3105   13.8825 C   0  0  0  0  0  0  0  0  0  0  0  0
   -2.0327   -2.3192   14.8004 C   0  0  0  0  0  0  0  0  0  0  0  0
   -2.3780   -3.5830   14.3752 C   0  0  0  0  0  0  0  0  0  0  0  0
   -2.5629   -3.8154   13.0179 C   0  0  0  0  0  0  0  0  0  0  0  0
   -7.9736  -10.4198    4.2964 C   0  0  0  0  0  0  0  0  0  0  0  0
   -8.1800   -9.7319    5.4886 O   0  0  0  0  0  0  0  0  0  0  0  0
   -9.0993   -7.8101    7.2882 N   0  0  0  0  0  0  0  0  0  0  0  0
   -9.6745   -8.6427    6.9727 H   0  0  0  0  0  0  0  0  0  0  0  0
   -9.8175   -6.6233    8.3216 S   0  0  0  0  0  0  0  0  0  0  0  0
   -8.9618   -6.4502    9.5565 O   0  0  0  0  0  0  0  0  0  0  0  0
   -9.8009   -5.2994    7.6163 O   0  0  0  0  0  0  0  0  0  0  0  0
  -11.4433   -7.0097    8.7653 C   0  0  0  0  0  0  0  0  0  0  0  0
  -11.8886   -6.8503   10.0563 C   0  0  0  0  0  0  0  0  0  0  0  0
  -13.1972   -7.1657   10.3659 C   0  0  0  0  0  0  0  0  0  0  0  0
  -14.0580   -7.6357    9.4023 C   0  0  0  0  0  0  0  0  0  0  0  0
  -15.3579   -7.9534    9.6907 F   0  0  0  0  0  0  0  0  0  0  0  0
  -13.6286   -7.8039    8.0929 C   0  0  0  0  0  0  0  0  0  0  0  0
  -12.3166   -7.4802    7.8160 C   0  0  0  0  0  0  0  0  0  0  0  0
  -11.8617   -7.6312    6.5497 F   0  0  0  0  0  0  0  0  0  0  0  0
 26 27  1  0  0  0
 27  1  1  0  0  0
  1  2  2  0  0  0
  2  3  1  0  0  0
  3  4  2  0  0  0
  4  7  1  0  0  0
  7  8  2  0  0  0
  8  9  1  0  0  0
  9 10  2  0  0  0
 10 11  1  0  0  0
 11 20  1  0  0  0
 20 21  2  0  0  0
 21 22  1  0  0  0
 22 23  2  0  0  0
 23 24  1  0  0  0
 24 25  2  0  0  0
 11 12  2  0  0  0
 12 13  1  0  0  0
 12 14  1  0  0  0
 14 15  2  0  0  0
 15 16  1  0  0  0
 16 17  2  0  0  0
  4  5  1  0  0  0
  5  6  2  0  0  0
  6 28  1  0  0  0
 28 30  1  0  0  0
 30 31  2  0  0  0
 30 32  2  0  0  0
 30 33  1  0  0  0
 33 34  2  0  0  0
 34 35  1  0  0  0
 35 36  2  0  0  0
 36 37  1  0  0  0
 36 38  1  0  0  0
 38 39  2  0  0  0
 39 40  1  0  0  0
  6  1  1  0  0  0
 39 33  1  0  0  0
 17  7  1  0  0  0
 15  9  1  0  0  0
 25 20  1  0  0  0
 13 18  1  0  0  0
 13 19  1  0  0  0
 28 29  1  0  0  0
M  END
> <minimizedAffinity>
-0.38003

> <CNNscore>
0.2298226058

> <CNNaffinity>
6.4592909813

> <CNN_VS>
1.4844911098

> <CNNaffinity_variance>
0.6125092506

$$$$
[H]c1nc(OC([H])([H])[H])c(N([H])S(=O)(=O)c2c([H])c([H])c(F)c([H])c2F)c([H])c1-c1nc([H])c2nc(N([H])[H])c(-c3c([H])c([H])c([H])c([H])c3[H])c([H])c2c1[H]


 40 44  0  0  0  0  0  0  0  0999 V2000
  -14.5400   -9.3552    5.3699 C   0  0  0  0  0  0  0  0  0  0  0  0
  -13.3288   -9.5076    4.8157 N   0  0  0  0  0  0  0  0  0  0  0  0
  -12.1708   -9.1194    5.4360 C   0  0  0  0  0  0  0  0  0  0  0  0
  -12.1993   -8.5437    6.6812 C   0  0  0  0  0  0  0  0  0  0  0  0
  -13.4470   -8.3828    7.2603 C   0  0  0  0  0  0  0  0  0  0  0  0
  -14.6172   -8.7824    6.6182 C   0  0  0  0  0  0  0  0  0  0  0  0
  -10.9949   -8.1073    7.3964 C   0  0  0  0  0  0  0  0  0  0  0  0
   -9.7779   -8.0914    6.8025 C   0  0  0  0  0  0  0  0  0  0  0  0
   -8.6340   -7.6725    7.4948 C   0  0  0  0  0  0  0  0  0  0  0  0
   -7.4049   -7.6651    6.8687 C   0  0  0  0  0  0  0  0  0  0  0  0
   -6.2970   -7.2379    7.6058 C   0  0  0  0  0  0  0  0  0  0  0  0
   -6.4591   -6.8395    8.9244 C   0  0  0  0  0  0  0  0  0  0  0  0
   -5.3017   -6.4076    9.6224 N   0  0  0  0  0  0  0  0  0  0  0  0
   -7.6797   -6.8576    9.5138 N   0  0  0  0  0  0  0  0  0  0  0  0
   -8.7473   -7.2678    8.8083 C   0  0  0  0  0  0  0  0  0  0  0  0
  -10.0128   -7.2960    9.3898 C   0  0  0  0  0  0  0  0  0  0  0  0
  -11.0788   -7.7028    8.6934 N   0  0  0  0  0  0  0  0  0  0  0  0
   -4.6508   -5.7636    9.1332 H   0  0  0  0  0  0  0  0  0  0  0  0
   -5.1033   -6.7152   10.5807 H   0  0  0  0  0  0  0  0  0  0  0  0
   -5.0234   -7.2419    6.9485 C   0  0  0  0  0  0  0  0  0  0  0  0
   -4.5834   -6.1416    6.2515 C   0  0  0  0  0  0  0  0  0  0  0  0
   -3.3768   -6.1170    5.6071 C   0  0  0  0  0  0  0  0  0  0  0  0
   -2.5626   -7.2214    5.6465 C   0  0  0  0  0  0  0  0  0  0  0  0
   -2.9667   -8.3445    6.3341 C   0  0  0  0  0  0  0  0  0  0  0  0
   -4.1976   -8.3393    6.9785 C   0  0  0  0  0  0  0  0  0  0  0  0
  -15.9807   -9.3747    3.3785 C   0  0  0  0  0  0  0  0  0  0  0  0
  -15.6918   -9.7753    4.6797 O   0  0  0  0  0  0  0  0  0  0  0  0
  -15.8940   -8.6134    7.2068 N   0  0  0  0  0  0  0  0  0  0  0  0
  -16.0705   -9.1254    8.1181 H   0  0  0  0  0  0  0  0  0  0  0  0
  -17.1479   -7.6369    6.5239 S   0  0  0  0  0  0  0  0  0  0  0  0
  -18.0979   -8.5161    5.7416 O   0  0  0  0  0  0  0  0  0  0  0  0
  -17.9557   -7.0434    7.6400 O   0  0  0  0  0  0  0  0  0  0  0  0
  -16.5426   -6.3643    5.5222 C   0  0  0  0  0  0  0  0  0  0  0  0
  -17.1665   -6.0232    4.3455 C   0  0  0  0  0  0  0  0  0  0  0  0
  -16.6524   -4.9960    3.5785 C   0  0  0  0  0  0  0  0  0  0  0  0
  -15.5278   -4.3119    3.9756 C   0  0  0  0  0  0  0  0  0  0  0  0
  -15.0041   -3.2913    3.2286 F   0  0  0  0  0  0  0  0  0  0  0  0
  -14.8827   -4.6404    5.1602 C   0  0  0  0  0  0  0  0  0  0  0  0
  -15.4208   -5.6705    5.9033 C   0  0  0  0  0  0  0  0  0  0  0  0
  -14.8188   -6.0194    7.0648 F   0  0  0  0  0  0  0  0  0  0  0  0
 26 27  1  0  0  0
 27  1  1  0  0  0
  1  2  2  0  0  0
  2  3  1  0  0  0
  3  4  2  0  0  0
  4  7  1  0  0  0
  7  8  2  0  0  0
  8  9  1  0  0  0
  9 10  2  0  0  0
 10 11  1  0  0  0
 11 20  1  0  0  0
 20 21  2  0  0  0
 21 22  1  0  0  0
 22 23  2  0  0  0
 23 24  1  0  0  0
 24 25  2  0  0  0
 11 12  2  0  0  0
 12 13  1  0  0  0
 12 14  1  0  0  0
 14 15  2  0  0  0
 15 16  1  0  0  0
 16 17  2  0  0  0
  4  5  1  0  0  0
  5  6  2  0  0  0
  6 28  1  0  0  0
 28 30  1  0  0  0
 30 31  2  0  0  0
 30 32  2  0  0  0
 30 33  1  0  0  0
 33 34  2  0  0  0
 34 35  1  0  0  0
 35 36  2  0  0  0
 36 37  1  0  0  0
 36 38  1  0  0  0
 38 39  2  0  0  0
 39 40  1  0  0  0
  6  1  1  0  0  0
 39 33  1  0  0  0
 17  7  1  0  0  0
 15  9  1  0  0  0
 25 20  1  0  0  0
 13 18  1  0  0  0
 13 19  1  0  0  0
 28 29  1  0  0  0
M  END
> <minimizedAffinity>
-1.67742

> <CNNscore>
0.1972846240

> <CNNaffinity>
7.0562438965

> <CNN_VS>
1.3920884132

> <CNNaffinity_variance>
0.2217833549

$$$$
[H]c1nc(OC([H])([H])[H])c(N([H])S(=O)(=O)c2c([H])c([H])c(F)c([H])c2F)c([H])c1-c1nc([H])c2nc(N([H])[H])c(-c3c([H])c([H])c([H])c([H])c3[H])c([H])c2c1[H]


 40 44  0  0  0  0  0  0  0  0999 V2000
   -8.3738   -6.3338    5.8475 C   0  0  0  0  0  0  0  0  0  0  0  0
   -8.7937   -5.3102    5.0903 N   0  0  0  0  0  0  0  0  0  0  0  0
  -10.1158   -5.0782    4.8167 C   0  0  0  0  0  0  0  0  0  0  0  0
  -11.0922   -5.9022    5.3171 C   0  0  0  0  0  0  0  0  0  0  0  0
  -10.6663   -6.9621    6.1002 C   0  0  0  0  0  0  0  0  0  0  0  0
   -9.3180   -7.1865    6.3708 C   0  0  0  0  0  0  0  0  0  0  0  0
  -12.5233   -5.7065    5.0599 C   0  0  0  0  0  0  0  0  0  0  0  0
  -13.4561   -6.5774    5.5129 C   0  0  0  0  0  0  0  0  0  0  0  0
  -14.8205   -6.3808    5.2618 C   0  0  0  0  0  0  0  0  0  0  0  0
  -15.7523   -7.2819    5.7335 C   0  0  0  0  0  0  0  0  0  0  0  0
  -17.0996   -7.0374    5.4542 C   0  0  0  0  0  0  0  0  0  0  0  0
  -17.4587   -5.9148    4.7229 C   0  0  0  0  0  0  0  0  0  0  0  0
  -18.8412   -5.7119    4.4759 N   0  0  0  0  0  0  0  0  0  0  0  0
  -16.5206   -5.0464    4.2718 N   0  0  0  0  0  0  0  0  0  0  0  0
  -15.2241   -5.2783    4.5383 C   0  0  0  0  0  0  0  0  0  0  0  0
  -14.2401   -4.4019    4.0867 C   0  0  0  0  0  0  0  0  0  0  0  0
  -12.9486   -4.6267    4.3486 N   0  0  0  0  0  0  0  0  0  0  0  0
  -19.5014   -5.8490    5.2652 H   0  0  0  0  0  0  0  0  0  0  0  0
  -19.1896   -5.4382    3.5506 H   0  0  0  0  0  0  0  0  0  0  0  0
  -18.0589   -7.9841    5.9416 C   0  0  0  0  0  0  0  0  0  0  0  0
  -18.3012   -8.1162    7.2885 C   0  0  0  0  0  0  0  0  0  0  0  0
  -19.2044   -9.0158    7.7855 C   0  0  0  0  0  0  0  0  0  0  0  0
  -19.9031   -9.8241    6.9237 C   0  0  0  0  0  0  0  0  0  0  0  0
  -19.6895   -9.7230    5.5667 C   0  0  0  0  0  0  0  0  0  0  0  0
  -18.7657   -8.8001    5.0921 C   0  0  0  0  0  0  0  0  0  0  0  0
   -6.0156   -6.1418    5.1817 C   0  0  0  0  0  0  0  0  0  0  0  0
   -7.0003   -6.5171    6.0909 O   0  0  0  0  0  0  0  0  0  0  0  0
   -8.8808   -8.2730    7.1668 N   0  0  0  0  0  0  0  0  0  0  0  0
   -9.1474   -9.2441    6.8360 H   0  0  0  0  0  0  0  0  0  0  0  0
   -7.9577   -8.0933    8.6186 S   0  0  0  0  0  0  0  0  0  0  0  0
   -8.6340   -7.0856    9.5211 O   0  0  0  0  0  0  0  0  0  0  0  0
   -7.9759   -9.3954    9.3633 O   0  0  0  0  0  0  0  0  0  0  0  0
   -6.3179   -7.6313    8.3230 C   0  0  0  0  0  0  0  0  0  0  0  0
   -5.7814   -6.4994    8.8899 C   0  0  0  0  0  0  0  0  0  0  0  0
   -4.4650   -6.1706    8.6317 C   0  0  0  0  0  0  0  0  0  0  0  0
   -3.6863   -6.9585    7.8173 C   0  0  0  0  0  0  0  0  0  0  0  0
   -2.3800   -6.6485    7.5502 F   0  0  0  0  0  0  0  0  0  0  0  0
   -4.2085   -8.1056    7.2351 C   0  0  0  0  0  0  0  0  0  0  0  0
   -5.5259   -8.4063    7.5125 C   0  0  0  0  0  0  0  0  0  0  0  0
   -6.0701   -9.5174    6.9625 F   0  0  0  0  0  0  0  0  0  0  0  0
 26 27  1  0  0  0
 27  1  1  0  0  0
  1  2  2  0  0  0
  2  3  1  0  0  0
  3  4  2  0  0  0
  4  7  1  0  0  0
  7  8  2  0  0  0
  8  9  1  0  0  0
  9 10  2  0  0  0
 10 11  1  0  0  0
 11 20  1  0  0  0
 20 21  2  0  0  0
 21 22  1  0  0  0
 22 23  2  0  0  0
 23 24  1  0  0  0
 24 25  2  0  0  0
 11 12  2  0  0  0
 12 13  1  0  0  0
 12 14  1  0  0  0
 14 15  2  0  0  0
 15 16  1  0  0  0
 16 17  2  0  0  0
  4  5  1  0  0  0
  5  6  2  0  0  0
  6 28  1  0  0  0
 28 30  1  0  0  0
 30 31  2  0  0  0
 30 32  2  0  0  0
 30 33  1  0  0  0
 33 34  2  0  0  0
 34 35  1  0  0  0
 35 36  2  0  0  0
 36 37  1  0  0  0
 36 38  1  0  0  0
 38 39  2  0  0  0
 39 40  1  0  0  0
  6  1  1  0  0  0
 39 33  1  0  0  0
 17  7  1  0  0  0
 15  9  1  0  0  0
 25 20  1  0  0  0
 13 18  1  0  0  0
 13 19  1  0  0  0
 28 29  1  0  0  0
M  END
> <minimizedAffinity>
20.40703

> <CNNscore>
0.1861833781

> <CNNaffinity>
6.4281339645

> <CNN_VS>
1.1968116760

> <CNNaffinity_variance>
0.3229640424

$$$$
[H]c1c([H])c(S(=O)(=O)C([H])([H])C([H])([H])C([H])([H])C([H])([H])C([H])([H])C([H])([H])[H])c(Cl)c(Cl)c1C(=O)C([H])([H])C([H])([H])N1C([H])([H])C1([H])C([H])([H])[H]


 25 26  0  0  0  0  0  0  0  0999 V2000
  -11.8662   -7.6131    8.3861 C   0  0  0  0  0  0  0  0  0  0  0  0
  -10.8118   -6.7869    8.7353 C   0  0  0  0  0  0  0  0  0  0  0  0
   -9.5194   -7.1289    8.4398 C   0  0  0  0  0  0  0  0  0  0  0  0
   -9.2130   -8.2880    7.7899 C   0  0  0  0  0  0  0  0  0  0  0  0
  -10.2638   -9.1419    7.4293 C   0  0  0  0  0  0  0  0  0  0  0  0
   -9.8755  -10.6457    6.5946 Cl  0  0  0  0  0  0  0  0  0  0  0  0
  -11.5578   -8.7872    7.7360 C   0  0  0  0  0  0  0  0  0  0  0  0
  -12.8646   -9.8596    7.2968 Cl  0  0  0  0  0  0  0  0  0  0  0  0
  -13.5122   -7.1105    8.7009 S   0  0  0  0  0  0  0  0  0  0  0  0
  -13.4169   -5.8802    9.6054 O   0  0  0  0  0  0  0  0  0  0  0  0
  -14.3084   -8.1798    9.3340 O   0  0  0  0  0  0  0  0  0  0  0  0
  -14.1787   -6.6050    7.1318 C   0  0  0  0  0  0  0  0  0  0  0  0
  -15.3491   -7.4224    6.7115 C   0  0  0  0  0  0  0  0  0  0  0  0
  -15.7022   -6.9792    5.2825 C   0  0  0  0  0  0  0  0  0  0  0  0
  -14.9662   -5.7090    4.9604 C   0  0  0  0  0  0  0  0  0  0  0  0
  -17.2105   -5.0222    4.3731 C   0  0  0  0  0  0  0  0  0  0  0  0
  -15.7343   -4.6827    4.2100 C   0  0  0  0  0  0  0  0  0  0  0  0
   -7.8333   -8.6183    7.3416 C   0  0  0  0  0  0  0  0  0  0  0  0
   -7.1520   -9.3649    7.9833 O   0  0  0  0  0  0  0  0  0  0  0  0
   -7.4230   -7.9596    6.1038 C   0  0  0  0  0  0  0  0  0  0  0  0
   -6.5037   -6.8064    6.1932 C   0  0  0  0  0  0  0  0  0  0  0  0
   -5.1241   -6.9552    6.1559 N   0  0  0  0  0  0  0  0  0  0  0  0
   -4.2013   -7.7848    6.7666 C   0  0  0  0  0  0  0  0  0  0  0  0
   -4.3960   -6.3625    7.2958 C   0  0  0  0  0  0  0  0  0  0  0  0
   -5.1294   -6.2596    8.5978 C   0  0  0  0  0  0  0  0  0  0  0  0
 16 17  1  0  0  0
 17 15  1  0  0  0
 15 14  1  0  0  0
 14 13  1  0  0  0
 13 12  1  0  0  0
 12  9  1  0  0  0
  9 10  2  0  0  0
  9 11  2  0  0  0
  9  1  1  0  0  0
  1  2  2  0  0  0
  2  3  1  0  0  0
  3  4  2  0  0  0
  4 18  1  0  0  0
 18 19  2  0  0  0
 18 20  1  0  0  0
 20 21  1  0  0  0
 21 22  1  0  0  0
 22 23  1  0  0  0
 23 24  1  0  0  0
 24 25  1  0  0  0
  4  5  1  0  0  0
  5  6  1  0  0  0
  5  7  2  0  0  0
  7  8  1  0  0  0
  7  1  1  0  0  0
 24 22  1  0  0  0
M  END
> <minimizedAffinity>
-7.59543

> <CNNscore>
0.5253972411

> <CNNaffinity>
6.8939690590

> <CNN_VS>
3.6220722198

> <CNNaffinity_variance>
0.1261161268

$$$$
[H]c1c([H])c(S(=O)(=O)C([H])([H])C([H])([H])C([H])([H])C([H])([H])C([H])([H])C([H])([H])[H])c(Cl)c(Cl)c1C(=O)C([H])([H])C([H])([H])N1C([H])([H])C1([H])C([H])([H])[H]


 25 26  0  0  0  0  0  0  0  0999 V2000
   -9.4887   -8.4656    7.6284 C   0  0  0  0  0  0  0  0  0  0  0  0
   -9.8863   -9.6574    7.0472 C   0  0  0  0  0  0  0  0  0  0  0  0
  -11.2128   -9.9565    6.8871 C   0  0  0  0  0  0  0  0  0  0  0  0
  -12.1962   -9.1001    7.2863 C   0  0  0  0  0  0  0  0  0  0  0  0
  -11.8177   -7.8889    7.8803 C   0  0  0  0  0  0  0  0  0  0  0  0
  -13.0833   -6.7790    8.4051 Cl  0  0  0  0  0  0  0  0  0  0  0  0
  -10.4807   -7.6029    8.0382 C   0  0  0  0  0  0  0  0  0  0  0  0
  -10.0119   -6.0980    8.7909 Cl  0  0  0  0  0  0  0  0  0  0  0  0
   -7.7875   -8.0732    7.7426 S   0  0  0  0  0  0  0  0  0  0  0  0
   -7.0335   -9.2726    7.1648 O   0  0  0  0  0  0  0  0  0  0  0  0
   -7.3725   -7.7990    9.1321 O   0  0  0  0  0  0  0  0  0  0  0  0
   -7.5332   -6.6785    6.6694 C   0  0  0  0  0  0  0  0  0  0  0  0
   -6.5439   -6.9523    5.5918 C   0  0  0  0  0  0  0  0  0  0  0  0
   -5.2532   -6.2156    5.9851 C   0  0  0  0  0  0  0  0  0  0  0  0
   -4.2233   -7.2182    6.4243 C   0  0  0  0  0  0  0  0  0  0  0  0
   -4.3567   -5.8838    8.4380 C   0  0  0  0  0  0  0  0  0  0  0  0
   -3.8894   -7.2188    7.8716 C   0  0  0  0  0  0  0  0  0  0  0  0
  -13.6369   -9.3424    7.0044 C   0  0  0  0  0  0  0  0  0  0  0  0
  -14.3632   -9.7396    7.8694 O   0  0  0  0  0  0  0  0  0  0  0  0
  -14.0416   -9.0645    5.6285 C   0  0  0  0  0  0  0  0  0  0  0  0
  -14.5760   -7.7242    5.3106 C   0  0  0  0  0  0  0  0  0  0  0  0
  -15.6590   -7.1799    5.9869 N   0  0  0  0  0  0  0  0  0  0  0  0
  -16.9230   -7.6137    6.3433 C   0  0  0  0  0  0  0  0  0  0  0  0
  -16.7599   -6.6981    5.1283 C   0  0  0  0  0  0  0  0  0  0  0  0
  -16.9324   -7.3645    3.7979 C   0  0  0  0  0  0  0  0  0  0  0  0
 16 17  1  0  0  0
 17 15  1  0  0  0
 15 14  1  0  0  0
 14 13  1  0  0  0
 13 12  1  0  0  0
 12  9  1  0  0  0
  9 10  2  0  0  0
  9 11  2  0  0  0
  9  1  1  0  0  0
  1  2  2  0  0  0
  2  3  1  0  0  0
  3  4  2  0  0  0
  4 18  1  0  0  0
 18 19  2  0  0  0
 18 20  1  0  0  0
 20 21  1  0  0  0
 21 22  1  0  0  0
 22 23  1  0  0  0
 23 24  1  0  0  0
 24 25  1  0  0  0
  4  5  1  0  0  0
  5  6  1  0  0  0
  5  7  2  0  0  0
  7  8  1  0  0  0
  7  1  1  0  0  0
 24 22  1  0  0  0
M  END
> <minimizedAffinity>
-7.00095

> <CNNscore>
0.5097535253

> <CNNaffinity>
7.1170959473

> <CNN_VS>
3.6279647350

> <CNNaffinity_variance>
0.1244332045

$$$$
[H]c1c([H])c(S(=O)(=O)C([H])([H])C([H])([H])C([H])([H])C([H])([H])C([H])([H])C([H])([H])[H])c(Cl)c(Cl)c1C(=O)C([H])([H])C([H])([H])N1C([H])([H])C1([H])C([H])([H])[H]


 25 26  0  0  0  0  0  0  0  0999 V2000
  -12.0462   -8.9362    7.6292 C   0  0  0  0  0  0  0  0  0  0  0  0
  -11.1250   -9.8745    7.1963 C   0  0  0  0  0  0  0  0  0  0  0  0
   -9.7853   -9.5925    7.1793 C   0  0  0  0  0  0  0  0  0  0  0  0
   -9.2993   -8.3856    7.5880 C   0  0  0  0  0  0  0  0  0  0  0  0
  -10.2133   -7.4189    8.0274 C   0  0  0  0  0  0  0  0  0  0  0  0
   -9.5935   -5.8535    8.5513 Cl  0  0  0  0  0  0  0  0  0  0  0  0
  -11.5575   -7.7147    8.0357 C   0  0  0  0  0  0  0  0  0  0  0  0
  -12.6957   -6.5031    8.5717 Cl  0  0  0  0  0  0  0  0  0  0  0  0
  -13.7428   -9.3538    7.7200 S   0  0  0  0  0  0  0  0  0  0  0  0
  -14.2726   -8.7092    9.0025 O   0  0  0  0  0  0  0  0  0  0  0  0
  -13.9560  -10.8142    7.7274 O   0  0  0  0  0  0  0  0  0  0  0  0
  -14.5177   -8.5607    6.3300 C   0  0  0  0  0  0  0  0  0  0  0  0
  -13.9847   -9.0349    5.0239 C   0  0  0  0  0  0  0  0  0  0  0  0
  -15.1309   -8.9004    4.0085 C   0  0  0  0  0  0  0  0  0  0  0  0
  -15.7212   -7.5216    4.1056 C   0  0  0  0  0  0  0  0  0  0  0  0
  -17.9059   -8.3930    4.6723 C   0  0  0  0  0  0  0  0  0  0  0  0
  -17.1655   -7.4061    3.7784 C   0  0  0  0  0  0  0  0  0  0  0  0
   -7.8433   -8.1023    7.7036 C   0  0  0  0  0  0  0  0  0  0  0  0
   -7.2578   -8.3520    8.7177 O   0  0  0  0  0  0  0  0  0  0  0  0
   -7.2431   -7.5105    6.5104 C   0  0  0  0  0  0  0  0  0  0  0  0
   -6.0534   -6.6500    6.6755 C   0  0  0  0  0  0  0  0  0  0  0  0
   -4.7654   -7.1662    6.7068 N   0  0  0  0  0  0  0  0  0  0  0  0
   -3.6199   -6.9248    7.4435 C   0  0  0  0  0  0  0  0  0  0  0  0
   -3.7407   -6.3428    6.0336 C   0  0  0  0  0  0  0  0  0  0  0  0
   -3.9824   -4.8658    5.9703 C   0  0  0  0  0  0  0  0  0  0  0  0
 16 17  1  0  0  0
 17 15  1  0  0  0
 15 14  1  0  0  0
 14 13  1  0  0  0
 13 12  1  0  0  0
 12  9  1  0  0  0
  9 10  2  0  0  0
  9 11  2  0  0  0
  9  1  1  0  0  0
  1  2  2  0  0  0
  2  3  1  0  0  0
  3  4  2  0  0  0
  4 18  1  0  0  0
 18 19  2  0  0  0
 18 20  1  0  0  0
 20 21  1  0  0  0
 21 22  1  0  0  0
 22 23  1  0  0  0
 23 24  1  0  0  0
 24 25  1  0  0  0
  4  5  1  0  0  0
  5  6  1  0  0  0
  5  7  2  0  0  0
  7  8  1  0  0  0
  7  1  1  0  0  0
 24 22  1  0  0  0
M  END
> <minimizedAffinity>
-6.89295

> <CNNscore>
0.4909525514

> <CNNaffinity>
6.8671865463

> <CNN_VS>
3.3714628220

> <CNNaffinity_variance>
0.1607333124

$$$$
[H]c1c([H])c(S(=O)(=O)C([H])([H])C([H])([H])C([H])([H])C([H])([H])C([H])([H])C([H])([H])[H])c(Cl)c(Cl)c1C(=O)C([H])([H])C([H])([H])N1C([H])([H])C1([H])C([H])([H])[H]


 25 26  0  0  0  0  0  0  0  0999 V2000
   -9.4925   -8.3729    7.9663 C   0  0  0  0  0  0  0  0  0  0  0  0
   -9.9208   -7.2087    8.5809 C   0  0  0  0  0  0  0  0  0  0  0  0
  -11.2489   -6.8780    8.6184 C   0  0  0  0  0  0  0  0  0  0  0  0
  -12.2044   -7.6747    8.0599 C   0  0  0  0  0  0  0  0  0  0  0  0
  -11.7942   -8.8569    7.4294 C   0  0  0  0  0  0  0  0  0  0  0  0
  -13.0228   -9.8893    6.6991 Cl  0  0  0  0  0  0  0  0  0  0  0  0
  -10.4555   -9.1751    7.3960 C   0  0  0  0  0  0  0  0  0  0  0  0
   -9.9458  -10.6427    6.5979 Cl  0  0  0  0  0  0  0  0  0  0  0  0
   -7.7994   -8.8117    8.0080 S   0  0  0  0  0  0  0  0  0  0  0  0
   -7.7561  -10.3231    8.2418 O   0  0  0  0  0  0  0  0  0  0  0  0
   -7.0629   -8.0859    9.0611 O   0  0  0  0  0  0  0  0  0  0  0  0
   -7.1660   -8.4757    6.3808 C   0  0  0  0  0  0  0  0  0  0  0  0
   -7.1328   -7.0222    6.0631 C   0  0  0  0  0  0  0  0  0  0  0  0
   -5.6576   -6.6590    5.8280 C   0  0  0  0  0  0  0  0  0  0  0  0
   -5.1072   -5.9956    7.0592 C   0  0  0  0  0  0  0  0  0  0  0  0
   -3.5415   -7.8321    6.8868 C   0  0  0  0  0  0  0  0  0  0  0  0
   -4.1083   -6.7788    7.8306 C   0  0  0  0  0  0  0  0  0  0  0  0
  -13.6606   -7.4048    8.2022 C   0  0  0  0  0  0  0  0  0  0  0  0
  -14.2453   -7.7494    9.1886 O   0  0  0  0  0  0  0  0  0  0  0  0
  -14.2650   -6.7179    7.0635 C   0  0  0  0  0  0  0  0  0  0  0  0
  -15.4595   -7.3183    6.4342 C   0  0  0  0  0  0  0  0  0  0  0  0
  -16.0965   -6.7338    5.3483 N   0  0  0  0  0  0  0  0  0  0  0  0
  -17.1055   -7.1019    4.4769 C   0  0  0  0  0  0  0  0  0  0  0  0
  -15.6480   -7.2099    4.0242 C   0  0  0  0  0  0  0  0  0  0  0  0
  -15.1044   -8.6035    3.9458 C   0  0  0  0  0  0  0  0  0  0  0  0
 16 17  1  0  0  0
 17 15  1  0  0  0
 15 14  1  0  0  0
 14 13  1  0  0  0
 13 12  1  0  0  0
 12  9  1  0  0  0
  9 10  2  0  0  0
  9 11  2  0  0  0
  9  1  1  0  0  0
  1  2  2  0  0  0
  2  3  1  0  0  0
  3  4  2  0  0  0
  4 18  1  0  0  0
 18 19  2  0  0  0
 18 20  1  0  0  0
 20 21  1  0  0  0
 21 22  1  0  0  0
 22 23  1  0  0  0
 23 24  1  0  0  0
 24 25  1  0  0  0
  4  5  1  0  0  0
  5  6  1  0  0  0
  5  7  2  0  0  0
  7  8  1  0  0  0
  7  1  1  0  0  0
 24 22  1  0  0  0
M  END
> <minimizedAffinity>
-7.56094

> <CNNscore>
0.4886929989

> <CNNaffinity>
7.0151810646

> <CNN_VS>
3.4282698631

> <CNNaffinity_variance>
0.0919344872

$$$$
[H]c1c([H])c(S(=O)(=O)C([H])([H])C([H])([H])C([H])([H])C([H])([H])C([H])([H])C([H])([H])[H])c(Cl)c(Cl)c1C(=O)C([H])([H])C([H])([H])N1C([H])([H])C1([H])C([H])([H])[H]


 25 26  0  0  0  0  0  0  0  0999 V2000
  -12.0604   -7.7786    8.3026 C   0  0  0  0  0  0  0  0  0  0  0  0
  -11.4400   -6.6316    8.7673 C   0  0  0  0  0  0  0  0  0  0  0  0
  -10.1001   -6.4265    8.5745 C   0  0  0  0  0  0  0  0  0  0  0  0
   -9.3210   -7.3332    7.9182 C   0  0  0  0  0  0  0  0  0  0  0  0
   -9.9265   -8.5035    7.4416 C   0  0  0  0  0  0  0  0  0  0  0  0
   -8.9247   -9.6838    6.5977 Cl  0  0  0  0  0  0  0  0  0  0  0  0
  -11.2736   -8.6982    7.6457 C   0  0  0  0  0  0  0  0  0  0  0  0
  -12.0231  -10.1640    7.0621 Cl  0  0  0  0  0  0  0  0  0  0  0  0
  -13.7890   -7.9743    8.4888 S   0  0  0  0  0  0  0  0  0  0  0  0
  -14.1927   -7.0946    9.6737 O   0  0  0  0  0  0  0  0  0  0  0  0
  -14.1676   -9.3828    8.7145 O   0  0  0  0  0  0  0  0  0  0  0  0
  -14.5199   -7.3018    7.0140 C   0  0  0  0  0  0  0  0  0  0  0  0
  -14.7756   -8.3349    5.9737 C   0  0  0  0  0  0  0  0  0  0  0  0
  -15.0250   -7.5793    4.6584 C   0  0  0  0  0  0  0  0  0  0  0  0
  -16.0585   -8.3143    3.8518 C   0  0  0  0  0  0  0  0  0  0  0  0
  -18.3010   -7.4076    3.9036 C   0  0  0  0  0  0  0  0  0  0  0  0
  -17.3894   -8.4777    4.4909 C   0  0  0  0  0  0  0  0  0  0  0  0
   -7.8953   -7.0738    7.5812 C   0  0  0  0  0  0  0  0  0  0  0  0
   -7.6078   -6.5068    6.5666 O   0  0  0  0  0  0  0  0  0  0  0  0
   -6.9383   -7.5684    8.5680 C   0  0  0  0  0  0  0  0  0  0  0  0
   -5.5017   -7.5521    8.2229 C   0  0  0  0  0  0  0  0  0  0  0  0
   -4.7368   -6.3961    8.2935 N   0  0  0  0  0  0  0  0  0  0  0  0
   -4.2151   -5.4971    7.3810 C   0  0  0  0  0  0  0  0  0  0  0  0
   -3.3037   -6.5694    7.9815 C   0  0  0  0  0  0  0  0  0  0  0  0
   -2.9351   -7.6872    7.0549 C   0  0  0  0  0  0  0  0  0  0  0  0
 16 17  1  0  0  0
 17 15  1  0  0  0
 15 14  1  0  0  0
 14 13  1  0  0  0
 13 12  1  0  0  0
 12  9  1  0  0  0
  9 10  2  0  0  0
  9 11  2  0  0  0
  9  1  1  0  0  0
  1  2  2  0  0  0
  2  3  1  0  0  0
  3  4  2  0  0  0
  4 18  1  0  0  0
 18 19  2  0  0  0
 18 20  1  0  0  0
 20 21  1  0  0  0
 21 22  1  0  0  0
 22 23  1  0  0  0
 23 24  1  0  0  0
 24 25  1  0  0  0
  4  5  1  0  0  0
  5  6  1  0  0  0
  5  7  2  0  0  0
  7  8  1  0  0  0
  7  1  1  0  0  0
 24 22  1  0  0  0
M  END
> <minimizedAffinity>
-6.49592

> <CNNscore>
0.4471307695

> <CNNaffinity>
6.7148427963

> <CNN_VS>
3.0024127960

> <CNNaffinity_variance>
0.1047118753

$$$$
[H]c1c([H])c(S(=O)(=O)C([H])([H])C([H])([H])C([H])([H])C([H])([H])C([H])([H])C([H])([H])[H])c(Cl)c(Cl)c1C(=O)C([H])([H])C([H])([H])N1C([H])([H])C1([H])C([H])([H])[H]


 25 26  0  0  0  0  0  0  0  0999 V2000
  -17.4331   -7.3683    5.7367 C   0  0  0  0  0  0  0  0  0  0  0  0
  -18.0264   -7.3694    6.9875 C   0  0  0  0  0  0  0  0  0  0  0  0
  -19.0636   -8.2153    7.2759 C   0  0  0  0  0  0  0  0  0  0  0  0
  -19.5544   -9.0917    6.3535 C   0  0  0  0  0  0  0  0  0  0  0  0
  -18.9717   -9.1064    5.0793 C   0  0  0  0  0  0  0  0  0  0  0  0
  -19.6050  -10.2320    3.8790 Cl  0  0  0  0  0  0  0  0  0  0  0  0
  -17.9322   -8.2479    4.8021 C   0  0  0  0  0  0  0  0  0  0  0  0
  -17.2164   -8.2593    3.2090 Cl  0  0  0  0  0  0  0  0  0  0  0  0
  -16.0550   -6.3369    5.4235 S   0  0  0  0  0  0  0  0  0  0  0  0
  -16.5572   -4.8988    5.5673 O   0  0  0  0  0  0  0  0  0  0  0  0
  -15.4783   -6.5712    4.0853 O   0  0  0  0  0  0  0  0  0  0  0  0
  -14.8936   -6.6606    6.7304 C   0  0  0  0  0  0  0  0  0  0  0  0
  -13.5348   -6.9968    6.2250 C   0  0  0  0  0  0  0  0  0  0  0  0
  -13.0674   -8.2310    7.0134 C   0  0  0  0  0  0  0  0  0  0  0  0
  -11.7192   -7.9535    7.6168 C   0  0  0  0  0  0  0  0  0  0  0  0
  -11.1054  -10.0857    6.6521 C   0  0  0  0  0  0  0  0  0  0  0  0
  -10.8360   -9.1321    7.8094 C   0  0  0  0  0  0  0  0  0  0  0  0
  -20.5888  -10.1094    6.6818 C   0  0  0  0  0  0  0  0  0  0  0  0
  -21.6509  -10.0913    6.1295 O   0  0  0  0  0  0  0  0  0  0  0  0
  -20.1886  -11.0746    7.7028 C   0  0  0  0  0  0  0  0  0  0  0  0
  -20.5239  -10.7856    9.1125 C   0  0  0  0  0  0  0  0  0  0  0  0
  -19.6325  -11.0249   10.1492 N   0  0  0  0  0  0  0  0  0  0  0  0
  -19.3416  -12.0935   10.9776 C   0  0  0  0  0  0  0  0  0  0  0  0
  -20.2104  -10.9505   11.5062 C   0  0  0  0  0  0  0  0  0  0  0  0
  -21.6674  -11.2679   11.6482 C   0  0  0  0  0  0  0  0  0  0  0  0
 16 17  1  0  0  0
 17 15  1  0  0  0
 15 14  1  0  0  0
 14 13  1  0  0  0
 13 12  1  0  0  0
 12  9  1  0  0  0
  9 10  2  0  0  0
  9 11  2  0  0  0
  9  1  1  0  0  0
  1  2  2  0  0  0
  2  3  1  0  0  0
  3  4  2  0  0  0
  4 18  1  0  0  0
 18 19  2  0  0  0
 18 20  1  0  0  0
 20 21  1  0  0  0
 21 22  1  0  0  0
 22 23  1  0  0  0
 23 24  1  0  0  0
 24 25  1  0  0  0
  4  5  1  0  0  0
  5  6  1  0  0  0
  5  7  2  0  0  0
  7  8  1  0  0  0
  7  1  1  0  0  0
 24 22  1  0  0  0
M  END
> <minimizedAffinity>
8.34929

> <CNNscore>
0.4469942153

> <CNNaffinity>
6.5013399124

> <CNN_VS>
2.9060614109

> <CNNaffinity_variance>
0.6176800132

$$$$
[H]c1c([H])c(S(=O)(=O)C([H])([H])C([H])([H])C([H])([H])C([H])([H])C([H])([H])C([H])([H])[H])c(Cl)c(Cl)c1C(=O)C([H])([H])C([H])([H])N1C([H])([H])C1([H])C([H])([H])[H]


 25 26  0  0  0  0  0  0  0  0999 V2000
   -9.8267   -8.1702    7.6969 C   0  0  0  0  0  0  0  0  0  0  0  0
  -10.5651   -9.3164    7.4575 C   0  0  0  0  0  0  0  0  0  0  0  0
  -11.8813   -9.3978    7.8257 C   0  0  0  0  0  0  0  0  0  0  0  0
  -12.5222   -8.3610    8.4373 C   0  0  0  0  0  0  0  0  0  0  0  0
  -11.7941   -7.1915    8.6929 C   0  0  0  0  0  0  0  0  0  0  0  0
  -12.6138   -5.8488    9.4893 Cl  0  0  0  0  0  0  0  0  0  0  0  0
  -10.4707   -7.1249    8.3206 C   0  0  0  0  0  0  0  0  0  0  0  0
   -9.5620   -5.6707    8.6522 Cl  0  0  0  0  0  0  0  0  0  0  0  0
   -8.1718   -8.0638    7.1394 S   0  0  0  0  0  0  0  0  0  0  0  0
   -8.0564   -6.7305    6.3978 O   0  0  0  0  0  0  0  0  0  0  0  0
   -7.8059   -9.1955    6.2656 O   0  0  0  0  0  0  0  0  0  0  0  0
   -7.1658   -7.9823    8.6033 C   0  0  0  0  0  0  0  0  0  0  0  0
   -6.0880   -6.9607    8.5068 C   0  0  0  0  0  0  0  0  0  0  0  0
   -4.9772   -7.5767    7.6408 C   0  0  0  0  0  0  0  0  0  0  0  0
   -4.4877   -6.5510    6.6574 C   0  0  0  0  0  0  0  0  0  0  0  0
   -2.8143   -5.5924    5.1965 C   0  0  0  0  0  0  0  0  0  0  0  0
   -3.1291   -6.7771    6.1012 C   0  0  0  0  0  0  0  0  0  0  0  0
  -13.9816   -8.3760    8.7268 C   0  0  0  0  0  0  0  0  0  0  0  0
  -14.3901   -8.0107    9.7912 O   0  0  0  0  0  0  0  0  0  0  0  0
  -14.8131   -8.8669    7.6305 C   0  0  0  0  0  0  0  0  0  0  0  0
  -15.5024   -7.8789    6.7749 C   0  0  0  0  0  0  0  0  0  0  0  0
  -15.8829   -8.1666    5.4714 N   0  0  0  0  0  0  0  0  0  0  0  0
  -15.2256   -8.4591    4.2902 C   0  0  0  0  0  0  0  0  0  0  0  0
  -15.7628   -7.0448    4.5185 C   0  0  0  0  0  0  0  0  0  0  0  0
  -14.7241   -6.0059    4.8113 C   0  0  0  0  0  0  0  0  0  0  0  0
 16 17  1  0  0  0
 17 15  1  0  0  0
 15 14  1  0  0  0
 14 13  1  0  0  0
 13 12  1  0  0  0
 12  9  1  0  0  0
  9 10  2  0  0  0
  9 11  2  0  0  0
  9  1  1  0  0  0
  1  2  2  0  0  0
  2  3  1  0  0  0
  3  4  2  0  0  0
  4 18  1  0  0  0
 18 19  2  0  0  0
 18 20  1  0  0  0
 20 21  1  0  0  0
 21 22  1  0  0  0
 22 23  1  0  0  0
 23 24  1  0  0  0
 24 25  1  0  0  0
  4  5  1  0  0  0
  5  6  1  0  0  0
  5  7  2  0  0  0
  7  8  1  0  0  0
  7  1  1  0  0  0
 24 22  1  0  0  0
M  END
> <minimizedAffinity>
-6.14875

> <CNNscore>
0.3800241947

> <CNNaffinity>
6.9668455124

> <CNN_VS>
2.6475698948

> <CNNaffinity_variance>
0.0174021535

$$$$
[H]c1c([H])c(S(=O)(=O)C([H])([H])C([H])([H])C([H])([H])C([H])([H])C([H])([H])C([H])([H])[H])c(Cl)c(Cl)c1C(=O)C([H])([H])C([H])([H])N1C([H])([H])C1([H])C([H])([H])[H]


 25 26  0  0  0  0  0  0  0  0999 V2000
   -9.1881   -8.3783    7.6690 C   0  0  0  0  0  0  0  0  0  0  0  0
   -9.4013   -9.5995    7.0528 C   0  0  0  0  0  0  0  0  0  0  0  0
  -10.6649  -10.1070    6.9102 C   0  0  0  0  0  0  0  0  0  0  0  0
  -11.7639   -9.4374    7.3616 C   0  0  0  0  0  0  0  0  0  0  0  0
  -11.5724   -8.2006    7.9917 C   0  0  0  0  0  0  0  0  0  0  0  0
  -12.9876   -7.3315    8.5839 Cl  0  0  0  0  0  0  0  0  0  0  0  0
  -10.2963   -7.7042    8.1314 C   0  0  0  0  0  0  0  0  0  0  0  0
  -10.0595   -6.1684    8.9289 Cl  0  0  0  0  0  0  0  0  0  0  0  0
   -7.5715   -7.7159    7.7612 S   0  0  0  0  0  0  0  0  0  0  0  0
   -7.1743   -7.7643    9.2380 O   0  0  0  0  0  0  0  0  0  0  0  0
   -7.5041   -6.3391    7.2337 O   0  0  0  0  0  0  0  0  0  0  0  0
   -6.5290   -8.8405    6.8610 C   0  0  0  0  0  0  0  0  0  0  0  0
   -5.5702   -8.1439    5.9609 C   0  0  0  0  0  0  0  0  0  0  0  0
   -4.2378   -8.0580    6.7229 C   0  0  0  0  0  0  0  0  0  0  0  0
   -3.8772   -6.6140    6.9314 C   0  0  0  0  0  0  0  0  0  0  0  0
   -4.0052   -4.7452    5.4001 C   0  0  0  0  0  0  0  0  0  0  0  0
   -3.1672   -5.9505    5.8080 C   0  0  0  0  0  0  0  0  0  0  0  0
  -13.1527   -9.9035    7.1018 C   0  0  0  0  0  0  0  0  0  0  0  0
  -13.6970  -10.6399    7.8732 O   0  0  0  0  0  0  0  0  0  0  0  0
  -13.7420   -9.3969    5.8648 C   0  0  0  0  0  0  0  0  0  0  0  0
  -14.8792   -8.4586    5.9614 C   0  0  0  0  0  0  0  0  0  0  0  0
  -14.9318   -7.2816    5.2275 N   0  0  0  0  0  0  0  0  0  0  0  0
  -15.8434   -6.2535    5.0696 C   0  0  0  0  0  0  0  0  0  0  0  0
  -15.7485   -7.3420    3.9985 C   0  0  0  0  0  0  0  0  0  0  0  0
  -16.8833   -8.3194    3.9779 C   0  0  0  0  0  0  0  0  0  0  0  0
 16 17  1  0  0  0
 17 15  1  0  0  0
 15 14  1  0  0  0
 14 13  1  0  0  0
 13 12  1  0  0  0
 12  9  1  0  0  0
  9 10  2  0  0  0
  9 11  2  0  0  0
  9  1  1  0  0  0
  1  2  2  0  0  0
  2  3  1  0  0  0
  3  4  2  0  0  0
  4 18  1  0  0  0
 18 19  2  0  0  0
 18 20  1  0  0  0
 20 21  1  0  0  0
 21 22  1  0  0  0
 22 23  1  0  0  0
 23 24  1  0  0  0
 24 25  1  0  0  0
  4  5  1  0  0  0
  5  6  1  0  0  0
  5  7  2  0  0  0
  7  8  1  0  0  0
  7  1  1  0  0  0
 24 22  1  0  0  0
M  END
> <minimizedAffinity>
-7.05564

> <CNNscore>
0.3238349259

> <CNNaffinity>
6.8521690369

> <CNN_VS>
2.2189717293

> <CNNaffinity_variance>
0.1077028140

$$$$
[H]c1c([H])c(S(=O)(=O)C([H])([H])C([H])([H])C([H])([H])C([H])([H])C([H])([H])C([H])([H])[H])c(Cl)c(Cl)c1C(=O)C([H])([H])C([H])([H])N1C([H])([H])C1([H])C([H])([H])[H]


 25 26  0  0  0  0  0  0  0  0999 V2000
   -8.5047   -8.3063    7.0378 C   0  0  0  0  0  0  0  0  0  0  0  0
   -8.8746   -9.6306    6.8772 C   0  0  0  0  0  0  0  0  0  0  0  0
  -10.1391  -10.0530    7.1892 C   0  0  0  0  0  0  0  0  0  0  0  0
  -11.0865   -9.1955    7.6656 C   0  0  0  0  0  0  0  0  0  0  0  0
  -10.7340   -7.8506    7.8395 C   0  0  0  0  0  0  0  0  0  0  0  0
  -11.9513   -6.7368    8.4613 Cl  0  0  0  0  0  0  0  0  0  0  0  0
   -9.4583   -7.4407    7.5253 C   0  0  0  0  0  0  0  0  0  0  0  0
   -9.0178   -5.7662    7.7555 Cl  0  0  0  0  0  0  0  0  0  0  0  0
   -6.9091   -7.7790    6.5511 S   0  0  0  0  0  0  0  0  0  0  0  0
   -7.1210   -6.5928    5.6083 O   0  0  0  0  0  0  0  0  0  0  0  0
   -6.1446   -8.8561    5.8927 O   0  0  0  0  0  0  0  0  0  0  0  0
   -6.1162   -7.1883    8.0291 C   0  0  0  0  0  0  0  0  0  0  0  0
   -5.1886   -6.0532    7.7722 C   0  0  0  0  0  0  0  0  0  0  0  0
   -4.5420   -5.7023    9.1220 C   0  0  0  0  0  0  0  0  0  0  0  0
   -3.1703   -5.1363    8.8833 C   0  0  0  0  0  0  0  0  0  0  0  0
   -2.2867   -4.9833   11.1304 C   0  0  0  0  0  0  0  0  0  0  0  0
   -2.0924   -5.6429    9.7708 C   0  0  0  0  0  0  0  0  0  0  0  0
  -12.5008   -9.6015    7.8860 C   0  0  0  0  0  0  0  0  0  0  0  0
  -12.8887   -9.8662    8.9873 O   0  0  0  0  0  0  0  0  0  0  0  0
  -13.3156   -9.6464    6.6744 C   0  0  0  0  0  0  0  0  0  0  0  0
  -14.3484   -8.6071    6.4835 C   0  0  0  0  0  0  0  0  0  0  0  0
  -14.2963   -7.6952    5.4384 N   0  0  0  0  0  0  0  0  0  0  0  0
  -14.8985   -6.4837    5.1510 C   0  0  0  0  0  0  0  0  0  0  0  0
  -15.4271   -7.7586    4.4907 C   0  0  0  0  0  0  0  0  0  0  0  0
  -16.7369   -8.2569    5.0198 C   0  0  0  0  0  0  0  0  0  0  0  0
 16 17  1  0  0  0
 17 15  1  0  0  0
 15 14  1  0  0  0
 14 13  1  0  0  0
 13 12  1  0  0  0
 12  9  1  0  0  0
  9 10  2  0  0  0
  9 11  2  0  0  0
  9  1  1  0  0  0
  1  2  2  0  0  0
  2  3  1  0  0  0
  3  4  2  0  0  0
  4 18  1  0  0  0
 18 19  2  0  0  0
 18 20  1  0  0  0
 20 21  1  0  0  0
 21 22  1  0  0  0
 22 23  1  0  0  0
 23 24  1  0  0  0
 24 25  1  0  0  0
  4  5  1  0  0  0
  5  6  1  0  0  0
  5  7  2  0  0  0
  7  8  1  0  0  0
  7  1  1  0  0  0
 24 22  1  0  0  0
M  END
> <minimizedAffinity>
-6.04872

> <CNNscore>
0.3111179173

> <CNNaffinity>
6.6171751022

> <CNN_VS>
2.0587217808

> <CNNaffinity_variance>
0.0477648899

$$$$
[H]OC([H])([H])C([H])([H])N1C([H])([H])C([H])([H])N(c2c(Cl)c([H])c3nc(SC(C([H])([H])[H])(C([H])([H])[H])C([H])([H])[H])n([H])c3c2[H])[C@]([H])(C([H])([H])[H])C1([H])[H]


 27 29  0  0  0  0  0  0  0  0999 V2000
   -8.6133   -7.9326    7.6222 C   0  0  0  0  0  0  0  0  0  0  0  0
   -9.7480   -7.1064    7.6973 C   0  0  0  0  0  0  0  0  0  0  0  0
  -11.0260   -7.6107    7.7129 C   0  0  0  0  0  0  0  0  0  0  0  0
  -12.2231   -6.9995    7.7795 N   0  0  0  0  0  0  0  0  0  0  0  0
  -13.1448   -7.9786    7.7615 C   0  0  0  0  0  0  0  0  0  0  0  0
  -12.5374   -9.1738    7.6853 N   0  0  0  0  0  0  0  0  0  0  0  0
  -11.2097   -8.9983    7.6522 C   0  0  0  0  0  0  0  0  0  0  0  0
  -10.1069   -9.8232    7.5781 C   0  0  0  0  0  0  0  0  0  0  0  0
   -8.8189   -9.2956    7.5628 C   0  0  0  0  0  0  0  0  0  0  0  0
   -7.4893  -10.4326    7.4408 Cl  0  0  0  0  0  0  0  0  0  0  0  0
  -12.3612   -5.9649    7.8333 H   0  0  0  0  0  0  0  0  0  0  0  0
   -7.0044   -6.7595    5.2436 C   0  0  0  0  0  0  0  0  0  0  0  0
   -6.7018   -6.5385    6.6618 C   0  0  0  0  0  0  0  0  0  0  0  0
   -5.1961   -6.8000    6.7981 C   0  0  0  0  0  0  0  0  0  0  0  0
   -4.7138   -6.0368    7.9102 N   0  0  0  0  0  0  0  0  0  0  0  0
   -5.6007   -6.2245    8.9960 C   0  0  0  0  0  0  0  0  0  0  0  0
   -6.4923   -7.4804    8.8081 C   0  0  0  0  0  0  0  0  0  0  0  0
   -7.3423   -7.3469    7.6454 N   0  0  0  0  0  0  0  0  0  0  0  0
   -3.3418   -6.3605    8.1171 C   0  0  0  0  0  0  0  0  0  0  0  0
   -2.7884   -7.4647    7.2848 C   0  0  0  0  0  0  0  0  0  0  0  0
   -2.1440   -8.3686    8.1528 O   0  0  0  0  0  0  0  0  0  0  0  0
   -2.3461   -8.1859    9.0966 H   0  0  0  0  0  0  0  0  0  0  0  0
  -14.9027   -7.6908    7.8303 S   0  0  0  0  0  0  0  0  0  0  0  0
  -15.4610   -7.3593    6.1273 C   0  0  0  0  0  0  0  0  0  0  0  0
  -14.9604   -5.9895    5.7450 C   0  0  0  0  0  0  0  0  0  0  0  0
  -14.7998   -8.3579    5.1974 C   0  0  0  0  0  0  0  0  0  0  0  0
  -16.9547   -7.4742    6.1057 C   0  0  0  0  0  0  0  0  0  0  0  0
 12 13  1  0  0  0
 13 14  1  0  0  0
 14 15  1  0  0  0
 15 19  1  0  0  0
 19 20  1  0  0  0
 20 21  1  0  0  0
 15 16  1  0  0  0
 16 17  1  0  0  0
 17 18  1  0  0  0
 18  1  1  0  0  0
  1  2  2  0  0  0
  2  3  1  0  0  0
  3  4  1  0  0  0
  4  5  1  0  0  0
  5 23  1  0  0  0
 23 24  1  0  0  0
 24 25  1  0  0  0
 24 26  1  0  0  0
 24 27  1  0  0  0
  5  6  2  0  0  0
  6  7  1  0  0  0
  7  8  1  0  0  0
  8  9  2  0  0  0
  9 10  1  0  0  0
 18 13  1  0  0  0
  9  1  1  0  0  0
  7  3  2  0  0  0
 21 22  1  0  0  0
  4 11  1  0  0  0
M  END
> <minimizedAffinity>
-6.49970

> <CNNscore>
0.5700951219

> <CNNaffinity>
7.0102171898

> <CNN_VS>
3.9964907169

> <CNNaffinity_variance>
0.1107896343

$$$$
[H]OC([H])([H])C([H])([H])N1C([H])([H])C([H])([H])N(c2c(Cl)c([H])c3nc(SC(C([H])([H])[H])(C([H])([H])[H])C([H])([H])[H])n([H])c3c2[H])[C@]([H])(C([H])([H])[H])C1([H])[H]


 27 29  0  0  0  0  0  0  0  0999 V2000
  -14.7594   -7.1293    7.5249 C   0  0  0  0  0  0  0  0  0  0  0  0
  -14.5930   -7.7786    8.7604 C   0  0  0  0  0  0  0  0  0  0  0  0
  -13.7967   -7.2699    9.7579 C   0  0  0  0  0  0  0  0  0  0  0  0
  -13.5105   -7.7299   10.9897 N   0  0  0  0  0  0  0  0  0  0  0  0
  -12.6753   -6.8311   11.5403 C   0  0  0  0  0  0  0  0  0  0  0  0
  -12.4451   -5.8327   10.6723 N   0  0  0  0  0  0  0  0  0  0  0  0
  -13.1245   -6.0601    9.5403 C   0  0  0  0  0  0  0  0  0  0  0  0
  -13.2770   -5.4101    8.3334 C   0  0  0  0  0  0  0  0  0  0  0  0
  -14.0872   -5.9397    7.3333 C   0  0  0  0  0  0  0  0  0  0  0  0
  -14.1903   -5.0448    5.8285 Cl  0  0  0  0  0  0  0  0  0  0  0  0
  -13.8863   -8.6163   11.3966 H   0  0  0  0  0  0  0  0  0  0  0  0
  -14.0378   -9.0843    5.2271 C   0  0  0  0  0  0  0  0  0  0  0  0
  -15.3959   -8.8030    5.7046 C   0  0  0  0  0  0  0  0  0  0  0  0
  -16.2209   -8.5362    4.4388 C   0  0  0  0  0  0  0  0  0  0  0  0
  -17.5844   -8.8727    4.7208 N   0  0  0  0  0  0  0  0  0  0  0  0
  -17.9338   -8.3037    5.9678 C   0  0  0  0  0  0  0  0  0  0  0  0
  -16.9536   -7.1767    6.3877 C   0  0  0  0  0  0  0  0  0  0  0  0
  -15.6143   -7.6919    6.5701 N   0  0  0  0  0  0  0  0  0  0  0  0
  -18.3778   -8.5208    3.5909 C   0  0  0  0  0  0  0  0  0  0  0  0
  -18.5345   -7.0649    3.3186 C   0  0  0  0  0  0  0  0  0  0  0  0
  -17.2895   -6.5806    2.8699 O   0  0  0  0  0  0  0  0  0  0  0  0
  -16.6608   -7.3065    2.6633 H   0  0  0  0  0  0  0  0  0  0  0  0
  -11.9967   -6.9795   13.1819 S   0  0  0  0  0  0  0  0  0  0  0  0
  -10.9245   -5.5310   13.4542 C   0  0  0  0  0  0  0  0  0  0  0  0
   -9.5488   -6.0437   13.7973 C   0  0  0  0  0  0  0  0  0  0  0  0
  -10.8084   -4.7622   12.1524 C   0  0  0  0  0  0  0  0  0  0  0  0
  -11.5399   -4.7050   14.5422 C   0  0  0  0  0  0  0  0  0  0  0  0
 12 13  1  0  0  0
 13 14  1  0  0  0
 14 15  1  0  0  0
 15 19  1  0  0  0
 19 20  1  0  0  0
 20 21  1  0  0  0
 15 16  1  0  0  0
 16 17  1  0  0  0
 17 18  1  0  0  0
 18  1  1  0  0  0
  1  2  2  0  0  0
  2  3  1  0  0  0
  3  4  1  0  0  0
  4  5  1  0  0  0
  5 23  1  0  0  0
 23 24  1  0  0  0
 24 25  1  0  0  0
 24 26  1  0  0  0
 24 27  1  0  0  0
  5  6  2  0  0  0
  6  7  1  0  0  0
  7  8  1  0  0  0
  8  9  2  0  0  0
  9 10  1  0  0  0
 18 13  1  0  0  0
  9  1  1  0  0  0
  7  3  2  0  0  0
 21 22  1  0  0  0
  4 11  1  0  0  0
M  END
> <minimizedAffinity>
8.61510

> <CNNscore>
0.3877510130

> <CNNaffinity>
6.6237816811

> <CNN_VS>
2.5683779716

> <CNNaffinity_variance>
0.5783553720

$$$$
[H]OC([H])([H])C([H])([H])N1C([H])([H])C([H])([H])N(c2c(Cl)c([H])c3nc(SC(C([H])([H])[H])(C([H])([H])[H])C([H])([H])[H])n([H])c3c2[H])[C@]([H])(C([H])([H])[H])C1([H])[H]


 27 29  0  0  0  0  0  0  0  0999 V2000
  -11.2075   -7.4397    7.7507 C   0  0  0  0  0  0  0  0  0  0  0  0
  -12.0567   -7.8809    6.7211 C   0  0  0  0  0  0  0  0  0  0  0  0
  -13.4219   -7.7379    6.7810 C   0  0  0  0  0  0  0  0  0  0  0  0
  -14.3920   -8.0872    5.9163 N   0  0  0  0  0  0  0  0  0  0  0  0
  -15.5519   -7.7093    6.4823 C   0  0  0  0  0  0  0  0  0  0  0  0
  -15.3118   -7.1372    7.6732 N   0  0  0  0  0  0  0  0  0  0  0  0
  -13.9927   -7.1305    7.9071 C   0  0  0  0  0  0  0  0  0  0  0  0
  -13.1736   -6.6920    8.9264 C   0  0  0  0  0  0  0  0  0  0  0  0
  -11.7923   -6.8453    8.8499 C   0  0  0  0  0  0  0  0  0  0  0  0
  -10.8467   -6.2754   10.2125 Cl  0  0  0  0  0  0  0  0  0  0  0  0
  -14.2294   -8.5577    4.9972 H   0  0  0  0  0  0  0  0  0  0  0  0
   -9.5856  -10.0710    7.4889 C   0  0  0  0  0  0  0  0  0  0  0  0
   -9.0779   -8.7292    7.1831 C   0  0  0  0  0  0  0  0  0  0  0  0
   -7.7183   -8.6423    7.8888 C   0  0  0  0  0  0  0  0  0  0  0  0
   -6.9085   -7.7018    7.1737 N   0  0  0  0  0  0  0  0  0  0  0  0
   -7.6870   -6.5487    6.9184 C   0  0  0  0  0  0  0  0  0  0  0  0
   -8.9340   -6.4736    7.8385 C   0  0  0  0  0  0  0  0  0  0  0  0
   -9.8237   -7.5894    7.6026 N   0  0  0  0  0  0  0  0  0  0  0  0
   -5.6866   -7.5270    7.8855 C   0  0  0  0  0  0  0  0  0  0  0  0
   -5.1720   -6.1330    7.9867 C   0  0  0  0  0  0  0  0  0  0  0  0
   -5.2132   -5.7630    9.3458 O   0  0  0  0  0  0  0  0  0  0  0  0
   -5.3886   -6.5294    9.9346 H   0  0  0  0  0  0  0  0  0  0  0  0
  -17.1502   -7.9501    5.7304 S   0  0  0  0  0  0  0  0  0  0  0  0
  -17.3507   -6.6536    4.4652 C   0  0  0  0  0  0  0  0  0  0  0  0
  -17.9189   -5.4364    5.1499 C   0  0  0  0  0  0  0  0  0  0  0  0
  -15.9806   -6.2763    3.9364 C   0  0  0  0  0  0  0  0  0  0  0  0
  -18.2384   -7.1992    3.3886 C   0  0  0  0  0  0  0  0  0  0  0  0
 12 13  1  0  0  0
 13 14  1  0  0  0
 14 15  1  0  0  0
 15 19  1  0  0  0
 19 20  1  0  0  0
 20 21  1  0  0  0
 15 16  1  0  0  0
 16 17  1  0  0  0
 17 18  1  0  0  0
 18  1  1  0  0  0
  1  2  2  0  0  0
  2  3  1  0  0  0
  3  4  1  0  0  0
  4  5  1  0  0  0
  5 23  1  0  0  0
 23 24  1  0  0  0
 24 25  1  0  0  0
 24 26  1  0  0  0
 24 27  1  0  0  0
  5  6  2  0  0  0
  6  7  1  0  0  0
  7  8  1  0  0  0
  8  9  2  0  0  0
  9 10  1  0  0  0
 18 13  1  0  0  0
  9  1  1  0  0  0
  7  3  2  0  0  0
 21 22  1  0  0  0
  4 11  1  0  0  0
M  END
> <minimizedAffinity>
-7.37512

> <CNNscore>
0.3649104536

> <CNNaffinity>
7.2238655090

> <CNN_VS>
2.6360640526

> <CNNaffinity_variance>
0.3738476336

$$$$
[H]OC([H])([H])C([H])([H])N1C([H])([H])C([H])([H])N(c2c(Cl)c([H])c3nc(SC(C([H])([H])[H])(C([H])([H])[H])C([H])([H])[H])n([H])c3c2[H])[C@]([H])(C([H])([H])[H])C1([H])[H]


 27 29  0  0  0  0  0  0  0  0999 V2000
   -8.6410   -7.9687    7.4223 C   0  0  0  0  0  0  0  0  0  0  0  0
   -9.7795   -7.1446    7.4486 C   0  0  0  0  0  0  0  0  0  0  0  0
  -11.0511   -7.6497    7.5742 C   0  0  0  0  0  0  0  0  0  0  0  0
  -12.2501   -7.0405    7.6192 N   0  0  0  0  0  0  0  0  0  0  0  0
  -13.1626   -8.0195    7.7513 C   0  0  0  0  0  0  0  0  0  0  0  0
  -12.5477   -9.2126    7.7880 N   0  0  0  0  0  0  0  0  0  0  0  0
  -11.2241   -9.0359    7.6807 C   0  0  0  0  0  0  0  0  0  0  0  0
  -10.1174   -9.8587    7.6566 C   0  0  0  0  0  0  0  0  0  0  0  0
   -8.8362   -9.3304    7.5281 C   0  0  0  0  0  0  0  0  0  0  0  0
   -7.5019  -10.4677    7.4831 Cl  0  0  0  0  0  0  0  0  0  0  0  0
  -12.3957   -6.0072    7.5596 H   0  0  0  0  0  0  0  0  0  0  0  0
   -6.5929   -7.4542    9.6945 C   0  0  0  0  0  0  0  0  0  0  0  0
   -6.2982   -7.3935    8.2589 C   0  0  0  0  0  0  0  0  0  0  0  0
   -5.5329   -6.0787    8.0599 C   0  0  0  0  0  0  0  0  0  0  0  0
   -4.6939   -6.2255    6.9082 N   0  0  0  0  0  0  0  0  0  0  0  0
   -5.4619   -6.8015    5.8694 C   0  0  0  0  0  0  0  0  0  0  0  0
   -6.9855   -6.6661    6.1291 C   0  0  0  0  0  0  0  0  0  0  0  0
   -7.3756   -7.3783    7.3261 N   0  0  0  0  0  0  0  0  0  0  0  0
   -4.0657   -4.9738    6.6463 C   0  0  0  0  0  0  0  0  0  0  0  0
   -3.7751   -4.6639    5.2188 C   0  0  0  0  0  0  0  0  0  0  0  0
   -4.5190   -3.5180    4.8733 O   0  0  0  0  0  0  0  0  0  0  0  0
   -4.9091   -3.0770    5.6595 H   0  0  0  0  0  0  0  0  0  0  0  0
  -14.9189   -7.7338    7.8587 S   0  0  0  0  0  0  0  0  0  0  0  0
  -15.5214   -7.4419    6.1635 C   0  0  0  0  0  0  0  0  0  0  0  0
  -15.0980   -6.0507    5.7655 C   0  0  0  0  0  0  0  0  0  0  0  0
  -14.8253   -8.4111    5.2280 C   0  0  0  0  0  0  0  0  0  0  0  0
  -17.0074   -7.6332    6.1674 C   0  0  0  0  0  0  0  0  0  0  0  0
 12 13  1  0  0  0
 13 14  1  0  0  0
 14 15  1  0  0  0
 15 19  1  0  0  0
 19 20  1  0  0  0
 20 21  1  0  0  0
 15 16  1  0  0  0
 16 17  1  0  0  0
 17 18  1  0  0  0
 18  1  1  0  0  0
  1  2  2  0  0  0
  2  3  1  0  0  0
  3  4  1  0  0  0
  4  5  1  0  0  0
  5 23  1  0  0  0
 23 24  1  0  0  0
 24 25  1  0  0  0
 24 26  1  0  0  0
 24 27  1  0  0  0
  5  6  2  0  0  0
  6  7  1  0  0  0
  7  8  1  0  0  0
  8  9  2  0  0  0
  9 10  1  0  0  0
 18 13  1  0  0  0
  9  1  1  0  0  0
  7  3  2  0  0  0
 21 22  1  0  0  0
  4 11  1  0  0  0
M  END
> <minimizedAffinity>
-6.22595

> <CNNscore>
0.3369368017

> <CNNaffinity>
6.6696443558

> <CNN_VS>
2.2472486496

> <CNNaffinity_variance>
0.0974456146

$$$$
[H]OC([H])([H])C([H])([H])N1C([H])([H])C([H])([H])N(c2c(Cl)c([H])c3nc(SC(C([H])([H])[H])(C([H])([H])[H])C([H])([H])[H])n([H])c3c2[H])[C@]([H])(C([H])([H])[H])C1([H])[H]


 27 29  0  0  0  0  0  0  0  0999 V2000
  -14.3975   -6.7654    7.0224 C   0  0  0  0  0  0  0  0  0  0  0  0
  -13.5796   -7.4810    7.9139 C   0  0  0  0  0  0  0  0  0  0  0  0
  -12.8147   -6.8597    8.8714 C   0  0  0  0  0  0  0  0  0  0  0  0
  -11.9801   -7.3556    9.8033 N   0  0  0  0  0  0  0  0  0  0  0  0
  -11.4958   -6.2954   10.4742 C   0  0  0  0  0  0  0  0  0  0  0  0
  -12.0159   -5.1635    9.9728 N   0  0  0  0  0  0  0  0  0  0  0  0
  -12.8484   -5.4624    8.9667 C   0  0  0  0  0  0  0  0  0  0  0  0
  -13.6458   -4.7451    8.0995 C   0  0  0  0  0  0  0  0  0  0  0  0
  -14.4140   -5.3903    7.1348 C   0  0  0  0  0  0  0  0  0  0  0  0
  -15.3720   -4.3811    6.0674 Cl  0  0  0  0  0  0  0  0  0  0  0  0
  -11.7785   -8.3718    9.9419 H   0  0  0  0  0  0  0  0  0  0  0  0
  -17.3426   -7.6958    7.3110 C   0  0  0  0  0  0  0  0  0  0  0  0
  -16.5874   -7.6525    6.0543 C   0  0  0  0  0  0  0  0  0  0  0  0
  -16.8304   -9.0145    5.3910 C   0  0  0  0  0  0  0  0  0  0  0  0
  -16.6911   -8.8478    3.9752 N   0  0  0  0  0  0  0  0  0  0  0  0
  -15.5146   -8.1021    3.7291 C   0  0  0  0  0  0  0  0  0  0  0  0
  -14.5585   -8.1045    4.9510 C   0  0  0  0  0  0  0  0  0  0  0  0
  -15.1744   -7.4706    6.0960 N   0  0  0  0  0  0  0  0  0  0  0  0
  -16.8008  -10.1274    3.3582 C   0  0  0  0  0  0  0  0  0  0  0  0
  -15.5678  -10.6612    2.7154 C   0  0  0  0  0  0  0  0  0  0  0  0
  -14.9176   -9.5825    2.0833 O   0  0  0  0  0  0  0  0  0  0  0  0
  -15.2975   -8.7150    2.3441 H   0  0  0  0  0  0  0  0  0  0  0  0
  -10.3369   -6.4172   11.8232 S   0  0  0  0  0  0  0  0  0  0  0  0
  -11.1526   -5.7231   13.2979 C   0  0  0  0  0  0  0  0  0  0  0  0
  -10.1059   -4.9763   14.0853 C   0  0  0  0  0  0  0  0  0  0  0  0
  -12.1875   -4.7103   12.8479 C   0  0  0  0  0  0  0  0  0  0  0  0
  -11.7695   -6.8586   14.0560 C   0  0  0  0  0  0  0  0  0  0  0  0
 12 13  1  0  0  0
 13 14  1  0  0  0
 14 15  1  0  0  0
 15 19  1  0  0  0
 19 20  1  0  0  0
 20 21  1  0  0  0
 15 16  1  0  0  0
 16 17  1  0  0  0
 17 18  1  0  0  0
 18  1  1  0  0  0
  1  2  2  0  0  0
  2  3  1  0  0  0
  3  4  1  0  0  0
  4  5  1  0  0  0
  5 23  1  0  0  0
 23 24  1  0  0  0
 24 25  1  0  0  0
 24 26  1  0  0  0
 24 27  1  0  0  0
  5  6  2  0  0  0
  6  7  1  0  0  0
  7  8  1  0  0  0
  8  9  2  0  0  0
  9 10  1  0  0  0
 18 13  1  0  0  0
  9  1  1  0  0  0
  7  3  2  0  0  0
 21 22  1  0  0  0
  4 11  1  0  0  0
M  END
> <minimizedAffinity>
18.93414

> <CNNscore>
0.3347000480

> <CNNaffinity>
6.5604758263

> <CNN_VS>
2.1957914829

> <CNNaffinity_variance>
1.3236677647

$$$$
[H]OC([H])([H])C([H])([H])N1C([H])([H])C([H])([H])N(c2c(Cl)c([H])c3nc(SC(C([H])([H])[H])(C([H])([H])[H])C([H])([H])[H])n([H])c3c2[H])[C@]([H])(C([H])([H])[H])C1([H])[H]


 27 29  0  0  0  0  0  0  0  0999 V2000
   -6.6853   -6.9174    7.0539 C   0  0  0  0  0  0  0  0  0  0  0  0
   -7.8151   -6.3413    7.6603 C   0  0  0  0  0  0  0  0  0  0  0  0
   -8.9633   -7.0550    7.9053 C   0  0  0  0  0  0  0  0  0  0  0  0
  -10.1326   -6.6946    8.4654 N   0  0  0  0  0  0  0  0  0  0  0  0
  -10.9073   -7.7938    8.4546 C   0  0  0  0  0  0  0  0  0  0  0  0
  -10.2374   -8.8172    7.9005 N   0  0  0  0  0  0  0  0  0  0  0  0
   -9.0144   -8.4065    7.5395 C   0  0  0  0  0  0  0  0  0  0  0  0
   -7.9145   -8.9871    6.9434 C   0  0  0  0  0  0  0  0  0  0  0  0
   -6.7592   -8.2494    6.7019 C   0  0  0  0  0  0  0  0  0  0  0  0
   -5.4289   -9.0791    5.9160 Cl  0  0  0  0  0  0  0  0  0  0  0  0
  -10.3511   -5.7375    8.8241 H   0  0  0  0  0  0  0  0  0  0  0  0
   -4.7452   -5.8233    9.2130 C   0  0  0  0  0  0  0  0  0  0  0  0
   -4.4713   -5.8679    7.7726 C   0  0  0  0  0  0  0  0  0  0  0  0
   -3.9425   -4.4715    7.4196 C   0  0  0  0  0  0  0  0  0  0  0  0
   -3.0957   -4.5969    6.2711 N   0  0  0  0  0  0  0  0  0  0  0  0
   -3.7586   -5.4025    5.3160 C   0  0  0  0  0  0  0  0  0  0  0  0
   -5.2819   -5.4998    5.5943 C   0  0  0  0  0  0  0  0  0  0  0  0
   -5.5396   -6.1352    6.8679 N   0  0  0  0  0  0  0  0  0  0  0  0
   -2.6914   -3.2924    5.8653 C   0  0  0  0  0  0  0  0  0  0  0  0
   -2.4519   -3.0958    4.4085 C   0  0  0  0  0  0  0  0  0  0  0  0
   -1.0904   -3.3628    4.1622 O   0  0  0  0  0  0  0  0  0  0  0  0
   -0.6486   -3.7826    4.9326 H   0  0  0  0  0  0  0  0  0  0  0  0
  -12.5716   -7.8436    9.0913 S   0  0  0  0  0  0  0  0  0  0  0  0
  -13.6538   -8.3837    7.7279 C   0  0  0  0  0  0  0  0  0  0  0  0
  -13.4628   -9.8697    7.5593 C   0  0  0  0  0  0  0  0  0  0  0  0
  -15.0967   -8.1569    8.1353 C   0  0  0  0  0  0  0  0  0  0  0  0
  -13.2827   -7.5942    6.5098 C   0  0  0  0  0  0  0  0  0  0  0  0
 12 13  1  0  0  0
 13 14  1  0  0  0
 14 15  1  0  0  0
 15 19  1  0  0  0
 19 20  1  0  0  0
 20 21  1  0  0  0
 15 16  1  0  0  0
 16 17  1  0  0  0
 17 18  1  0  0  0
 18  1  1  0  0  0
  1  2  2  0  0  0
  2  3  1  0  0  0
  3  4  1  0  0  0
  4  5  1  0  0  0
  5 23  1  0  0  0
 23 24  1  0  0  0
 24 25  1  0  0  0
 24 26  1  0  0  0
 24 27  1  0  0  0
  5  6  2  0  0  0
  6  7  1  0  0  0
  7  8  1  0  0  0
  8  9  2  0  0  0
  9 10  1  0  0  0
 18 13  1  0  0  0
  9  1  1  0  0  0
  7  3  2  0  0  0
 21 22  1  0  0  0
  4 11  1  0  0  0
M  END
> <minimizedAffinity>
-5.46119

> <CNNscore>
0.3297618628

> <CNNaffinity>
6.2856721878

> <CNN_VS>
2.0727748871

> <CNNaffinity_variance>
0.0776741281

$$$$
[H]OC([H])([H])C([H])([H])N1C([H])([H])C([H])([H])N(c2c(Cl)c([H])c3nc(SC(C([H])([H])[H])(C([H])([H])[H])C([H])([H])[H])n([H])c3c2[H])[C@]([H])(C([H])([H])[H])C1([H])[H]


 27 29  0  0  0  0  0  0  0  0999 V2000
   -9.7399   -7.9902    7.7414 C   0  0  0  0  0  0  0  0  0  0  0  0
   -8.8287   -6.9779    8.0890 C   0  0  0  0  0  0  0  0  0  0  0  0
   -7.4710   -7.1265    7.9394 C   0  0  0  0  0  0  0  0  0  0  0  0
   -6.4496   -6.2926    8.2080 N   0  0  0  0  0  0  0  0  0  0  0  0
   -5.3283   -6.9523    7.8676 C   0  0  0  0  0  0  0  0  0  0  0  0
   -5.6421   -8.1703    7.3974 N   0  0  0  0  0  0  0  0  0  0  0  0
   -6.9721   -8.3289    7.4215 C   0  0  0  0  0  0  0  0  0  0  0  0
   -7.8527   -9.3324    7.0755 C   0  0  0  0  0  0  0  0  0  0  0  0
   -9.2253   -9.1655    7.2341 C   0  0  0  0  0  0  0  0  0  0  0  0
  -10.2530  -10.5143    6.7864 Cl  0  0  0  0  0  0  0  0  0  0  0  0
   -6.5544   -5.3305    8.6028 H   0  0  0  0  0  0  0  0  0  0  0  0
  -11.1662   -6.3449    9.9507 C   0  0  0  0  0  0  0  0  0  0  0  0
  -11.7775   -6.7782    8.6897 C   0  0  0  0  0  0  0  0  0  0  0  0
  -13.1271   -7.3912    9.0859 C   0  0  0  0  0  0  0  0  0  0  0  0
  -14.0171   -7.2582    7.9715 N   0  0  0  0  0  0  0  0  0  0  0  0
  -13.3311   -7.6662    6.8037 C   0  0  0  0  0  0  0  0  0  0  0  0
  -12.0770   -8.5181    7.1338 C   0  0  0  0  0  0  0  0  0  0  0  0
  -11.1111   -7.7522    7.8906 N   0  0  0  0  0  0  0  0  0  0  0  0
  -15.2358   -7.9258    8.2864 C   0  0  0  0  0  0  0  0  0  0  0  0
  -16.3334   -7.8083    7.2866 C   0  0  0  0  0  0  0  0  0  0  0  0
  -17.5427   -8.1032    7.9473 O   0  0  0  0  0  0  0  0  0  0  0  0
  -17.4340   -8.1400    8.9228 H   0  0  0  0  0  0  0  0  0  0  0  0
   -3.6875   -6.2751    8.0318 S   0  0  0  0  0  0  0  0  0  0  0  0
   -3.0979   -5.8797    6.3531 C   0  0  0  0  0  0  0  0  0  0  0  0
   -4.2813   -5.3816    5.5628 C   0  0  0  0  0  0  0  0  0  0  0  0
   -2.1033   -4.7387    6.4449 C   0  0  0  0  0  0  0  0  0  0  0  0
   -2.4803   -7.1194    5.7819 C   0  0  0  0  0  0  0  0  0  0  0  0
 12 13  1  0  0  0
 13 14  1  0  0  0
 14 15  1  0  0  0
 15 19  1  0  0  0
 19 20  1  0  0  0
 20 21  1  0  0  0
 15 16  1  0  0  0
 16 17  1  0  0  0
 17 18  1  0  0  0
 18  1  1  0  0  0
  1  2  2  0  0  0
  2  3  1  0  0  0
  3  4  1  0  0  0
  4  5  1  0  0  0
  5 23  1  0  0  0
 23 24  1  0  0  0
 24 25  1  0  0  0
 24 26  1  0  0  0
 24 27  1  0  0  0
  5  6  2  0  0  0
  6  7  1  0  0  0
  7  8  1  0  0  0
  8  9  2  0  0  0
  9 10  1  0  0  0
 18 13  1  0  0  0
  9  1  1  0  0  0
  7  3  2  0  0  0
 21 22  1  0  0  0
  4 11  1  0  0  0
M  END
> <minimizedAffinity>
-7.47607

> <CNNscore>
0.3275639117

> <CNNaffinity>
6.7980604172

> <CNN_VS>
2.2267992496

> <CNNaffinity_variance>
0.0079711359

$$$$
[H]OC([H])([H])C([H])([H])N1C([H])([H])C([H])([H])N(c2c(Cl)c([H])c3nc(SC(C([H])([H])[H])(C([H])([H])[H])C([H])([H])[H])n([H])c3c2[H])[C@]([H])(C([H])([H])[H])C1([H])[H]


 27 29  0  0  0  0  0  0  0  0999 V2000
  -14.4542   -7.8951    7.6969 C   0  0  0  0  0  0  0  0  0  0  0  0
  -14.2650   -6.6205    8.2587 C   0  0  0  0  0  0  0  0  0  0  0  0
  -13.3777   -6.3918    9.2825 C   0  0  0  0  0  0  0  0  0  0  0  0
  -13.0558   -5.2663    9.9462 N   0  0  0  0  0  0  0  0  0  0  0  0
  -12.1266   -5.6187   10.8522 C   0  0  0  0  0  0  0  0  0  0  0  0
  -11.8739   -6.9341   10.7566 N   0  0  0  0  0  0  0  0  0  0  0  0
  -12.6321   -7.4648    9.7879 C   0  0  0  0  0  0  0  0  0  0  0  0
  -12.8057   -8.7219    9.2479 C   0  0  0  0  0  0  0  0  0  0  0  0
  -13.7093   -8.9364    8.2112 C   0  0  0  0  0  0  0  0  0  0  0  0
  -13.8701  -10.5782    7.6159 Cl  0  0  0  0  0  0  0  0  0  0  0  0
  -13.4718   -4.3256    9.7602 H   0  0  0  0  0  0  0  0  0  0  0  0
  -13.8528   -8.8478    4.8067 C   0  0  0  0  0  0  0  0  0  0  0  0
  -15.1883   -8.7485    5.4051 C   0  0  0  0  0  0  0  0  0  0  0  0
  -16.0423   -8.0120    4.3647 C   0  0  0  0  0  0  0  0  0  0  0  0
  -17.4056   -8.4108    4.5495 N   0  0  0  0  0  0  0  0  0  0  0  0
  -17.7031   -8.3499    5.9310 C   0  0  0  0  0  0  0  0  0  0  0  0
  -16.6810   -7.4788    6.7080 C   0  0  0  0  0  0  0  0  0  0  0  0
  -15.3514   -8.0435    6.6329 N   0  0  0  0  0  0  0  0  0  0  0  0
  -18.2218   -7.6472    3.6659 C   0  0  0  0  0  0  0  0  0  0  0  0
  -17.7763   -6.2528    3.3906 C   0  0  0  0  0  0  0  0  0  0  0  0
  -18.5084   -5.3981    4.2387 O   0  0  0  0  0  0  0  0  0  0  0  0
  -19.0001   -5.8927    4.9304 H   0  0  0  0  0  0  0  0  0  0  0  0
  -11.3671   -4.4785   11.9928 S   0  0  0  0  0  0  0  0  0  0  0  0
  -10.9867   -5.4103   13.5123 C   0  0  0  0  0  0  0  0  0  0  0  0
   -9.5110   -5.7189   13.4969 C   0  0  0  0  0  0  0  0  0  0  0  0
  -11.2487   -4.5155   14.7080 C   0  0  0  0  0  0  0  0  0  0  0  0
  -11.8503   -6.6345   13.5259 C   0  0  0  0  0  0  0  0  0  0  0  0
 12 13  1  0  0  0
 13 14  1  0  0  0
 14 15  1  0  0  0
 15 19  1  0  0  0
 19 20  1  0  0  0
 20 21  1  0  0  0
 15 16  1  0  0  0
 16 17  1  0  0  0
 17 18  1  0  0  0
 18  1  1  0  0  0
  1  2  2  0  0  0
  2  3  1  0  0  0
  3  4  1  0  0  0
  4  5  1  0  0  0
  5 23  1  0  0  0
 23 24  1  0  0  0
 24 25  1  0  0  0
 24 26  1  0  0  0
 24 27  1  0  0  0
  5  6  2  0  0  0
  6  7  1  0  0  0
  7  8  1  0  0  0
  8  9  2  0  0  0
  9 10  1  0  0  0
 18 13  1  0  0  0
  9  1  1  0  0  0
  7  3  2  0  0  0
 21 22  1  0  0  0
  4 11  1  0  0  0
M  END
> <minimizedAffinity>
0.42282

> <CNNscore>
0.2940614820

> <CNNaffinity>
6.8137807846

> <CNN_VS>
2.0036704540

> <CNNaffinity_variance>
0.1896198094

$$$$
[H]OC([H])([H])C([H])([H])N1C([H])([H])C([H])([H])N(c2c(Cl)c([H])c3nc(SC(C([H])([H])[H])(C([H])([H])[H])C([H])([H])[H])n([H])c3c2[H])[C@]([H])(C([H])([H])[H])C1([H])[H]


 27 29  0  0  0  0  0  0  0  0999 V2000
   -5.8435   -6.7558    6.8690 C   0  0  0  0  0  0  0  0  0  0  0  0
   -7.2000   -6.4055    6.9841 C   0  0  0  0  0  0  0  0  0  0  0  0
   -8.1848   -7.3378    7.2049 C   0  0  0  0  0  0  0  0  0  0  0  0
   -9.5172   -7.2091    7.3428 N   0  0  0  0  0  0  0  0  0  0  0  0
   -9.9946   -8.4505    7.5415 C   0  0  0  0  0  0  0  0  0  0  0  0
   -8.9837   -9.3343    7.5279 N   0  0  0  0  0  0  0  0  0  0  0  0
   -7.8288   -8.6878    7.3206 C   0  0  0  0  0  0  0  0  0  0  0  0
   -6.5022   -9.0486    7.2100 C   0  0  0  0  0  0  0  0  0  0  0  0
   -5.5170   -8.0912    6.9857 C   0  0  0  0  0  0  0  0  0  0  0  0
   -3.8654   -8.6617    6.8361 Cl  0  0  0  0  0  0  0  0  0  0  0  0
  -10.0358   -6.3027    7.2972 H   0  0  0  0  0  0  0  0  0  0  0  0
   -4.1921   -5.2523    9.0218 C   0  0  0  0  0  0  0  0  0  0  0  0
   -3.9110   -5.2471    7.5821 C   0  0  0  0  0  0  0  0  0  0  0  0
   -3.6956   -3.7720    7.2190 C   0  0  0  0  0  0  0  0  0  0  0  0
   -2.8386   -3.7196    6.0725 N   0  0  0  0  0  0  0  0  0  0  0  0
   -3.3089   -4.6565    5.1228 C   0  0  0  0  0  0  0  0  0  0  0  0
   -4.7759   -5.0789    5.4001 C   0  0  0  0  0  0  0  0  0  0  0  0
   -4.8936   -5.7457    6.6782 N   0  0  0  0  0  0  0  0  0  0  0  0
   -2.7248   -2.3615    5.6570 C   0  0  0  0  0  0  0  0  0  0  0  0
   -3.8434   -1.4554    6.0396 C   0  0  0  0  0  0  0  0  0  0  0  0
   -4.7948   -1.4936    5.0007 O   0  0  0  0  0  0  0  0  0  0  0  0
   -4.6170   -2.2167    4.3602 H   0  0  0  0  0  0  0  0  0  0  0  0
  -11.7206   -8.8252    7.7830 S   0  0  0  0  0  0  0  0  0  0  0  0
  -12.3965   -7.5532    8.8997 C   0  0  0  0  0  0  0  0  0  0  0  0
  -13.0969   -8.2669   10.0281 C   0  0  0  0  0  0  0  0  0  0  0  0
  -11.2431   -6.7759    9.5035 C   0  0  0  0  0  0  0  0  0  0  0  0
  -13.3061   -6.6757    8.0953 C   0  0  0  0  0  0  0  0  0  0  0  0
 12 13  1  0  0  0
 13 14  1  0  0  0
 14 15  1  0  0  0
 15 19  1  0  0  0
 19 20  1  0  0  0
 20 21  1  0  0  0
 15 16  1  0  0  0
 16 17  1  0  0  0
 17 18  1  0  0  0
 18  1  1  0  0  0
  1  2  2  0  0  0
  2  3  1  0  0  0
  3  4  1  0  0  0
  4  5  1  0  0  0
  5 23  1  0  0  0
 23 24  1  0  0  0
 24 25  1  0  0  0
 24 26  1  0  0  0
 24 27  1  0  0  0
  5  6  2  0  0  0
  6  7  1  0  0  0
  7  8  1  0  0  0
  8  9  2  0  0  0
  9 10  1  0  0  0
 18 13  1  0  0  0
  9  1  1  0  0  0
  7  3  2  0  0  0
 21 22  1  0  0  0
  4 11  1  0  0  0
M  END
> <minimizedAffinity>
-6.38097

> <CNNscore>
0.2925716341

> <CNNaffinity>
6.0221500397

> <CNN_VS>
1.7619103193

> <CNNaffinity_variance>
0.0785313621

$$$$
[H]c1nc(N([H])S(=O)(=O)c2c([H])c(Cl)c(N(C([H])([H])[H])[C@]3([H])C([H])([H])N(C([H])([H])c4c([H])c([H])c(Cl)c([H])c4[H])C([H])([H])C3([H])[H])c([H])c2F)c([H])s1


 33 36  0  0  0  0  0  0  0  0999 V2000
  -11.6153   -8.2924    8.4403 C   0  0  0  0  0  0  0  0  0  0  0  0
  -10.9247   -9.2932    7.7910 C   0  0  0  0  0  0  0  0  0  0  0  0
   -9.6214   -9.1238    7.3823 C   0  0  0  0  0  0  0  0  0  0  0  0
   -8.9479  -10.1247    6.7391 F   0  0  0  0  0  0  0  0  0  0  0  0
   -8.9303   -7.9291    7.6040 C   0  0  0  0  0  0  0  0  0  0  0  0
   -9.6276   -6.9359    8.2534 C   0  0  0  0  0  0  0  0  0  0  0  0
  -10.9332   -7.1138    8.6593 C   0  0  0  0  0  0  0  0  0  0  0  0
  -11.7954   -5.8102    9.4914 Cl  0  0  0  0  0  0  0  0  0  0  0  0
   -7.2655   -7.7734    7.0873 S   0  0  0  0  0  0  0  0  0  0  0  0
   -7.2737   -7.9648    5.5816 O   0  0  0  0  0  0  0  0  0  0  0  0
   -6.4047   -8.8492    7.6569 O   0  0  0  0  0  0  0  0  0  0  0  0
   -6.5987   -6.2317    7.3904 N   0  0  0  0  0  0  0  0  0  0  0  0
   -7.2389   -5.5019    7.7679 H   0  0  0  0  0  0  0  0  0  0  0  0
   -5.1974   -5.9141    7.1429 C   0  0  0  0  0  0  0  0  0  0  0  0
   -4.2740   -5.9441    8.1634 C   0  0  0  0  0  0  0  0  0  0  0  0
   -2.8429   -5.5051    7.3439 S   0  0  0  0  0  0  0  0  0  0  0  0
   -3.4907   -5.3119    5.7770 C   0  0  0  0  0  0  0  0  0  0  0  0
   -4.7675   -5.5937    5.9644 N   0  0  0  0  0  0  0  0  0  0  0  0
  -13.2964   -8.1971   10.2627 C   0  0  0  0  0  0  0  0  0  0  0  0
  -12.9560   -8.4347    8.8730 N   0  0  0  0  0  0  0  0  0  0  0  0
  -13.9970   -8.8096    7.9735 C   0  0  0  0  0  0  0  0  0  0  0  0
  -15.1211   -7.7977    7.8861 C   0  0  0  0  0  0  0  0  0  0  0  0
  -15.7891   -8.2389    6.5883 C   0  0  0  0  0  0  0  0  0  0  0  0
  -14.7130   -8.6167    5.7287 N   0  0  0  0  0  0  0  0  0  0  0  0
  -13.5314   -8.8177    6.5104 C   0  0  0  0  0  0  0  0  0  0  0  0
  -14.5798   -7.6619    4.6696 C   0  0  0  0  0  0  0  0  0  0  0  0
  -15.8513   -6.9116    4.5295 C   0  0  0  0  0  0  0  0  0  0  0  0
  -15.9193   -5.5818    4.9577 C   0  0  0  0  0  0  0  0  0  0  0  0
  -17.0683   -4.8294    4.8495 C   0  0  0  0  0  0  0  0  0  0  0  0
  -18.2030   -5.3831    4.3040 C   0  0  0  0  0  0  0  0  0  0  0  0
  -19.6498   -4.4082    4.1772 Cl  0  0  0  0  0  0  0  0  0  0  0  0
  -18.1763   -6.6827    3.8731 C   0  0  0  0  0  0  0  0  0  0  0  0
  -17.0058   -7.4247    3.9915 C   0  0  0  0  0  0  0  0  0  0  0  0
 19 20  1  0  0  0
 20  1  1  0  0  0
  1  2  2  0  0  0
  2  3  1  0  0  0
  3  4  1  0  0  0
  3  5  2  0  0  0
  5  9  1  0  0  0
  9 10  2  0  0  0
  9 11  2  0  0  0
  9 12  1  0  0  0
 12 14  1  0  0  0
 14 15  2  0  0  0
 15 16  1  0  0  0
 16 17  1  0  0  0
 17 18  2  0  0  0
  5  6  1  0  0  0
  6  7  2  0  0  0
  7  8  1  0  0  0
 20 21  1  0  0  0
 21 22  1  0  0  0
 22 23  1  0  0  0
 23 24  1  0  0  0
 24 26  1  0  0  0
 26 27  1  0  0  0
 27 28  2  0  0  0
 28 29  1  0  0  0
 29 30  2  0  0  0
 30 31  1  0  0  0
 30 32  1  0  0  0
 32 33  2  0  0  0
 24 25  1  0  0  0
  7  1  1  0  0  0
 25 21  1  0  0  0
 18 14  1  0  0  0
 33 27  1  0  0  0
 12 13  1  0  0  0
M  END
> <minimizedAffinity>
-8.88706

> <CNNscore>
0.7781705260

> <CNNaffinity>
8.1472969055

> <CNN_VS>
6.3399863243

> <CNNaffinity_variance>
0.0206141137

$$$$
[H]c1nc(N([H])S(=O)(=O)c2c([H])c(Cl)c(N(C([H])([H])[H])[C@]3([H])C([H])([H])N(C([H])([H])c4c([H])c([H])c(Cl)c([H])c4[H])C([H])([H])C3([H])[H])c([H])c2F)c([H])s1


 33 36  0  0  0  0  0  0  0  0999 V2000
  -12.3361   -8.0314    7.8085 C   0  0  0  0  0  0  0  0  0  0  0  0
  -11.8510   -9.1316    7.1347 C   0  0  0  0  0  0  0  0  0  0  0  0
  -10.5139   -9.4577    7.1520 C   0  0  0  0  0  0  0  0  0  0  0  0
  -10.0458  -10.5519    6.4792 F   0  0  0  0  0  0  0  0  0  0  0  0
   -9.5786   -8.6910    7.8531 C   0  0  0  0  0  0  0  0  0  0  0  0
  -10.0724   -7.5948    8.5232 C   0  0  0  0  0  0  0  0  0  0  0  0
  -11.4133   -7.2750    8.5005 C   0  0  0  0  0  0  0  0  0  0  0  0
  -12.0080   -5.8553    9.3757 Cl  0  0  0  0  0  0  0  0  0  0  0  0
   -7.8935   -9.1629    7.8643 S   0  0  0  0  0  0  0  0  0  0  0  0
   -7.8806  -10.6689    8.0529 O   0  0  0  0  0  0  0  0  0  0  0  0
   -7.1601   -8.5743    9.0212 O   0  0  0  0  0  0  0  0  0  0  0  0
   -7.0842   -8.8370    6.3974 N   0  0  0  0  0  0  0  0  0  0  0  0
   -7.4018   -9.3572    5.5526 H   0  0  0  0  0  0  0  0  0  0  0  0
   -5.9904   -7.8786    6.2941 C   0  0  0  0  0  0  0  0  0  0  0  0
   -6.2061   -6.6078    5.8110 C   0  0  0  0  0  0  0  0  0  0  0  0
   -4.6406   -5.9350    5.9042 S   0  0  0  0  0  0  0  0  0  0  0  0
   -3.8158   -7.2861    6.5416 C   0  0  0  0  0  0  0  0  0  0  0  0
   -4.7823   -8.1799    6.6491 N   0  0  0  0  0  0  0  0  0  0  0  0
  -14.1366   -6.4786    8.5182 C   0  0  0  0  0  0  0  0  0  0  0  0
  -13.7049   -7.6687    7.8105 N   0  0  0  0  0  0  0  0  0  0  0  0
  -14.6863   -8.4470    7.1292 C   0  0  0  0  0  0  0  0  0  0  0  0
  -16.0295   -7.7582    7.0010 C   0  0  0  0  0  0  0  0  0  0  0  0
  -16.6650   -8.5961    5.8968 C   0  0  0  0  0  0  0  0  0  0  0  0
  -15.5982   -8.8859    4.9927 N   0  0  0  0  0  0  0  0  0  0  0  0
  -14.3472   -8.6477    5.6452 C   0  0  0  0  0  0  0  0  0  0  0  0
  -15.7878   -8.1634    3.7708 C   0  0  0  0  0  0  0  0  0  0  0  0
  -15.5889   -6.7161    4.0266 C   0  0  0  0  0  0  0  0  0  0  0  0
  -14.2945   -6.2186    4.2089 C   0  0  0  0  0  0  0  0  0  0  0  0
  -14.0428   -4.8845    4.4438 C   0  0  0  0  0  0  0  0  0  0  0  0
  -15.0853   -3.9896    4.5057 C   0  0  0  0  0  0  0  0  0  0  0  0
  -14.7411   -2.3009    4.8051 Cl  0  0  0  0  0  0  0  0  0  0  0  0
  -16.3675   -4.4382    4.3323 C   0  0  0  0  0  0  0  0  0  0  0  0
  -16.5995   -5.7892    4.0961 C   0  0  0  0  0  0  0  0  0  0  0  0
 19 20  1  0  0  0
 20  1  1  0  0  0
  1  2  2  0  0  0
  2  3  1  0  0  0
  3  4  1  0  0  0
  3  5  2  0  0  0
  5  9  1  0  0  0
  9 10  2  0  0  0
  9 11  2  0  0  0
  9 12  1  0  0  0
 12 14  1  0  0  0
 14 15  2  0  0  0
 15 16  1  0  0  0
 16 17  1  0  0  0
 17 18  2  0  0  0
  5  6  1  0  0  0
  6  7  2  0  0  0
  7  8  1  0  0  0
 20 21  1  0  0  0
 21 22  1  0  0  0
 22 23  1  0  0  0
 23 24  1  0  0  0
 24 26  1  0  0  0
 26 27  1  0  0  0
 27 28  2  0  0  0
 28 29  1  0  0  0
 29 30  2  0  0  0
 30 31  1  0  0  0
 30 32  1  0  0  0
 32 33  2  0  0  0
 24 25  1  0  0  0
  7  1  1  0  0  0
 25 21  1  0  0  0
 18 14  1  0  0  0
 33 27  1  0  0  0
 12 13  1  0  0  0
M  END
> <minimizedAffinity>
-7.69832

> <CNNscore>
0.4640271664

> <CNNaffinity>
7.7792558670

> <CNN_VS>
3.6097860336

> <CNNaffinity_variance>
0.0531361029

$$$$
[H]c1nc(N([H])S(=O)(=O)c2c([H])c(Cl)c(N(C([H])([H])[H])[C@]3([H])C([H])([H])N(C([H])([H])c4c([H])c([H])c(Cl)c([H])c4[H])C([H])([H])C3([H])[H])c([H])c2F)c([H])s1


 33 36  0  0  0  0  0  0  0  0999 V2000
   -9.5151   -8.5126    7.8001 C   0  0  0  0  0  0  0  0  0  0  0  0
  -10.0061   -7.4157    8.4752 C   0  0  0  0  0  0  0  0  0  0  0  0
  -11.3581   -7.1984    8.6140 C   0  0  0  0  0  0  0  0  0  0  0  0
  -11.8318   -6.1062    9.2861 F   0  0  0  0  0  0  0  0  0  0  0  0
  -12.3034   -8.0778    8.0781 C   0  0  0  0  0  0  0  0  0  0  0  0
  -11.8038   -9.1703    7.4063 C   0  0  0  0  0  0  0  0  0  0  0  0
  -10.4478   -9.3804    7.2716 C   0  0  0  0  0  0  0  0  0  0  0  0
   -9.8460  -10.7986    6.3988 Cl  0  0  0  0  0  0  0  0  0  0  0  0
  -14.0111   -7.7696    8.3044 S   0  0  0  0  0  0  0  0  0  0  0  0
  -14.2527   -6.3571    7.8043 O   0  0  0  0  0  0  0  0  0  0  0  0
  -14.3927   -7.7911    9.7455 O   0  0  0  0  0  0  0  0  0  0  0  0
  -15.0174   -8.8013    7.3899 N   0  0  0  0  0  0  0  0  0  0  0  0
  -15.3776   -9.6567    7.8628 H   0  0  0  0  0  0  0  0  0  0  0  0
  -15.3777   -8.5289    6.0037 C   0  0  0  0  0  0  0  0  0  0  0  0
  -16.5881   -7.9552    5.6868 C   0  0  0  0  0  0  0  0  0  0  0  0
  -16.4902   -7.8657    3.9854 S   0  0  0  0  0  0  0  0  0  0  0  0
  -14.9415   -8.5518    3.7788 C   0  0  0  0  0  0  0  0  0  0  0  0
  -14.5818   -8.8126    5.0227 N   0  0  0  0  0  0  0  0  0  0  0  0
   -7.4316   -9.5979    8.5986 C   0  0  0  0  0  0  0  0  0  0  0  0
   -8.1310   -8.7645    7.6395 N   0  0  0  0  0  0  0  0  0  0  0  0
   -7.3922   -8.2175    6.5495 C   0  0  0  0  0  0  0  0  0  0  0  0
   -7.8144   -6.8127    6.1706 C   0  0  0  0  0  0  0  0  0  0  0  0
   -6.6077   -6.3745    5.3478 C   0  0  0  0  0  0  0  0  0  0  0  0
   -5.4790   -6.9334    6.0208 N   0  0  0  0  0  0  0  0  0  0  0  0
   -5.9205   -7.9659    6.9077 C   0  0  0  0  0  0  0  0  0  0  0  0
   -4.7185   -5.8905    6.6412 C   0  0  0  0  0  0  0  0  0  0  0  0
   -3.8519   -5.2496    5.6225 C   0  0  0  0  0  0  0  0  0  0  0  0
   -2.7301   -5.9329    5.1416 C   0  0  0  0  0  0  0  0  0  0  0  0
   -1.8896   -5.3952    4.1916 C   0  0  0  0  0  0  0  0  0  0  0  0
   -2.1413   -4.1427    3.6819 C   0  0  0  0  0  0  0  0  0  0  0  0
   -1.0600   -3.4810    2.4766 Cl  0  0  0  0  0  0  0  0  0  0  0  0
   -3.2301   -3.4420    4.1276 C   0  0  0  0  0  0  0  0  0  0  0  0
   -4.0660   -4.0034    5.0872 C   0  0  0  0  0  0  0  0  0  0  0  0
 19 20  1  0  0  0
 20  1  1  0  0  0
  1  2  2  0  0  0
  2  3  1  0  0  0
  3  4  1  0  0  0
  3  5  2  0  0  0
  5  9  1  0  0  0
  9 10  2  0  0  0
  9 11  2  0  0  0
  9 12  1  0  0  0
 12 14  1  0  0  0
 14 15  2  0  0  0
 15 16  1  0  0  0
 16 17  1  0  0  0
 17 18  2  0  0  0
  5  6  1  0  0  0
  6  7  2  0  0  0
  7  8  1  0  0  0
 20 21  1  0  0  0
 21 22  1  0  0  0
 22 23  1  0  0  0
 23 24  1  0  0  0
 24 26  1  0  0  0
 26 27  1  0  0  0
 27 28  2  0  0  0
 28 29  1  0  0  0
 29 30  2  0  0  0
 30 31  1  0  0  0
 30 32  1  0  0  0
 32 33  2  0  0  0
 24 25  1  0  0  0
  7  1  1  0  0  0
 25 21  1  0  0  0
 18 14  1  0  0  0
 33 27  1  0  0  0
 12 13  1  0  0  0
M  END
> <minimizedAffinity>
-8.30832

> <CNNscore>
0.4422712922

> <CNNaffinity>
7.4954476357

> <CNN_VS>
3.3150212765

> <CNNaffinity_variance>
0.0725622475

$$$$
[H]c1nc(N([H])S(=O)(=O)c2c([H])c(Cl)c(N(C([H])([H])[H])[C@]3([H])C([H])([H])N(C([H])([H])c4c([H])c([H])c(Cl)c([H])c4[H])C([H])([H])C3([H])[H])c([H])c2F)c([H])s1


 33 36  0  0  0  0  0  0  0  0999 V2000
   -9.4859   -8.0547    8.0378 C   0  0  0  0  0  0  0  0  0  0  0  0
  -10.1128   -6.9767    8.6252 C   0  0  0  0  0  0  0  0  0  0  0  0
  -11.4844   -6.8934    8.7040 C   0  0  0  0  0  0  0  0  0  0  0  0
  -12.0935   -5.8186    9.2893 F   0  0  0  0  0  0  0  0  0  0  0  0
  -12.3129   -7.8967    8.1929 C   0  0  0  0  0  0  0  0  0  0  0  0
  -11.6781   -8.9692    7.6088 C   0  0  0  0  0  0  0  0  0  0  0  0
  -10.3035   -9.0447    7.5338 C   0  0  0  0  0  0  0  0  0  0  0  0
   -9.5258  -10.4419    6.7733 Cl  0  0  0  0  0  0  0  0  0  0  0  0
  -14.0509   -7.7550    8.3412 S   0  0  0  0  0  0  0  0  0  0  0  0
  -14.4051   -6.3731    7.8228 O   0  0  0  0  0  0  0  0  0  0  0  0
  -14.4929   -7.8114    9.7640 O   0  0  0  0  0  0  0  0  0  0  0  0
  -14.9106   -8.8805    7.3887 N   0  0  0  0  0  0  0  0  0  0  0  0
  -15.1893   -9.7750    7.8441 H   0  0  0  0  0  0  0  0  0  0  0  0
  -15.2569   -8.6344    5.9940 C   0  0  0  0  0  0  0  0  0  0  0  0
  -14.3393   -8.8435    4.9895 C   0  0  0  0  0  0  0  0  0  0  0  0
  -15.2416   -8.4144    3.6060 S   0  0  0  0  0  0  0  0  0  0  0  0
  -16.7092   -8.0008    4.3721 C   0  0  0  0  0  0  0  0  0  0  0  0
  -16.4306   -8.2131    5.6457 N   0  0  0  0  0  0  0  0  0  0  0  0
   -7.3017   -8.5521    9.1046 C   0  0  0  0  0  0  0  0  0  0  0  0
   -8.0781   -8.1704    7.9405 N   0  0  0  0  0  0  0  0  0  0  0  0
   -7.3893   -7.9201    6.7173 C   0  0  0  0  0  0  0  0  0  0  0  0
   -7.8561   -6.6704    5.9993 C   0  0  0  0  0  0  0  0  0  0  0  0
   -6.6883   -6.4485    5.0442 C   0  0  0  0  0  0  0  0  0  0  0  0
   -5.5249   -6.7955    5.7963 N   0  0  0  0  0  0  0  0  0  0  0  0
   -5.9125   -7.5636    6.9397 C   0  0  0  0  0  0  0  0  0  0  0  0
   -4.7679   -5.6160    6.0910 C   0  0  0  0  0  0  0  0  0  0  0  0
   -3.8256   -5.9079    7.1983 C   0  0  0  0  0  0  0  0  0  0  0  0
   -3.9884   -5.2667    8.4308 C   0  0  0  0  0  0  0  0  0  0  0  0
   -3.1510   -5.4989    9.4999 C   0  0  0  0  0  0  0  0  0  0  0  0
   -2.1099   -6.3891    9.3760 C   0  0  0  0  0  0  0  0  0  0  0  0
   -1.0600   -6.6674   10.7472 Cl  0  0  0  0  0  0  0  0  0  0  0  0
   -1.9175   -7.0369    8.1850 C   0  0  0  0  0  0  0  0  0  0  0  0
   -2.7747   -6.7879    7.1182 C   0  0  0  0  0  0  0  0  0  0  0  0
 19 20  1  0  0  0
 20  1  1  0  0  0
  1  2  2  0  0  0
  2  3  1  0  0  0
  3  4  1  0  0  0
  3  5  2  0  0  0
  5  9  1  0  0  0
  9 10  2  0  0  0
  9 11  2  0  0  0
  9 12  1  0  0  0
 12 14  1  0  0  0
 14 15  2  0  0  0
 15 16  1  0  0  0
 16 17  1  0  0  0
 17 18  2  0  0  0
  5  6  1  0  0  0
  6  7  2  0  0  0
  7  8  1  0  0  0
 20 21  1  0  0  0
 21 22  1  0  0  0
 22 23  1  0  0  0
 23 24  1  0  0  0
 24 26  1  0  0  0
 26 27  1  0  0  0
 27 28  2  0  0  0
 28 29  1  0  0  0
 29 30  2  0  0  0
 30 31  1  0  0  0
 30 32  1  0  0  0
 32 33  2  0  0  0
 24 25  1  0  0  0
  7  1  1  0  0  0
 25 21  1  0  0  0
 18 14  1  0  0  0
 33 27  1  0  0  0
 12 13  1  0  0  0
M  END
> <minimizedAffinity>
-7.77257

> <CNNscore>
0.4397665858

> <CNNaffinity>
7.5751047134

> <CNN_VS>
3.3312778473

> <CNNaffinity_variance>
0.0362606682

$$$$
[H]c1nc(N([H])S(=O)(=O)c2c([H])c(Cl)c(N(C([H])([H])[H])[C@]3([H])C([H])([H])N(C([H])([H])c4c([H])c([H])c(Cl)c([H])c4[H])C([H])([H])C3([H])[H])c([H])c2F)c([H])s1


 33 36  0  0  0  0  0  0  0  0999 V2000
   -4.5985   -6.5414    6.5662 C   0  0  0  0  0  0  0  0  0  0  0  0
   -5.8776   -6.0319    6.5002 C   0  0  0  0  0  0  0  0  0  0  0  0
   -6.9820   -6.8196    6.7335 C   0  0  0  0  0  0  0  0  0  0  0  0
   -8.2453   -6.3015    6.6648 F   0  0  0  0  0  0  0  0  0  0  0  0
   -6.8645   -8.1762    7.0493 C   0  0  0  0  0  0  0  0  0  0  0  0
   -5.5836   -8.6759    7.1134 C   0  0  0  0  0  0  0  0  0  0  0  0
   -4.4827   -7.8800    6.8780 C   0  0  0  0  0  0  0  0  0  0  0  0
   -2.8513   -8.5622    6.9698 Cl  0  0  0  0  0  0  0  0  0  0  0  0
   -8.2992   -9.1284    7.3621 S   0  0  0  0  0  0  0  0  0  0  0  0
   -7.8613  -10.2603    8.2735 O   0  0  0  0  0  0  0  0  0  0  0  0
   -8.8320   -9.7541    6.1181 O   0  0  0  0  0  0  0  0  0  0  0  0
   -9.5219   -8.2688    8.1863 N   0  0  0  0  0  0  0  0  0  0  0  0
   -9.2197   -7.6165    8.9401 H   0  0  0  0  0  0  0  0  0  0  0  0
  -10.9387   -8.4167    7.8756 C   0  0  0  0  0  0  0  0  0  0  0  0
  -11.7896   -7.3357    7.9202 C   0  0  0  0  0  0  0  0  0  0  0  0
  -13.2761   -8.0510    7.4835 S   0  0  0  0  0  0  0  0  0  0  0  0
  -12.7387   -9.6569    7.2730 C   0  0  0  0  0  0  0  0  0  0  0  0
  -11.4504   -9.5601    7.5480 N   0  0  0  0  0  0  0  0  0  0  0  0
   -2.9047   -5.6471    4.9890 C   0  0  0  0  0  0  0  0  0  0  0  0
   -3.4424   -5.7584    6.3314 N   0  0  0  0  0  0  0  0  0  0  0  0
   -2.7803   -5.0659    7.3875 C   0  0  0  0  0  0  0  0  0  0  0  0
   -3.0718   -3.5796    7.4190 C   0  0  0  0  0  0  0  0  0  0  0  0
   -2.6247   -3.2408    8.8369 C   0  0  0  0  0  0  0  0  0  0  0  0
   -3.0305   -4.3576    9.6290 N   0  0  0  0  0  0  0  0  0  0  0  0
   -3.3062   -5.4700    8.7722 C   0  0  0  0  0  0  0  0  0  0  0  0
   -4.1109   -3.9762   10.4882 C   0  0  0  0  0  0  0  0  0  0  0  0
   -4.0276   -4.7545   11.7479 C   0  0  0  0  0  0  0  0  0  0  0  0
   -5.2006   -5.2214   12.3500 C   0  0  0  0  0  0  0  0  0  0  0  0
   -5.1901   -5.9545   13.5164 C   0  0  0  0  0  0  0  0  0  0  0  0
   -3.9957   -6.2511   14.1304 C   0  0  0  0  0  0  0  0  0  0  0  0
   -4.0077   -7.1832   15.6106 Cl  0  0  0  0  0  0  0  0  0  0  0  0
   -2.8253   -5.8115   13.5716 C   0  0  0  0  0  0  0  0  0  0  0  0
   -2.8583   -5.0729   12.3934 C   0  0  0  0  0  0  0  0  0  0  0  0
 19 20  1  0  0  0
 20  1  1  0  0  0
  1  2  2  0  0  0
  2  3  1  0  0  0
  3  4  1  0  0  0
  3  5  2  0  0  0
  5  9  1  0  0  0
  9 10  2  0  0  0
  9 11  2  0  0  0
  9 12  1  0  0  0
 12 14  1  0  0  0
 14 15  2  0  0  0
 15 16  1  0  0  0
 16 17  1  0  0  0
 17 18  2  0  0  0
  5  6  1  0  0  0
  6  7  2  0  0  0
  7  8  1  0  0  0
 20 21  1  0  0  0
 21 22  1  0  0  0
 22 23  1  0  0  0
 23 24  1  0  0  0
 24 26  1  0  0  0
 26 27  1  0  0  0
 27 28  2  0  0  0
 28 29  1  0  0  0
 29 30  2  0  0  0
 30 31  1  0  0  0
 30 32  1  0  0  0
 32 33  2  0  0  0
 24 25  1  0  0  0
  7  1  1  0  0  0
 25 21  1  0  0  0
 18 14  1  0  0  0
 33 27  1  0  0  0
 12 13  1  0  0  0
M  END
> <minimizedAffinity>
-6.12891

> <CNNscore>
0.2846961021

> <CNNaffinity>
6.4359259605

> <CNN_VS>
1.8322830200

> <CNNaffinity_variance>
0.1106089205

$$$$
[H]c1nc(N([H])S(=O)(=O)c2c([H])c(Cl)c(N(C([H])([H])[H])[C@]3([H])C([H])([H])N(C([H])([H])c4c([H])c([H])c(Cl)c([H])c4[H])C([H])([H])C3([H])[H])c([H])c2F)c([H])s1


 33 36  0  0  0  0  0  0  0  0999 V2000
   -3.5444   -5.8103    6.4642 C   0  0  0  0  0  0  0  0  0  0  0  0
   -4.6502   -5.7495    5.6435 C   0  0  0  0  0  0  0  0  0  0  0  0
   -5.8322   -6.3710    5.9767 C   0  0  0  0  0  0  0  0  0  0  0  0
   -6.9216   -6.3028    5.1535 F   0  0  0  0  0  0  0  0  0  0  0  0
   -5.9733   -7.0956    7.1637 C   0  0  0  0  0  0  0  0  0  0  0  0
   -4.8642   -7.1502    7.9770 C   0  0  0  0  0  0  0  0  0  0  0  0
   -3.6838   -6.5251    7.6356 C   0  0  0  0  0  0  0  0  0  0  0  0
   -2.2793   -6.6203    8.7098 Cl  0  0  0  0  0  0  0  0  0  0  0  0
   -7.5056   -7.8459    7.5531 S   0  0  0  0  0  0  0  0  0  0  0  0
   -7.3219   -8.4946    8.9129 O   0  0  0  0  0  0  0  0  0  0  0  0
   -7.8492   -8.9355    6.5952 O   0  0  0  0  0  0  0  0  0  0  0  0
   -8.7917   -6.7335    7.7008 N   0  0  0  0  0  0  0  0  0  0  0  0
   -8.6224   -5.7625    7.3637 H   0  0  0  0  0  0  0  0  0  0  0  0
  -10.0853   -7.0918    8.2699 C   0  0  0  0  0  0  0  0  0  0  0  0
  -10.7207   -6.2591    9.1629 C   0  0  0  0  0  0  0  0  0  0  0  0
  -12.1458   -7.1368    9.4961 S   0  0  0  0  0  0  0  0  0  0  0  0
  -11.8560   -8.4897    8.4972 C   0  0  0  0  0  0  0  0  0  0  0  0
  -10.6844   -8.1976    7.9619 N   0  0  0  0  0  0  0  0  0  0  0  0
   -1.2523   -5.9461    5.5238 C   0  0  0  0  0  0  0  0  0  0  0  0
   -2.3145   -5.1828    6.1504 N   0  0  0  0  0  0  0  0  0  0  0  0
   -2.0833   -3.8047    6.4348 C   0  0  0  0  0  0  0  0  0  0  0  0
   -3.2565   -2.9074    6.0977 C   0  0  0  0  0  0  0  0  0  0  0  0
   -2.8903   -1.6622    6.8981 C   0  0  0  0  0  0  0  0  0  0  0  0
   -2.3247   -2.1568    8.1126 N   0  0  0  0  0  0  0  0  0  0  0  0
   -1.9620   -3.5303    7.9406 C   0  0  0  0  0  0  0  0  0  0  0  0
   -3.2173   -1.9011    9.2030 C   0  0  0  0  0  0  0  0  0  0  0  0
   -3.0244   -2.9411   10.2425 C   0  0  0  0  0  0  0  0  0  0  0  0
   -4.0363   -3.8774   10.4788 C   0  0  0  0  0  0  0  0  0  0  0  0
   -3.9160   -4.8711   11.4254 C   0  0  0  0  0  0  0  0  0  0  0  0
   -2.7690   -4.9672   12.1783 C   0  0  0  0  0  0  0  0  0  0  0  0
   -2.6393   -6.2372   13.3741 Cl  0  0  0  0  0  0  0  0  0  0  0  0
   -1.7553   -4.0689   11.9764 C   0  0  0  0  0  0  0  0  0  0  0  0
   -1.8973   -3.0733   11.0155 C   0  0  0  0  0  0  0  0  0  0  0  0
 19 20  1  0  0  0
 20  1  1  0  0  0
  1  2  2  0  0  0
  2  3  1  0  0  0
  3  4  1  0  0  0
  3  5  2  0  0  0
  5  9  1  0  0  0
  9 10  2  0  0  0
  9 11  2  0  0  0
  9 12  1  0  0  0
 12 14  1  0  0  0
 14 15  2  0  0  0
 15 16  1  0  0  0
 16 17  1  0  0  0
 17 18  2  0  0  0
  5  6  1  0  0  0
  6  7  2  0  0  0
  7  8  1  0  0  0
 20 21  1  0  0  0
 21 22  1  0  0  0
 22 23  1  0  0  0
 23 24  1  0  0  0
 24 26  1  0  0  0
 26 27  1  0  0  0
 27 28  2  0  0  0
 28 29  1  0  0  0
 29 30  2  0  0  0
 30 31  1  0  0  0
 30 32  1  0  0  0
 32 33  2  0  0  0
 24 25  1  0  0  0
  7  1  1  0  0  0
 25 21  1  0  0  0
 18 14  1  0  0  0
 33 27  1  0  0  0
 12 13  1  0  0  0
M  END
> <minimizedAffinity>
-6.01639

> <CNNscore>
0.2844946682

> <CNNaffinity>
6.0543966293

> <CNN_VS>
1.7224435806

> <CNNaffinity_variance>
0.3201040626

$$$$
[H]c1nc(N([H])S(=O)(=O)c2c([H])c(Cl)c(N(C([H])([H])[H])[C@]3([H])C([H])([H])N(C([H])([H])c4c([H])c([H])c(Cl)c([H])c4[H])C([H])([H])C3([H])[H])c([H])c2F)c([H])s1


 33 36  0  0  0  0  0  0  0  0999 V2000
  -10.1594   -8.6589    7.6258 C   0  0  0  0  0  0  0  0  0  0  0  0
  -10.9696   -9.6485    7.1116 C   0  0  0  0  0  0  0  0  0  0  0  0
  -12.3314   -9.4823    7.0008 C   0  0  0  0  0  0  0  0  0  0  0  0
  -13.1236  -10.4719    6.4888 F   0  0  0  0  0  0  0  0  0  0  0  0
  -12.9637   -8.3024    7.4035 C   0  0  0  0  0  0  0  0  0  0  0  0
  -12.1467   -7.3200    7.9151 C   0  0  0  0  0  0  0  0  0  0  0  0
  -10.7834   -7.4947    8.0229 C   0  0  0  0  0  0  0  0  0  0  0  0
   -9.7674   -6.2057    8.6876 Cl  0  0  0  0  0  0  0  0  0  0  0  0
  -14.6954   -8.1315    7.2178 S   0  0  0  0  0  0  0  0  0  0  0  0
  -14.9742   -6.6396    7.2344 O   0  0  0  0  0  0  0  0  0  0  0  0
  -15.4379   -8.7245    8.3667 O   0  0  0  0  0  0  0  0  0  0  0  0
  -15.2849   -8.7325    5.7331 N   0  0  0  0  0  0  0  0  0  0  0  0
  -14.9072   -9.6465    5.4059 H   0  0  0  0  0  0  0  0  0  0  0  0
  -16.2741   -8.0237    4.9302 C   0  0  0  0  0  0  0  0  0  0  0  0
  -17.5964   -8.4060    4.9368 C   0  0  0  0  0  0  0  0  0  0  0  0
  -18.2857   -7.2754    3.8603 S   0  0  0  0  0  0  0  0  0  0  0  0
  -16.8760   -6.3964    3.4704 C   0  0  0  0  0  0  0  0  0  0  0  0
  -15.9530   -7.0149    4.1848 N   0  0  0  0  0  0  0  0  0  0  0  0
   -8.1685  -10.1193    7.8708 C   0  0  0  0  0  0  0  0  0  0  0  0
   -8.7561   -8.7985    7.7534 N   0  0  0  0  0  0  0  0  0  0  0  0
   -7.8898   -7.6661    7.7704 C   0  0  0  0  0  0  0  0  0  0  0  0
   -6.8143   -7.7370    8.8350 C   0  0  0  0  0  0  0  0  0  0  0  0
   -5.8440   -6.6806    8.3176 C   0  0  0  0  0  0  0  0  0  0  0  0
   -5.8583   -6.8298    6.8974 N   0  0  0  0  0  0  0  0  0  0  0  0
   -7.0141   -7.5803    6.5122 C   0  0  0  0  0  0  0  0  0  0  0  0
   -4.6103   -7.3749    6.4541 C   0  0  0  0  0  0  0  0  0  0  0  0
   -3.7859   -6.2889    5.8706 C   0  0  0  0  0  0  0  0  0  0  0  0
   -2.4063   -6.4700    5.7276 C   0  0  0  0  0  0  0  0  0  0  0  0
   -1.5871   -5.5028    5.1878 C   0  0  0  0  0  0  0  0  0  0  0  0
   -2.1210   -4.3073    4.7667 C   0  0  0  0  0  0  0  0  0  0  0  0
   -1.0609   -3.0945    4.0847 Cl  0  0  0  0  0  0  0  0  0  0  0  0
   -3.4678   -4.0921    4.8901 C   0  0  0  0  0  0  0  0  0  0  0  0
   -4.2771   -5.0820    5.4378 C   0  0  0  0  0  0  0  0  0  0  0  0
 19 20  1  0  0  0
 20  1  1  0  0  0
  1  2  2  0  0  0
  2  3  1  0  0  0
  3  4  1  0  0  0
  3  5  2  0  0  0
  5  9  1  0  0  0
  9 10  2  0  0  0
  9 11  2  0  0  0
  9 12  1  0  0  0
 12 14  1  0  0  0
 14 15  2  0  0  0
 15 16  1  0  0  0
 16 17  1  0  0  0
 17 18  2  0  0  0
  5  6  1  0  0  0
  6  7  2  0  0  0
  7  8  1  0  0  0
 20 21  1  0  0  0
 21 22  1  0  0  0
 22 23  1  0  0  0
 23 24  1  0  0  0
 24 26  1  0  0  0
 26 27  1  0  0  0
 27 28  2  0  0  0
 28 29  1  0  0  0
 29 30  2  0  0  0
 30 31  1  0  0  0
 30 32  1  0  0  0
 32 33  2  0  0  0
 24 25  1  0  0  0
  7  1  1  0  0  0
 25 21  1  0  0  0
 18 14  1  0  0  0
 33 27  1  0  0  0
 12 13  1  0  0  0
M  END
> <minimizedAffinity>
-8.31094

> <CNNscore>
0.2625685036

> <CNNaffinity>
7.0866942406

> <CNN_VS>
1.8607426882

> <CNNaffinity_variance>
0.2125530243

$$$$
[H]c1nc(N([H])S(=O)(=O)c2c([H])c(Cl)c(N(C([H])([H])[H])[C@]3([H])C([H])([H])N(C([H])([H])c4c([H])c([H])c(Cl)c([H])c4[H])C([H])([H])C3([H])[H])c([H])c2F)c([H])s1


 33 36  0  0  0  0  0  0  0  0999 V2000
   -3.6781   -5.5100    6.3999 C   0  0  0  0  0  0  0  0  0  0  0  0
   -4.6721   -5.8053    5.4918 C   0  0  0  0  0  0  0  0  0  0  0  0
   -5.8379   -6.4292    5.8741 C   0  0  0  0  0  0  0  0  0  0  0  0
   -6.8159   -6.7163    4.9630 F   0  0  0  0  0  0  0  0  0  0  0  0
   -6.0748   -6.7957    7.2021 C   0  0  0  0  0  0  0  0  0  0  0  0
   -5.0770   -6.4963    8.1017 C   0  0  0  0  0  0  0  0  0  0  0  0
   -3.9120   -5.8714    7.7103 C   0  0  0  0  0  0  0  0  0  0  0  0
   -2.6523   -5.5045    8.8993 Cl  0  0  0  0  0  0  0  0  0  0  0  0
   -7.5847   -7.5639    7.6408 S   0  0  0  0  0  0  0  0  0  0  0  0
   -7.3630   -8.1717    9.0139 O   0  0  0  0  0  0  0  0  0  0  0  0
   -7.9249   -8.6856    6.7194 O   0  0  0  0  0  0  0  0  0  0  0  0
   -8.8892   -6.4724    7.7833 N   0  0  0  0  0  0  0  0  0  0  0  0
   -8.7576   -5.5188    7.3853 H   0  0  0  0  0  0  0  0  0  0  0  0
  -10.1481   -6.8252    8.4285 C   0  0  0  0  0  0  0  0  0  0  0  0
  -10.7102   -6.0041    9.3797 C   0  0  0  0  0  0  0  0  0  0  0  0
  -12.1240   -6.8688    9.7869 S   0  0  0  0  0  0  0  0  0  0  0  0
  -11.9220   -8.2023    8.7414 C   0  0  0  0  0  0  0  0  0  0  0  0
  -10.7836   -7.9148    8.1365 N   0  0  0  0  0  0  0  0  0  0  0  0
   -1.2406   -5.6380    5.9538 C   0  0  0  0  0  0  0  0  0  0  0  0
   -2.4678   -4.8696    6.0390 N   0  0  0  0  0  0  0  0  0  0  0  0
   -2.4161   -3.4737    5.7527 C   0  0  0  0  0  0  0  0  0  0  0  0
   -3.6763   -2.9369    5.1055 C   0  0  0  0  0  0  0  0  0  0  0  0
   -3.4934   -1.4419    5.3437 C   0  0  0  0  0  0  0  0  0  0  0  0
   -2.9169   -1.3432    6.6466 N   0  0  0  0  0  0  0  0  0  0  0  0
   -2.3843   -2.6160    7.0258 C   0  0  0  0  0  0  0  0  0  0  0  0
   -3.8732   -0.7937    7.5601 C   0  0  0  0  0  0  0  0  0  0  0  0
   -3.1610   -0.2639    8.7482 C   0  0  0  0  0  0  0  0  0  0  0  0
   -3.4599   -0.7730   10.0163 C   0  0  0  0  0  0  0  0  0  0  0  0
   -2.8298   -0.3276   11.1576 C   0  0  0  0  0  0  0  0  0  0  0  0
   -1.8684    0.6523   11.0735 C   0  0  0  0  0  0  0  0  0  0  0  0
   -1.0822    1.2016   12.5363 Cl  0  0  0  0  0  0  0  0  0  0  0  0
   -1.5478    1.1760    9.8494 C   0  0  0  0  0  0  0  0  0  0  0  0
   -2.1960    0.7120    8.7096 C   0  0  0  0  0  0  0  0  0  0  0  0
 19 20  1  0  0  0
 20  1  1  0  0  0
  1  2  2  0  0  0
  2  3  1  0  0  0
  3  4  1  0  0  0
  3  5  2  0  0  0
  5  9  1  0  0  0
  9 10  2  0  0  0
  9 11  2  0  0  0
  9 12  1  0  0  0
 12 14  1  0  0  0
 14 15  2  0  0  0
 15 16  1  0  0  0
 16 17  1  0  0  0
 17 18  2  0  0  0
  5  6  1  0  0  0
  6  7  2  0  0  0
  7  8  1  0  0  0
 20 21  1  0  0  0
 21 22  1  0  0  0
 22 23  1  0  0  0
 23 24  1  0  0  0
 24 26  1  0  0  0
 26 27  1  0  0  0
 27 28  2  0  0  0
 28 29  1  0  0  0
 29 30  2  0  0  0
 30 31  1  0  0  0
 30 32  1  0  0  0
 32 33  2  0  0  0
 24 25  1  0  0  0
  7  1  1  0  0  0
 25 21  1  0  0  0
 18 14  1  0  0  0
 33 27  1  0  0  0
 12 13  1  0  0  0
M  END
> <minimizedAffinity>
-5.79551

> <CNNscore>
0.2318853438

> <CNNaffinity>
5.8515057564

> <CNN_VS>
1.3568783998

> <CNNaffinity_variance>
0.2355445623

$$$$
[H]c1nc(N([H])S(=O)(=O)c2c([H])c(Cl)c(N(C([H])([H])[H])[C@]3([H])C([H])([H])N(C([H])([H])c4c([H])c([H])c(Cl)c([H])c4[H])C([H])([H])C3([H])[H])c([H])c2F)c([H])s1


 33 36  0  0  0  0  0  0  0  0999 V2000
   -8.6313   -8.3792    7.3037 C   0  0  0  0  0  0  0  0  0  0  0  0
   -7.5539   -8.9692    6.6783 C   0  0  0  0  0  0  0  0  0  0  0  0
   -6.3181   -8.3641    6.6440 C   0  0  0  0  0  0  0  0  0  0  0  0
   -5.2577   -8.9603    6.0201 F   0  0  0  0  0  0  0  0  0  0  0  0
   -6.0910   -7.1208    7.2410 C   0  0  0  0  0  0  0  0  0  0  0  0
   -7.1723   -6.5397    7.8635 C   0  0  0  0  0  0  0  0  0  0  0  0
   -8.4070   -7.1525    7.8930 C   0  0  0  0  0  0  0  0  0  0  0  0
   -9.7731   -6.3706    8.7040 Cl  0  0  0  0  0  0  0  0  0  0  0  0
   -4.4945   -6.4058    7.1914 S   0  0  0  0  0  0  0  0  0  0  0  0
   -3.9698   -6.4508    8.6149 O   0  0  0  0  0  0  0  0  0  0  0  0
   -4.5415   -4.9703    6.7913 O   0  0  0  0  0  0  0  0  0  0  0  0
   -3.3881   -7.2741    6.2244 N   0  0  0  0  0  0  0  0  0  0  0  0
   -3.3638   -7.0471    5.2080 H   0  0  0  0  0  0  0  0  0  0  0  0
   -2.5001   -8.2970    6.7637 C   0  0  0  0  0  0  0  0  0  0  0  0
   -2.0161   -9.3073    5.9638 C   0  0  0  0  0  0  0  0  0  0  0  0
   -1.0608  -10.1910    7.0677 S   0  0  0  0  0  0  0  0  0  0  0  0
   -1.3276   -9.2404    8.4596 C   0  0  0  0  0  0  0  0  0  0  0  0
   -2.1334   -8.2976    8.0054 N   0  0  0  0  0  0  0  0  0  0  0  0
  -10.1151  -10.3095    6.8252 C   0  0  0  0  0  0  0  0  0  0  0  0
   -9.9148   -8.9748    7.3564 N   0  0  0  0  0  0  0  0  0  0  0  0
  -11.0327   -8.2949    7.9231 C   0  0  0  0  0  0  0  0  0  0  0  0
  -11.8730   -7.5500    6.9061 C   0  0  0  0  0  0  0  0  0  0  0  0
  -13.1535   -7.3400    7.7070 C   0  0  0  0  0  0  0  0  0  0  0  0
  -13.3224   -8.5442    8.4561 N   0  0  0  0  0  0  0  0  0  0  0  0
  -12.0856   -9.2634    8.4806 C   0  0  0  0  0  0  0  0  0  0  0  0
  -14.4384   -9.2815    7.9443 C   0  0  0  0  0  0  0  0  0  0  0  0
  -15.0137   -8.5518    6.7885 C   0  0  0  0  0  0  0  0  0  0  0  0
  -16.0771   -7.6659    6.9911 C   0  0  0  0  0  0  0  0  0  0  0  0
  -16.6511   -6.9540    5.9607 C   0  0  0  0  0  0  0  0  0  0  0  0
  -16.1793   -7.1022    4.6773 C   0  0  0  0  0  0  0  0  0  0  0  0
  -16.9241   -6.1877    3.3855 Cl  0  0  0  0  0  0  0  0  0  0  0  0
  -15.1392   -7.9603    4.4384 C   0  0  0  0  0  0  0  0  0  0  0  0
  -14.5740   -8.6695    5.4931 C   0  0  0  0  0  0  0  0  0  0  0  0
 19 20  1  0  0  0
 20  1  1  0  0  0
  1  2  2  0  0  0
  2  3  1  0  0  0
  3  4  1  0  0  0
  3  5  2  0  0  0
  5  9  1  0  0  0
  9 10  2  0  0  0
  9 11  2  0  0  0
  9 12  1  0  0  0
 12 14  1  0  0  0
 14 15  2  0  0  0
 15 16  1  0  0  0
 16 17  1  0  0  0
 17 18  2  0  0  0
  5  6  1  0  0  0
  6  7  2  0  0  0
  7  8  1  0  0  0
 20 21  1  0  0  0
 21 22  1  0  0  0
 22 23  1  0  0  0
 23 24  1  0  0  0
 24 26  1  0  0  0
 26 27  1  0  0  0
 27 28  2  0  0  0
 28 29  1  0  0  0
 29 30  2  0  0  0
 30 31  1  0  0  0
 30 32  1  0  0  0
 32 33  2  0  0  0
 24 25  1  0  0  0
  7  1  1  0  0  0
 25 21  1  0  0  0
 18 14  1  0  0  0
 33 27  1  0  0  0
 12 13  1  0  0  0
M  END
> <minimizedAffinity>
-7.50106

> <CNNscore>
0.2043269873

> <CNNaffinity>
7.1588630676

> <CNN_VS>
1.4627488852

> <CNNaffinity_variance>
0.1580200046

$$$$
[H]OC1([H])C([H])([H])OC([H])([H])C([H])([H])C1(c1c([H])c([H])c(C(F)(F)F)c([H])c1F)N([H])C(=O)c1c([H])nn2c([H])c(C([H])([H])[H])c([H])nc12


 33 36  0  0  0  0  0  0  0  0999 V2000
  -15.1522   -7.0664    6.2317 C   0  0  0  0  0  0  0  0  0  0  0  0
  -15.5266   -7.0160    7.5976 C   0  0  0  0  0  0  0  0  0  0  0  0
  -14.4887   -7.3070    8.6711 C   0  0  0  0  0  0  0  0  0  0  0  0
  -13.2218   -7.5567    8.2907 O   0  0  0  0  0  0  0  0  0  0  0  0
  -12.7909   -6.9205    7.1902 C   0  0  0  0  0  0  0  0  0  0  0  0
  -13.6865   -6.5826    6.0918 C   0  0  0  0  0  0  0  0  0  0  0  0
  -13.6485   -5.1851    5.9107 O   0  0  0  0  0  0  0  0  0  0  0  0
  -13.0373   -4.9289    5.2101 H   0  0  0  0  0  0  0  0  0  0  0  0
  -15.2448   -8.2144    5.3457 C   0  0  0  0  0  0  0  0  0  0  0  0
  -16.4949   -8.4152    4.7344 C   0  0  0  0  0  0  0  0  0  0  0  0
  -16.7078   -9.3696    3.7668 C   0  0  0  0  0  0  0  0  0  0  0  0
  -15.7190  -10.1899    3.3341 C   0  0  0  0  0  0  0  0  0  0  0  0
  -14.4616  -10.0205    3.9170 C   0  0  0  0  0  0  0  0  0  0  0  0
  -14.2826   -9.0495    4.8865 C   0  0  0  0  0  0  0  0  0  0  0  0
  -13.0638   -8.9739    5.4244 F   0  0  0  0  0  0  0  0  0  0  0  0
  -15.9342  -11.1912    2.2642 C   0  0  0  0  0  0  0  0  0  0  0  0
  -16.2238  -12.4447    2.8161 F   0  0  0  0  0  0  0  0  0  0  0  0
  -16.9648  -10.7573    1.4634 F   0  0  0  0  0  0  0  0  0  0  0  0
  -14.8497  -11.3001    1.3969 F   0  0  0  0  0  0  0  0  0  0  0  0
  -17.3014   -6.1541    5.4360 C   0  0  0  0  0  0  0  0  0  0  0  0
  -17.8507   -7.1103    6.0559 O   0  0  0  0  0  0  0  0  0  0  0  0
  -15.8680   -5.9983    5.4604 N   0  0  0  0  0  0  0  0  0  0  0  0
  -15.4405   -5.2309    4.9717 H   0  0  0  0  0  0  0  0  0  0  0  0
  -21.5670   -1.0563    6.2843 C   0  0  0  0  0  0  0  0  0  0  0  0
  -20.6347   -2.1861    5.9335 C   0  0  0  0  0  0  0  0  0  0  0  0
  -19.8034   -2.7594    6.8703 C   0  0  0  0  0  0  0  0  0  0  0  0
  -18.9800   -3.7715    6.5376 N   0  0  0  0  0  0  0  0  0  0  0  0
  -18.9591   -4.2372    5.2856 C   0  0  0  0  0  0  0  0  0  0  0  0
  -18.2126   -5.2895    4.7315 C   0  0  0  0  0  0  0  0  0  0  0  0
  -18.6117   -5.3205    3.4295 C   0  0  0  0  0  0  0  0  0  0  0  0
  -19.5340   -4.3545    3.2300 N   0  0  0  0  0  0  0  0  0  0  0  0
  -19.7463   -3.7004    4.3638 N   0  0  0  0  0  0  0  0  0  0  0  0
  -20.5979   -2.6787    4.6321 C   0  0  0  0  0  0  0  0  0  0  0  0
 24 25  1  0  0  0
 25 26  1  0  0  0
 26 27  2  0  0  0
 27 28  1  0  0  0
 28 29  2  0  0  0
 29 20  1  0  0  0
 20 21  2  0  0  0
 20 22  1  0  0  0
 22  1  1  0  0  0
  1  9  1  0  0  0
  9 10  2  0  0  0
 10 11  1  0  0  0
 11 12  2  0  0  0
 12 16  1  0  0  0
 16 17  1  0  0  0
 16 18  1  0  0  0
 16 19  1  0  0  0
 12 13  1  0  0  0
 13 14  2  0  0  0
 14 15  1  0  0  0
  1  2  1  0  0  0
  2  3  1  0  0  0
  3  4  1  0  0  0
  4  5  1  0  0  0
  5  6  1  0  0  0
  6  7  1  0  0  0
 29 30  1  0  0  0
 30 31  2  0  0  0
 31 32  1  0  0  0
 32 33  1  0  0  0
 33 25  2  0  0  0
 32 28  1  0  0  0
  6  1  1  0  0  0
 14  9  1  0  0  0
 22 23  1  0  0  0
  7  8  1  0  0  0
M  END
> <minimizedAffinity>
24.95940

> <CNNscore>
0.4463575482

> <CNNaffinity>
6.7723016739

> <CNN_VS>
3.0228679180

> <CNNaffinity_variance>
2.6291129589

$$$$
[H]OC1([H])C([H])([H])OC([H])([H])C([H])([H])C1(c1c([H])c([H])c(C(F)(F)F)c([H])c1F)N([H])C(=O)c1c([H])nn2c([H])c(C([H])([H])[H])c([H])nc12


 33 36  0  0  0  0  0  0  0  0999 V2000
  -15.5211   -7.9305    4.8760 C   0  0  0  0  0  0  0  0  0  0  0  0
  -15.8627   -9.2479    5.2714 C   0  0  0  0  0  0  0  0  0  0  0  0
  -16.1663  -10.2946    4.2102 C   0  0  0  0  0  0  0  0  0  0  0  0
  -16.0516   -9.9494    2.9141 O   0  0  0  0  0  0  0  0  0  0  0  0
  -15.1057   -9.0446    2.6172 C   0  0  0  0  0  0  0  0  0  0  0  0
  -14.7220   -7.9928    3.5495 C   0  0  0  0  0  0  0  0  0  0  0  0
  -13.3439   -8.1253    3.8152 O   0  0  0  0  0  0  0  0  0  0  0  0
  -12.8126   -7.5379    3.2650 H   0  0  0  0  0  0  0  0  0  0  0  0
  -16.4305   -6.8103    4.7032 C   0  0  0  0  0  0  0  0  0  0  0  0
  -17.7214   -7.1354    4.2512 C   0  0  0  0  0  0  0  0  0  0  0  0
  -18.7381   -6.2122    4.1694 C   0  0  0  0  0  0  0  0  0  0  0  0
  -18.5626   -4.9146    4.5204 C   0  0  0  0  0  0  0  0  0  0  0  0
  -17.2934   -4.5525    4.9758 C   0  0  0  0  0  0  0  0  0  0  0  0
  -16.2944   -5.5074    5.0467 C   0  0  0  0  0  0  0  0  0  0  0  0
  -15.0986   -5.0776    5.4541 F   0  0  0  0  0  0  0  0  0  0  0  0
  -19.6652   -3.9268    4.4721 C   0  0  0  0  0  0  0  0  0  0  0  0
  -19.5287   -2.9880    5.5015 F   0  0  0  0  0  0  0  0  0  0  0  0
  -19.6454   -3.3127    3.2416 F   0  0  0  0  0  0  0  0  0  0  0  0
  -20.9253   -4.5167    4.5397 F   0  0  0  0  0  0  0  0  0  0  0  0
  -13.6073   -8.3630    6.3708 C   0  0  0  0  0  0  0  0  0  0  0  0
  -13.7382   -9.5827    6.0619 O   0  0  0  0  0  0  0  0  0  0  0  0
  -14.4799   -7.3686    5.7969 N   0  0  0  0  0  0  0  0  0  0  0  0
  -14.3635   -6.4007    6.0418 H   0  0  0  0  0  0  0  0  0  0  0  0
  -12.1814   -4.8992   11.9270 C   0  0  0  0  0  0  0  0  0  0  0  0
  -12.3547   -5.7461   10.6935 C   0  0  0  0  0  0  0  0  0  0  0  0
  -13.5686   -5.8551   10.0518 C   0  0  0  0  0  0  0  0  0  0  0  0
  -13.7018   -6.6143    8.9478 N   0  0  0  0  0  0  0  0  0  0  0  0
  -12.6506   -7.2758    8.4559 C   0  0  0  0  0  0  0  0  0  0  0  0
  -12.5554   -8.0898    7.3158 C   0  0  0  0  0  0  0  0  0  0  0  0
  -11.2495   -8.4772    7.3014 C   0  0  0  0  0  0  0  0  0  0  0  0
  -10.6164   -7.9260    8.3592 N   0  0  0  0  0  0  0  0  0  0  0  0
  -11.4719   -7.1912    9.0569 N   0  0  0  0  0  0  0  0  0  0  0  0
  -11.2699   -6.4454   10.1722 C   0  0  0  0  0  0  0  0  0  0  0  0
 24 25  1  0  0  0
 25 26  1  0  0  0
 26 27  2  0  0  0
 27 28  1  0  0  0
 28 29  2  0  0  0
 29 20  1  0  0  0
 20 21  2  0  0  0
 20 22  1  0  0  0
 22  1  1  0  0  0
  1  9  1  0  0  0
  9 10  2  0  0  0
 10 11  1  0  0  0
 11 12  2  0  0  0
 12 16  1  0  0  0
 16 17  1  0  0  0
 16 18  1  0  0  0
 16 19  1  0  0  0
 12 13  1  0  0  0
 13 14  2  0  0  0
 14 15  1  0  0  0
  1  2  1  0  0  0
  2  3  1  0  0  0
  3  4  1  0  0  0
  4  5  1  0  0  0
  5  6  1  0  0  0
  6  7  1  0  0  0
 29 30  1  0  0  0
 30 31  2  0  0  0
 31 32  1  0  0  0
 32 33  1  0  0  0
 33 25  2  0  0  0
 32 28  1  0  0  0
  6  1  1  0  0  0
 14  9  1  0  0  0
 22 23  1  0  0  0
  7  8  1  0  0  0
M  END
> <minimizedAffinity>
4.42861

> <CNNscore>
0.4027490616

> <CNNaffinity>
6.7918481827

> <CNN_VS>
2.7354104519

> <CNNaffinity_variance>
0.5991912484

$$$$
[H]OC1([H])C([H])([H])OC([H])([H])C([H])([H])C1(c1c([H])c([H])c(C(F)(F)F)c([H])c1F)N([H])C(=O)c1c([H])nn2c([H])c(C([H])([H])[H])c([H])nc12


 33 36  0  0  0  0  0  0  0  0999 V2000
  -15.5032   -7.8608    4.8581 C   0  0  0  0  0  0  0  0  0  0  0  0
  -15.8071   -9.1453    5.3740 C   0  0  0  0  0  0  0  0  0  0  0  0
  -16.1972  -10.2639    4.4197 C   0  0  0  0  0  0  0  0  0  0  0  0
  -16.1935  -10.0124    3.0973 O   0  0  0  0  0  0  0  0  0  0  0  0
  -15.2782   -9.1347    2.6575 C   0  0  0  0  0  0  0  0  0  0  0  0
  -14.8192   -8.0206    3.4764 C   0  0  0  0  0  0  0  0  0  0  0  0
  -13.4232   -8.1391    3.6333 O   0  0  0  0  0  0  0  0  0  0  0  0
  -12.9418   -7.5944    2.9995 H   0  0  0  0  0  0  0  0  0  0  0  0
  -16.4264   -6.7523    4.6834 C   0  0  0  0  0  0  0  0  0  0  0  0
  -17.7394   -7.1018    4.3221 C   0  0  0  0  0  0  0  0  0  0  0  0
  -18.7635   -6.1858    4.2539 C   0  0  0  0  0  0  0  0  0  0  0  0
  -18.5748   -4.8723    4.5310 C   0  0  0  0  0  0  0  0  0  0  0  0
  -17.2835   -4.4858    4.8950 C   0  0  0  0  0  0  0  0  0  0  0  0
  -16.2773   -5.4339    4.9550 C   0  0  0  0  0  0  0  0  0  0  0  0
  -15.0624   -4.9822    5.2720 F   0  0  0  0  0  0  0  0  0  0  0  0
  -19.6832   -3.8904    4.4979 C   0  0  0  0  0  0  0  0  0  0  0  0
  -19.5351   -2.9482    5.5227 F   0  0  0  0  0  0  0  0  0  0  0  0
  -19.6863   -3.2794    3.2658 F   0  0  0  0  0  0  0  0  0  0  0  0
  -20.9389   -4.4866    4.5872 F   0  0  0  0  0  0  0  0  0  0  0  0
  -14.4251   -7.5441    7.0539 C   0  0  0  0  0  0  0  0  0  0  0  0
  -15.3245   -8.3014    7.5205 O   0  0  0  0  0  0  0  0  0  0  0  0
  -14.3889   -7.2387    5.6450 N   0  0  0  0  0  0  0  0  0  0  0  0
  -13.6659   -6.6424    5.2815 H   0  0  0  0  0  0  0  0  0  0  0  0
   -7.9443   -7.5167    8.7570 C   0  0  0  0  0  0  0  0  0  0  0  0
   -9.4240   -7.4154    8.4946 C   0  0  0  0  0  0  0  0  0  0  0  0
  -10.0028   -7.9695    7.3743 C   0  0  0  0  0  0  0  0  0  0  0  0
  -11.3284   -7.8715    7.1600 N   0  0  0  0  0  0  0  0  0  0  0  0
  -12.1058   -7.2318    8.0381 C   0  0  0  0  0  0  0  0  0  0  0  0
  -13.4965   -7.0375    8.0312 C   0  0  0  0  0  0  0  0  0  0  0  0
  -13.7322   -6.3371    9.1755 C   0  0  0  0  0  0  0  0  0  0  0  0
  -12.5606   -6.1354    9.8160 N   0  0  0  0  0  0  0  0  0  0  0  0
  -11.5734   -6.6860    9.1226 N   0  0  0  0  0  0  0  0  0  0  0  0
  -10.2462   -6.7476    9.3978 C   0  0  0  0  0  0  0  0  0  0  0  0
 24 25  1  0  0  0
 25 26  1  0  0  0
 26 27  2  0  0  0
 27 28  1  0  0  0
 28 29  2  0  0  0
 29 20  1  0  0  0
 20 21  2  0  0  0
 20 22  1  0  0  0
 22  1  1  0  0  0
  1  9  1  0  0  0
  9 10  2  0  0  0
 10 11  1  0  0  0
 11 12  2  0  0  0
 12 16  1  0  0  0
 16 17  1  0  0  0
 16 18  1  0  0  0
 16 19  1  0  0  0
 12 13  1  0  0  0
 13 14  2  0  0  0
 14 15  1  0  0  0
  1  2  1  0  0  0
  2  3  1  0  0  0
  3  4  1  0  0  0
  4  5  1  0  0  0
  5  6  1  0  0  0
  6  7  1  0  0  0
 29 30  1  0  0  0
 30 31  2  0  0  0
 31 32  1  0  0  0
 32 33  1  0  0  0
 33 25  2  0  0  0
 32 28  1  0  0  0
  6  1  1  0  0  0
 14  9  1  0  0  0
 22 23  1  0  0  0
  7  8  1  0  0  0
M  END
> <minimizedAffinity>
4.34253

> <CNNscore>
0.3720223308

> <CNNaffinity>
6.6787233353

> <CNN_VS>
2.4846341610

> <CNNaffinity_variance>
0.4794926047

$$$$
[H]OC1([H])C([H])([H])OC([H])([H])C([H])([H])C1(c1c([H])c([H])c(C(F)(F)F)c([H])c1F)N([H])C(=O)c1c([H])nn2c([H])c(C([H])([H])[H])c([H])nc12


 33 36  0  0  0  0  0  0  0  0999 V2000
  -15.6417   -7.6074    5.6227 C   0  0  0  0  0  0  0  0  0  0  0  0
  -16.6141   -7.8412    6.6267 C   0  0  0  0  0  0  0  0  0  0  0  0
  -17.9578   -8.4431    6.2440 C   0  0  0  0  0  0  0  0  0  0  0  0
  -18.1670   -8.7857    4.9591 O   0  0  0  0  0  0  0  0  0  0  0  0
  -17.0961   -9.2117    4.2712 C   0  0  0  0  0  0  0  0  0  0  0  0
  -15.7542   -8.7140    4.5434 C   0  0  0  0  0  0  0  0  0  0  0  0
  -14.9408   -9.8137    4.8847 O   0  0  0  0  0  0  0  0  0  0  0  0
  -14.4372  -10.1378    4.1288 H   0  0  0  0  0  0  0  0  0  0  0  0
  -15.4460   -6.3802    4.8696 C   0  0  0  0  0  0  0  0  0  0  0  0
  -16.6178   -5.6965    4.5004 C   0  0  0  0  0  0  0  0  0  0  0  0
  -16.6022   -4.4548    3.9083 C   0  0  0  0  0  0  0  0  0  0  0  0
  -15.4463   -3.8007    3.6367 C   0  0  0  0  0  0  0  0  0  0  0  0
  -14.2602   -4.4472    3.9898 C   0  0  0  0  0  0  0  0  0  0  0  0
  -14.3129   -5.6952    4.5852 C   0  0  0  0  0  0  0  0  0  0  0  0
  -13.1381   -6.2662    4.8579 F   0  0  0  0  0  0  0  0  0  0  0  0
  -15.4266   -2.4468    3.0364 C   0  0  0  0  0  0  0  0  0  0  0  0
  -15.0748   -1.4898    3.9956 F   0  0  0  0  0  0  0  0  0  0  0  0
  -14.5320   -2.4471    1.9919 F   0  0  0  0  0  0  0  0  0  0  0  0
  -16.6396   -2.0967    2.4479 F   0  0  0  0  0  0  0  0  0  0  0  0
  -13.9350   -7.1253    7.3372 C   0  0  0  0  0  0  0  0  0  0  0  0
  -14.7788   -6.3321    7.8462 O   0  0  0  0  0  0  0  0  0  0  0  0
  -14.2692   -7.8857    6.1584 N   0  0  0  0  0  0  0  0  0  0  0  0
  -13.5954   -8.5197    5.7652 H   0  0  0  0  0  0  0  0  0  0  0  0
   -8.1219  -10.4503    7.5699 C   0  0  0  0  0  0  0  0  0  0  0  0
   -9.3638   -9.5999    7.6261 C   0  0  0  0  0  0  0  0  0  0  0  0
  -10.4006   -9.7684    6.7351 C   0  0  0  0  0  0  0  0  0  0  0  0
  -11.5043   -9.0005    6.8046 N   0  0  0  0  0  0  0  0  0  0  0  0
  -11.6099   -8.0589    7.7464 C   0  0  0  0  0  0  0  0  0  0  0  0
  -12.6676   -7.1765    8.0192 C   0  0  0  0  0  0  0  0  0  0  0  0
  -12.2272   -6.4637    9.0932 C   0  0  0  0  0  0  0  0  0  0  0  0
  -10.9949   -6.8987    9.4333 N   0  0  0  0  0  0  0  0  0  0  0  0
  -10.6247   -7.8734    8.6138 N   0  0  0  0  0  0  0  0  0  0  0  0
   -9.4862   -8.6113    8.5984 C   0  0  0  0  0  0  0  0  0  0  0  0
 24 25  1  0  0  0
 25 26  1  0  0  0
 26 27  2  0  0  0
 27 28  1  0  0  0
 28 29  2  0  0  0
 29 20  1  0  0  0
 20 21  2  0  0  0
 20 22  1  0  0  0
 22  1  1  0  0  0
  1  9  1  0  0  0
  9 10  2  0  0  0
 10 11  1  0  0  0
 11 12  2  0  0  0
 12 16  1  0  0  0
 16 17  1  0  0  0
 16 18  1  0  0  0
 16 19  1  0  0  0
 12 13  1  0  0  0
 13 14  2  0  0  0
 14 15  1  0  0  0
  1  2  1  0  0  0
  2  3  1  0  0  0
  3  4  1  0  0  0
  4  5  1  0  0  0
  5  6  1  0  0  0
  6  7  1  0  0  0
 29 30  1  0  0  0
 30 31  2  0  0  0
 31 32  1  0  0  0
 32 33  1  0  0  0
 33 25  2  0  0  0
 32 28  1  0  0  0
  6  1  1  0  0  0
 14  9  1  0  0  0
 22 23  1  0  0  0
  7  8  1  0  0  0
M  END
> <minimizedAffinity>
3.18465

> <CNNscore>
0.3585748672

> <CNNaffinity>
6.7628526688

> <CNN_VS>
2.4249889851

> <CNNaffinity_variance>
0.3035114706

$$$$
[H]OC1([H])C([H])([H])OC([H])([H])C([H])([H])C1(c1c([H])c([H])c(C(F)(F)F)c([H])c1F)N([H])C(=O)c1c([H])nn2c([H])c(C([H])([H])[H])c([H])nc12


 33 36  0  0  0  0  0  0  0  0999 V2000
   -6.6513   -7.8429    6.5835 C   0  0  0  0  0  0  0  0  0  0  0  0
   -6.3945   -8.3974    5.3048 C   0  0  0  0  0  0  0  0  0  0  0  0
   -6.6709   -7.5694    4.0589 C   0  0  0  0  0  0  0  0  0  0  0  0
   -7.1076   -6.3051    4.2100 O   0  0  0  0  0  0  0  0  0  0  0  0
   -6.6619   -5.6428    5.2891 C   0  0  0  0  0  0  0  0  0  0  0  0
   -6.3586   -6.3215    6.5421 C   0  0  0  0  0  0  0  0  0  0  0  0
   -5.0065   -6.0755    6.8565 O   0  0  0  0  0  0  0  0  0  0  0  0
   -4.9080   -5.3429    7.4758 H   0  0  0  0  0  0  0  0  0  0  0  0
   -7.8794   -7.9585    7.3515 C   0  0  0  0  0  0  0  0  0  0  0  0
   -8.6569   -6.7904    7.4401 C   0  0  0  0  0  0  0  0  0  0  0  0
   -9.9087   -6.7686    8.0103 C   0  0  0  0  0  0  0  0  0  0  0  0
  -10.4823   -7.8807    8.5316 C   0  0  0  0  0  0  0  0  0  0  0  0
   -9.7413   -9.0620    8.4617 C   0  0  0  0  0  0  0  0  0  0  0  0
   -8.4858   -9.0481    7.8799 C   0  0  0  0  0  0  0  0  0  0  0  0
   -7.8230  -10.2062    7.8851 F   0  0  0  0  0  0  0  0  0  0  0  0
  -11.8459   -7.8697    9.1098 C   0  0  0  0  0  0  0  0  0  0  0  0
  -12.3107   -9.1770    9.2959 F   0  0  0  0  0  0  0  0  0  0  0  0
  -11.8066   -7.1879   10.3036 F   0  0  0  0  0  0  0  0  0  0  0  0
  -12.7571   -7.1538    8.3369 F   0  0  0  0  0  0  0  0  0  0  0  0
   -4.2864   -8.4082    6.9981 C   0  0  0  0  0  0  0  0  0  0  0  0
   -4.0803   -8.1070    5.7868 O   0  0  0  0  0  0  0  0  0  0  0  0
   -5.6090   -8.2959    7.5615 N   0  0  0  0  0  0  0  0  0  0  0  0
   -5.7622   -8.5296    8.5271 H   0  0  0  0  0  0  0  0  0  0  0  0
   -1.1384  -13.9246    9.1340 C   0  0  0  0  0  0  0  0  0  0  0  0
   -1.7167  -12.6009    8.7071 C   0  0  0  0  0  0  0  0  0  0  0  0
   -2.8467  -12.5205    7.9236 C   0  0  0  0  0  0  0  0  0  0  0  0
   -3.3503  -11.3272    7.5561 N   0  0  0  0  0  0  0  0  0  0  0  0
   -2.7571  -10.1969    7.9503 C   0  0  0  0  0  0  0  0  0  0  0  0
   -3.1216   -8.8618    7.7133 C   0  0  0  0  0  0  0  0  0  0  0  0
   -2.1668   -8.1435    8.3676 C   0  0  0  0  0  0  0  0  0  0  0  0
   -1.3001   -8.9970    8.9538 N   0  0  0  0  0  0  0  0  0  0  0  0
   -1.6658  -10.2464    8.7015 N   0  0  0  0  0  0  0  0  0  0  0  0
   -1.1068  -11.4148    9.1056 C   0  0  0  0  0  0  0  0  0  0  0  0
 24 25  1  0  0  0
 25 26  1  0  0  0
 26 27  2  0  0  0
 27 28  1  0  0  0
 28 29  2  0  0  0
 29 20  1  0  0  0
 20 21  2  0  0  0
 20 22  1  0  0  0
 22  1  1  0  0  0
  1  9  1  0  0  0
  9 10  2  0  0  0
 10 11  1  0  0  0
 11 12  2  0  0  0
 12 16  1  0  0  0
 16 17  1  0  0  0
 16 18  1  0  0  0
 16 19  1  0  0  0
 12 13  1  0  0  0
 13 14  2  0  0  0
 14 15  1  0  0  0
  1  2  1  0  0  0
  2  3  1  0  0  0
  3  4  1  0  0  0
  4  5  1  0  0  0
  5  6  1  0  0  0
  6  7  1  0  0  0
 29 30  1  0  0  0
 30 31  2  0  0  0
 31 32  1  0  0  0
 32 33  1  0  0  0
 33 25  2  0  0  0
 32 28  1  0  0  0
  6  1  1  0  0  0
 14  9  1  0  0  0
 22 23  1  0  0  0
  7  8  1  0  0  0
M  END
> <minimizedAffinity>
2.25700

> <CNNscore>
0.3039070368

> <CNNaffinity>
5.7754244804

> <CNN_VS>
1.7551921606

> <CNNaffinity_variance>
0.7253495455

$$$$
[H]OC1([H])C([H])([H])OC([H])([H])C([H])([H])C1(c1c([H])c([H])c(C(F)(F)F)c([H])c1F)N([H])C(=O)c1c([H])nn2c([H])c(C([H])([H])[H])c([H])nc12


 33 36  0  0  0  0  0  0  0  0999 V2000
   -7.6758   -6.6930    7.5208 C   0  0  0  0  0  0  0  0  0  0  0  0
   -8.8242   -5.8916    7.7381 C   0  0  0  0  0  0  0  0  0  0  0  0
  -10.0927   -6.5306    8.2829 C   0  0  0  0  0  0  0  0  0  0  0  0
  -10.0717   -7.8404    8.5929 O   0  0  0  0  0  0  0  0  0  0  0  0
   -8.9064   -8.3300    9.0445 C   0  0  0  0  0  0  0  0  0  0  0  0
   -7.6226   -7.8026    8.6016 C   0  0  0  0  0  0  0  0  0  0  0  0
   -6.9225   -7.3456    9.7368 O   0  0  0  0  0  0  0  0  0  0  0  0
   -6.2985   -8.0039   10.0645 H   0  0  0  0  0  0  0  0  0  0  0  0
   -7.3045   -7.3656    6.2874 C   0  0  0  0  0  0  0  0  0  0  0  0
   -7.4872   -8.7595    6.2726 C   0  0  0  0  0  0  0  0  0  0  0  0
   -7.3160   -9.5227    5.1409 C   0  0  0  0  0  0  0  0  0  0  0  0
   -6.9548   -8.9786    3.9530 C   0  0  0  0  0  0  0  0  0  0  0  0
   -6.7647   -7.5956    3.9268 C   0  0  0  0  0  0  0  0  0  0  0  0
   -6.9470   -6.8584    5.0836 C   0  0  0  0  0  0  0  0  0  0  0  0
   -6.7091   -5.5488    4.9894 F   0  0  0  0  0  0  0  0  0  0  0  0
   -6.8088   -9.7912    2.7233 C   0  0  0  0  0  0  0  0  0  0  0  0
   -5.5059  -10.2923    2.6179 F   0  0  0  0  0  0  0  0  0  0  0  0
   -7.7265  -10.8147    2.7669 F   0  0  0  0  0  0  0  0  0  0  0  0
   -7.1355   -9.0878    1.5663 F   0  0  0  0  0  0  0  0  0  0  0  0
   -5.2354   -6.7199    7.8787 C   0  0  0  0  0  0  0  0  0  0  0  0
   -5.2833   -7.9519    7.5956 O   0  0  0  0  0  0  0  0  0  0  0  0
   -6.4358   -5.9211    7.8595 N   0  0  0  0  0  0  0  0  0  0  0  0
   -6.3873   -4.9411    8.0780 H   0  0  0  0  0  0  0  0  0  0  0  0
   -1.9489   -2.7706   12.1804 C   0  0  0  0  0  0  0  0  0  0  0  0
   -2.5416   -3.7011   11.1549 C   0  0  0  0  0  0  0  0  0  0  0  0
   -3.8767   -4.0396   11.1667 C   0  0  0  0  0  0  0  0  0  0  0  0
   -4.3882   -4.8700   10.2384 N   0  0  0  0  0  0  0  0  0  0  0  0
   -3.6020   -5.3794    9.2859 C   0  0  0  0  0  0  0  0  0  0  0  0
   -3.9240   -6.2290    8.2153 C   0  0  0  0  0  0  0  0  0  0  0  0
   -2.7373   -6.4009    7.5689 C   0  0  0  0  0  0  0  0  0  0  0  0
   -1.7810   -5.6973    8.2123 N   0  0  0  0  0  0  0  0  0  0  0  0
   -2.3126   -5.0728    9.2543 N   0  0  0  0  0  0  0  0  0  0  0  0
   -1.7341   -4.2438   10.1594 C   0  0  0  0  0  0  0  0  0  0  0  0
 24 25  1  0  0  0
 25 26  1  0  0  0
 26 27  2  0  0  0
 27 28  1  0  0  0
 28 29  2  0  0  0
 29 20  1  0  0  0
 20 21  2  0  0  0
 20 22  1  0  0  0
 22  1  1  0  0  0
  1  9  1  0  0  0
  9 10  2  0  0  0
 10 11  1  0  0  0
 11 12  2  0  0  0
 12 16  1  0  0  0
 16 17  1  0  0  0
 16 18  1  0  0  0
 16 19  1  0  0  0
 12 13  1  0  0  0
 13 14  2  0  0  0
 14 15  1  0  0  0
  1  2  1  0  0  0
  2  3  1  0  0  0
  3  4  1  0  0  0
  4  5  1  0  0  0
  5  6  1  0  0  0
  6  7  1  0  0  0
 29 30  1  0  0  0
 30 31  2  0  0  0
 31 32  1  0  0  0
 32 33  1  0  0  0
 33 25  2  0  0  0
 32 28  1  0  0  0
  6  1  1  0  0  0
 14  9  1  0  0  0
 22 23  1  0  0  0
  7  8  1  0  0  0
M  END
> <minimizedAffinity>
5.44778

> <CNNscore>
0.3014258146

> <CNNaffinity>
5.4813961983

> <CNN_VS>
1.6522343159

> <CNNaffinity_variance>
0.9506245852

$$$$
[H]OC1([H])C([H])([H])OC([H])([H])C([H])([H])C1(c1c([H])c([H])c(C(F)(F)F)c([H])c1F)N([H])C(=O)c1c([H])nn2c([H])c(C([H])([H])[H])c([H])nc12


 33 36  0  0  0  0  0  0  0  0999 V2000
  -14.6085   -7.9200    8.5720 C   0  0  0  0  0  0  0  0  0  0  0  0
  -13.9033   -6.7989    9.0762 C   0  0  0  0  0  0  0  0  0  0  0  0
  -12.6452   -7.0143    9.9039 C   0  0  0  0  0  0  0  0  0  0  0  0
  -12.2064   -8.2729   10.0925 O   0  0  0  0  0  0  0  0  0  0  0  0
  -12.4275   -9.1401    9.0921 C   0  0  0  0  0  0  0  0  0  0  0  0
  -13.5949   -9.0403    8.2261 C   0  0  0  0  0  0  0  0  0  0  0  0
  -13.1434   -8.8975    6.8983 O   0  0  0  0  0  0  0  0  0  0  0  0
  -13.1317   -9.7400    6.4290 H   0  0  0  0  0  0  0  0  0  0  0  0
  -15.7146   -8.6121    9.2116 C   0  0  0  0  0  0  0  0  0  0  0  0
  -16.7104   -9.1015    8.3482 C   0  0  0  0  0  0  0  0  0  0  0  0
  -17.7477   -9.8957    8.7793 C   0  0  0  0  0  0  0  0  0  0  0  0
  -17.8827  -10.2623   10.0774 C   0  0  0  0  0  0  0  0  0  0  0  0
  -16.9121   -9.7967   10.9665 C   0  0  0  0  0  0  0  0  0  0  0  0
  -15.8814   -9.0009   10.4982 C   0  0  0  0  0  0  0  0  0  0  0  0
  -15.0150   -8.5627   11.4135 F   0  0  0  0  0  0  0  0  0  0  0  0
  -18.9750  -11.1501   10.5383 C   0  0  0  0  0  0  0  0  0  0  0  0
  -20.1307  -10.4073   10.8075 F   0  0  0  0  0  0  0  0  0  0  0  0
  -19.2119  -12.0906    9.5632 F   0  0  0  0  0  0  0  0  0  0  0  0
  -18.6280  -11.8999   11.6597 F   0  0  0  0  0  0  0  0  0  0  0  0
  -14.9202   -6.2618    6.7727 C   0  0  0  0  0  0  0  0  0  0  0  0
  -14.2752   -5.4572    7.5053 O   0  0  0  0  0  0  0  0  0  0  0  0
  -15.1559   -7.6157    7.2097 N   0  0  0  0  0  0  0  0  0  0  0  0
  -15.6625   -8.2508    6.6177 H   0  0  0  0  0  0  0  0  0  0  0  0
  -18.6635   -7.6066    1.3799 C   0  0  0  0  0  0  0  0  0  0  0  0
  -17.8067   -7.1532    2.5327 C   0  0  0  0  0  0  0  0  0  0  0  0
  -17.6346   -7.9279    3.6586 C   0  0  0  0  0  0  0  0  0  0  0  0
  -16.8610   -7.5063    4.6768 N   0  0  0  0  0  0  0  0  0  0  0  0
  -16.2447   -6.3231    4.6077 C   0  0  0  0  0  0  0  0  0  0  0  0
  -15.3793   -5.7066    5.5257 C   0  0  0  0  0  0  0  0  0  0  0  0
  -15.0486   -4.5314    4.9214 C   0  0  0  0  0  0  0  0  0  0  0  0
  -15.6735   -4.4611    3.7264 N   0  0  0  0  0  0  0  0  0  0  0  0
  -16.3969   -5.5563    3.5370 N   0  0  0  0  0  0  0  0  0  0  0  0
  -17.1623   -5.9206    2.4775 C   0  0  0  0  0  0  0  0  0  0  0  0
 24 25  1  0  0  0
 25 26  1  0  0  0
 26 27  2  0  0  0
 27 28  1  0  0  0
 28 29  2  0  0  0
 29 20  1  0  0  0
 20 21  2  0  0  0
 20 22  1  0  0  0
 22  1  1  0  0  0
  1  9  1  0  0  0
  9 10  2  0  0  0
 10 11  1  0  0  0
 11 12  2  0  0  0
 12 16  1  0  0  0
 16 17  1  0  0  0
 16 18  1  0  0  0
 16 19  1  0  0  0
 12 13  1  0  0  0
 13 14  2  0  0  0
 14 15  1  0  0  0
  1  2  1  0  0  0
  2  3  1  0  0  0
  3  4  1  0  0  0
  4  5  1  0  0  0
  5  6  1  0  0  0
  6  7  1  0  0  0
 29 30  1  0  0  0
 30 31  2  0  0  0
 31 32  1  0  0  0
 32 33  1  0  0  0
 33 25  2  0  0  0
 32 28  1  0  0  0
  6  1  1  0  0  0
 14  9  1  0  0  0
 22 23  1  0  0  0
  7  8  1  0  0  0
M  END
> <minimizedAffinity>
17.30204

> <CNNscore>
0.2912196517

> <CNNaffinity>
6.2004570961

> <CNN_VS>
1.8056949377

> <CNNaffinity_variance>
0.3967631757

$$$$
[H]OC1([H])C([H])([H])OC([H])([H])C([H])([H])C1(c1c([H])c([H])c(C(F)(F)F)c([H])c1F)N([H])C(=O)c1c([H])nn2c([H])c(C([H])([H])[H])c([H])nc12


 33 36  0  0  0  0  0  0  0  0999 V2000
  -14.9824   -5.4677    5.3017 C   0  0  0  0  0  0  0  0  0  0  0  0
  -15.9339   -4.4182    5.3402 C   0  0  0  0  0  0  0  0  0  0  0  0
  -15.4992   -2.9990    5.0071 C   0  0  0  0  0  0  0  0  0  0  0  0
  -14.2234   -2.7875    4.6331 O   0  0  0  0  0  0  0  0  0  0  0  0
  -13.6278   -3.7780    3.9504 C   0  0  0  0  0  0  0  0  0  0  0  0
  -13.9577   -5.1791    4.1752 C   0  0  0  0  0  0  0  0  0  0  0  0
  -14.4070   -5.7237    2.9550 O   0  0  0  0  0  0  0  0  0  0  0  0
  -13.7025   -6.1853    2.4852 H   0  0  0  0  0  0  0  0  0  0  0  0
  -14.1796   -5.9559    6.4102 C   0  0  0  0  0  0  0  0  0  0  0  0
  -14.2542   -5.2043    7.5961 C   0  0  0  0  0  0  0  0  0  0  0  0
  -13.6674   -5.6075    8.7733 C   0  0  0  0  0  0  0  0  0  0  0  0
  -12.9699   -6.7658    8.8708 C   0  0  0  0  0  0  0  0  0  0  0  0
  -12.8741   -7.5412    7.7137 C   0  0  0  0  0  0  0  0  0  0  0  0
  -13.4779   -7.1061    6.5471 C   0  0  0  0  0  0  0  0  0  0  0  0
  -13.3097   -7.8811    5.4740 F   0  0  0  0  0  0  0  0  0  0  0  0
  -12.3712   -7.2228   10.1461 C   0  0  0  0  0  0  0  0  0  0  0  0
  -12.9096   -8.4579   10.5262 F   0  0  0  0  0  0  0  0  0  0  0  0
  -11.0088   -7.3112    9.9799 F   0  0  0  0  0  0  0  0  0  0  0  0
  -12.5307   -6.3036   11.1804 F   0  0  0  0  0  0  0  0  0  0  0  0
  -16.7705   -7.1512    5.5316 C   0  0  0  0  0  0  0  0  0  0  0  0
  -17.1806   -6.4712    6.5163 O   0  0  0  0  0  0  0  0  0  0  0  0
  -15.6174   -6.7216    4.7796 N   0  0  0  0  0  0  0  0  0  0  0  0
  -15.3032   -7.2638    3.9936 H   0  0  0  0  0  0  0  0  0  0  0  0
  -16.4367  -13.1516    2.5674 C   0  0  0  0  0  0  0  0  0  0  0  0
  -16.6583  -11.8481    3.2889 C   0  0  0  0  0  0  0  0  0  0  0  0
  -15.6499  -10.9226    3.4432 C   0  0  0  0  0  0  0  0  0  0  0  0
  -15.8694   -9.7612    4.0881 N   0  0  0  0  0  0  0  0  0  0  0  0
  -17.0773   -9.4886    4.5895 C   0  0  0  0  0  0  0  0  0  0  0  0
  -17.5322   -8.3435    5.2630 C   0  0  0  0  0  0  0  0  0  0  0  0
  -18.8416   -8.6169    5.5204 C   0  0  0  0  0  0  0  0  0  0  0  0
  -19.1399   -9.8387    5.0287 N   0  0  0  0  0  0  0  0  0  0  0  0
  -18.0641  -10.3640    4.4583 N   0  0  0  0  0  0  0  0  0  0  0  0
  -17.9099  -11.5521    3.8213 C   0  0  0  0  0  0  0  0  0  0  0  0
 24 25  1  0  0  0
 25 26  1  0  0  0
 26 27  2  0  0  0
 27 28  1  0  0  0
 28 29  2  0  0  0
 29 20  1  0  0  0
 20 21  2  0  0  0
 20 22  1  0  0  0
 22  1  1  0  0  0
  1  9  1  0  0  0
  9 10  2  0  0  0
 10 11  1  0  0  0
 11 12  2  0  0  0
 12 16  1  0  0  0
 16 17  1  0  0  0
 16 18  1  0  0  0
 16 19  1  0  0  0
 12 13  1  0  0  0
 13 14  2  0  0  0
 14 15  1  0  0  0
  1  2  1  0  0  0
  2  3  1  0  0  0
  3  4  1  0  0  0
  4  5  1  0  0  0
  5  6  1  0  0  0
  6  7  1  0  0  0
 29 30  1  0  0  0
 30 31  2  0  0  0
 31 32  1  0  0  0
 32 33  1  0  0  0
 33 25  2  0  0  0
 32 28  1  0  0  0
  6  1  1  0  0  0
 14  9  1  0  0  0
 22 23  1  0  0  0
  7  8  1  0  0  0
M  END
> <minimizedAffinity>
24.50809

> <CNNscore>
0.2666029632

> <CNNaffinity>
6.4684324265

> <CNN_VS>
1.7245032787

> <CNNaffinity_variance>
0.9642788172

$$$$
[H]OC1([H])C([H])([H])OC([H])([H])C([H])([H])C1(c1c([H])c([H])c(C(F)(F)F)c([H])c1F)N([H])C(=O)c1c([H])nn2c([H])c(C([H])([H])[H])c([H])nc12


 33 36  0  0  0  0  0  0  0  0999 V2000
  -15.3074   -7.7692    7.0532 C   0  0  0  0  0  0  0  0  0  0  0  0
  -14.5912   -6.8389    7.8469 C   0  0  0  0  0  0  0  0  0  0  0  0
  -13.6228   -7.3448    8.9054 C   0  0  0  0  0  0  0  0  0  0  0  0
  -13.4350   -8.6724    9.0242 O   0  0  0  0  0  0  0  0  0  0  0  0
  -13.5274   -9.3933    7.8957 C   0  0  0  0  0  0  0  0  0  0  0  0
  -14.4166   -9.0132    6.8060 C   0  0  0  0  0  0  0  0  0  0  0  0
  -13.6348   -8.8316    5.6469 O   0  0  0  0  0  0  0  0  0  0  0  0
  -13.6321   -9.6170    5.0874 H   0  0  0  0  0  0  0  0  0  0  0  0
  -16.6270   -8.3127    7.3270 C   0  0  0  0  0  0  0  0  0  0  0  0
  -17.4513   -8.5099    6.2053 C   0  0  0  0  0  0  0  0  0  0  0  0
  -18.6709   -9.1424    6.2773 C   0  0  0  0  0  0  0  0  0  0  0  0
  -19.1661   -9.6212    7.4449 C   0  0  0  0  0  0  0  0  0  0  0  0
  -18.3756   -9.4454    8.5822 C   0  0  0  0  0  0  0  0  0  0  0  0
  -17.1533   -8.8060    8.4732 C   0  0  0  0  0  0  0  0  0  0  0  0
  -16.4732   -8.6407    9.6092 F   0  0  0  0  0  0  0  0  0  0  0  0
  -20.4600  -10.3382    7.5196 C   0  0  0  0  0  0  0  0  0  0  0  0
  -21.4950   -9.5360    7.0248 F   0  0  0  0  0  0  0  0  0  0  0  0
  -20.3537  -11.5036    6.7970 F   0  0  0  0  0  0  0  0  0  0  0  0
  -20.7714  -10.7626    8.8092 F   0  0  0  0  0  0  0  0  0  0  0  0
  -16.5995   -6.4039    5.4562 C   0  0  0  0  0  0  0  0  0  0  0  0
  -17.3661   -6.1317    6.4250 O   0  0  0  0  0  0  0  0  0  0  0  0
  -15.4499   -7.2518    5.6532 N   0  0  0  0  0  0  0  0  0  0  0  0
  -14.8415   -7.4563    4.8796 H   0  0  0  0  0  0  0  0  0  0  0  0
  -15.6185   -1.0604    1.5335 C   0  0  0  0  0  0  0  0  0  0  0  0
  -15.9278   -2.3236    2.2934 C   0  0  0  0  0  0  0  0  0  0  0  0
  -15.2937   -2.6335    3.4763 C   0  0  0  0  0  0  0  0  0  0  0  0
  -15.5875   -3.7660    4.1426 N   0  0  0  0  0  0  0  0  0  0  0  0
  -16.5054   -4.6096    3.6626 C   0  0  0  0  0  0  0  0  0  0  0  0
  -16.9842   -5.8157    4.1991 C   0  0  0  0  0  0  0  0  0  0  0  0
  -17.9155   -6.2267    3.2940 C   0  0  0  0  0  0  0  0  0  0  0  0
  -17.9841   -5.3226    2.2934 N   0  0  0  0  0  0  0  0  0  0  0  0
  -17.1275   -4.3370    2.5241 N   0  0  0  0  0  0  0  0  0  0  0  0
  -16.8781   -3.2148    1.8032 C   0  0  0  0  0  0  0  0  0  0  0  0
 24 25  1  0  0  0
 25 26  1  0  0  0
 26 27  2  0  0  0
 27 28  1  0  0  0
 28 29  2  0  0  0
 29 20  1  0  0  0
 20 21  2  0  0  0
 20 22  1  0  0  0
 22  1  1  0  0  0
  1  9  1  0  0  0
  9 10  2  0  0  0
 10 11  1  0  0  0
 11 12  2  0  0  0
 12 16  1  0  0  0
 16 17  1  0  0  0
 16 18  1  0  0  0
 16 19  1  0  0  0
 12 13  1  0  0  0
 13 14  2  0  0  0
 14 15  1  0  0  0
  1  2  1  0  0  0
  2  3  1  0  0  0
  3  4  1  0  0  0
  4  5  1  0  0  0
  5  6  1  0  0  0
  6  7  1  0  0  0
 29 30  1  0  0  0
 30 31  2  0  0  0
 31 32  1  0  0  0
 32 33  1  0  0  0
 33 25  2  0  0  0
 32 28  1  0  0  0
  6  1  1  0  0  0
 14  9  1  0  0  0
 22 23  1  0  0  0
  7  8  1  0  0  0
M  END
> <minimizedAffinity>
18.42039

> <CNNscore>
0.2034318745

> <CNNaffinity>
6.1395683289

> <CNN_VS>
1.2489838600

> <CNNaffinity_variance>
1.0214416981

$$$$
[H]OC(=O)C([H])([H])C([H])([H])[C@@]([H])(C(=O)N1C([H])([H])C([H])([H])C([H])([H])[C@@]1([H])C(=O)N([H])[C@]([H])(C(=O)OC([H])([H])[H])C([H])([H])c1c([H])c([H])c([H])c([H])c1[H])N([H])C(=O)[C@@]([H])(N([H])C(=O)OC([H])([H])c1c([H])c([H])c([H])c([H])c1[H])[C@@]([H])(C([H])([H])[H])C([H])([H])C([H])([H])[H]


 51 53  0  0  0  0  0  0  0  0999 V2000
   -6.1541   -7.5483    9.7103 C   0  0  0  0  0  0  0  0  0  0  0  0
   -7.1089   -8.3835    9.0384 C   0  0  0  0  0  0  0  0  0  0  0  0
   -6.8873   -9.6849    9.3681 O   0  0  0  0  0  0  0  0  0  0  0  0
   -8.1694   -8.2871    8.1626 N   0  0  0  0  0  0  0  0  0  0  0  0
   -8.9458   -9.4844    7.7305 C   0  0  0  0  0  0  0  0  0  0  0  0
   -8.8448   -9.3377    6.2266 C   0  0  0  0  0  0  0  0  0  0  0  0
   -8.9814   -7.8664    6.0272 C   0  0  0  0  0  0  0  0  0  0  0  0
   -8.7669   -7.2359    7.4280 C   0  0  0  0  0  0  0  0  0  0  0  0
  -10.1120   -6.8202    7.8592 C   0  0  0  0  0  0  0  0  0  0  0  0
  -10.2514   -5.9940    8.7765 O   0  0  0  0  0  0  0  0  0  0  0  0
  -11.2529   -7.3686    7.2247 N   0  0  0  0  0  0  0  0  0  0  0  0
  -11.1849   -8.0557    6.4432 H   0  0  0  0  0  0  0  0  0  0  0  0
  -12.5967   -6.9611    7.6808 C   0  0  0  0  0  0  0  0  0  0  0  0
  -12.7667   -7.2636    9.1070 C   0  0  0  0  0  0  0  0  0  0  0  0
  -13.4014   -6.4292    9.8549 O   0  0  0  0  0  0  0  0  0  0  0  0
  -12.3074   -8.3781    9.7364 O   0  0  0  0  0  0  0  0  0  0  0  0
  -13.1847   -9.3020   10.3989 C   0  0  0  0  0  0  0  0  0  0  0  0
  -13.6087   -7.6814    6.8500 C   0  0  0  0  0  0  0  0  0  0  0  0
  -14.5999   -6.8592    6.1680 C   0  0  0  0  0  0  0  0  0  0  0  0
  -14.1169   -5.8518    5.3359 C   0  0  0  0  0  0  0  0  0  0  0  0
  -15.0167   -5.0761    4.6633 C   0  0  0  0  0  0  0  0  0  0  0  0
  -16.3794   -5.2546    4.7779 C   0  0  0  0  0  0  0  0  0  0  0  0
  -16.8323   -6.2816    5.6256 C   0  0  0  0  0  0  0  0  0  0  0  0
  -15.9496   -7.0609    6.3023 C   0  0  0  0  0  0  0  0  0  0  0  0
   -5.2000   -6.4382    7.6287 C   0  0  0  0  0  0  0  0  0  0  0  0
   -6.2528   -5.6996    7.6567 O   0  0  0  0  0  0  0  0  0  0  0  0
   -5.0725   -7.3990    8.6331 N   0  0  0  0  0  0  0  0  0  0  0  0
   -4.2608   -8.0410    8.6883 H   0  0  0  0  0  0  0  0  0  0  0  0
   -4.2761   -6.1802    6.5432 C   0  0  0  0  0  0  0  0  0  0  0  0
   -3.6144   -4.9064    6.6602 N   0  0  0  0  0  0  0  0  0  0  0  0
   -3.2216   -4.1994    7.8030 C   0  0  0  0  0  0  0  0  0  0  0  0
   -3.3657   -4.5163    8.9982 O   0  0  0  0  0  0  0  0  0  0  0  0
   -3.3784   -4.4078    5.7239 H   0  0  0  0  0  0  0  0  0  0  0  0
   -2.5702   -2.9457    7.6382 O   0  0  0  0  0  0  0  0  0  0  0  0
   -3.2679   -1.7932    7.2428 C   0  0  0  0  0  0  0  0  0  0  0  0
   -3.2846   -0.7166    8.2259 C   0  0  0  0  0  0  0  0  0  0  0  0
   -3.1572    0.6031    7.8043 C   0  0  0  0  0  0  0  0  0  0  0  0
   -3.1588    1.6657    8.6704 C   0  0  0  0  0  0  0  0  0  0  0  0
   -3.2925    1.4382   10.0370 C   0  0  0  0  0  0  0  0  0  0  0  0
   -3.4201    0.1297   10.4659 C   0  0  0  0  0  0  0  0  0  0  0  0
   -3.4167   -0.9294    9.5789 C   0  0  0  0  0  0  0  0  0  0  0  0
   -3.2339   -7.2456    6.2847 C   0  0  0  0  0  0  0  0  0  0  0  0
   -2.0580   -6.7521    5.4542 C   0  0  0  0  0  0  0  0  0  0  0  0
   -1.2972   -8.3198    7.4887 C   0  0  0  0  0  0  0  0  0  0  0  0
   -2.6326   -7.6161    7.6348 C   0  0  0  0  0  0  0  0  0  0  0  0
   -6.3845   -6.2505   10.3102 C   0  0  0  0  0  0  0  0  0  0  0  0
   -6.2601   -6.0751   11.7888 C   0  0  0  0  0  0  0  0  0  0  0  0
   -5.0219   -5.2848   12.1353 C   0  0  0  0  0  0  0  0  0  0  0  0
   -4.7223   -4.2712   11.4687 O   0  0  0  0  0  0  0  0  0  0  0  0
   -4.1844   -5.6435   13.1875 O   0  0  0  0  0  0  0  0  0  0  0  0
   -3.6417   -4.9928   13.7053 H   0  0  0  0  0  0  0  0  0  0  0  0
 44 45  1  0  0  0
 45 42  1  0  0  0
 42 43  1  0  0  0
 42 29  1  0  0  0
 29 30  1  0  0  0
 30 31  1  0  0  0
 31 32  2  0  0  0
 31 34  1  0  0  0
 34 35  1  0  0  0
 35 36  1  0  0  0
 36 37  2  0  0  0
 37 38  1  0  0  0
 38 39  2  0  0  0
 39 40  1  0  0  0
 40 41  2  0  0  0
 29 25  1  0  0  0
 25 26  2  0  0  0
 25 27  1  0  0  0
 27  1  1  0  0  0
  1 46  1  0  0  0
 46 47  1  0  0  0
 47 48  1  0  0  0
 48 49  2  0  0  0
 48 50  1  0  0  0
  1  2  1  0  0  0
  2  3  2  0  0  0
  2  4  1  0  0  0
  4  5  1  0  0  0
  5  6  1  0  0  0
  6  7  1  0  0  0
  7  8  1  0  0  0
  8  9  1  0  0  0
  9 10  2  0  0  0
  9 11  1  0  0  0
 11 13  1  0  0  0
 13 18  1  0  0  0
 18 19  1  0  0  0
 19 20  2  0  0  0
 20 21  1  0  0  0
 21 22  2  0  0  0
 22 23  1  0  0  0
 23 24  2  0  0  0
 13 14  1  0  0  0
 14 15  2  0  0  0
 14 16  1  0  0  0
 16 17  1  0  0  0
 41 36  1  0  0  0
  8  4  1  0  0  0
 24 19  1  0  0  0
 30 33  1  0  0  0
 27 28  1  0  0  0
 50 51  1  0  0  0
 11 12  1  0  0  0
M  END
> <minimizedAffinity>
-1.24414

> <CNNscore>
0.3774659038

> <CNNaffinity>
6.7816824913

> <CNN_VS>
2.5598537922

> <CNNaffinity_variance>
0.5705338120

$$$$
[H]OC(=O)C([H])([H])C([H])([H])[C@@]([H])(C(=O)N1C([H])([H])C([H])([H])C([H])([H])[C@@]1([H])C(=O)N([H])[C@]([H])(C(=O)OC([H])([H])[H])C([H])([H])c1c([H])c([H])c([H])c([H])c1[H])N([H])C(=O)[C@@]([H])(N([H])C(=O)OC([H])([H])c1c([H])c([H])c([H])c([H])c1[H])[C@@]([H])(C([H])([H])[H])C([H])([H])C([H])([H])[H]


 51 53  0  0  0  0  0  0  0  0999 V2000
   -6.7213   -7.4797    7.1901 C   0  0  0  0  0  0  0  0  0  0  0  0
   -5.9609   -6.2859    6.9509 C   0  0  0  0  0  0  0  0  0  0  0  0
   -6.7645   -5.1974    7.0957 O   0  0  0  0  0  0  0  0  0  0  0  0
   -4.6826   -5.8939    6.6146 N   0  0  0  0  0  0  0  0  0  0  0  0
   -4.3037   -4.4564    6.4999 C   0  0  0  0  0  0  0  0  0  0  0  0
   -3.7161   -4.4473    5.1041 C   0  0  0  0  0  0  0  0  0  0  0  0
   -2.9737   -5.7391    5.0486 C   0  0  0  0  0  0  0  0  0  0  0  0
   -3.4928   -6.5684    6.2522 C   0  0  0  0  0  0  0  0  0  0  0  0
   -2.3952   -6.5288    7.2328 C   0  0  0  0  0  0  0  0  0  0  0  0
   -1.2903   -7.0275    6.9609 O   0  0  0  0  0  0  0  0  0  0  0  0
   -2.6029   -5.9201    8.4943 N   0  0  0  0  0  0  0  0  0  0  0  0
   -3.5089   -5.4787    8.7624 H   0  0  0  0  0  0  0  0  0  0  0  0
   -1.5018   -5.9064    9.4778 C   0  0  0  0  0  0  0  0  0  0  0  0
   -2.0320   -6.0252   10.8414 C   0  0  0  0  0  0  0  0  0  0  0  0
   -1.7415   -7.0675   11.5398 O   0  0  0  0  0  0  0  0  0  0  0  0
   -2.8236   -5.1100   11.4617 O   0  0  0  0  0  0  0  0  0  0  0  0
   -2.7241   -4.8367   12.8680 C   0  0  0  0  0  0  0  0  0  0  0  0
   -0.7371   -4.6345    9.3031 C   0  0  0  0  0  0  0  0  0  0  0  0
   -1.4397   -3.3993    9.6257 C   0  0  0  0  0  0  0  0  0  0  0  0
   -2.5654   -3.0978    8.8625 C   0  0  0  0  0  0  0  0  0  0  0  0
   -3.2617   -1.9595    9.1513 C   0  0  0  0  0  0  0  0  0  0  0  0
   -2.8918   -1.1031   10.1670 C   0  0  0  0  0  0  0  0  0  0  0  0
   -1.7511   -1.4387   10.9183 C   0  0  0  0  0  0  0  0  0  0  0  0
   -1.0472   -2.5669   10.6424 C   0  0  0  0  0  0  0  0  0  0  0  0
   -9.0932   -7.0511    8.0062 C   0  0  0  0  0  0  0  0  0  0  0  0
   -8.6993   -7.5595    9.1203 O   0  0  0  0  0  0  0  0  0  0  0  0
   -8.1534   -6.9735    6.9771 N   0  0  0  0  0  0  0  0  0  0  0  0
   -8.3814   -6.5831    6.0446 H   0  0  0  0  0  0  0  0  0  0  0  0
  -10.4775   -6.6270    7.9598 C   0  0  0  0  0  0  0  0  0  0  0  0
  -11.3155   -7.5275    7.2107 N   0  0  0  0  0  0  0  0  0  0  0  0
  -11.4083   -8.9234    7.2649 C   0  0  0  0  0  0  0  0  0  0  0  0
  -10.7693   -9.7155    7.9817 O   0  0  0  0  0  0  0  0  0  0  0  0
  -11.9829   -7.0635    6.4895 H   0  0  0  0  0  0  0  0  0  0  0  0
  -12.3358   -9.5783    6.4081 O   0  0  0  0  0  0  0  0  0  0  0  0
  -13.7026   -9.6608    6.7188 C   0  0  0  0  0  0  0  0  0  0  0  0
  -14.5785   -8.8796    5.8538 C   0  0  0  0  0  0  0  0  0  0  0  0
  -14.3767   -8.8917    4.4774 C   0  0  0  0  0  0  0  0  0  0  0  0
  -15.1557   -8.1786    3.6034 C   0  0  0  0  0  0  0  0  0  0  0  0
  -16.2012   -7.4006    4.0923 C   0  0  0  0  0  0  0  0  0  0  0  0
  -16.4100   -7.3823    5.4593 C   0  0  0  0  0  0  0  0  0  0  0  0
  -15.6151   -8.1074    6.3257 C   0  0  0  0  0  0  0  0  0  0  0  0
  -11.1364   -6.3478    9.2925 C   0  0  0  0  0  0  0  0  0  0  0  0
  -11.0099   -4.8980    9.7375 C   0  0  0  0  0  0  0  0  0  0  0  0
  -13.1929   -7.5468   10.1214 C   0  0  0  0  0  0  0  0  0  0  0  0
  -12.6318   -6.5715    9.1047 C   0  0  0  0  0  0  0  0  0  0  0  0
   -6.5855   -8.7603    6.5276 C   0  0  0  0  0  0  0  0  0  0  0  0
   -7.6405   -9.8054    6.6922 C   0  0  0  0  0  0  0  0  0  0  0  0
   -7.4968  -10.5119    8.0181 C   0  0  0  0  0  0  0  0  0  0  0  0
   -7.3895  -11.7564    8.0531 O   0  0  0  0  0  0  0  0  0  0  0  0
   -7.4769   -9.8220    9.2268 O   0  0  0  0  0  0  0  0  0  0  0  0
   -6.9956  -10.1410   10.0346 H   0  0  0  0  0  0  0  0  0  0  0  0
 44 45  1  0  0  0
 45 42  1  0  0  0
 42 43  1  0  0  0
 42 29  1  0  0  0
 29 30  1  0  0  0
 30 31  1  0  0  0
 31 32  2  0  0  0
 31 34  1  0  0  0
 34 35  1  0  0  0
 35 36  1  0  0  0
 36 37  2  0  0  0
 37 38  1  0  0  0
 38 39  2  0  0  0
 39 40  1  0  0  0
 40 41  2  0  0  0
 29 25  1  0  0  0
 25 26  2  0  0  0
 25 27  1  0  0  0
 27  1  1  0  0  0
  1 46  1  0  0  0
 46 47  1  0  0  0
 47 48  1  0  0  0
 48 49  2  0  0  0
 48 50  1  0  0  0
  1  2  1  0  0  0
  2  3  2  0  0  0
  2  4  1  0  0  0
  4  5  1  0  0  0
  5  6  1  0  0  0
  6  7  1  0  0  0
  7  8  1  0  0  0
  8  9  1  0  0  0
  9 10  2  0  0  0
  9 11  1  0  0  0
 11 13  1  0  0  0
 13 18  1  0  0  0
 18 19  1  0  0  0
 19 20  2  0  0  0
 20 21  1  0  0  0
 21 22  2  0  0  0
 22 23  1  0  0  0
 23 24  2  0  0  0
 13 14  1  0  0  0
 14 15  2  0  0  0
 14 16  1  0  0  0
 16 17  1  0  0  0
 41 36  1  0  0  0
  8  4  1  0  0  0
 24 19  1  0  0  0
 30 33  1  0  0  0
 27 28  1  0  0  0
 50 51  1  0  0  0
 11 12  1  0  0  0
M  END
> <minimizedAffinity>
-2.61444

> <CNNscore>
0.2620617747

> <CNNaffinity>
6.5500311852

> <CNN_VS>
1.7165127993

> <CNNaffinity_variance>
0.2581290901

$$$$
[H]OC(=O)C([H])([H])C([H])([H])[C@@]([H])(C(=O)N1C([H])([H])C([H])([H])C([H])([H])[C@@]1([H])C(=O)N([H])[C@]([H])(C(=O)OC([H])([H])[H])C([H])([H])c1c([H])c([H])c([H])c([H])c1[H])N([H])C(=O)[C@@]([H])(N([H])C(=O)OC([H])([H])c1c([H])c([H])c([H])c([H])c1[H])[C@@]([H])(C([H])([H])[H])C([H])([H])C([H])([H])[H]


 51 53  0  0  0  0  0  0  0  0999 V2000
   -9.4893   -8.0092    7.5477 C   0  0  0  0  0  0  0  0  0  0  0  0
  -10.3178   -6.9898    8.1265 C   0  0  0  0  0  0  0  0  0  0  0  0
   -9.7970   -5.7649    7.8441 O   0  0  0  0  0  0  0  0  0  0  0  0
  -11.4642   -6.8585    8.8812 N   0  0  0  0  0  0  0  0  0  0  0  0
  -12.0182   -5.5234    9.2468 C   0  0  0  0  0  0  0  0  0  0  0  0
  -12.1140   -5.6785   10.7502 C   0  0  0  0  0  0  0  0  0  0  0  0
  -12.5731   -7.0880   10.9094 C   0  0  0  0  0  0  0  0  0  0  0  0
  -12.3426   -7.7582    9.5297 C   0  0  0  0  0  0  0  0  0  0  0  0
  -13.6896   -7.8883    8.9493 C   0  0  0  0  0  0  0  0  0  0  0  0
  -14.6954   -7.8432    9.6771 O   0  0  0  0  0  0  0  0  0  0  0  0
  -13.8373   -8.0684    7.5525 N   0  0  0  0  0  0  0  0  0  0  0  0
  -13.0234   -8.1007    6.9014 H   0  0  0  0  0  0  0  0  0  0  0  0
  -15.1917   -8.2202    6.9849 C   0  0  0  0  0  0  0  0  0  0  0  0
  -15.1143   -8.6555    5.5852 C   0  0  0  0  0  0  0  0  0  0  0  0
  -16.2025   -8.8090    4.9140 O   0  0  0  0  0  0  0  0  0  0  0  0
  -13.9671   -8.9179    4.9039 O   0  0  0  0  0  0  0  0  0  0  0  0
  -12.8727   -9.6381    5.4921 C   0  0  0  0  0  0  0  0  0  0  0  0
  -15.8971   -6.9083    7.1057 C   0  0  0  0  0  0  0  0  0  0  0  0
  -15.9486   -6.0805    5.9076 C   0  0  0  0  0  0  0  0  0  0  0  0
  -17.2032   -5.8753    5.3379 C   0  0  0  0  0  0  0  0  0  0  0  0
  -17.2924   -5.0866    4.2271 C   0  0  0  0  0  0  0  0  0  0  0  0
  -16.1900   -4.4889    3.6531 C   0  0  0  0  0  0  0  0  0  0  0  0
  -14.9391   -4.7163    4.2549 C   0  0  0  0  0  0  0  0  0  0  0  0
  -14.8340   -5.4994    5.3594 C   0  0  0  0  0  0  0  0  0  0  0  0
   -7.0075   -7.8850    6.9989 C   0  0  0  0  0  0  0  0  0  0  0  0
   -7.2407   -8.8410    6.1704 O   0  0  0  0  0  0  0  0  0  0  0  0
   -8.0918   -7.4055    7.7355 N   0  0  0  0  0  0  0  0  0  0  0  0
   -7.9982   -6.6409    8.4288 H   0  0  0  0  0  0  0  0  0  0  0  0
   -5.6342   -7.4293    7.0673 C   0  0  0  0  0  0  0  0  0  0  0  0
   -4.6804   -8.5008    6.9390 N   0  0  0  0  0  0  0  0  0  0  0  0
   -3.2968   -8.5025    7.1526 C   0  0  0  0  0  0  0  0  0  0  0  0
   -2.5650   -7.5576    7.5011 O   0  0  0  0  0  0  0  0  0  0  0  0
   -5.0854   -9.4606    6.6296 H   0  0  0  0  0  0  0  0  0  0  0  0
   -2.5788   -9.7150    6.9579 O   0  0  0  0  0  0  0  0  0  0  0  0
   -1.2675   -9.8849    7.4298 C   0  0  0  0  0  0  0  0  0  0  0  0
   -1.1600  -10.5536    8.7209 C   0  0  0  0  0  0  0  0  0  0  0  0
   -0.8188   -9.8180    9.8513 C   0  0  0  0  0  0  0  0  0  0  0  0
   -0.6938  -10.3789   11.0960 C   0  0  0  0  0  0  0  0  0  0  0  0
   -0.9134  -11.7435   11.2600 C   0  0  0  0  0  0  0  0  0  0  0  0
   -1.2534  -12.4833   10.1421 C   0  0  0  0  0  0  0  0  0  0  0  0
   -1.3751  -11.9015    8.8951 C   0  0  0  0  0  0  0  0  0  0  0  0
   -5.2491   -6.3211    6.1125 C   0  0  0  0  0  0  0  0  0  0  0  0
   -6.4302   -5.7497    5.3414 C   0  0  0  0  0  0  0  0  0  0  0  0
   -4.9219   -5.4172    8.4427 C   0  0  0  0  0  0  0  0  0  0  0  0
   -4.7361   -5.1629    6.9593 C   0  0  0  0  0  0  0  0  0  0  0  0
   -9.4340   -9.4111    7.9067 C   0  0  0  0  0  0  0  0  0  0  0  0
   -9.9846  -10.4450    6.9792 C   0  0  0  0  0  0  0  0  0  0  0  0
   -8.9725  -11.5357    6.7264 C   0  0  0  0  0  0  0  0  0  0  0  0
   -9.2053  -12.4161    5.8706 O   0  0  0  0  0  0  0  0  0  0  0  0
   -7.7669  -11.6026    7.4186 O   0  0  0  0  0  0  0  0  0  0  0  0
   -6.9373  -11.9976    7.0421 H   0  0  0  0  0  0  0  0  0  0  0  0
 44 45  1  0  0  0
 45 42  1  0  0  0
 42 43  1  0  0  0
 42 29  1  0  0  0
 29 30  1  0  0  0
 30 31  1  0  0  0
 31 32  2  0  0  0
 31 34  1  0  0  0
 34 35  1  0  0  0
 35 36  1  0  0  0
 36 37  2  0  0  0
 37 38  1  0  0  0
 38 39  2  0  0  0
 39 40  1  0  0  0
 40 41  2  0  0  0
 29 25  1  0  0  0
 25 26  2  0  0  0
 25 27  1  0  0  0
 27  1  1  0  0  0
  1 46  1  0  0  0
 46 47  1  0  0  0
 47 48  1  0  0  0
 48 49  2  0  0  0
 48 50  1  0  0  0
  1  2  1  0  0  0
  2  3  2  0  0  0
  2  4  1  0  0  0
  4  5  1  0  0  0
  5  6  1  0  0  0
  6  7  1  0  0  0
  7  8  1  0  0  0
  8  9  1  0  0  0
  9 10  2  0  0  0
  9 11  1  0  0  0
 11 13  1  0  0  0
 13 18  1  0  0  0
 18 19  1  0  0  0
 19 20  2  0  0  0
 20 21  1  0  0  0
 21 22  2  0  0  0
 22 23  1  0  0  0
 23 24  2  0  0  0
 13 14  1  0  0  0
 14 15  2  0  0  0
 14 16  1  0  0  0
 16 17  1  0  0  0
 41 36  1  0  0  0
  8  4  1  0  0  0
 24 19  1  0  0  0
 30 33  1  0  0  0
 27 28  1  0  0  0
 50 51  1  0  0  0
 11 12  1  0  0  0
M  END
> <minimizedAffinity>
-3.06013

> <CNNscore>
0.2563188076

> <CNNaffinity>
6.8389501572

> <CNN_VS>
1.7529515028

> <CNNaffinity_variance>
0.1648561209

$$$$
[H]OC(=O)C([H])([H])C([H])([H])[C@@]([H])(C(=O)N1C([H])([H])C([H])([H])C([H])([H])[C@@]1([H])C(=O)N([H])[C@]([H])(C(=O)OC([H])([H])[H])C([H])([H])c1c([H])c([H])c([H])c([H])c1[H])N([H])C(=O)[C@@]([H])(N([H])C(=O)OC([H])([H])c1c([H])c([H])c([H])c([H])c1[H])[C@@]([H])(C([H])([H])[H])C([H])([H])C([H])([H])[H]


 51 53  0  0  0  0  0  0  0  0999 V2000
   -7.2966   -8.0930    8.2078 C   0  0  0  0  0  0  0  0  0  0  0  0
   -6.2121   -7.2096    8.5303 C   0  0  0  0  0  0  0  0  0  0  0  0
   -6.2258   -6.9395    9.8638 O   0  0  0  0  0  0  0  0  0  0  0  0
   -5.1704   -6.5443    7.9194 N   0  0  0  0  0  0  0  0  0  0  0  0
   -4.2066   -5.7101    8.6928 C   0  0  0  0  0  0  0  0  0  0  0  0
   -4.3118   -4.4063    7.9295 C   0  0  0  0  0  0  0  0  0  0  0  0
   -4.4109   -4.8591    6.5124 C   0  0  0  0  0  0  0  0  0  0  0  0
   -4.7407   -6.3731    6.5823 C   0  0  0  0  0  0  0  0  0  0  0  0
   -3.4851   -7.0453    6.2086 C   0  0  0  0  0  0  0  0  0  0  0  0
   -2.7769   -6.5923    5.2940 O   0  0  0  0  0  0  0  0  0  0  0  0
   -3.0852   -8.2171    6.8958 N   0  0  0  0  0  0  0  0  0  0  0  0
   -3.6410   -8.6270    7.6772 H   0  0  0  0  0  0  0  0  0  0  0  0
   -1.8357   -8.8951    6.4973 C   0  0  0  0  0  0  0  0  0  0  0  0
   -1.7633  -10.2311    7.1009 C   0  0  0  0  0  0  0  0  0  0  0  0
   -2.5301  -10.5131    8.0964 O   0  0  0  0  0  0  0  0  0  0  0  0
   -0.9406  -11.2352    6.6960 O   0  0  0  0  0  0  0  0  0  0  0  0
   -0.7326  -12.4203    7.4800 C   0  0  0  0  0  0  0  0  0  0  0  0
   -0.6859   -8.0433    6.9280 C   0  0  0  0  0  0  0  0  0  0  0  0
   -0.7351   -7.5157    8.2854 C   0  0  0  0  0  0  0  0  0  0  0  0
   -0.7208   -6.1294    8.4228 C   0  0  0  0  0  0  0  0  0  0  0  0
   -0.7883   -5.5992    9.6790 C   0  0  0  0  0  0  0  0  0  0  0  0
   -0.8702   -6.3838   10.8102 C   0  0  0  0  0  0  0  0  0  0  0  0
   -0.8835   -7.7793   10.6349 C   0  0  0  0  0  0  0  0  0  0  0  0
   -0.8158   -8.3219    9.3918 C   0  0  0  0  0  0  0  0  0  0  0  0
   -9.7518   -7.4829    8.4828 C   0  0  0  0  0  0  0  0  0  0  0  0
   -9.8990   -8.6777    8.9361 O   0  0  0  0  0  0  0  0  0  0  0  0
   -8.4656   -7.1067    8.0924 N   0  0  0  0  0  0  0  0  0  0  0  0
   -8.2530   -6.1665    7.7119 H   0  0  0  0  0  0  0  0  0  0  0  0
  -10.9533   -6.6756    8.4282 C   0  0  0  0  0  0  0  0  0  0  0  0
  -11.9722   -7.2423    7.5828 N   0  0  0  0  0  0  0  0  0  0  0  0
  -12.6543   -8.4602    7.6905 C   0  0  0  0  0  0  0  0  0  0  0  0
  -12.5251   -9.3472    8.5543 O   0  0  0  0  0  0  0  0  0  0  0  0
  -12.2651   -6.6410    6.7263 H   0  0  0  0  0  0  0  0  0  0  0  0
  -13.6333   -8.7818    6.7100 O   0  0  0  0  0  0  0  0  0  0  0  0
  -13.7036   -8.1053    5.4817 C   0  0  0  0  0  0  0  0  0  0  0  0
  -14.8402   -7.2031    5.3403 C   0  0  0  0  0  0  0  0  0  0  0  0
  -16.1154   -7.6432    5.6805 C   0  0  0  0  0  0  0  0  0  0  0  0
  -17.2307   -6.8540    5.5689 C   0  0  0  0  0  0  0  0  0  0  0  0
  -17.1059   -5.5507    5.0965 C   0  0  0  0  0  0  0  0  0  0  0  0
  -15.8423   -5.1039    4.7560 C   0  0  0  0  0  0  0  0  0  0  0  0
  -14.7289   -5.9130    4.8749 C   0  0  0  0  0  0  0  0  0  0  0  0
  -11.5749   -6.3109    9.7581 C   0  0  0  0  0  0  0  0  0  0  0  0
  -11.1404   -4.9469   10.2748 C   0  0  0  0  0  0  0  0  0  0  0  0
  -13.8789   -6.8326   10.6375 C   0  0  0  0  0  0  0  0  0  0  0  0
  -13.0755   -6.1832    9.5273 C   0  0  0  0  0  0  0  0  0  0  0  0
   -7.3757   -9.0272    7.1041 C   0  0  0  0  0  0  0  0  0  0  0  0
   -7.8328  -10.4300    7.3403 C   0  0  0  0  0  0  0  0  0  0  0  0
   -9.2127  -10.6503    6.7700 C   0  0  0  0  0  0  0  0  0  0  0  0
   -9.6370  -11.8126    6.5955 O   0  0  0  0  0  0  0  0  0  0  0  0
  -10.0492   -9.5927    6.4250 O   0  0  0  0  0  0  0  0  0  0  0  0
  -11.0405   -9.6447    6.4491 H   0  0  0  0  0  0  0  0  0  0  0  0
 44 45  1  0  0  0
 45 42  1  0  0  0
 42 43  1  0  0  0
 42 29  1  0  0  0
 29 30  1  0  0  0
 30 31  1  0  0  0
 31 32  2  0  0  0
 31 34  1  0  0  0
 34 35  1  0  0  0
 35 36  1  0  0  0
 36 37  2  0  0  0
 37 38  1  0  0  0
 38 39  2  0  0  0
 39 40  1  0  0  0
 40 41  2  0  0  0
 29 25  1  0  0  0
 25 26  2  0  0  0
 25 27  1  0  0  0
 27  1  1  0  0  0
  1 46  1  0  0  0
 46 47  1  0  0  0
 47 48  1  0  0  0
 48 49  2  0  0  0
 48 50  1  0  0  0
  1  2  1  0  0  0
  2  3  2  0  0  0
  2  4  1  0  0  0
  4  5  1  0  0  0
  5  6  1  0  0  0
  6  7  1  0  0  0
  7  8  1  0  0  0
  8  9  1  0  0  0
  9 10  2  0  0  0
  9 11  1  0  0  0
 11 13  1  0  0  0
 13 18  1  0  0  0
 18 19  1  0  0  0
 19 20  2  0  0  0
 20 21  1  0  0  0
 21 22  2  0  0  0
 22 23  1  0  0  0
 23 24  2  0  0  0
 13 14  1  0  0  0
 14 15  2  0  0  0
 14 16  1  0  0  0
 16 17  1  0  0  0
 41 36  1  0  0  0
  8  4  1  0  0  0
 24 19  1  0  0  0
 30 33  1  0  0  0
 27 28  1  0  0  0
 50 51  1  0  0  0
 11 12  1  0  0  0
M  END
> <minimizedAffinity>
-3.94458

> <CNNscore>
0.2235326618

> <CNNaffinity>
6.5939455032

> <CNN_VS>
1.4739621878

> <CNNaffinity_variance>
0.3054473102

$$$$
[H]OC(=O)C([H])([H])C([H])([H])[C@@]([H])(C(=O)N1C([H])([H])C([H])([H])C([H])([H])[C@@]1([H])C(=O)N([H])[C@]([H])(C(=O)OC([H])([H])[H])C([H])([H])c1c([H])c([H])c([H])c([H])c1[H])N([H])C(=O)[C@@]([H])(N([H])C(=O)OC([H])([H])c1c([H])c([H])c([H])c([H])c1[H])[C@@]([H])(C([H])([H])[H])C([H])([H])C([H])([H])[H]


 51 53  0  0  0  0  0  0  0  0999 V2000
   -5.1302   -6.8430    9.1329 C   0  0  0  0  0  0  0  0  0  0  0  0
   -6.0983   -7.4431    8.2593 C   0  0  0  0  0  0  0  0  0  0  0  0
   -5.5624   -8.5505    7.6778 O   0  0  0  0  0  0  0  0  0  0  0  0
   -7.3902   -7.2503    7.8180 N   0  0  0  0  0  0  0  0  0  0  0  0
   -8.0516   -8.1996    6.8775 C   0  0  0  0  0  0  0  0  0  0  0  0
   -8.4842   -7.2381    5.7904 C   0  0  0  0  0  0  0  0  0  0  0  0
   -8.9265   -6.0419    6.5627 C   0  0  0  0  0  0  0  0  0  0  0  0
   -8.3673   -6.2425    7.9955 C   0  0  0  0  0  0  0  0  0  0  0  0
   -9.5414   -6.6069    8.8059 C   0  0  0  0  0  0  0  0  0  0  0  0
   -9.4691   -6.6242   10.0460 O   0  0  0  0  0  0  0  0  0  0  0  0
  -10.7592   -6.9418    8.1657 N   0  0  0  0  0  0  0  0  0  0  0  0
  -10.8703   -6.9299    7.1289 H   0  0  0  0  0  0  0  0  0  0  0  0
  -11.9233   -7.3273    8.9880 C   0  0  0  0  0  0  0  0  0  0  0  0
  -12.2841   -8.7282    8.7396 C   0  0  0  0  0  0  0  0  0  0  0  0
  -12.8277   -9.4139    9.6844 O   0  0  0  0  0  0  0  0  0  0  0  0
  -12.0974   -9.3943    7.5689 O   0  0  0  0  0  0  0  0  0  0  0  0
  -13.0582  -10.3311    7.0572 C   0  0  0  0  0  0  0  0  0  0  0  0
  -13.0541   -6.4094    8.6536 C   0  0  0  0  0  0  0  0  0  0  0  0
  -14.0298   -6.8984    7.6880 C   0  0  0  0  0  0  0  0  0  0  0  0
  -13.7471   -6.6793    6.3416 C   0  0  0  0  0  0  0  0  0  0  0  0
  -14.6281   -7.1435    5.4078 C   0  0  0  0  0  0  0  0  0  0  0  0
  -15.7813   -7.8186    5.7491 C   0  0  0  0  0  0  0  0  0  0  0  0
  -16.0349   -8.0234    7.1173 C   0  0  0  0  0  0  0  0  0  0  0  0
  -15.1687   -7.5665    8.0583 C   0  0  0  0  0  0  0  0  0  0  0  0
   -3.7970   -6.0383    7.1202 C   0  0  0  0  0  0  0  0  0  0  0  0
   -4.8117   -5.2889    6.8683 O   0  0  0  0  0  0  0  0  0  0  0  0
   -3.8768   -6.8555    8.2489 N   0  0  0  0  0  0  0  0  0  0  0  0
   -3.1101   -7.4947    8.5276 H   0  0  0  0  0  0  0  0  0  0  0  0
   -2.6936   -5.9423    6.1866 C   0  0  0  0  0  0  0  0  0  0  0  0
   -1.8899   -4.7641    6.3869 N   0  0  0  0  0  0  0  0  0  0  0  0
   -1.6268   -4.0443    7.5585 C   0  0  0  0  0  0  0  0  0  0  0  0
   -2.0429   -4.2614    8.7115 O   0  0  0  0  0  0  0  0  0  0  0  0
   -1.4083   -4.3630    5.4991 H   0  0  0  0  0  0  0  0  0  0  0  0
   -0.7816   -2.9028    7.4816 O   0  0  0  0  0  0  0  0  0  0  0  0
   -0.8911   -1.9671    6.4405 C   0  0  0  0  0  0  0  0  0  0  0  0
   -1.9957   -1.0249    6.5737 C   0  0  0  0  0  0  0  0  0  0  0  0
   -1.9949   -0.1057    7.6180 C   0  0  0  0  0  0  0  0  0  0  0  0
   -3.0007    0.8058    7.8095 C   0  0  0  0  0  0  0  0  0  0  0  0
   -4.0812    0.8313    6.9324 C   0  0  0  0  0  0  0  0  0  0  0  0
   -4.0910   -0.0784    5.8909 C   0  0  0  0  0  0  0  0  0  0  0  0
   -3.0686   -0.9902    5.7127 C   0  0  0  0  0  0  0  0  0  0  0  0
   -1.7792   -7.1445    6.1061 C   0  0  0  0  0  0  0  0  0  0  0  0
   -1.0047   -7.2286    4.7987 C   0  0  0  0  0  0  0  0  0  0  0  0
   -0.6871   -8.1312    8.1525 C   0  0  0  0  0  0  0  0  0  0  0  0
   -0.7149   -6.9664    7.1819 C   0  0  0  0  0  0  0  0  0  0  0  0
   -5.2131   -5.5555    9.7907 C   0  0  0  0  0  0  0  0  0  0  0  0
   -4.3045   -5.2372   10.9333 C   0  0  0  0  0  0  0  0  0  0  0  0
   -5.0767   -5.1482   12.2270 C   0  0  0  0  0  0  0  0  0  0  0  0
   -5.9862   -5.9704   12.4682 O   0  0  0  0  0  0  0  0  0  0  0  0
   -4.8121   -4.1707   13.1818 O   0  0  0  0  0  0  0  0  0  0  0  0
   -4.9649   -4.2963   14.1550 H   0  0  0  0  0  0  0  0  0  0  0  0
 44 45  1  0  0  0
 45 42  1  0  0  0
 42 43  1  0  0  0
 42 29  1  0  0  0
 29 30  1  0  0  0
 30 31  1  0  0  0
 31 32  2  0  0  0
 31 34  1  0  0  0
 34 35  1  0  0  0
 35 36  1  0  0  0
 36 37  2  0  0  0
 37 38  1  0  0  0
 38 39  2  0  0  0
 39 40  1  0  0  0
 40 41  2  0  0  0
 29 25  1  0  0  0
 25 26  2  0  0  0
 25 27  1  0  0  0
 27  1  1  0  0  0
  1 46  1  0  0  0
 46 47  1  0  0  0
 47 48  1  0  0  0
 48 49  2  0  0  0
 48 50  1  0  0  0
  1  2  1  0  0  0
  2  3  2  0  0  0
  2  4  1  0  0  0
  4  5  1  0  0  0
  5  6  1  0  0  0
  6  7  1  0  0  0
  7  8  1  0  0  0
  8  9  1  0  0  0
  9 10  2  0  0  0
  9 11  1  0  0  0
 11 13  1  0  0  0
 13 18  1  0  0  0
 18 19  1  0  0  0
 19 20  2  0  0  0
 20 21  1  0  0  0
 21 22  2  0  0  0
 22 23  1  0  0  0
 23 24  2  0  0  0
 13 14  1  0  0  0
 14 15  2  0  0  0
 14 16  1  0  0  0
 16 17  1  0  0  0
 41 36  1  0  0  0
  8  4  1  0  0  0
 24 19  1  0  0  0
 30 33  1  0  0  0
 27 28  1  0  0  0
 50 51  1  0  0  0
 11 12  1  0  0  0
M  END
> <minimizedAffinity>
-3.30327

> <CNNscore>
0.1945204437

> <CNNaffinity>
6.5916700363

> <CNN_VS>
1.2822145224

> <CNNaffinity_variance>
0.3812398016

$$$$
[H]OC(=O)C([H])([H])C([H])([H])[C@@]([H])(C(=O)N1C([H])([H])C([H])([H])C([H])([H])[C@@]1([H])C(=O)N([H])[C@]([H])(C(=O)OC([H])([H])[H])C([H])([H])c1c([H])c([H])c([H])c([H])c1[H])N([H])C(=O)[C@@]([H])(N([H])C(=O)OC([H])([H])c1c([H])c([H])c([H])c([H])c1[H])[C@@]([H])(C([H])([H])[H])C([H])([H])C([H])([H])[H]


 51 53  0  0  0  0  0  0  0  0999 V2000
   -8.1634   -7.7132    7.8803 C   0  0  0  0  0  0  0  0  0  0  0  0
   -9.3530   -6.9550    8.1458 C   0  0  0  0  0  0  0  0  0  0  0  0
   -9.0753   -5.6259    8.0573 O   0  0  0  0  0  0  0  0  0  0  0  0
  -10.6800   -7.1448    8.4686 N   0  0  0  0  0  0  0  0  0  0  0  0
  -11.6238   -6.0014    8.6266 C   0  0  0  0  0  0  0  0  0  0  0  0
  -12.1680   -6.2956   10.0089 C   0  0  0  0  0  0  0  0  0  0  0  0
  -12.3050   -7.7802   10.0022 C   0  0  0  0  0  0  0  0  0  0  0  0
  -11.4822   -8.2676    8.7810 C   0  0  0  0  0  0  0  0  0  0  0  0
  -12.4921   -8.6477    7.7792 C   0  0  0  0  0  0  0  0  0  0  0  0
  -12.2082   -9.4468    6.8714 O   0  0  0  0  0  0  0  0  0  0  0  0
  -13.7941   -8.0957    7.8512 N   0  0  0  0  0  0  0  0  0  0  0  0
  -14.0813   -7.4306    8.6013 H   0  0  0  0  0  0  0  0  0  0  0  0
  -14.7916   -8.4669    6.8280 C   0  0  0  0  0  0  0  0  0  0  0  0
  -14.3181   -8.0896    5.4908 C   0  0  0  0  0  0  0  0  0  0  0  0
  -13.9161   -6.8838    5.2839 O   0  0  0  0  0  0  0  0  0  0  0  0
  -14.2569   -8.9175    4.4138 O   0  0  0  0  0  0  0  0  0  0  0  0
  -14.8929   -8.6014    3.1656 C   0  0  0  0  0  0  0  0  0  0  0  0
  -16.0772   -7.7814    7.1606 C   0  0  0  0  0  0  0  0  0  0  0  0
  -16.9048   -7.3623    6.0368 C   0  0  0  0  0  0  0  0  0  0  0  0
  -17.6185   -8.3588    5.3747 C   0  0  0  0  0  0  0  0  0  0  0  0
  -18.4218   -7.9997    4.3309 C   0  0  0  0  0  0  0  0  0  0  0  0
  -18.5511   -6.6921    3.9121 C   0  0  0  0  0  0  0  0  0  0  0  0
  -17.8174   -5.7115    4.6037 C   0  0  0  0  0  0  0  0  0  0  0  0
  -17.0130   -6.0531    5.6433 C   0  0  0  0  0  0  0  0  0  0  0  0
   -5.8391   -6.8685    7.2803 C   0  0  0  0  0  0  0  0  0  0  0  0
   -5.6049   -8.0735    6.8958 O   0  0  0  0  0  0  0  0  0  0  0  0
   -7.1103   -6.6015    7.7911 N   0  0  0  0  0  0  0  0  0  0  0  0
   -7.3876   -5.6617    8.1285 H   0  0  0  0  0  0  0  0  0  0  0  0
   -4.7399   -5.9356    7.1393 C   0  0  0  0  0  0  0  0  0  0  0  0
   -4.9442   -4.9839    6.0779 N   0  0  0  0  0  0  0  0  0  0  0  0
   -4.0668   -4.5541    5.0751 C   0  0  0  0  0  0  0  0  0  0  0  0
   -2.8875   -4.8997    4.8767 O   0  0  0  0  0  0  0  0  0  0  0  0
   -5.9270   -4.5218    6.0390 H   0  0  0  0  0  0  0  0  0  0  0  0
   -4.5278   -3.5942    4.1320 O   0  0  0  0  0  0  0  0  0  0  0  0
   -3.9000   -2.3484    3.9739 C   0  0  0  0  0  0  0  0  0  0  0  0
   -3.5837   -1.9891    2.5968 C   0  0  0  0  0  0  0  0  0  0  0  0
   -3.6555   -0.6581    2.1983 C   0  0  0  0  0  0  0  0  0  0  0  0
   -3.3782   -0.2465    0.9205 C   0  0  0  0  0  0  0  0  0  0  0  0
   -3.0060   -1.1846   -0.0381 C   0  0  0  0  0  0  0  0  0  0  0  0
   -2.9315   -2.5103    0.3484 C   0  0  0  0  0  0  0  0  0  0  0  0
   -3.2144   -2.9074    1.6409 C   0  0  0  0  0  0  0  0  0  0  0  0
   -4.3335   -5.1872    8.3894 C   0  0  0  0  0  0  0  0  0  0  0  0
   -4.7604   -5.8808    9.6750 C   0  0  0  0  0  0  0  0  0  0  0  0
   -2.2792   -4.7408    9.7804 C   0  0  0  0  0  0  0  0  0  0  0  0
   -2.8104   -5.1858    8.4315 C   0  0  0  0  0  0  0  0  0  0  0  0
   -7.6158   -8.8000    8.6652 C   0  0  0  0  0  0  0  0  0  0  0  0
   -7.8129  -10.2148    8.2272 C   0  0  0  0  0  0  0  0  0  0  0  0
   -8.7592  -10.2887    7.0538 C   0  0  0  0  0  0  0  0  0  0  0  0
   -8.4854   -9.6875    5.9931 O   0  0  0  0  0  0  0  0  0  0  0  0
   -9.9463  -11.0135    7.1040 O   0  0  0  0  0  0  0  0  0  0  0  0
  -10.3710  -11.4300    6.3088 H   0  0  0  0  0  0  0  0  0  0  0  0
 44 45  1  0  0  0
 45 42  1  0  0  0
 42 43  1  0  0  0
 42 29  1  0  0  0
 29 30  1  0  0  0
 30 31  1  0  0  0
 31 32  2  0  0  0
 31 34  1  0  0  0
 34 35  1  0  0  0
 35 36  1  0  0  0
 36 37  2  0  0  0
 37 38  1  0  0  0
 38 39  2  0  0  0
 39 40  1  0  0  0
 40 41  2  0  0  0
 29 25  1  0  0  0
 25 26  2  0  0  0
 25 27  1  0  0  0
 27  1  1  0  0  0
  1 46  1  0  0  0
 46 47  1  0  0  0
 47 48  1  0  0  0
 48 49  2  0  0  0
 48 50  1  0  0  0
  1  2  1  0  0  0
  2  3  2  0  0  0
  2  4  1  0  0  0
  4  5  1  0  0  0
  5  6  1  0  0  0
  6  7  1  0  0  0
  7  8  1  0  0  0
  8  9  1  0  0  0
  9 10  2  0  0  0
  9 11  1  0  0  0
 11 13  1  0  0  0
 13 18  1  0  0  0
 18 19  1  0  0  0
 19 20  2  0  0  0
 20 21  1  0  0  0
 21 22  2  0  0  0
 22 23  1  0  0  0
 23 24  2  0  0  0
 13 14  1  0  0  0
 14 15  2  0  0  0
 14 16  1  0  0  0
 16 17  1  0  0  0
 41 36  1  0  0  0
  8  4  1  0  0  0
 24 19  1  0  0  0
 30 33  1  0  0  0
 27 28  1  0  0  0
 50 51  1  0  0  0
 11 12  1  0  0  0
M  END
> <minimizedAffinity>
-6.78816

> <CNNscore>
0.1912695169

> <CNNaffinity>
6.7256789207

> <CNN_VS>
1.2864173651

> <CNNaffinity_variance>
0.0312781036

$$$$
[H]OC(=O)C([H])([H])C([H])([H])[C@@]([H])(C(=O)N1C([H])([H])C([H])([H])C([H])([H])[C@@]1([H])C(=O)N([H])[C@]([H])(C(=O)OC([H])([H])[H])C([H])([H])c1c([H])c([H])c([H])c([H])c1[H])N([H])C(=O)[C@@]([H])(N([H])C(=O)OC([H])([H])c1c([H])c([H])c([H])c([H])c1[H])[C@@]([H])(C([H])([H])[H])C([H])([H])C([H])([H])[H]


 51 53  0  0  0  0  0  0  0  0999 V2000
   -8.6246   -7.8903    7.8540 C   0  0  0  0  0  0  0  0  0  0  0  0
   -9.4939   -6.8502    8.3265 C   0  0  0  0  0  0  0  0  0  0  0  0
   -8.8845   -5.6432    8.1743 O   0  0  0  0  0  0  0  0  0  0  0  0
  -10.7414   -6.6871    8.8906 N   0  0  0  0  0  0  0  0  0  0  0  0
  -11.2924   -5.3386    9.2080 C   0  0  0  0  0  0  0  0  0  0  0  0
  -11.6377   -5.5304   10.6700 C   0  0  0  0  0  0  0  0  0  0  0  0
  -12.1738   -6.9212   10.7043 C   0  0  0  0  0  0  0  0  0  0  0  0
  -11.7496   -7.5630    9.3575 C   0  0  0  0  0  0  0  0  0  0  0  0
  -12.9884   -7.6152    8.5633 C   0  0  0  0  0  0  0  0  0  0  0  0
  -14.0930   -7.7014    9.1254 O   0  0  0  0  0  0  0  0  0  0  0  0
  -12.9182   -7.5691    7.1498 N   0  0  0  0  0  0  0  0  0  0  0  0
  -12.0152   -7.4852    6.6350 H   0  0  0  0  0  0  0  0  0  0  0  0
  -14.1655   -7.6448    6.3636 C   0  0  0  0  0  0  0  0  0  0  0  0
  -14.1465   -8.8209    5.4855 C   0  0  0  0  0  0  0  0  0  0  0  0
  -13.1719   -9.6577    5.5773 O   0  0  0  0  0  0  0  0  0  0  0  0
  -15.0908   -9.1255    4.5557 O   0  0  0  0  0  0  0  0  0  0  0  0
  -14.9034   -8.8620    3.1565 C   0  0  0  0  0  0  0  0  0  0  0  0
  -14.2962   -6.3822    5.5748 C   0  0  0  0  0  0  0  0  0  0  0  0
  -15.6444   -5.9929    5.1821 C   0  0  0  0  0  0  0  0  0  0  0  0
  -15.7571   -5.1023    4.1168 C   0  0  0  0  0  0  0  0  0  0  0  0
  -17.0058   -4.7327    3.7070 C   0  0  0  0  0  0  0  0  0  0  0  0
  -18.1529   -5.2081    4.3072 C   0  0  0  0  0  0  0  0  0  0  0  0
  -18.0023   -6.1065    5.3789 C   0  0  0  0  0  0  0  0  0  0  0  0
  -16.7669   -6.4828    5.7990 C   0  0  0  0  0  0  0  0  0  0  0  0
   -6.3170   -7.3632    6.9199 C   0  0  0  0  0  0  0  0  0  0  0  0
   -6.6560   -8.1040    5.9244 O   0  0  0  0  0  0  0  0  0  0  0  0
   -7.2563   -7.2026    7.9398 N   0  0  0  0  0  0  0  0  0  0  0  0
   -7.0697   -6.6279    8.7817 H   0  0  0  0  0  0  0  0  0  0  0  0
   -4.9876   -6.7911    6.8577 C   0  0  0  0  0  0  0  0  0  0  0  0
   -4.9487   -5.5380    6.1488 N   0  0  0  0  0  0  0  0  0  0  0  0
   -3.9845   -5.0334    5.2680 C   0  0  0  0  0  0  0  0  0  0  0  0
   -2.9198   -5.5622    4.8985 O   0  0  0  0  0  0  0  0  0  0  0  0
   -5.7924   -4.8736    6.3152 H   0  0  0  0  0  0  0  0  0  0  0  0
   -4.1939   -3.7504    4.6908 O   0  0  0  0  0  0  0  0  0  0  0  0
   -3.1496   -3.0252    4.0950 C   0  0  0  0  0  0  0  0  0  0  0  0
   -3.1091   -3.0886    2.6390 C   0  0  0  0  0  0  0  0  0  0  0  0
   -2.1869   -3.9196    2.0111 C   0  0  0  0  0  0  0  0  0  0  0  0
   -2.0869   -4.0267    0.6481 C   0  0  0  0  0  0  0  0  0  0  0  0
   -2.9358   -3.2801   -0.1640 C   0  0  0  0  0  0  0  0  0  0  0  0
   -3.8562   -2.4512    0.4509 C   0  0  0  0  0  0  0  0  0  0  0  0
   -3.9433   -2.3557    1.8263 C   0  0  0  0  0  0  0  0  0  0  0  0
   -4.2694   -6.6231    8.1782 C   0  0  0  0  0  0  0  0  0  0  0  0
   -2.7905   -6.9762    8.1114 C   0  0  0  0  0  0  0  0  0  0  0  0
   -3.1363   -4.7281    9.3945 C   0  0  0  0  0  0  0  0  0  0  0  0
   -4.3032   -5.1380    8.5170 C   0  0  0  0  0  0  0  0  0  0  0  0
   -8.4939   -9.2355    8.3741 C   0  0  0  0  0  0  0  0  0  0  0  0
   -8.6036  -10.4087    7.4553 C   0  0  0  0  0  0  0  0  0  0  0  0
   -9.9332  -10.4111    6.7410 C   0  0  0  0  0  0  0  0  0  0  0  0
   -9.9777  -10.6039    5.5072 O   0  0  0  0  0  0  0  0  0  0  0  0
  -11.1350  -10.2052    7.4121 O   0  0  0  0  0  0  0  0  0  0  0  0
  -12.0028  -10.5871    7.1166 H   0  0  0  0  0  0  0  0  0  0  0  0
 44 45  1  0  0  0
 45 42  1  0  0  0
 42 43  1  0  0  0
 42 29  1  0  0  0
 29 30  1  0  0  0
 30 31  1  0  0  0
 31 32  2  0  0  0
 31 34  1  0  0  0
 34 35  1  0  0  0
 35 36  1  0  0  0
 36 37  2  0  0  0
 37 38  1  0  0  0
 38 39  2  0  0  0
 39 40  1  0  0  0
 40 41  2  0  0  0
 29 25  1  0  0  0
 25 26  2  0  0  0
 25 27  1  0  0  0
 27  1  1  0  0  0
  1 46  1  0  0  0
 46 47  1  0  0  0
 47 48  1  0  0  0
 48 49  2  0  0  0
 48 50  1  0  0  0
  1  2  1  0  0  0
  2  3  2  0  0  0
  2  4  1  0  0  0
  4  5  1  0  0  0
  5  6  1  0  0  0
  6  7  1  0  0  0
  7  8  1  0  0  0
  8  9  1  0  0  0
  9 10  2  0  0  0
  9 11  1  0  0  0
 11 13  1  0  0  0
 13 18  1  0  0  0
 18 19  1  0  0  0
 19 20  2  0  0  0
 20 21  1  0  0  0
 21 22  2  0  0  0
 22 23  1  0  0  0
 23 24  2  0  0  0
 13 14  1  0  0  0
 14 15  2  0  0  0
 14 16  1  0  0  0
 16 17  1  0  0  0
 41 36  1  0  0  0
  8  4  1  0  0  0
 24 19  1  0  0  0
 30 33  1  0  0  0
 27 28  1  0  0  0
 50 51  1  0  0  0
 11 12  1  0  0  0
M  END
> <minimizedAffinity>
-7.03549

> <CNNscore>
0.1831707656

> <CNNaffinity>
6.9853873253

> <CNN_VS>
1.2795187235

> <CNNaffinity_variance>
0.0294372197

$$$$
[H]OC(=O)C([H])([H])C([H])([H])[C@@]([H])(C(=O)N1C([H])([H])C([H])([H])C([H])([H])[C@@]1([H])C(=O)N([H])[C@]([H])(C(=O)OC([H])([H])[H])C([H])([H])c1c([H])c([H])c([H])c([H])c1[H])N([H])C(=O)[C@@]([H])(N([H])C(=O)OC([H])([H])c1c([H])c([H])c([H])c([H])c1[H])[C@@]([H])(C([H])([H])[H])C([H])([H])C([H])([H])[H]


 51 53  0  0  0  0  0  0  0  0999 V2000
   -7.4240   -7.6299    7.3005 C   0  0  0  0  0  0  0  0  0  0  0  0
   -6.5591   -6.5136    7.0430 C   0  0  0  0  0  0  0  0  0  0  0  0
   -7.2947   -5.3701    6.9906 O   0  0  0  0  0  0  0  0  0  0  0  0
   -5.2267   -6.2342    6.8248 N   0  0  0  0  0  0  0  0  0  0  0  0
   -4.7366   -4.8406    6.6228 C   0  0  0  0  0  0  0  0  0  0  0  0
   -3.9979   -5.0065    5.3112 C   0  0  0  0  0  0  0  0  0  0  0  0
   -3.3473   -6.3393    5.4636 C   0  0  0  0  0  0  0  0  0  0  0  0
   -4.0547   -7.0114    6.6693 C   0  0  0  0  0  0  0  0  0  0  0  0
   -3.0732   -6.9393    7.7645 C   0  0  0  0  0  0  0  0  0  0  0  0
   -2.4881   -7.9639    8.1534 O   0  0  0  0  0  0  0  0  0  0  0  0
   -2.7976   -5.6936    8.3788 N   0  0  0  0  0  0  0  0  0  0  0  0
   -3.2553   -4.8060    8.0784 H   0  0  0  0  0  0  0  0  0  0  0  0
   -1.8282   -5.6375    9.4909 C   0  0  0  0  0  0  0  0  0  0  0  0
   -2.5297   -5.5523   10.7775 C   0  0  0  0  0  0  0  0  0  0  0  0
   -1.9045   -5.8743   11.8564 O   0  0  0  0  0  0  0  0  0  0  0  0
   -3.8173   -5.1496   10.9479 O   0  0  0  0  0  0  0  0  0  0  0  0
   -4.1540   -3.8458   11.4469 C   0  0  0  0  0  0  0  0  0  0  0  0
   -0.9427   -4.4529    9.2775 C   0  0  0  0  0  0  0  0  0  0  0  0
   -1.3299   -3.5290    8.2192 C   0  0  0  0  0  0  0  0  0  0  0  0
   -0.7065   -3.6902    6.9838 C   0  0  0  0  0  0  0  0  0  0  0  0
   -1.0608   -2.8567    5.9624 C   0  0  0  0  0  0  0  0  0  0  0  0
   -2.0095   -1.8666    6.1100 C   0  0  0  0  0  0  0  0  0  0  0  0
   -2.6197   -1.7326    7.3702 C   0  0  0  0  0  0  0  0  0  0  0  0
   -2.2771   -2.5534    8.3965 C   0  0  0  0  0  0  0  0  0  0  0  0
   -9.8902   -7.4935    7.9130 C   0  0  0  0  0  0  0  0  0  0  0  0
   -9.6715   -8.5388    8.6300 O   0  0  0  0  0  0  0  0  0  0  0  0
   -8.8053   -6.9695    7.2082 N   0  0  0  0  0  0  0  0  0  0  0  0
   -8.8880   -6.1329    6.6022 H   0  0  0  0  0  0  0  0  0  0  0  0
  -11.2497   -6.9936    7.9232 C   0  0  0  0  0  0  0  0  0  0  0  0
  -12.1412   -7.7755    7.1058 N   0  0  0  0  0  0  0  0  0  0  0  0
  -12.6223   -9.0770    7.2921 C   0  0  0  0  0  0  0  0  0  0  0  0
  -12.3766   -9.8686    8.2209 O   0  0  0  0  0  0  0  0  0  0  0  0
  -12.5029   -7.2910    6.2028 H   0  0  0  0  0  0  0  0  0  0  0  0
  -13.5099   -9.6206    6.3227 O   0  0  0  0  0  0  0  0  0  0  0  0
  -13.8081   -8.9455    5.1282 C   0  0  0  0  0  0  0  0  0  0  0  0
  -15.1774   -8.4558    5.0235 C   0  0  0  0  0  0  0  0  0  0  0  0
  -15.7489   -7.7744    6.0934 C   0  0  0  0  0  0  0  0  0  0  0  0
  -17.0312   -7.2904    6.0694 C   0  0  0  0  0  0  0  0  0  0  0  0
  -17.8152   -7.4772    4.9345 C   0  0  0  0  0  0  0  0  0  0  0  0
  -17.2558   -8.1531    3.8656 C   0  0  0  0  0  0  0  0  0  0  0  0
  -15.9614   -8.6341    3.9069 C   0  0  0  0  0  0  0  0  0  0  0  0
  -11.8820   -6.8032    9.2841 C   0  0  0  0  0  0  0  0  0  0  0  0
  -11.3762   -5.5699   10.0185 C   0  0  0  0  0  0  0  0  0  0  0  0
  -14.2404   -7.4090    9.9362 C   0  0  0  0  0  0  0  0  0  0  0  0
  -13.3650   -6.5413    9.0527 C   0  0  0  0  0  0  0  0  0  0  0  0
   -7.4718   -8.8915    6.5911 C   0  0  0  0  0  0  0  0  0  0  0  0
   -6.5375   -9.9967    6.9628 C   0  0  0  0  0  0  0  0  0  0  0  0
   -7.0133  -10.7094    8.2052 C   0  0  0  0  0  0  0  0  0  0  0  0
   -6.8842  -11.9487    8.3012 O   0  0  0  0  0  0  0  0  0  0  0  0
   -7.5998  -10.0311    9.2697 O   0  0  0  0  0  0  0  0  0  0  0  0
   -7.5484  -10.3375   10.2128 H   0  0  0  0  0  0  0  0  0  0  0  0
 44 45  1  0  0  0
 45 42  1  0  0  0
 42 43  1  0  0  0
 42 29  1  0  0  0
 29 30  1  0  0  0
 30 31  1  0  0  0
 31 32  2  0  0  0
 31 34  1  0  0  0
 34 35  1  0  0  0
 35 36  1  0  0  0
 36 37  2  0  0  0
 37 38  1  0  0  0
 38 39  2  0  0  0
 39 40  1  0  0  0
 40 41  2  0  0  0
 29 25  1  0  0  0
 25 26  2  0  0  0
 25 27  1  0  0  0
 27  1  1  0  0  0
  1 46  1  0  0  0
 46 47  1  0  0  0
 47 48  1  0  0  0
 48 49  2  0  0  0
 48 50  1  0  0  0
  1  2  1  0  0  0
  2  3  2  0  0  0
  2  4  1  0  0  0
  4  5  1  0  0  0
  5  6  1  0  0  0
  6  7  1  0  0  0
  7  8  1  0  0  0
  8  9  1  0  0  0
  9 10  2  0  0  0
  9 11  1  0  0  0
 11 13  1  0  0  0
 13 18  1  0  0  0
 18 19  1  0  0  0
 19 20  2  0  0  0
 20 21  1  0  0  0
 21 22  2  0  0  0
 22 23  1  0  0  0
 23 24  2  0  0  0
 13 14  1  0  0  0
 14 15  2  0  0  0
 14 16  1  0  0  0
 16 17  1  0  0  0
 41 36  1  0  0  0
  8  4  1  0  0  0
 24 19  1  0  0  0
 30 33  1  0  0  0
 27 28  1  0  0  0
 50 51  1  0  0  0
 11 12  1  0  0  0
M  END
> <minimizedAffinity>
-2.45716

> <CNNscore>
0.1797262877

> <CNNaffinity>
6.7050895691

> <CNN_VS>
1.2050808668

> <CNNaffinity_variance>
0.2984799445

$$$$
[H]OC(=O)C([H])([H])C([H])([H])[C@@]([H])(C(=O)N1C([H])([H])C([H])([H])C([H])([H])[C@@]1([H])C(=O)N([H])[C@]([H])(C(=O)OC([H])([H])[H])C([H])([H])c1c([H])c([H])c([H])c([H])c1[H])N([H])C(=O)[C@@]([H])(N([H])C(=O)OC([H])([H])c1c([H])c([H])c([H])c([H])c1[H])[C@@]([H])(C([H])([H])[H])C([H])([H])C([H])([H])[H]


 51 53  0  0  0  0  0  0  0  0999 V2000
   -8.6259   -7.8722    7.8407 C   0  0  0  0  0  0  0  0  0  0  0  0
   -9.5031   -6.8456    8.3275 C   0  0  0  0  0  0  0  0  0  0  0  0
   -8.8949   -5.6339    8.2113 O   0  0  0  0  0  0  0  0  0  0  0  0
  -10.7576   -6.6986    8.8805 N   0  0  0  0  0  0  0  0  0  0  0  0
  -11.3156   -5.3592    9.2235 C   0  0  0  0  0  0  0  0  0  0  0  0
  -11.6775   -5.5865   10.6763 C   0  0  0  0  0  0  0  0  0  0  0  0
  -12.2106   -6.9789   10.6712 C   0  0  0  0  0  0  0  0  0  0  0  0
  -11.7692   -7.5875    9.3145 C   0  0  0  0  0  0  0  0  0  0  0  0
  -12.9984   -7.6233    8.5048 C   0  0  0  0  0  0  0  0  0  0  0  0
  -14.1117   -7.6797    9.0532 O   0  0  0  0  0  0  0  0  0  0  0  0
  -12.9089   -7.5958    7.0919 N   0  0  0  0  0  0  0  0  0  0  0  0
  -11.9978   -7.5371    6.5880 H   0  0  0  0  0  0  0  0  0  0  0  0
  -14.1473   -7.6549    6.2902 C   0  0  0  0  0  0  0  0  0  0  0  0
  -14.0880   -8.7706    5.3382 C   0  0  0  0  0  0  0  0  0  0  0  0
  -13.6221   -9.9058    5.7290 O   0  0  0  0  0  0  0  0  0  0  0  0
  -14.4938   -8.7223    4.0412 O   0  0  0  0  0  0  0  0  0  0  0  0
  -15.7367   -9.2938    3.6041 C   0  0  0  0  0  0  0  0  0  0  0  0
  -14.3074   -6.3480    5.5835 C   0  0  0  0  0  0  0  0  0  0  0  0
  -15.6582   -5.9880    5.1721 C   0  0  0  0  0  0  0  0  0  0  0  0
  -15.7772   -5.1605    4.0577 C   0  0  0  0  0  0  0  0  0  0  0  0
  -17.0284   -4.8206    3.6302 C   0  0  0  0  0  0  0  0  0  0  0  0
  -18.1721   -5.2661    4.2592 C   0  0  0  0  0  0  0  0  0  0  0  0
  -18.0152   -6.1009    5.3803 C   0  0  0  0  0  0  0  0  0  0  0  0
  -16.7772   -6.4469    5.8185 C   0  0  0  0  0  0  0  0  0  0  0  0
   -6.3342   -7.2789    6.9070 C   0  0  0  0  0  0  0  0  0  0  0  0
   -6.6801   -7.9704    5.8789 O   0  0  0  0  0  0  0  0  0  0  0  0
   -7.2619   -7.1787    7.9451 N   0  0  0  0  0  0  0  0  0  0  0  0
   -7.0692   -6.6464    8.8132 H   0  0  0  0  0  0  0  0  0  0  0  0
   -5.0101   -6.6935    6.8582 C   0  0  0  0  0  0  0  0  0  0  0  0
   -4.9972   -5.3844    6.2579 N   0  0  0  0  0  0  0  0  0  0  0  0
   -4.1062   -4.8292    5.3317 C   0  0  0  0  0  0  0  0  0  0  0  0
   -3.1009   -5.3506    4.8146 O   0  0  0  0  0  0  0  0  0  0  0  0
   -5.7977   -4.7157    6.5631 H   0  0  0  0  0  0  0  0  0  0  0  0
   -4.3266   -3.4955    4.8892 O   0  0  0  0  0  0  0  0  0  0  0  0
   -3.9049   -2.3856    5.6387 C   0  0  0  0  0  0  0  0  0  0  0  0
   -4.0508   -1.0991    4.9684 C   0  0  0  0  0  0  0  0  0  0  0  0
   -4.1759    0.0615    5.7251 C   0  0  0  0  0  0  0  0  0  0  0  0
   -4.3220    1.3043    5.1653 C   0  0  0  0  0  0  0  0  0  0  0  0
   -4.3490    1.4350    3.7798 C   0  0  0  0  0  0  0  0  0  0  0  0
   -4.2251    0.2869    3.0189 C   0  0  0  0  0  0  0  0  0  0  0  0
   -4.0784   -0.9578    3.5999 C   0  0  0  0  0  0  0  0  0  0  0  0
   -4.2570   -6.6329    8.1686 C   0  0  0  0  0  0  0  0  0  0  0  0
   -2.7782   -6.9657    8.0319 C   0  0  0  0  0  0  0  0  0  0  0  0
   -4.1927   -5.0677   10.1434 C   0  0  0  0  0  0  0  0  0  0  0  0
   -4.2913   -5.1827    8.6345 C   0  0  0  0  0  0  0  0  0  0  0  0
   -8.4901   -9.2258    8.3373 C   0  0  0  0  0  0  0  0  0  0  0  0
   -8.6298  -10.3844    7.4044 C   0  0  0  0  0  0  0  0  0  0  0  0
   -9.9839  -10.3793    6.7379 C   0  0  0  0  0  0  0  0  0  0  0  0
  -10.0727  -10.5624    5.5050 O   0  0  0  0  0  0  0  0  0  0  0  0
  -11.1607  -10.1768    7.4529 O   0  0  0  0  0  0  0  0  0  0  0  0
  -12.0391  -10.5549    7.1856 H   0  0  0  0  0  0  0  0  0  0  0  0
 44 45  1  0  0  0
 45 42  1  0  0  0
 42 43  1  0  0  0
 42 29  1  0  0  0
 29 30  1  0  0  0
 30 31  1  0  0  0
 31 32  2  0  0  0
 31 34  1  0  0  0
 34 35  1  0  0  0
 35 36  1  0  0  0
 36 37  2  0  0  0
 37 38  1  0  0  0
 38 39  2  0  0  0
 39 40  1  0  0  0
 40 41  2  0  0  0
 29 25  1  0  0  0
 25 26  2  0  0  0
 25 27  1  0  0  0
 27  1  1  0  0  0
  1 46  1  0  0  0
 46 47  1  0  0  0
 47 48  1  0  0  0
 48 49  2  0  0  0
 48 50  1  0  0  0
  1  2  1  0  0  0
  2  3  2  0  0  0
  2  4  1  0  0  0
  4  5  1  0  0  0
  5  6  1  0  0  0
  6  7  1  0  0  0
  7  8  1  0  0  0
  8  9  1  0  0  0
  9 10  2  0  0  0
  9 11  1  0  0  0
 11 13  1  0  0  0
 13 18  1  0  0  0
 18 19  1  0  0  0
 19 20  2  0  0  0
 20 21  1  0  0  0
 21 22  2  0  0  0
 22 23  1  0  0  0
 23 24  2  0  0  0
 13 14  1  0  0  0
 14 15  2  0  0  0
 14 16  1  0  0  0
 16 17  1  0  0  0
 41 36  1  0  0  0
  8  4  1  0  0  0
 24 19  1  0  0  0
 30 33  1  0  0  0
 27 28  1  0  0  0
 50 51  1  0  0  0
 11 12  1  0  0  0
M  END
> <minimizedAffinity>
-6.93879

> <CNNscore>
0.1707153916

> <CNNaffinity>
6.9128861427

> <CNN_VS>
1.1801360846

> <CNNaffinity_variance>
0.0538376756

$$$$
[H]Oc1c([H])c([H])c([H])c(C2([H])C([H])([H])N(C([H])([H])C([H])([H])C([H])([H])C([H])([H])C([H])([H])C([H])([H])C([H])([H])C([H])([H])C([H])([H])[H])C([H])([H])C2([H])[H])c1[H]


 22 23  0  0  0  0  0  0  0  0999 V2000
  -14.2741   -9.1484    7.5788 N   0  0  0  0  0  0  0  0  0  0  0  0
  -13.3937   -9.1832    6.4430 C   0  0  0  0  0  0  0  0  0  0  0  0
  -14.2208   -8.7924    5.2441 C   0  0  0  0  0  0  0  0  0  0  0  0
  -15.5179   -8.3139    5.8286 C   0  0  0  0  0  0  0  0  0  0  0  0
  -15.2314   -8.0772    7.2642 C   0  0  0  0  0  0  0  0  0  0  0  0
  -16.0232   -7.0976    5.1324 C   0  0  0  0  0  0  0  0  0  0  0  0
  -17.3337   -7.0863    4.7074 C   0  0  0  0  0  0  0  0  0  0  0  0
  -17.8599   -5.9677    4.0525 C   0  0  0  0  0  0  0  0  0  0  0  0
  -17.0410   -4.8803    3.8422 C   0  0  0  0  0  0  0  0  0  0  0  0
  -15.7419   -4.9153    4.2738 C   0  0  0  0  0  0  0  0  0  0  0  0
  -14.9370   -3.8106    4.0514 O   0  0  0  0  0  0  0  0  0  0  0  0
  -15.2002   -6.0228    4.9286 C   0  0  0  0  0  0  0  0  0  0  0  0
  -15.2879   -2.9828    3.5778 H   0  0  0  0  0  0  0  0  0  0  0  0
  -13.6367   -8.8989    8.8290 C   0  0  0  0  0  0  0  0  0  0  0  0
  -14.1342   -7.6951    9.5634 C   0  0  0  0  0  0  0  0  0  0  0  0
  -13.3296   -6.4636    9.3407 C   0  0  0  0  0  0  0  0  0  0  0  0
  -12.2015   -6.2384   10.2912 C   0  0  0  0  0  0  0  0  0  0  0  0
  -10.8703   -5.9924    9.5364 C   0  0  0  0  0  0  0  0  0  0  0  0
  -10.5686   -7.1250    8.6349 C   0  0  0  0  0  0  0  0  0  0  0  0
   -9.3072   -7.1496    7.8872 C   0  0  0  0  0  0  0  0  0  0  0  0
   -7.5581   -8.8574    8.2261 C   0  0  0  0  0  0  0  0  0  0  0  0
   -8.7334   -8.4359    7.4180 C   0  0  0  0  0  0  0  0  0  0  0  0
 21 22  1  0  0  0
 22 20  1  0  0  0
 20 19  1  0  0  0
 19 18  1  0  0  0
 18 17  1  0  0  0
 17 16  1  0  0  0
 16 15  1  0  0  0
 15 14  1  0  0  0
 14  1  1  0  0  0
  1  2  1  0  0  0
  2  3  1  0  0  0
  3  4  1  0  0  0
  4  6  1  0  0  0
  6  7  2  0  0  0
  7  8  1  0  0  0
  8  9  2  0  0  0
  9 10  1  0  0  0
 10 11  1  0  0  0
 10 12  2  0  0  0
  4  5  1  0  0  0
  5  1  1  0  0  0
 12  6  1  0  0  0
 11 13  1  0  0  0
M  END
> <minimizedAffinity>
-8.01850

> <CNNscore>
0.7659117579

> <CNNaffinity>
6.9845833778

> <CNN_VS>
5.3495745659

> <CNNaffinity_variance>
0.1628457457

$$$$
[H]Oc1c([H])c([H])c([H])c(C2([H])C([H])([H])N(C([H])([H])C([H])([H])C([H])([H])C([H])([H])C([H])([H])C([H])([H])C([H])([H])C([H])([H])C([H])([H])[H])C([H])([H])C2([H])[H])c1[H]


 22 23  0  0  0  0  0  0  0  0999 V2000
  -14.0016   -9.2896    7.6677 N   0  0  0  0  0  0  0  0  0  0  0  0
  -13.2511   -9.4377    6.4507 C   0  0  0  0  0  0  0  0  0  0  0  0
  -14.1271   -8.9193    5.3380 C   0  0  0  0  0  0  0  0  0  0  0  0
  -15.2783   -8.2664    6.0461 C   0  0  0  0  0  0  0  0  0  0  0  0
  -14.8214   -8.0890    7.4456 C   0  0  0  0  0  0  0  0  0  0  0  0
  -15.6696   -6.9827    5.3992 C   0  0  0  0  0  0  0  0  0  0  0  0
  -14.6736   -6.0945    5.0570 C   0  0  0  0  0  0  0  0  0  0  0  0
  -14.9859   -4.8768    4.4433 C   0  0  0  0  0  0  0  0  0  0  0  0
  -16.3081   -4.5858    4.1891 C   0  0  0  0  0  0  0  0  0  0  0  0
  -17.2803   -5.4847    4.5386 C   0  0  0  0  0  0  0  0  0  0  0  0
  -18.6027   -5.1709    4.2735 O   0  0  0  0  0  0  0  0  0  0  0  0
  -16.9868   -6.7040    5.1517 C   0  0  0  0  0  0  0  0  0  0  0  0
  -18.8635   -4.2945    3.8301 H   0  0  0  0  0  0  0  0  0  0  0  0
  -13.2154   -9.1477    8.8480 C   0  0  0  0  0  0  0  0  0  0  0  0
  -13.6379   -8.0406    9.7601 C   0  0  0  0  0  0  0  0  0  0  0  0
  -12.5158   -7.2221   10.2935 C   0  0  0  0  0  0  0  0  0  0  0  0
  -12.0437   -6.1096    9.4181 C   0  0  0  0  0  0  0  0  0  0  0  0
  -10.5268   -6.2304    9.1234 C   0  0  0  0  0  0  0  0  0  0  0  0
  -10.2752   -7.2951    8.1287 C   0  0  0  0  0  0  0  0  0  0  0  0
   -8.8993   -7.6315    7.7485 C   0  0  0  0  0  0  0  0  0  0  0  0
   -9.6139   -9.9237    7.1777 C   0  0  0  0  0  0  0  0  0  0  0  0
   -8.4850   -9.0485    7.5917 C   0  0  0  0  0  0  0  0  0  0  0  0
 21 22  1  0  0  0
 22 20  1  0  0  0
 20 19  1  0  0  0
 19 18  1  0  0  0
 18 17  1  0  0  0
 17 16  1  0  0  0
 16 15  1  0  0  0
 15 14  1  0  0  0
 14  1  1  0  0  0
  1  2  1  0  0  0
  2  3  1  0  0  0
  3  4  1  0  0  0
  4  6  1  0  0  0
  6  7  2  0  0  0
  7  8  1  0  0  0
  8  9  2  0  0  0
  9 10  1  0  0  0
 10 11  1  0  0  0
 10 12  2  0  0  0
  4  5  1  0  0  0
  5  1  1  0  0  0
 12  6  1  0  0  0
 11 13  1  0  0  0
M  END
> <minimizedAffinity>
-7.98486

> <CNNscore>
0.6971645951

> <CNNaffinity>
6.8564310074

> <CNN_VS>
4.7800607681

> <CNNaffinity_variance>
0.0333432406

$$$$
[H]Oc1c([H])c([H])c([H])c(C2([H])C([H])([H])N(C([H])([H])C([H])([H])C([H])([H])C([H])([H])C([H])([H])C([H])([H])C([H])([H])C([H])([H])C([H])([H])[H])C([H])([H])C2([H])[H])c1[H]


 22 23  0  0  0  0  0  0  0  0999 V2000
  -14.4874   -8.1023    7.4933 N   0  0  0  0  0  0  0  0  0  0  0  0
  -14.1143   -6.8255    8.0381 C   0  0  0  0  0  0  0  0  0  0  0  0
  -12.7584   -7.0070    8.6728 C   0  0  0  0  0  0  0  0  0  0  0  0
  -12.3215   -8.3729    8.2296 C   0  0  0  0  0  0  0  0  0  0  0  0
  -13.2112   -8.7140    7.0934 C   0  0  0  0  0  0  0  0  0  0  0  0
  -10.8782   -8.3997    7.8612 C   0  0  0  0  0  0  0  0  0  0  0  0
  -10.3307   -9.5970    7.4553 C   0  0  0  0  0  0  0  0  0  0  0  0
   -8.9816   -9.6765    7.0940 C   0  0  0  0  0  0  0  0  0  0  0  0
   -8.2141   -8.5342    7.1528 C   0  0  0  0  0  0  0  0  0  0  0  0
   -8.7810   -7.3558    7.5595 C   0  0  0  0  0  0  0  0  0  0  0  0
   -7.9903   -6.2201    7.6110 O   0  0  0  0  0  0  0  0  0  0  0  0
  -10.1251   -7.2582    7.9237 C   0  0  0  0  0  0  0  0  0  0  0  0
   -7.0068   -6.2441    7.3564 H   0  0  0  0  0  0  0  0  0  0  0  0
  -15.3847   -8.0476    6.3873 C   0  0  0  0  0  0  0  0  0  0  0  0
  -14.7827   -8.4055    5.0661 C   0  0  0  0  0  0  0  0  0  0  0  0
  -15.7756   -8.6739    3.9911 C   0  0  0  0  0  0  0  0  0  0  0  0
  -17.2052   -8.4360    4.3467 C   0  0  0  0  0  0  0  0  0  0  0  0
  -17.8531   -7.3903    3.4039 C   0  0  0  0  0  0  0  0  0  0  0  0
  -18.3301   -6.2222    4.1750 C   0  0  0  0  0  0  0  0  0  0  0  0
  -17.3636   -5.3149    4.8023 C   0  0  0  0  0  0  0  0  0  0  0  0
  -14.9653   -4.7469    4.6755 C   0  0  0  0  0  0  0  0  0  0  0  0
  -16.2872   -4.6853    3.9967 C   0  0  0  0  0  0  0  0  0  0  0  0
 21 22  1  0  0  0
 22 20  1  0  0  0
 20 19  1  0  0  0
 19 18  1  0  0  0
 18 17  1  0  0  0
 17 16  1  0  0  0
 16 15  1  0  0  0
 15 14  1  0  0  0
 14  1  1  0  0  0
  1  2  1  0  0  0
  2  3  1  0  0  0
  3  4  1  0  0  0
  4  6  1  0  0  0
  6  7  2  0  0  0
  7  8  1  0  0  0
  8  9  2  0  0  0
  9 10  1  0  0  0
 10 11  1  0  0  0
 10 12  2  0  0  0
  4  5  1  0  0  0
  5  1  1  0  0  0
 12  6  1  0  0  0
 11 13  1  0  0  0
M  END
> <minimizedAffinity>
-8.28996

> <CNNscore>
0.6469738483

> <CNNaffinity>
6.7365541458

> <CNN_VS>
4.3583745956

> <CNNaffinity_variance>
0.0311360024

$$$$
[H]Oc1c([H])c([H])c([H])c(C2([H])C([H])([H])N(C([H])([H])C([H])([H])C([H])([H])C([H])([H])C([H])([H])C([H])([H])C([H])([H])C([H])([H])C([H])([H])[H])C([H])([H])C2([H])[H])c1[H]


 22 23  0  0  0  0  0  0  0  0999 V2000
  -13.5817   -8.9071    7.8939 N   0  0  0  0  0  0  0  0  0  0  0  0
  -13.0549   -9.2796    6.6094 C   0  0  0  0  0  0  0  0  0  0  0  0
  -14.0925   -8.8876    5.5876 C   0  0  0  0  0  0  0  0  0  0  0  0
  -15.0860   -8.0718    6.3623 C   0  0  0  0  0  0  0  0  0  0  0  0
  -14.3916   -7.7101    7.6217 C   0  0  0  0  0  0  0  0  0  0  0  0
  -15.5441   -6.8811    5.5930 C   0  0  0  0  0  0  0  0  0  0  0  0
  -14.5982   -5.9698    5.1770 C   0  0  0  0  0  0  0  0  0  0  0  0
  -14.9740   -4.8367    4.4477 C   0  0  0  0  0  0  0  0  0  0  0  0
  -16.3074   -4.6524    4.1551 C   0  0  0  0  0  0  0  0  0  0  0  0
  -17.2289   -5.5721    4.5796 C   0  0  0  0  0  0  0  0  0  0  0  0
  -18.5637   -5.3662    4.2740 O   0  0  0  0  0  0  0  0  0  0  0  0
  -16.8719   -6.7081    5.3083 C   0  0  0  0  0  0  0  0  0  0  0  0
  -18.8700   -4.5531    3.7470 H   0  0  0  0  0  0  0  0  0  0  0  0
  -12.6016   -8.6322    8.8915 C   0  0  0  0  0  0  0  0  0  0  0  0
  -12.0152   -7.2576    8.8402 C   0  0  0  0  0  0  0  0  0  0  0  0
  -10.5281   -7.2226    8.8676 C   0  0  0  0  0  0  0  0  0  0  0  0
   -9.8439   -7.4620    7.5632 C   0  0  0  0  0  0  0  0  0  0  0  0
   -9.1879   -8.8657    7.5212 C   0  0  0  0  0  0  0  0  0  0  0  0
   -7.7138   -8.7494    7.5269 C   0  0  0  0  0  0  0  0  0  0  0  0
   -6.9809   -8.6693    6.2592 C   0  0  0  0  0  0  0  0  0  0  0  0
   -5.8632   -6.4860    6.5329 C   0  0  0  0  0  0  0  0  0  0  0  0
   -6.6814   -7.3523    5.6429 C   0  0  0  0  0  0  0  0  0  0  0  0
 21 22  1  0  0  0
 22 20  1  0  0  0
 20 19  1  0  0  0
 19 18  1  0  0  0
 18 17  1  0  0  0
 17 16  1  0  0  0
 16 15  1  0  0  0
 15 14  1  0  0  0
 14  1  1  0  0  0
  1  2  1  0  0  0
  2  3  1  0  0  0
  3  4  1  0  0  0
  4  6  1  0  0  0
  6  7  2  0  0  0
  7  8  1  0  0  0
  8  9  2  0  0  0
  9 10  1  0  0  0
 10 11  1  0  0  0
 10 12  2  0  0  0
  4  5  1  0  0  0
  5  1  1  0  0  0
 12  6  1  0  0  0
 11 13  1  0  0  0
M  END
> <minimizedAffinity>
-7.83249

> <CNNscore>
0.5910590887

> <CNNaffinity>
6.6945862770

> <CNN_VS>
3.9568960667

> <CNNaffinity_variance>
0.0610363409

$$$$
[H]Oc1c([H])c([H])c([H])c(C2([H])C([H])([H])N(C([H])([H])C([H])([H])C([H])([H])C([H])([H])C([H])([H])C([H])([H])C([H])([H])C([H])([H])C([H])([H])[H])C([H])([H])C2([H])[H])c1[H]


 22 23  0  0  0  0  0  0  0  0999 V2000
  -12.4086   -8.0739    7.7139 N   0  0  0  0  0  0  0  0  0  0  0  0
  -13.3331   -7.8508    8.7917 C   0  0  0  0  0  0  0  0  0  0  0  0
  -14.3711   -6.8856    8.2767 C   0  0  0  0  0  0  0  0  0  0  0  0
  -14.0946   -6.7949    6.8041 C   0  0  0  0  0  0  0  0  0  0  0  0
  -13.2311   -7.9614    6.5000 C   0  0  0  0  0  0  0  0  0  0  0  0
  -15.3518   -6.7830    6.0048 C   0  0  0  0  0  0  0  0  0  0  0  0
  -15.6287   -5.6704    5.2409 C   0  0  0  0  0  0  0  0  0  0  0  0
  -16.7933   -5.6095    4.4682 C   0  0  0  0  0  0  0  0  0  0  0  0
  -17.6553   -6.6838    4.4878 C   0  0  0  0  0  0  0  0  0  0  0  0
  -17.3584   -7.7784    5.2552 C   0  0  0  0  0  0  0  0  0  0  0  0
  -18.2395   -8.8467    5.2595 O   0  0  0  0  0  0  0  0  0  0  0  0
  -16.2012   -7.8562    6.0323 C   0  0  0  0  0  0  0  0  0  0  0  0
  -19.0946   -8.8337    4.7106 H   0  0  0  0  0  0  0  0  0  0  0  0
  -11.7344   -9.3293    7.7472 C   0  0  0  0  0  0  0  0  0  0  0  0
  -10.2863   -9.2795    7.3779 C   0  0  0  0  0  0  0  0  0  0  0  0
   -9.6160   -7.9890    7.6926 C   0  0  0  0  0  0  0  0  0  0  0  0
   -8.2130   -8.0853    8.1917 C   0  0  0  0  0  0  0  0  0  0  0  0
   -7.4418   -9.2294    7.4857 C   0  0  0  0  0  0  0  0  0  0  0  0
   -6.7106   -8.7127    6.3089 C   0  0  0  0  0  0  0  0  0  0  0  0
   -5.4267   -8.0268    6.4879 C   0  0  0  0  0  0  0  0  0  0  0  0
   -4.9949   -5.9037    7.6698 C   0  0  0  0  0  0  0  0  0  0  0  0
   -5.3387   -6.5491    6.3748 C   0  0  0  0  0  0  0  0  0  0  0  0
 21 22  1  0  0  0
 22 20  1  0  0  0
 20 19  1  0  0  0
 19 18  1  0  0  0
 18 17  1  0  0  0
 17 16  1  0  0  0
 16 15  1  0  0  0
 15 14  1  0  0  0
 14  1  1  0  0  0
  1  2  1  0  0  0
  2  3  1  0  0  0
  3  4  1  0  0  0
  4  6  1  0  0  0
  6  7  2  0  0  0
  7  8  1  0  0  0
  8  9  2  0  0  0
  9 10  1  0  0  0
 10 11  1  0  0  0
 10 12  2  0  0  0
  4  5  1  0  0  0
  5  1  1  0  0  0
 12  6  1  0  0  0
 11 13  1  0  0  0
M  END
> <minimizedAffinity>
-7.35113

> <CNNscore>
0.5577375293

> <CNNaffinity>
6.6053214073

> <CNN_VS>
3.6840355396

> <CNNaffinity_variance>
0.1780098826

$$$$
[H]Oc1c([H])c([H])c([H])c(C2([H])C([H])([H])N(C([H])([H])C([H])([H])C([H])([H])C([H])([H])C([H])([H])C([H])([H])C([H])([H])C([H])([H])C([H])([H])[H])C([H])([H])C2([H])[H])c1[H]


 22 23  0  0  0  0  0  0  0  0999 V2000
  -13.7723   -9.0720    7.7226 N   0  0  0  0  0  0  0  0  0  0  0  0
  -13.1514   -9.3127    6.4487 C   0  0  0  0  0  0  0  0  0  0  0  0
  -14.1588   -8.9208    5.3971 C   0  0  0  0  0  0  0  0  0  0  0  0
  -15.2497   -8.2343    6.1663 C   0  0  0  0  0  0  0  0  0  0  0  0
  -14.6522   -7.9176    7.4860 C   0  0  0  0  0  0  0  0  0  0  0  0
  -15.7521   -7.0257    5.4548 C   0  0  0  0  0  0  0  0  0  0  0  0
  -17.0858   -6.9775    5.1125 C   0  0  0  0  0  0  0  0  0  0  0  0
  -17.6100   -5.8639    4.4475 C   0  0  0  0  0  0  0  0  0  0  0  0
  -16.7657   -4.8191    4.1430 C   0  0  0  0  0  0  0  0  0  0  0  0
  -15.4438   -4.8903    4.4934 C   0  0  0  0  0  0  0  0  0  0  0  0
  -14.6135   -3.8282    4.1771 O   0  0  0  0  0  0  0  0  0  0  0  0
  -14.9037   -5.9934    5.1570 C   0  0  0  0  0  0  0  0  0  0  0  0
  -14.9624   -3.0053    3.6935 H   0  0  0  0  0  0  0  0  0  0  0  0
  -12.8698   -8.8026    8.7924 C   0  0  0  0  0  0  0  0  0  0  0  0
  -12.1279   -7.5089    8.6836 C   0  0  0  0  0  0  0  0  0  0  0  0
  -10.6533   -7.6314    8.8388 C   0  0  0  0  0  0  0  0  0  0  0  0
   -9.8753   -7.8081    7.5777 C   0  0  0  0  0  0  0  0  0  0  0  0
   -9.4898   -9.2931    7.3578 C   0  0  0  0  0  0  0  0  0  0  0  0
   -8.0987   -9.5379    7.7953 C   0  0  0  0  0  0  0  0  0  0  0  0
   -7.0303   -8.6205    7.3858 C   0  0  0  0  0  0  0  0  0  0  0  0
   -6.7202   -7.0767    5.4854 C   0  0  0  0  0  0  0  0  0  0  0  0
   -6.6584   -8.4866    5.9547 C   0  0  0  0  0  0  0  0  0  0  0  0
 21 22  1  0  0  0
 22 20  1  0  0  0
 20 19  1  0  0  0
 19 18  1  0  0  0
 18 17  1  0  0  0
 17 16  1  0  0  0
 16 15  1  0  0  0
 15 14  1  0  0  0
 14  1  1  0  0  0
  1  2  1  0  0  0
  2  3  1  0  0  0
  3  4  1  0  0  0
  4  6  1  0  0  0
  6  7  2  0  0  0
  7  8  1  0  0  0
  8  9  2  0  0  0
  9 10  1  0  0  0
 10 11  1  0  0  0
 10 12  2  0  0  0
  4  5  1  0  0  0
  5  1  1  0  0  0
 12  6  1  0  0  0
 11 13  1  0  0  0
M  END
> <minimizedAffinity>
-7.83926

> <CNNscore>
0.5294036865

> <CNNaffinity>
6.6523780823

> <CNN_VS>
3.5217933655

> <CNNaffinity_variance>
0.1475721896

$$$$
[H]Oc1c([H])c([H])c([H])c(C2([H])C([H])([H])N(C([H])([H])C([H])([H])C([H])([H])C([H])([H])C([H])([H])C([H])([H])C([H])([H])C([H])([H])C([H])([H])[H])C([H])([H])C2([H])[H])c1[H]


 22 23  0  0  0  0  0  0  0  0999 V2000
   -9.2992   -7.4322    7.3984 N   0  0  0  0  0  0  0  0  0  0  0  0
   -8.7840   -8.7396    7.7008 C   0  0  0  0  0  0  0  0  0  0  0  0
   -7.5400   -8.9164    6.8668 C   0  0  0  0  0  0  0  0  0  0  0  0
   -7.2827   -7.5542    6.2914 C   0  0  0  0  0  0  0  0  0  0  0  0
   -8.1026   -6.6276    7.1089 C   0  0  0  0  0  0  0  0  0  0  0  0
   -5.8330   -7.2110    6.3088 C   0  0  0  0  0  0  0  0  0  0  0  0
   -4.9575   -8.1066    6.8830 C   0  0  0  0  0  0  0  0  0  0  0  0
   -3.5857   -7.8354    6.9218 C   0  0  0  0  0  0  0  0  0  0  0  0
   -3.1303   -6.6561    6.3747 C   0  0  0  0  0  0  0  0  0  0  0  0
   -4.0200   -5.7818    5.8097 C   0  0  0  0  0  0  0  0  0  0  0  0
   -3.5396   -4.6024    5.2658 O   0  0  0  0  0  0  0  0  0  0  0  0
   -5.3919   -6.0360    5.7624 C   0  0  0  0  0  0  0  0  0  0  0  0
   -2.5493   -4.3746    5.2787 H   0  0  0  0  0  0  0  0  0  0  0  0
  -10.0673   -6.8309    8.4377 C   0  0  0  0  0  0  0  0  0  0  0  0
  -11.2904   -7.5908    8.8407 C   0  0  0  0  0  0  0  0  0  0  0  0
  -12.1778   -6.8673    9.7907 C   0  0  0  0  0  0  0  0  0  0  0  0
  -13.4628   -6.3587    9.2276 C   0  0  0  0  0  0  0  0  0  0  0  0
  -14.4436   -7.5203    8.9255 C   0  0  0  0  0  0  0  0  0  0  0  0
  -14.6859   -7.6290    7.4709 C   0  0  0  0  0  0  0  0  0  0  0  0
  -14.3632   -6.5027    6.5888 C   0  0  0  0  0  0  0  0  0  0  0  0
  -15.0938   -4.9333    4.8298 C   0  0  0  0  0  0  0  0  0  0  0  0
  -15.0464   -6.3501    5.2796 C   0  0  0  0  0  0  0  0  0  0  0  0
 21 22  1  0  0  0
 22 20  1  0  0  0
 20 19  1  0  0  0
 19 18  1  0  0  0
 18 17  1  0  0  0
 17 16  1  0  0  0
 16 15  1  0  0  0
 15 14  1  0  0  0
 14  1  1  0  0  0
  1  2  1  0  0  0
  2  3  1  0  0  0
  3  4  1  0  0  0
  4  6  1  0  0  0
  6  7  2  0  0  0
  7  8  1  0  0  0
  8  9  2  0  0  0
  9 10  1  0  0  0
 10 11  1  0  0  0
 10 12  2  0  0  0
  4  5  1  0  0  0
  5  1  1  0  0  0
 12  6  1  0  0  0
 11 13  1  0  0  0
M  END
> <minimizedAffinity>
-7.04519

> <CNNscore>
0.4884639978

> <CNNaffinity>
5.7741422653

> <CNN_VS>
2.8204605579

> <CNNaffinity_variance>
0.0667153597

$$$$
[H]Oc1c([H])c([H])c([H])c(C2([H])C([H])([H])N(C([H])([H])C([H])([H])C([H])([H])C([H])([H])C([H])([H])C([H])([H])C([H])([H])C([H])([H])C([H])([H])[H])C([H])([H])C2([H])[H])c1[H]


 22 23  0  0  0  0  0  0  0  0999 V2000
  -13.8376   -9.5261    6.7459 N   0  0  0  0  0  0  0  0  0  0  0  0
  -13.4194   -9.5792    5.3716 C   0  0  0  0  0  0  0  0  0  0  0  0
  -14.5181   -8.9382    4.5615 C   0  0  0  0  0  0  0  0  0  0  0  0
  -15.4261   -8.3255    5.5876 C   0  0  0  0  0  0  0  0  0  0  0  0
  -14.6292   -8.2900    6.8377 C   0  0  0  0  0  0  0  0  0  0  0  0
  -15.9042   -6.9779    5.1692 C   0  0  0  0  0  0  0  0  0  0  0  0
  -17.2619   -6.7747    5.0525 C   0  0  0  0  0  0  0  0  0  0  0  0
  -17.7642   -5.5271    4.6673 C   0  0  0  0  0  0  0  0  0  0  0  0
  -16.8738   -4.5087    4.4078 C   0  0  0  0  0  0  0  0  0  0  0  0
  -15.5289   -4.7351    4.5305 C   0  0  0  0  0  0  0  0  0  0  0  0
  -14.6524   -3.6966    4.2645 O   0  0  0  0  0  0  0  0  0  0  0  0
  -15.0102   -5.9733    4.9135 C   0  0  0  0  0  0  0  0  0  0  0  0
  -14.9845   -2.7789    3.9814 H   0  0  0  0  0  0  0  0  0  0  0  0
  -12.7780   -9.5139    7.6991 C   0  0  0  0  0  0  0  0  0  0  0  0
  -11.4097   -9.7025    7.1262 C   0  0  0  0  0  0  0  0  0  0  0  0
  -10.3094   -9.1741    7.9769 C   0  0  0  0  0  0  0  0  0  0  0  0
   -9.5592   -8.0076    7.4263 C   0  0  0  0  0  0  0  0  0  0  0  0
   -9.6887   -6.7690    8.3490 C   0  0  0  0  0  0  0  0  0  0  0  0
  -11.0098   -6.7531    9.0130 C   0  0  0  0  0  0  0  0  0  0  0  0
  -11.2769   -5.7929   10.0889 C   0  0  0  0  0  0  0  0  0  0  0  0
  -13.6561   -6.4379    9.9702 C   0  0  0  0  0  0  0  0  0  0  0  0
  -12.6712   -5.4312   10.4481 C   0  0  0  0  0  0  0  0  0  0  0  0
 21 22  1  0  0  0
 22 20  1  0  0  0
 20 19  1  0  0  0
 19 18  1  0  0  0
 18 17  1  0  0  0
 17 16  1  0  0  0
 16 15  1  0  0  0
 15 14  1  0  0  0
 14  1  1  0  0  0
  1  2  1  0  0  0
  2  3  1  0  0  0
  3  4  1  0  0  0
  4  6  1  0  0  0
  6  7  2  0  0  0
  7  8  1  0  0  0
  8  9  2  0  0  0
  9 10  1  0  0  0
 10 11  1  0  0  0
 10 12  2  0  0  0
  4  5  1  0  0  0
  5  1  1  0  0  0
 12  6  1  0  0  0
 11 13  1  0  0  0
M  END
> <minimizedAffinity>
-7.54543

> <CNNscore>
0.4450221062

> <CNNaffinity>
6.5400991440

> <CNN_VS>
2.9104886055

> <CNNaffinity_variance>
0.0825031176

$$$$
[H]Oc1c([H])c([H])c([H])c(C2([H])C([H])([H])N(C([H])([H])C([H])([H])C([H])([H])C([H])([H])C([H])([H])C([H])([H])C([H])([H])C([H])([H])C([H])([H])[H])C([H])([H])C2([H])[H])c1[H]


 22 23  0  0  0  0  0  0  0  0999 V2000
  -12.4909   -9.5355    7.9481 N   0  0  0  0  0  0  0  0  0  0  0  0
  -12.5775   -8.2559    8.5970 C   0  0  0  0  0  0  0  0  0  0  0  0
  -11.1622   -7.8206    8.8829 C   0  0  0  0  0  0  0  0  0  0  0  0
  -10.3127   -8.8109    8.1408 C   0  0  0  0  0  0  0  0  0  0  0  0
  -11.2345   -9.4727    7.1862 C   0  0  0  0  0  0  0  0  0  0  0  0
   -9.1577   -8.1540    7.4672 C   0  0  0  0  0  0  0  0  0  0  0  0
   -9.2405   -6.8054    7.1977 C   0  0  0  0  0  0  0  0  0  0  0  0
   -8.1824   -6.1387    6.5708 C   0  0  0  0  0  0  0  0  0  0  0  0
   -7.0585   -6.8583    6.2296 C   0  0  0  0  0  0  0  0  0  0  0  0
   -6.9998   -8.1979    6.5077 C   0  0  0  0  0  0  0  0  0  0  0  0
   -5.8600   -8.9011    6.1556 O   0  0  0  0  0  0  0  0  0  0  0  0
   -8.0459   -8.8792    7.1324 C   0  0  0  0  0  0  0  0  0  0  0  0
   -5.0743   -8.4471    5.6981 H   0  0  0  0  0  0  0  0  0  0  0  0
  -13.5827   -9.8512    7.0879 C   0  0  0  0  0  0  0  0  0  0  0  0
  -14.7365   -8.9026    7.1563 C   0  0  0  0  0  0  0  0  0  0  0  0
  -14.8446   -7.9817    5.9928 C   0  0  0  0  0  0  0  0  0  0  0  0
  -14.4323   -8.5437    4.6732 C   0  0  0  0  0  0  0  0  0  0  0  0
  -15.6493   -9.1087    3.8973 C   0  0  0  0  0  0  0  0  0  0  0  0
  -16.9008   -8.4725    4.3615 C   0  0  0  0  0  0  0  0  0  0  0  0
  -17.3409   -7.2049    3.7696 C   0  0  0  0  0  0  0  0  0  0  0  0
  -18.4211   -5.0499    4.2987 C   0  0  0  0  0  0  0  0  0  0  0  0
  -17.2559   -5.9410    4.5438 C   0  0  0  0  0  0  0  0  0  0  0  0
 21 22  1  0  0  0
 22 20  1  0  0  0
 20 19  1  0  0  0
 19 18  1  0  0  0
 18 17  1  0  0  0
 17 16  1  0  0  0
 16 15  1  0  0  0
 15 14  1  0  0  0
 14  1  1  0  0  0
  1  2  1  0  0  0
  2  3  1  0  0  0
  3  4  1  0  0  0
  4  6  1  0  0  0
  6  7  2  0  0  0
  7  8  1  0  0  0
  8  9  2  0  0  0
  9 10  1  0  0  0
 10 11  1  0  0  0
 10 12  2  0  0  0
  4  5  1  0  0  0
  5  1  1  0  0  0
 12  6  1  0  0  0
 11 13  1  0  0  0
M  END
> <minimizedAffinity>
-6.90540

> <CNNscore>
0.4055534005

> <CNNaffinity>
6.4036087990

> <CNN_VS>
2.5970053673

> <CNNaffinity_variance>
0.0752362758

$$$$
[H]OC(=O)/C([H])=C(\[H])c1c([H])c([H])c(Oc2c(-c3c([H])c([H])c(OC(F)(F)F)c([H])c3C([H])([H])[H])c(=O)oc3c([H])c(OC([H])([H])C([H])([H])[H])c([H])c([H])c23)c([H])c1[H]


 39 42  0  0  0  0  0  0  0  0999 V2000
  -14.7745   -7.5412    5.2537 C   0  0  0  0  0  0  0  0  0  0  0  0
  -13.8845   -8.5652    5.4670 C   0  0  0  0  0  0  0  0  0  0  0  0
  -13.0692   -8.5086    6.5761 C   0  0  0  0  0  0  0  0  0  0  0  0
  -13.1195   -7.4602    7.4731 C   0  0  0  0  0  0  0  0  0  0  0  0
  -12.2940   -7.3963    8.6088 C   0  0  0  0  0  0  0  0  0  0  0  0
  -12.4694   -6.2864    9.4095 C   0  0  0  0  0  0  0  0  0  0  0  0
  -13.3927   -5.2778    9.1409 C   0  0  0  0  0  0  0  0  0  0  0  0
  -13.5145   -4.2764    9.9113 O   0  0  0  0  0  0  0  0  0  0  0  0
  -14.1264   -5.3940    8.0755 O   0  0  0  0  0  0  0  0  0  0  0  0
  -14.0074   -6.4336    7.2671 C   0  0  0  0  0  0  0  0  0  0  0  0
  -14.8273   -6.4974    6.1447 C   0  0  0  0  0  0  0  0  0  0  0  0
  -11.6580   -6.1011   10.5946 C   0  0  0  0  0  0  0  0  0  0  0  0
  -10.3002   -6.0676   10.4763 C   0  0  0  0  0  0  0  0  0  0  0  0
   -9.5027   -5.8905   11.5784 C   0  0  0  0  0  0  0  0  0  0  0  0
  -10.0864   -5.7459   12.8133 C   0  0  0  0  0  0  0  0  0  0  0  0
  -11.4639   -5.7797   12.9349 C   0  0  0  0  0  0  0  0  0  0  0  0
  -12.2444   -5.9575   11.8233 C   0  0  0  0  0  0  0  0  0  0  0  0
  -13.7150   -5.9863   12.0333 C   0  0  0  0  0  0  0  0  0  0  0  0
   -9.2726   -5.5652   13.9378 O   0  0  0  0  0  0  0  0  0  0  0  0
   -7.8760   -5.3286   13.7983 C   0  0  0  0  0  0  0  0  0  0  0  0
   -7.4665   -5.8727   12.6062 F   0  0  0  0  0  0  0  0  0  0  0  0
   -7.6379   -3.9667   13.8067 F   0  0  0  0  0  0  0  0  0  0  0  0
   -7.1592   -5.8769   14.8514 F   0  0  0  0  0  0  0  0  0  0  0  0
  -15.5950   -7.5846    4.1491 O   0  0  0  0  0  0  0  0  0  0  0  0
  -17.3411   -5.9986    3.7438 C   0  0  0  0  0  0  0  0  0  0  0  0
  -16.9951   -7.3935    4.2127 C   0  0  0  0  0  0  0  0  0  0  0  0
  -11.4243   -8.4010    8.8099 O   0  0  0  0  0  0  0  0  0  0  0  0
  -10.7597   -9.2791    8.0356 C   0  0  0  0  0  0  0  0  0  0  0  0
   -9.4377   -9.2162    7.6821 C   0  0  0  0  0  0  0  0  0  0  0  0
   -8.8070  -10.1584    6.8704 C   0  0  0  0  0  0  0  0  0  0  0  0
   -9.5238  -11.2407    6.3692 C   0  0  0  0  0  0  0  0  0  0  0  0
  -10.8532  -11.3274    6.7095 C   0  0  0  0  0  0  0  0  0  0  0  0
  -11.4532  -10.3856    7.5116 C   0  0  0  0  0  0  0  0  0  0  0  0
   -8.8463  -12.2097    5.5255 C   0  0  0  0  0  0  0  0  0  0  0  0
   -9.2975  -13.4225    5.2781 C   0  0  0  0  0  0  0  0  0  0  0  0
   -8.5126  -14.3136    4.4016 C   0  0  0  0  0  0  0  0  0  0  0  0
   -7.9411  -15.3338    4.8438 O   0  0  0  0  0  0  0  0  0  0  0  0
   -8.3910  -14.0360    3.0551 O   0  0  0  0  0  0  0  0  0  0  0  0
   -8.8162  -14.6181    2.3244 H   0  0  0  0  0  0  0  0  0  0  0  0
 25 26  1  0  0  0
 26 24  1  0  0  0
 24  1  1  0  0  0
  1  2  2  0  0  0
  2  3  1  0  0  0
  3  4  2  0  0  0
  4  5  1  0  0  0
  5 27  1  0  0  0
 27 28  1  0  0  0
 28 29  2  0  0  0
 29 30  1  0  0  0
 30 31  2  0  0  0
 31 34  1  0  0  0
 34 35  2  0  0  0
 35 36  1  0  0  0
 36 37  2  0  0  0
 36 38  1  0  0  0
 31 32  1  0  0  0
 32 33  2  0  0  0
  5  6  2  0  0  0
  6 12  1  0  0  0
 12 13  2  0  0  0
 13 14  1  0  0  0
 14 15  2  0  0  0
 15 19  1  0  0  0
 19 20  1  0  0  0
 20 21  1  0  0  0
 20 22  1  0  0  0
 20 23  1  0  0  0
 15 16  1  0  0  0
 16 17  2  0  0  0
 17 18  1  0  0  0
  6  7  1  0  0  0
  7  8  2  0  0  0
  7  9  1  0  0  0
  9 10  1  0  0  0
 10 11  2  0  0  0
 11  1  1  0  0  0
 10  4  1  0  0  0
 33 28  1  0  0  0
 17 12  1  0  0  0
 38 39  1  0  0  0
M  END
> <minimizedAffinity>
9.95285

> <CNNscore>
0.5633186698

> <CNNaffinity>
7.0618233681

> <CNN_VS>
3.9780569077

> <CNNaffinity_variance>
1.9348484278

$$$$
[H]OC(=O)/C([H])=C(\[H])c1c([H])c([H])c(Oc2c(-c3c([H])c([H])c(OC(F)(F)F)c([H])c3C([H])([H])[H])c(=O)oc3c([H])c(OC([H])([H])C([H])([H])[H])c([H])c([H])c23)c([H])c1[H]


 39 42  0  0  0  0  0  0  0  0999 V2000
  -15.9445   -8.4293    5.1155 C   0  0  0  0  0  0  0  0  0  0  0  0
  -14.9645   -9.3884    5.1934 C   0  0  0  0  0  0  0  0  0  0  0  0
  -13.9542   -9.2240    6.1155 C   0  0  0  0  0  0  0  0  0  0  0  0
  -13.8976   -8.1312    6.9575 C   0  0  0  0  0  0  0  0  0  0  0  0
  -12.8726   -7.9574    7.9032 C   0  0  0  0  0  0  0  0  0  0  0  0
  -12.9613   -6.8157    8.6729 C   0  0  0  0  0  0  0  0  0  0  0  0
  -13.9835   -5.8770    8.5481 C   0  0  0  0  0  0  0  0  0  0  0  0
  -14.0185   -4.8422    9.2823 O   0  0  0  0  0  0  0  0  0  0  0  0
  -14.9016   -6.0938    7.6553 O   0  0  0  0  0  0  0  0  0  0  0  0
  -14.8742   -7.1690    6.8861 C   0  0  0  0  0  0  0  0  0  0  0  0
  -15.8912   -7.3416    5.9523 C   0  0  0  0  0  0  0  0  0  0  0  0
  -11.9484   -6.5189    9.6645 C   0  0  0  0  0  0  0  0  0  0  0  0
  -12.3158   -6.3572   10.9673 C   0  0  0  0  0  0  0  0  0  0  0  0
  -11.3811   -6.0785   11.9319 C   0  0  0  0  0  0  0  0  0  0  0  0
  -10.0602   -5.9623   11.5733 C   0  0  0  0  0  0  0  0  0  0  0  0
   -9.6860   -6.1261   10.2517 C   0  0  0  0  0  0  0  0  0  0  0  0
  -10.6333   -6.4039    9.3021 C   0  0  0  0  0  0  0  0  0  0  0  0
  -10.1557   -6.5628    7.9041 C   0  0  0  0  0  0  0  0  0  0  0  0
   -9.1064   -5.6780   12.5577 O   0  0  0  0  0  0  0  0  0  0  0  0
   -9.4897   -5.5027   13.9172 C   0  0  0  0  0  0  0  0  0  0  0  0
  -10.0957   -6.6584   14.3437 F   0  0  0  0  0  0  0  0  0  0  0  0
   -8.3668   -5.2440   14.6811 F   0  0  0  0  0  0  0  0  0  0  0  0
  -10.3470   -4.4231   14.0691 F   0  0  0  0  0  0  0  0  0  0  0  0
  -16.9599   -8.5807    4.1983 O   0  0  0  0  0  0  0  0  0  0  0  0
  -18.3043   -6.6043    4.0767 C   0  0  0  0  0  0  0  0  0  0  0  0
  -17.3859   -7.5465    3.3324 C   0  0  0  0  0  0  0  0  0  0  0  0
  -11.9162   -8.8991    7.9723 O   0  0  0  0  0  0  0  0  0  0  0  0
  -11.0918   -9.5110    7.1016 C   0  0  0  0  0  0  0  0  0  0  0  0
   -9.7699   -9.8089    7.3026 C   0  0  0  0  0  0  0  0  0  0  0  0
   -8.9658  -10.4426    6.3558 C   0  0  0  0  0  0  0  0  0  0  0  0
   -9.4957  -10.8110    5.1230 C   0  0  0  0  0  0  0  0  0  0  0  0
  -10.8211  -10.5234    4.8960 C   0  0  0  0  0  0  0  0  0  0  0  0
  -11.5940   -9.8976    5.8453 C   0  0  0  0  0  0  0  0  0  0  0  0
   -8.6395  -11.4697    4.1520 C   0  0  0  0  0  0  0  0  0  0  0  0
   -8.7586  -11.3371    2.8467 C   0  0  0  0  0  0  0  0  0  0  0  0
   -7.8229  -12.0620    1.9650 C   0  0  0  0  0  0  0  0  0  0  0  0
   -7.6764  -13.3014    2.0391 O   0  0  0  0  0  0  0  0  0  0  0  0
   -7.0785  -11.3775    1.0258 O   0  0  0  0  0  0  0  0  0  0  0  0
   -7.2265  -11.4778    0.0149 H   0  0  0  0  0  0  0  0  0  0  0  0
 25 26  1  0  0  0
 26 24  1  0  0  0
 24  1  1  0  0  0
  1  2  2  0  0  0
  2  3  1  0  0  0
  3  4  2  0  0  0
  4  5  1  0  0  0
  5 27  1  0  0  0
 27 28  1  0  0  0
 28 29  2  0  0  0
 29 30  1  0  0  0
 30 31  2  0  0  0
 31 34  1  0  0  0
 34 35  2  0  0  0
 35 36  1  0  0  0
 36 37  2  0  0  0
 36 38  1  0  0  0
 31 32  1  0  0  0
 32 33  2  0  0  0
  5  6  2  0  0  0
  6 12  1  0  0  0
 12 13  2  0  0  0
 13 14  1  0  0  0
 14 15  2  0  0  0
 15 19  1  0  0  0
 19 20  1  0  0  0
 20 21  1  0  0  0
 20 22  1  0  0  0
 20 23  1  0  0  0
 15 16  1  0  0  0
 16 17  2  0  0  0
 17 18  1  0  0  0
  6  7  1  0  0  0
  7  8  2  0  0  0
  7  9  1  0  0  0
  9 10  1  0  0  0
 10 11  2  0  0  0
 11  1  1  0  0  0
 10  4  1  0  0  0
 33 28  1  0  0  0
 17 12  1  0  0  0
 38 39  1  0  0  0
M  END
> <minimizedAffinity>
9.15090

> <CNNscore>
0.4892236590

> <CNNaffinity>
6.9457578659

> <CNN_VS>
3.3980290890

> <CNNaffinity_variance>
1.6398124695

$$$$
[H]OC(=O)/C([H])=C(\[H])c1c([H])c([H])c(Oc2c(-c3c([H])c([H])c(OC(F)(F)F)c([H])c3C([H])([H])[H])c(=O)oc3c([H])c(OC([H])([H])C([H])([H])[H])c([H])c([H])c23)c([H])c1[H]


 39 42  0  0  0  0  0  0  0  0999 V2000
  -15.4346   -8.5641    3.9534 C   0  0  0  0  0  0  0  0  0  0  0  0
  -14.4439   -9.4839    4.1953 C   0  0  0  0  0  0  0  0  0  0  0  0
  -13.6232   -9.2961    5.2859 C   0  0  0  0  0  0  0  0  0  0  0  0
  -13.7658   -8.2182    6.1367 C   0  0  0  0  0  0  0  0  0  0  0  0
  -12.9354   -8.0210    7.2533 C   0  0  0  0  0  0  0  0  0  0  0  0
  -13.2101   -6.8986    8.0075 C   0  0  0  0  0  0  0  0  0  0  0  0
  -14.2331   -6.0000    7.7116 C   0  0  0  0  0  0  0  0  0  0  0  0
  -14.4439   -4.9816    8.4394 O   0  0  0  0  0  0  0  0  0  0  0  0
  -14.9660   -6.2369    6.6659 O   0  0  0  0  0  0  0  0  0  0  0  0
  -14.7547   -7.2952    5.9019 C   0  0  0  0  0  0  0  0  0  0  0  0
  -15.5794   -7.4912    4.7985 C   0  0  0  0  0  0  0  0  0  0  0  0
  -12.4051   -6.5799    9.1684 C   0  0  0  0  0  0  0  0  0  0  0  0
  -11.2536   -5.8680    9.0081 C   0  0  0  0  0  0  0  0  0  0  0  0
  -10.4697   -5.5467   10.0871 C   0  0  0  0  0  0  0  0  0  0  0  0
  -10.8562   -5.9506   11.3418 C   0  0  0  0  0  0  0  0  0  0  0  0
  -12.0243   -6.6731   11.5060 C   0  0  0  0  0  0  0  0  0  0  0  0
  -12.7944   -6.9848   10.4168 C   0  0  0  0  0  0  0  0  0  0  0  0
  -14.0325   -7.7657   10.6717 C   0  0  0  0  0  0  0  0  0  0  0  0
  -10.0563   -5.6227   12.4428 O   0  0  0  0  0  0  0  0  0  0  0  0
  -10.6163   -5.5179   13.7472 C   0  0  0  0  0  0  0  0  0  0  0  0
  -10.9578   -6.7790   14.1691 F   0  0  0  0  0  0  0  0  0  0  0  0
   -9.6828   -4.9657   14.6046 F   0  0  0  0  0  0  0  0  0  0  0  0
  -11.7267   -4.6871   13.7592 F   0  0  0  0  0  0  0  0  0  0  0  0
  -16.2617   -8.7390    2.8669 O   0  0  0  0  0  0  0  0  0  0  0  0
  -18.3201   -7.8122    3.6621 C   0  0  0  0  0  0  0  0  0  0  0  0
  -17.3109   -7.8495    2.5373 C   0  0  0  0  0  0  0  0  0  0  0  0
  -11.9670   -8.9241    7.4826 O   0  0  0  0  0  0  0  0  0  0  0  0
  -10.6236   -8.9488    7.4002 C   0  0  0  0  0  0  0  0  0  0  0  0
   -9.8371  -10.0591    7.2415 C   0  0  0  0  0  0  0  0  0  0  0  0
   -8.4451  -10.0186    7.1672 C   0  0  0  0  0  0  0  0  0  0  0  0
   -7.7758   -8.8017    7.2547 C   0  0  0  0  0  0  0  0  0  0  0  0
   -8.5425   -7.6714    7.4141 C   0  0  0  0  0  0  0  0  0  0  0  0
   -9.9139   -7.7366    7.4847 C   0  0  0  0  0  0  0  0  0  0  0  0
   -6.3256   -8.7835    7.1751 C   0  0  0  0  0  0  0  0  0  0  0  0
   -5.5972   -7.6860    7.1521 C   0  0  0  0  0  0  0  0  0  0  0  0
   -4.1283   -7.8030    7.0694 C   0  0  0  0  0  0  0  0  0  0  0  0
   -3.5694   -8.4160    6.1340 O   0  0  0  0  0  0  0  0  0  0  0  0
   -3.3281   -7.2298    8.0368 O   0  0  0  0  0  0  0  0  0  0  0  0
   -2.7128   -6.4295    7.8503 H   0  0  0  0  0  0  0  0  0  0  0  0
 25 26  1  0  0  0
 26 24  1  0  0  0
 24  1  1  0  0  0
  1  2  2  0  0  0
  2  3  1  0  0  0
  3  4  2  0  0  0
  4  5  1  0  0  0
  5 27  1  0  0  0
 27 28  1  0  0  0
 28 29  2  0  0  0
 29 30  1  0  0  0
 30 31  2  0  0  0
 31 34  1  0  0  0
 34 35  2  0  0  0
 35 36  1  0  0  0
 36 37  2  0  0  0
 36 38  1  0  0  0
 31 32  1  0  0  0
 32 33  2  0  0  0
  5  6  2  0  0  0
  6 12  1  0  0  0
 12 13  2  0  0  0
 13 14  1  0  0  0
 14 15  2  0  0  0
 15 19  1  0  0  0
 19 20  1  0  0  0
 20 21  1  0  0  0
 20 22  1  0  0  0
 20 23  1  0  0  0
 15 16  1  0  0  0
 16 17  2  0  0  0
 17 18  1  0  0  0
  6  7  1  0  0  0
  7  8  2  0  0  0
  7  9  1  0  0  0
  9 10  1  0  0  0
 10 11  2  0  0  0
 11  1  1  0  0  0
 10  4  1  0  0  0
 33 28  1  0  0  0
 17 12  1  0  0  0
 38 39  1  0  0  0
M  END
> <minimizedAffinity>
-0.31839

> <CNNscore>
0.4790509939

> <CNNaffinity>
7.1438188553

> <CNN_VS>
3.4222536087

> <CNNaffinity_variance>
0.6994991302

$$$$
[H]OC(=O)/C([H])=C(\[H])c1c([H])c([H])c(Oc2c(-c3c([H])c([H])c(OC(F)(F)F)c([H])c3C([H])([H])[H])c(=O)oc3c([H])c(OC([H])([H])C([H])([H])[H])c([H])c([H])c23)c([H])c1[H]


 39 42  0  0  0  0  0  0  0  0999 V2000
  -14.4530   -7.7252   11.0783 C   0  0  0  0  0  0  0  0  0  0  0  0
  -14.7386   -8.1423    9.8013 C   0  0  0  0  0  0  0  0  0  0  0  0
  -13.7354   -8.1079    8.8576 C   0  0  0  0  0  0  0  0  0  0  0  0
  -12.4605   -7.6693    9.1552 C   0  0  0  0  0  0  0  0  0  0  0  0
  -11.4305   -7.6342    8.1996 C   0  0  0  0  0  0  0  0  0  0  0  0
  -10.2119   -7.1750    8.6557 C   0  0  0  0  0  0  0  0  0  0  0  0
   -9.9822   -6.7657    9.9677 C   0  0  0  0  0  0  0  0  0  0  0  0
   -8.8404   -6.3512   10.3363 O   0  0  0  0  0  0  0  0  0  0  0  0
  -10.9744   -6.8212   10.8039 O   0  0  0  0  0  0  0  0  0  0  0  0
  -12.1673   -7.2519   10.4298 C   0  0  0  0  0  0  0  0  0  0  0  0
  -13.1855   -7.2892   11.3774 C   0  0  0  0  0  0  0  0  0  0  0  0
   -9.0827   -7.0725    7.7548 C   0  0  0  0  0  0  0  0  0  0  0  0
   -8.9384   -5.9541    6.9888 C   0  0  0  0  0  0  0  0  0  0  0  0
   -7.8785   -5.8238    6.1276 C   0  0  0  0  0  0  0  0  0  0  0  0
   -6.9551   -6.8371    6.0412 C   0  0  0  0  0  0  0  0  0  0  0  0
   -7.1003   -7.9725    6.8178 C   0  0  0  0  0  0  0  0  0  0  0  0
   -8.1651   -8.0851    7.6722 C   0  0  0  0  0  0  0  0  0  0  0  0
   -8.2555   -9.3348    8.4708 C   0  0  0  0  0  0  0  0  0  0  0  0
   -5.8737   -6.7040    5.1624 O   0  0  0  0  0  0  0  0  0  0  0  0
   -4.6637   -6.0829    5.5819 C   0  0  0  0  0  0  0  0  0  0  0  0
   -3.6776   -7.0379    5.6045 F   0  0  0  0  0  0  0  0  0  0  0  0
   -4.3318   -5.0770    4.6933 F   0  0  0  0  0  0  0  0  0  0  0  0
   -4.7986   -5.4980    6.8321 F   0  0  0  0  0  0  0  0  0  0  0  0
  -15.4461   -7.7539   12.0313 O   0  0  0  0  0  0  0  0  0  0  0  0
  -14.5513   -9.7586   12.9846 C   0  0  0  0  0  0  0  0  0  0  0  0
  -15.7859   -8.9142   12.7654 C   0  0  0  0  0  0  0  0  0  0  0  0
  -11.7180   -8.0420    6.9517 O   0  0  0  0  0  0  0  0  0  0  0  0
  -12.8038   -8.0403    6.1559 C   0  0  0  0  0  0  0  0  0  0  0  0
  -13.2636   -9.0879    5.4026 C   0  0  0  0  0  0  0  0  0  0  0  0
  -14.3966   -9.0212    4.5923 C   0  0  0  0  0  0  0  0  0  0  0  0
  -15.1321   -7.8424    4.5151 C   0  0  0  0  0  0  0  0  0  0  0  0
  -14.6916   -6.7754    5.2622 C   0  0  0  0  0  0  0  0  0  0  0  0
  -13.5712   -6.8653    6.0539 C   0  0  0  0  0  0  0  0  0  0  0  0
  -16.3085   -7.7958    3.6645 C   0  0  0  0  0  0  0  0  0  0  0  0
  -17.3975   -7.1078    3.9409 C   0  0  0  0  0  0  0  0  0  0  0  0
  -18.5271   -7.1433    2.9916 C   0  0  0  0  0  0  0  0  0  0  0  0
  -18.3771   -7.5063    1.8047 O   0  0  0  0  0  0  0  0  0  0  0  0
  -19.7920   -6.7711    3.3995 O   0  0  0  0  0  0  0  0  0  0  0  0
  -20.5704   -7.4354    3.4810 H   0  0  0  0  0  0  0  0  0  0  0  0
 25 26  1  0  0  0
 26 24  1  0  0  0
 24  1  1  0  0  0
  1  2  2  0  0  0
  2  3  1  0  0  0
  3  4  2  0  0  0
  4  5  1  0  0  0
  5 27  1  0  0  0
 27 28  1  0  0  0
 28 29  2  0  0  0
 29 30  1  0  0  0
 30 31  2  0  0  0
 31 34  1  0  0  0
 34 35  2  0  0  0
 35 36  1  0  0  0
 36 37  2  0  0  0
 36 38  1  0  0  0
 31 32  1  0  0  0
 32 33  2  0  0  0
  5  6  2  0  0  0
  6 12  1  0  0  0
 12 13  2  0  0  0
 13 14  1  0  0  0
 14 15  2  0  0  0
 15 19  1  0  0  0
 19 20  1  0  0  0
 20 21  1  0  0  0
 20 22  1  0  0  0
 20 23  1  0  0  0
 15 16  1  0  0  0
 16 17  2  0  0  0
 17 18  1  0  0  0
  6  7  1  0  0  0
  7  8  2  0  0  0
  7  9  1  0  0  0
  9 10  1  0  0  0
 10 11  2  0  0  0
 11  1  1  0  0  0
 10  4  1  0  0  0
 33 28  1  0  0  0
 17 12  1  0  0  0
 38 39  1  0  0  0
M  END
> <minimizedAffinity>
6.67058

> <CNNscore>
0.4264112115

> <CNNaffinity>
7.1935133934

> <CNN_VS>
3.0673947334

> <CNNaffinity_variance>
1.1251479387

$$$$
[H]OC(=O)/C([H])=C(\[H])c1c([H])c([H])c(Oc2c(-c3c([H])c([H])c(OC(F)(F)F)c([H])c3C([H])([H])[H])c(=O)oc3c([H])c(OC([H])([H])C([H])([H])[H])c([H])c([H])c23)c([H])c1[H]


 39 42  0  0  0  0  0  0  0  0999 V2000
   -6.6558   -7.4932    8.4816 C   0  0  0  0  0  0  0  0  0  0  0  0
   -6.9384   -8.4587    7.5465 C   0  0  0  0  0  0  0  0  0  0  0  0
   -8.2557   -8.6902    7.2165 C   0  0  0  0  0  0  0  0  0  0  0  0
   -9.2933   -7.9858    7.7941 C   0  0  0  0  0  0  0  0  0  0  0  0
  -10.6396   -8.2132    7.4607 C   0  0  0  0  0  0  0  0  0  0  0  0
  -11.5573   -7.4233    8.1223 C   0  0  0  0  0  0  0  0  0  0  0  0
  -11.2087   -6.4562    9.0630 C   0  0  0  0  0  0  0  0  0  0  0  0
  -12.0936   -5.7552    9.6435 O   0  0  0  0  0  0  0  0  0  0  0  0
   -9.9478   -6.2937    9.3284 O   0  0  0  0  0  0  0  0  0  0  0  0
   -9.0186   -7.0185    8.7287 C   0  0  0  0  0  0  0  0  0  0  0  0
   -7.6858   -6.7904    9.0572 C   0  0  0  0  0  0  0  0  0  0  0  0
  -12.9755   -7.5845    7.8775 C   0  0  0  0  0  0  0  0  0  0  0  0
  -13.5885   -6.7916    6.9532 C   0  0  0  0  0  0  0  0  0  0  0  0
  -14.9296   -6.9206    6.6950 C   0  0  0  0  0  0  0  0  0  0  0  0
  -15.6577   -7.8626    7.3801 C   0  0  0  0  0  0  0  0  0  0  0  0
  -15.0371   -8.6677    8.3182 C   0  0  0  0  0  0  0  0  0  0  0  0
  -13.6970   -8.5246    8.5629 C   0  0  0  0  0  0  0  0  0  0  0  0
  -13.1019   -9.4224    9.5864 C   0  0  0  0  0  0  0  0  0  0  0  0
  -17.0262   -7.9942    7.1165 O   0  0  0  0  0  0  0  0  0  0  0  0
  -17.5073   -8.0841    5.7800 C   0  0  0  0  0  0  0  0  0  0  0  0
  -17.6918   -6.8094    5.3046 F   0  0  0  0  0  0  0  0  0  0  0  0
  -16.5800   -8.7526    5.0022 F   0  0  0  0  0  0  0  0  0  0  0  0
  -18.6925   -8.8012    5.7128 F   0  0  0  0  0  0  0  0  0  0  0  0
   -5.3438   -7.2516    8.8212 O   0  0  0  0  0  0  0  0  0  0  0  0
   -3.3659   -6.0537    8.2038 C   0  0  0  0  0  0  0  0  0  0  0  0
   -4.7567   -5.9652    8.7894 C   0  0  0  0  0  0  0  0  0  0  0  0
  -10.9084   -9.1608    6.5464 O   0  0  0  0  0  0  0  0  0  0  0  0
  -10.3099  -10.2840    6.1079 C   0  0  0  0  0  0  0  0  0  0  0  0
  -10.0192  -11.3965    6.8524 C   0  0  0  0  0  0  0  0  0  0  0  0
   -9.3916  -12.5307    6.3384 C   0  0  0  0  0  0  0  0  0  0  0  0
   -9.0226  -12.5780    4.9975 C   0  0  0  0  0  0  0  0  0  0  0  0
   -9.3035  -11.4737    4.2278 C   0  0  0  0  0  0  0  0  0  0  0  0
   -9.9232  -10.3666    4.7574 C   0  0  0  0  0  0  0  0  0  0  0  0
   -8.3699  -13.7696    4.4838 C   0  0  0  0  0  0  0  0  0  0  0  0
   -7.8737  -13.8786    3.2683 C   0  0  0  0  0  0  0  0  0  0  0  0
   -7.2335  -15.1466    2.8673 C   0  0  0  0  0  0  0  0  0  0  0  0
   -6.9822  -16.0473    3.6972 O   0  0  0  0  0  0  0  0  0  0  0  0
   -6.8934  -15.3688    1.5483 O   0  0  0  0  0  0  0  0  0  0  0  0
   -7.3603  -16.0701    0.9618 H   0  0  0  0  0  0  0  0  0  0  0  0
 25 26  1  0  0  0
 26 24  1  0  0  0
 24  1  1  0  0  0
  1  2  2  0  0  0
  2  3  1  0  0  0
  3  4  2  0  0  0
  4  5  1  0  0  0
  5 27  1  0  0  0
 27 28  1  0  0  0
 28 29  2  0  0  0
 29 30  1  0  0  0
 30 31  2  0  0  0
 31 34  1  0  0  0
 34 35  2  0  0  0
 35 36  1  0  0  0
 36 37  2  0  0  0
 36 38  1  0  0  0
 31 32  1  0  0  0
 32 33  2  0  0  0
  5  6  2  0  0  0
  6 12  1  0  0  0
 12 13  2  0  0  0
 13 14  1  0  0  0
 14 15  2  0  0  0
 15 19  1  0  0  0
 19 20  1  0  0  0
 20 21  1  0  0  0
 20 22  1  0  0  0
 20 23  1  0  0  0
 15 16  1  0  0  0
 16 17  2  0  0  0
 17 18  1  0  0  0
  6  7  1  0  0  0
  7  8  2  0  0  0
  7  9  1  0  0  0
  9 10  1  0  0  0
 10 11  2  0  0  0
 11  1  1  0  0  0
 10  4  1  0  0  0
 33 28  1  0  0  0
 17 12  1  0  0  0
 38 39  1  0  0  0
M  END
> <minimizedAffinity>
5.41747

> <CNNscore>
0.4040484726

> <CNNaffinity>
6.9123854637

> <CNN_VS>
2.7929387093

> <CNNaffinity_variance>
1.0605684519

$$$$
[H]OC(=O)/C([H])=C(\[H])c1c([H])c([H])c(Oc2c(-c3c([H])c([H])c(OC(F)(F)F)c([H])c3C([H])([H])[H])c(=O)oc3c([H])c(OC([H])([H])C([H])([H])[H])c([H])c([H])c23)c([H])c1[H]


 39 42  0  0  0  0  0  0  0  0999 V2000
  -12.5728   -7.3187    8.5709 C   0  0  0  0  0  0  0  0  0  0  0  0
  -11.8325   -7.6796    9.6700 C   0  0  0  0  0  0  0  0  0  0  0  0
  -10.4589   -7.6110    9.5900 C   0  0  0  0  0  0  0  0  0  0  0  0
   -9.8087   -7.1935    8.4457 C   0  0  0  0  0  0  0  0  0  0  0  0
   -8.4082   -7.1172    8.3568 C   0  0  0  0  0  0  0  0  0  0  0  0
   -7.9125   -6.6763    7.1470 C   0  0  0  0  0  0  0  0  0  0  0  0
   -8.7165   -6.3222    6.0653 C   0  0  0  0  0  0  0  0  0  0  0  0
   -8.2090   -5.9218    4.9728 O   0  0  0  0  0  0  0  0  0  0  0  0
  -10.0039   -6.4148    6.2094 O   0  0  0  0  0  0  0  0  0  0  0  0
  -10.5421   -6.8302    7.3435 C   0  0  0  0  0  0  0  0  0  0  0  0
  -11.9289   -6.9024    7.4315 C   0  0  0  0  0  0  0  0  0  0  0  0
   -6.4839   -6.5796    6.9309 C   0  0  0  0  0  0  0  0  0  0  0  0
   -5.8599   -5.3814    7.1140 C   0  0  0  0  0  0  0  0  0  0  0  0
   -4.5075   -5.2562    6.9208 C   0  0  0  0  0  0  0  0  0  0  0  0
   -3.7793   -6.3562    6.5381 C   0  0  0  0  0  0  0  0  0  0  0  0
   -4.4111   -7.5726    6.3518 C   0  0  0  0  0  0  0  0  0  0  0  0
   -5.7624   -7.6787    6.5493 C   0  0  0  0  0  0  0  0  0  0  0  0
   -6.3703   -9.0161    6.3267 C   0  0  0  0  0  0  0  0  0  0  0  0
   -2.3993   -6.2285    6.3410 O   0  0  0  0  0  0  0  0  0  0  0  0
   -1.8308   -6.3668    5.0435 C   0  0  0  0  0  0  0  0  0  0  0  0
   -1.0602   -7.5031    5.0326 F   0  0  0  0  0  0  0  0  0  0  0  0
   -2.8429   -6.4690    4.1072 F   0  0  0  0  0  0  0  0  0  0  0  0
   -1.0662   -5.2612    4.7023 F   0  0  0  0  0  0  0  0  0  0  0  0
  -13.9464   -7.3829    8.6366 O   0  0  0  0  0  0  0  0  0  0  0  0
  -14.3037   -9.6346    7.9084 C   0  0  0  0  0  0  0  0  0  0  0  0
  -14.7290   -8.1899    7.7781 C   0  0  0  0  0  0  0  0  0  0  0  0
   -7.6905   -7.4738    9.4357 O   0  0  0  0  0  0  0  0  0  0  0  0
   -6.8496   -6.8592   10.2886 C   0  0  0  0  0  0  0  0  0  0  0  0
   -5.6263   -6.3239    9.9830 C   0  0  0  0  0  0  0  0  0  0  0  0
   -4.7977   -5.7017   10.9162 C   0  0  0  0  0  0  0  0  0  0  0  0
   -5.1973   -5.5964   12.2450 C   0  0  0  0  0  0  0  0  0  0  0  0
   -6.4219   -6.1256   12.5781 C   0  0  0  0  0  0  0  0  0  0  0  0
   -7.2215   -6.7347   11.6400 C   0  0  0  0  0  0  0  0  0  0  0  0
   -4.3180   -4.9445   13.1997 C   0  0  0  0  0  0  0  0  0  0  0  0
   -3.7275   -3.7850   12.9935 C   0  0  0  0  0  0  0  0  0  0  0  0
   -2.8554   -3.2282   14.0460 C   0  0  0  0  0  0  0  0  0  0  0  0
   -1.6837   -2.8648   13.8046 O   0  0  0  0  0  0  0  0  0  0  0  0
   -3.3210   -3.0946   15.3383 O   0  0  0  0  0  0  0  0  0  0  0  0
   -3.4891   -2.1833   15.7798 H   0  0  0  0  0  0  0  0  0  0  0  0
 25 26  1  0  0  0
 26 24  1  0  0  0
 24  1  1  0  0  0
  1  2  2  0  0  0
  2  3  1  0  0  0
  3  4  2  0  0  0
  4  5  1  0  0  0
  5 27  1  0  0  0
 27 28  1  0  0  0
 28 29  2  0  0  0
 29 30  1  0  0  0
 30 31  2  0  0  0
 31 34  1  0  0  0
 34 35  2  0  0  0
 35 36  1  0  0  0
 36 37  2  0  0  0
 36 38  1  0  0  0
 31 32  1  0  0  0
 32 33  2  0  0  0
  5  6  2  0  0  0
  6 12  1  0  0  0
 12 13  2  0  0  0
 13 14  1  0  0  0
 14 15  2  0  0  0
 15 19  1  0  0  0
 19 20  1  0  0  0
 20 21  1  0  0  0
 20 22  1  0  0  0
 20 23  1  0  0  0
 15 16  1  0  0  0
 16 17  2  0  0  0
 17 18  1  0  0  0
  6  7  1  0  0  0
  7  8  2  0  0  0
  7  9  1  0  0  0
  9 10  1  0  0  0
 10 11  2  0  0  0
 11  1  1  0  0  0
 10  4  1  0  0  0
 33 28  1  0  0  0
 17 12  1  0  0  0
 38 39  1  0  0  0
M  END
> <minimizedAffinity>
2.81840

> <CNNscore>
0.3865997493

> <CNNaffinity>
6.3153519630

> <CNN_VS>
2.4415135384

> <CNNaffinity_variance>
0.5661673546

$$$$
[H]OC(=O)/C([H])=C(\[H])c1c([H])c([H])c(Oc2c(-c3c([H])c([H])c(OC(F)(F)F)c([H])c3C([H])([H])[H])c(=O)oc3c([H])c(OC([H])([H])C([H])([H])[H])c([H])c([H])c23)c([H])c1[H]


 39 42  0  0  0  0  0  0  0  0999 V2000
  -16.3925   -8.4576    4.3893 C   0  0  0  0  0  0  0  0  0  0  0  0
  -15.1802   -8.0071    3.9271 C   0  0  0  0  0  0  0  0  0  0  0  0
  -14.2591   -7.5419    4.8399 C   0  0  0  0  0  0  0  0  0  0  0  0
  -14.5168   -7.5147    6.1960 C   0  0  0  0  0  0  0  0  0  0  0  0
  -13.5816   -7.0451    7.1342 C   0  0  0  0  0  0  0  0  0  0  0  0
  -13.9887   -7.0881    8.4519 C   0  0  0  0  0  0  0  0  0  0  0  0
  -15.2348   -7.5588    8.8608 C   0  0  0  0  0  0  0  0  0  0  0  0
  -15.5600   -7.5771   10.0877 O   0  0  0  0  0  0  0  0  0  0  0  0
  -16.0555   -7.9789    7.9461 O   0  0  0  0  0  0  0  0  0  0  0  0
  -15.7259   -7.9644    6.6656 C   0  0  0  0  0  0  0  0  0  0  0  0
  -16.6513   -8.4325    5.7379 C   0  0  0  0  0  0  0  0  0  0  0  0
  -13.1178   -6.6082    9.5048 C   0  0  0  0  0  0  0  0  0  0  0  0
  -13.1143   -5.2810    9.8161 C   0  0  0  0  0  0  0  0  0  0  0  0
  -12.3037   -4.7942   10.8101 C   0  0  0  0  0  0  0  0  0  0  0  0
  -11.4880   -5.6607   11.4960 C   0  0  0  0  0  0  0  0  0  0  0  0
  -11.4905   -7.0077   11.1811 C   0  0  0  0  0  0  0  0  0  0  0  0
  -12.3065   -7.4758   10.1855 C   0  0  0  0  0  0  0  0  0  0  0  0
  -12.2515   -8.9333    9.9023 C   0  0  0  0  0  0  0  0  0  0  0  0
  -10.6610   -5.1639   12.5102 O   0  0  0  0  0  0  0  0  0  0  0  0
  -10.8491   -5.5581   13.8649 C   0  0  0  0  0  0  0  0  0  0  0  0
  -11.8391   -6.5086   13.9007 F   0  0  0  0  0  0  0  0  0  0  0  0
   -9.6686   -6.0815   14.3589 F   0  0  0  0  0  0  0  0  0  0  0  0
  -11.1867   -4.4783   14.6670 F   0  0  0  0  0  0  0  0  0  0  0  0
  -17.3225   -8.9249    3.4883 O   0  0  0  0  0  0  0  0  0  0  0  0
  -18.2262   -6.7092    3.4397 C   0  0  0  0  0  0  0  0  0  0  0  0
  -18.4094   -8.1500    3.0203 C   0  0  0  0  0  0  0  0  0  0  0  0
  -12.3983   -6.6041    6.6742 O   0  0  0  0  0  0  0  0  0  0  0  0
  -11.1015   -6.8569    6.9320 C   0  0  0  0  0  0  0  0  0  0  0  0
  -10.0898   -5.9360    7.0011 C   0  0  0  0  0  0  0  0  0  0  0  0
   -8.7609   -6.2633    7.2688 C   0  0  0  0  0  0  0  0  0  0  0  0
   -8.3977   -7.5891    7.4848 C   0  0  0  0  0  0  0  0  0  0  0  0
   -9.3950   -8.5336    7.4212 C   0  0  0  0  0  0  0  0  0  0  0  0
  -10.6985   -8.1865    7.1555 C   0  0  0  0  0  0  0  0  0  0  0  0
   -7.0077   -7.9068    7.7617 C   0  0  0  0  0  0  0  0  0  0  0  0
   -5.9836   -7.2069    7.3178 C   0  0  0  0  0  0  0  0  0  0  0  0
   -4.6162   -7.6356    7.6709 C   0  0  0  0  0  0  0  0  0  0  0  0
   -3.9706   -7.0836    8.5884 O   0  0  0  0  0  0  0  0  0  0  0  0
   -4.0117   -8.6703    6.9863 O   0  0  0  0  0  0  0  0  0  0  0  0
   -3.8040   -9.5787    7.4169 H   0  0  0  0  0  0  0  0  0  0  0  0
 25 26  1  0  0  0
 26 24  1  0  0  0
 24  1  1  0  0  0
  1  2  2  0  0  0
  2  3  1  0  0  0
  3  4  2  0  0  0
  4  5  1  0  0  0
  5 27  1  0  0  0
 27 28  1  0  0  0
 28 29  2  0  0  0
 29 30  1  0  0  0
 30 31  2  0  0  0
 31 34  1  0  0  0
 34 35  2  0  0  0
 35 36  1  0  0  0
 36 37  2  0  0  0
 36 38  1  0  0  0
 31 32  1  0  0  0
 32 33  2  0  0  0
  5  6  2  0  0  0
  6 12  1  0  0  0
 12 13  2  0  0  0
 13 14  1  0  0  0
 14 15  2  0  0  0
 15 19  1  0  0  0
 19 20  1  0  0  0
 20 21  1  0  0  0
 20 22  1  0  0  0
 20 23  1  0  0  0
 15 16  1  0  0  0
 16 17  2  0  0  0
 17 18  1  0  0  0
  6  7  1  0  0  0
  7  8  2  0  0  0
  7  9  1  0  0  0
  9 10  1  0  0  0
 10 11  2  0  0  0
 11  1  1  0  0  0
 10  4  1  0  0  0
 33 28  1  0  0  0
 17 12  1  0  0  0
 38 39  1  0  0  0
M  END
> <minimizedAffinity>
1.19001

> <CNNscore>
0.3650236130

> <CNNaffinity>
6.8979263306

> <CNN_VS>
2.5179059505

> <CNNaffinity_variance>
0.5081151724

$$$$
[H]OC(=O)/C([H])=C(\[H])c1c([H])c([H])c(Oc2c(-c3c([H])c([H])c(OC(F)(F)F)c([H])c3C([H])([H])[H])c(=O)oc3c([H])c(OC([H])([H])C([H])([H])[H])c([H])c([H])c23)c([H])c1[H]


 39 42  0  0  0  0  0  0  0  0999 V2000
   -6.4260   -9.4010    3.9436 C   0  0  0  0  0  0  0  0  0  0  0  0
   -7.4110   -9.2819    4.8933 C   0  0  0  0  0  0  0  0  0  0  0  0
   -7.1254   -8.6009    6.0564 C   0  0  0  0  0  0  0  0  0  0  0  0
   -5.8870   -8.0387    6.2942 C   0  0  0  0  0  0  0  0  0  0  0  0
   -5.5883   -7.3394    7.4762 C   0  0  0  0  0  0  0  0  0  0  0  0
   -4.3075   -6.8330    7.5596 C   0  0  0  0  0  0  0  0  0  0  0  0
   -3.3494   -6.9855    6.5594 C   0  0  0  0  0  0  0  0  0  0  0  0
   -2.1839   -6.4988    6.6863 O   0  0  0  0  0  0  0  0  0  0  0  0
   -3.6862   -7.6424    5.4909 O   0  0  0  0  0  0  0  0  0  0  0  0
   -4.8978   -8.1526    5.3490 C   0  0  0  0  0  0  0  0  0  0  0  0
   -5.1934   -8.8421    4.1771 C   0  0  0  0  0  0  0  0  0  0  0  0
   -3.8784   -6.1144    8.7414 C   0  0  0  0  0  0  0  0  0  0  0  0
   -4.5513   -4.9914    9.1218 C   0  0  0  0  0  0  0  0  0  0  0  0
   -4.1728   -4.2891   10.2378 C   0  0  0  0  0  0  0  0  0  0  0  0
   -3.1013   -4.7288   10.9764 C   0  0  0  0  0  0  0  0  0  0  0  0
   -2.4176   -5.8680   10.5917 C   0  0  0  0  0  0  0  0  0  0  0  0
   -2.8099   -6.5564    9.4743 C   0  0  0  0  0  0  0  0  0  0  0  0
   -2.0250   -7.7679    9.1224 C   0  0  0  0  0  0  0  0  0  0  0  0
   -2.7152   -4.0121   12.1152 O   0  0  0  0  0  0  0  0  0  0  0  0
   -3.2109   -4.3635   13.4023 C   0  0  0  0  0  0  0  0  0  0  0  0
   -2.5203   -5.4661   13.8409 F   0  0  0  0  0  0  0  0  0  0  0  0
   -3.0208   -3.3057   14.2721 F   0  0  0  0  0  0  0  0  0  0  0  0
   -4.5720   -4.6277   13.3689 F   0  0  0  0  0  0  0  0  0  0  0  0
   -6.6975  -10.0793    2.7768 O   0  0  0  0  0  0  0  0  0  0  0  0
   -7.8165  -11.5101    1.2184 C   0  0  0  0  0  0  0  0  0  0  0  0
   -7.8260  -10.9151    2.6080 C   0  0  0  0  0  0  0  0  0  0  0  0
   -6.5565   -7.2288    8.4017 O   0  0  0  0  0  0  0  0  0  0  0  0
   -7.8997   -7.3165    8.4164 C   0  0  0  0  0  0  0  0  0  0  0  0
   -8.7845   -6.2710    8.4351 C   0  0  0  0  0  0  0  0  0  0  0  0
  -10.1700   -6.4285    8.4542 C   0  0  0  0  0  0  0  0  0  0  0  0
  -10.7284   -7.7031    8.4547 C   0  0  0  0  0  0  0  0  0  0  0  0
   -9.8615   -8.7703    8.4359 C   0  0  0  0  0  0  0  0  0  0  0  0
   -8.4987   -8.5898    8.4174 C   0  0  0  0  0  0  0  0  0  0  0  0
  -12.1739   -7.8433    8.4750 C   0  0  0  0  0  0  0  0  0  0  0  0
  -12.9050   -8.1487    7.4225 C   0  0  0  0  0  0  0  0  0  0  0  0
  -14.3686   -8.2615    7.5753 C   0  0  0  0  0  0  0  0  0  0  0  0
  -15.1191   -7.2671    7.4691 O   0  0  0  0  0  0  0  0  0  0  0  0
  -14.9491   -9.4847    7.8427 O   0  0  0  0  0  0  0  0  0  0  0  0
  -15.5454   -9.9789    7.1690 H   0  0  0  0  0  0  0  0  0  0  0  0
 25 26  1  0  0  0
 26 24  1  0  0  0
 24  1  1  0  0  0
  1  2  2  0  0  0
  2  3  1  0  0  0
  3  4  2  0  0  0
  4  5  1  0  0  0
  5 27  1  0  0  0
 27 28  1  0  0  0
 28 29  2  0  0  0
 29 30  1  0  0  0
 30 31  2  0  0  0
 31 34  1  0  0  0
 34 35  2  0  0  0
 35 36  1  0  0  0
 36 37  2  0  0  0
 36 38  1  0  0  0
 31 32  1  0  0  0
 32 33  2  0  0  0
  5  6  2  0  0  0
  6 12  1  0  0  0
 12 13  2  0  0  0
 13 14  1  0  0  0
 14 15  2  0  0  0
 15 19  1  0  0  0
 19 20  1  0  0  0
 20 21  1  0  0  0
 20 22  1  0  0  0
 20 23  1  0  0  0
 15 16  1  0  0  0
 16 17  2  0  0  0
 17 18  1  0  0  0
  6  7  1  0  0  0
  7  8  2  0  0  0
  7  9  1  0  0  0
  9 10  1  0  0  0
 10 11  2  0  0  0
 11  1  1  0  0  0
 10  4  1  0  0  0
 33 28  1  0  0  0
 17 12  1  0  0  0
 38 39  1  0  0  0
M  END
> <minimizedAffinity>
2.16846

> <CNNscore>
0.3424288929

> <CNNaffinity>
6.3517999649

> <CNN_VS>
2.1750397682

> <CNNaffinity_variance>
0.6772017479

$$$$
[H]OC(=O)/C([H])=C(\[H])c1c([H])c([H])c(Oc2c(-c3c([H])c([H])c(OC(F)(F)F)c([H])c3C([H])([H])[H])c(=O)oc3c([H])c(OC([H])([H])C([H])([H])[H])c([H])c([H])c23)c([H])c1[H]


 39 42  0  0  0  0  0  0  0  0999 V2000
  -10.1642  -10.0932    7.2290 C   0  0  0  0  0  0  0  0  0  0  0  0
  -10.6057   -9.2829    8.2462 C   0  0  0  0  0  0  0  0  0  0  0  0
  -11.7957   -8.6086    8.0816 C   0  0  0  0  0  0  0  0  0  0  0  0
  -12.5525   -8.7221    6.9324 C   0  0  0  0  0  0  0  0  0  0  0  0
  -13.7692   -8.0407    6.7577 C   0  0  0  0  0  0  0  0  0  0  0  0
  -14.4079   -8.2636    5.5551 C   0  0  0  0  0  0  0  0  0  0  0  0
  -13.9096   -9.1007    4.5588 C   0  0  0  0  0  0  0  0  0  0  0  0
  -14.5379   -9.2716    3.4692 O   0  0  0  0  0  0  0  0  0  0  0  0
  -12.7799   -9.7021    4.7798 O   0  0  0  0  0  0  0  0  0  0  0  0
  -12.1182   -9.5311    5.9117 C   0  0  0  0  0  0  0  0  0  0  0  0
  -10.9152  -10.2086    6.0849 C   0  0  0  0  0  0  0  0  0  0  0  0
  -15.6576   -7.5968    5.2536 C   0  0  0  0  0  0  0  0  0  0  0  0
  -16.8304   -8.2754    5.4040 C   0  0  0  0  0  0  0  0  0  0  0  0
  -18.0317   -7.6722    5.1301 C   0  0  0  0  0  0  0  0  0  0  0  0
  -18.0454   -6.3680    4.6992 C   0  0  0  0  0  0  0  0  0  0  0  0
  -16.8562   -5.6783    4.5460 C   0  0  0  0  0  0  0  0  0  0  0  0
  -15.6661   -6.2969    4.8243 C   0  0  0  0  0  0  0  0  0  0  0  0
  -14.4312   -5.4932    4.6328 C   0  0  0  0  0  0  0  0  0  0  0  0
  -19.2713   -5.7527    4.4198 O   0  0  0  0  0  0  0  0  0  0  0  0
  -19.3690   -4.3373    4.3058 C   0  0  0  0  0  0  0  0  0  0  0  0
  -18.7864   -3.7771    5.4156 F   0  0  0  0  0  0  0  0  0  0  0  0
  -18.7116   -3.9223    3.1624 F   0  0  0  0  0  0  0  0  0  0  0  0
  -20.6885   -3.9256    4.1929 F   0  0  0  0  0  0  0  0  0  0  0  0
   -8.9764  -10.7726    7.3798 O   0  0  0  0  0  0  0  0  0  0  0  0
   -7.2602   -9.1272    7.1053 C   0  0  0  0  0  0  0  0  0  0  0  0
   -7.8315  -10.2105    7.9913 C   0  0  0  0  0  0  0  0  0  0  0  0
  -14.1937   -7.2481    7.7566 O   0  0  0  0  0  0  0  0  0  0  0  0
  -13.6548   -6.7166    8.8698 C   0  0  0  0  0  0  0  0  0  0  0  0
  -13.0297   -5.5021    8.9728 C   0  0  0  0  0  0  0  0  0  0  0  0
  -12.4864   -5.0082   10.1583 C   0  0  0  0  0  0  0  0  0  0  0  0
  -12.5615   -5.7591   11.3275 C   0  0  0  0  0  0  0  0  0  0  0  0
  -13.1846   -6.9825   11.2512 C   0  0  0  0  0  0  0  0  0  0  0  0
  -13.7128   -7.4482   10.0704 C   0  0  0  0  0  0  0  0  0  0  0  0
  -11.9886   -5.2249   12.5506 C   0  0  0  0  0  0  0  0  0  0  0  0
  -10.7971   -5.5441   13.0134 C   0  0  0  0  0  0  0  0  0  0  0  0
  -10.3292   -4.9298   14.2712 C   0  0  0  0  0  0  0  0  0  0  0  0
  -11.0987   -4.2784   15.0106 O   0  0  0  0  0  0  0  0  0  0  0  0
   -9.0130   -5.0632   14.6644 O   0  0  0  0  0  0  0  0  0  0  0  0
   -8.7278   -5.6129   15.4830 H   0  0  0  0  0  0  0  0  0  0  0  0
 25 26  1  0  0  0
 26 24  1  0  0  0
 24  1  1  0  0  0
  1  2  2  0  0  0
  2  3  1  0  0  0
  3  4  2  0  0  0
  4  5  1  0  0  0
  5 27  1  0  0  0
 27 28  1  0  0  0
 28 29  2  0  0  0
 29 30  1  0  0  0
 30 31  2  0  0  0
 31 34  1  0  0  0
 34 35  2  0  0  0
 35 36  1  0  0  0
 36 37  2  0  0  0
 36 38  1  0  0  0
 31 32  1  0  0  0
 32 33  2  0  0  0
  5  6  2  0  0  0
  6 12  1  0  0  0
 12 13  2  0  0  0
 13 14  1  0  0  0
 14 15  2  0  0  0
 15 19  1  0  0  0
 19 20  1  0  0  0
 20 21  1  0  0  0
 20 22  1  0  0  0
 20 23  1  0  0  0
 15 16  1  0  0  0
 16 17  2  0  0  0
 17 18  1  0  0  0
  6  7  1  0  0  0
  7  8  2  0  0  0
  7  9  1  0  0  0
  9 10  1  0  0  0
 10 11  2  0  0  0
 11  1  1  0  0  0
 10  4  1  0  0  0
 33 28  1  0  0  0
 17 12  1  0  0  0
 38 39  1  0  0  0
M  END
> <minimizedAffinity>
-1.57410

> <CNNscore>
0.3211224973

> <CNNaffinity>
7.0747680664

> <CNN_VS>
2.2718672752

> <CNNaffinity_variance>
0.5242311358

$$$$
[H]N=C(c1c([H])c([H])c([H])c(Oc2c([H])c([H])c(N([H])[H])c([H])c2C(=O)N([H])c2c([H])c([H])c(-c3c([H])c([H])c([H])c([H])c3S(=O)(=O)N([H])[H])c([H])c2[H])c1[H])N([H])[H]


 44 47  0  0  0  0  0  0  0  0999 V2000
   -9.7561   -8.8674    7.4284 C   0  0  0  0  0  0  0  0  0  0  0  0
  -10.8679   -9.5428    6.8638 C   0  0  0  0  0  0  0  0  0  0  0  0
  -10.7175  -10.7964    6.3346 C   0  0  0  0  0  0  0  0  0  0  0  0
   -9.4704  -11.3684    6.3677 C   0  0  0  0  0  0  0  0  0  0  0  0
   -9.3365  -12.6601    5.8020 N   0  0  0  0  0  0  0  0  0  0  0  0
   -8.3972  -10.7163    6.9198 C   0  0  0  0  0  0  0  0  0  0  0  0
   -8.5308   -9.4051    7.4872 C   0  0  0  0  0  0  0  0  0  0  0  0
   -8.8350  -13.4101    6.2874 H   0  0  0  0  0  0  0  0  0  0  0  0
   -9.7625  -12.8056    4.8726 H   0  0  0  0  0  0  0  0  0  0  0  0
   -7.4055   -9.0092    8.3769 C   0  0  0  0  0  0  0  0  0  0  0  0
   -7.3688   -9.7945    9.4141 O   0  0  0  0  0  0  0  0  0  0  0  0
   -6.5167   -8.0459    8.2488 N   0  0  0  0  0  0  0  0  0  0  0  0
   -5.7297   -8.6849    9.2020 H   0  0  0  0  0  0  0  0  0  0  0  0
   -5.5857   -7.0370    8.1145 C   0  0  0  0  0  0  0  0  0  0  0  0
   -6.0257   -5.7085    7.9083 C   0  0  0  0  0  0  0  0  0  0  0  0
   -5.1427   -4.6769    7.6840 C   0  0  0  0  0  0  0  0  0  0  0  0
   -3.7888   -4.8939    7.6511 C   0  0  0  0  0  0  0  0  0  0  0  0
   -3.3334   -6.1710    7.8526 C   0  0  0  0  0  0  0  0  0  0  0  0
   -4.2123   -7.2165    8.0788 C   0  0  0  0  0  0  0  0  0  0  0  0
   -2.8353   -3.8454    7.3678 C   0  0  0  0  0  0  0  0  0  0  0  0
   -2.2314   -3.1260    8.3818 C   0  0  0  0  0  0  0  0  0  0  0  0
   -1.3529   -2.1049    8.1234 C   0  0  0  0  0  0  0  0  0  0  0  0
   -1.0632   -1.7854    6.8148 C   0  0  0  0  0  0  0  0  0  0  0  0
   -1.6501   -2.4869    5.7974 C   0  0  0  0  0  0  0  0  0  0  0  0
   -2.5390   -3.5223    6.0663 C   0  0  0  0  0  0  0  0  0  0  0  0
   -3.2089   -4.3736    4.7366 S   0  0  0  0  0  0  0  0  0  0  0  0
   -2.4998   -3.7509    3.2586 N   0  0  0  0  0  0  0  0  0  0  0  0
   -4.6810   -4.0256    4.5917 O   0  0  0  0  0  0  0  0  0  0  0  0
   -2.9953   -5.8592    4.7706 O   0  0  0  0  0  0  0  0  0  0  0  0
   -2.8588   -2.7962    3.0465 H   0  0  0  0  0  0  0  0  0  0  0  0
   -1.4737   -3.6991    3.3699 H   0  0  0  0  0  0  0  0  0  0  0  0
  -10.0266   -7.5665    7.9152 O   0  0  0  0  0  0  0  0  0  0  0  0
  -12.6325   -6.0750   10.0090 C   0  0  0  0  0  0  0  0  0  0  0  0
  -13.5219   -7.1175   10.1663 C   0  0  0  0  0  0  0  0  0  0  0  0
  -13.3105   -8.3472    9.5949 C   0  0  0  0  0  0  0  0  0  0  0  0
  -12.1381   -8.5000    8.8357 C   0  0  0  0  0  0  0  0  0  0  0  0
  -11.2364   -7.5240    8.6491 C   0  0  0  0  0  0  0  0  0  0  0  0
  -11.5000   -6.2659    9.2605 C   0  0  0  0  0  0  0  0  0  0  0  0
  -12.6228   -3.6549   10.0939 N   0  0  0  0  0  0  0  0  0  0  0  0
  -12.8711   -4.7706   10.6394 C   0  0  0  0  0  0  0  0  0  0  0  0
  -13.4011   -4.7565   11.9567 N   0  0  0  0  0  0  0  0  0  0  0  0
  -12.2460   -3.4427    9.1720 H   0  0  0  0  0  0  0  0  0  0  0  0
  -12.7603   -4.3718   12.6979 H   0  0  0  0  0  0  0  0  0  0  0  0
  -14.3269   -5.0778   12.2532 H   0  0  0  0  0  0  0  0  0  0  0  0
 39 40  2  0  0  0
 40 41  1  0  0  0
 40 33  1  0  0  0
 33 34  2  0  0  0
 34 35  1  0  0  0
 35 36  2  0  0  0
 36 37  1  0  0  0
 37 32  1  0  0  0
 32  1  1  0  0  0
  1  2  2  0  0  0
  2  3  1  0  0  0
  3  4  2  0  0  0
  4  5  1  0  0  0
  4  6  1  0  0  0
  6  7  2  0  0  0
  7 10  1  0  0  0
 10 11  2  0  0  0
 10 12  1  0  0  0
 12 14  1  0  0  0
 14 15  2  0  0  0
 15 16  1  0  0  0
 16 17  2  0  0  0
 17 20  1  0  0  0
 20 21  2  0  0  0
 21 22  1  0  0  0
 22 23  2  0  0  0
 23 24  1  0  0  0
 24 25  2  0  0  0
 25 26  1  0  0  0
 26 27  1  0  0  0
 26 28  2  0  0  0
 26 29  2  0  0  0
 17 18  1  0  0  0
 18 19  2  0  0  0
 37 38  2  0  0  0
 38 33  1  0  0  0
  7  1  1  0  0  0
 19 14  1  0  0  0
 25 20  1  0  0  0
 39 42  1  0  0  0
 41 43  1  0  0  0
 41 44  1  0  0  0
  5  8  1  0  0  0
  5  9  1  0  0  0
 12 13  1  0  0  0
 27 30  1  0  0  0
 27 31  1  0  0  0
M  END
> <minimizedAffinity>
0.64833

> <CNNscore>
0.3874297440

> <CNNaffinity>
6.5009818077

> <CNN_VS>
2.5186736584

> <CNNaffinity_variance>
1.4021797180

$$$$
[H]N=C(c1c([H])c([H])c([H])c(Oc2c([H])c([H])c(N([H])[H])c([H])c2C(=O)N([H])c2c([H])c([H])c(-c3c([H])c([H])c([H])c([H])c3S(=O)(=O)N([H])[H])c([H])c2[H])c1[H])N([H])[H]


 44 47  0  0  0  0  0  0  0  0999 V2000
  -11.5640   -7.9980    8.2511 C   0  0  0  0  0  0  0  0  0  0  0  0
  -12.9540   -7.8949    8.5122 C   0  0  0  0  0  0  0  0  0  0  0  0
  -13.8475   -8.6490    7.8000 C   0  0  0  0  0  0  0  0  0  0  0  0
  -13.3582   -9.4955    6.8370 C   0  0  0  0  0  0  0  0  0  0  0  0
  -14.3026  -10.2554    6.1039 N   0  0  0  0  0  0  0  0  0  0  0  0
  -12.0128   -9.5989    6.5899 C   0  0  0  0  0  0  0  0  0  0  0  0
  -11.0561   -8.8246    7.3277 C   0  0  0  0  0  0  0  0  0  0  0  0
  -14.1740  -11.2583    5.9393 H   0  0  0  0  0  0  0  0  0  0  0  0
  -15.1226   -9.7462    5.7368 H   0  0  0  0  0  0  0  0  0  0  0  0
   -9.6586   -9.3261    7.2258 C   0  0  0  0  0  0  0  0  0  0  0  0
   -9.6548  -10.6269    7.2682 O   0  0  0  0  0  0  0  0  0  0  0  0
   -8.5244   -8.6681    7.1036 N   0  0  0  0  0  0  0  0  0  0  0  0
   -7.9189   -9.8481    6.6826 H   0  0  0  0  0  0  0  0  0  0  0  0
   -7.3364   -7.9789    6.9756 C   0  0  0  0  0  0  0  0  0  0  0  0
   -6.4895   -7.8392    8.1000 C   0  0  0  0  0  0  0  0  0  0  0  0
   -5.3349   -7.0917    8.0519 C   0  0  0  0  0  0  0  0  0  0  0  0
   -4.9529   -6.4461    6.9037 C   0  0  0  0  0  0  0  0  0  0  0  0
   -5.7520   -6.5678    5.7967 C   0  0  0  0  0  0  0  0  0  0  0  0
   -6.9158   -7.3168    5.8335 C   0  0  0  0  0  0  0  0  0  0  0  0
   -3.7752   -5.6114    6.8307 C   0  0  0  0  0  0  0  0  0  0  0  0
   -3.8658   -4.2324    6.8505 C   0  0  0  0  0  0  0  0  0  0  0  0
   -2.7580   -3.4307    6.7451 C   0  0  0  0  0  0  0  0  0  0  0  0
   -1.5174   -4.0159    6.6152 C   0  0  0  0  0  0  0  0  0  0  0  0
   -1.4073   -5.3794    6.5947 C   0  0  0  0  0  0  0  0  0  0  0  0
   -2.5347   -6.1867    6.7034 C   0  0  0  0  0  0  0  0  0  0  0  0
   -2.3102   -7.8871    6.7005 S   0  0  0  0  0  0  0  0  0  0  0  0
   -1.0613   -8.2849    5.5357 N   0  0  0  0  0  0  0  0  0  0  0  0
   -3.5453   -8.5682    6.1351 O   0  0  0  0  0  0  0  0  0  0  0  0
   -1.9186   -8.4707    8.0272 O   0  0  0  0  0  0  0  0  0  0  0  0
   -1.4066   -8.1582    4.5611 H   0  0  0  0  0  0  0  0  0  0  0  0
   -0.2503   -7.6610    5.6810 H   0  0  0  0  0  0  0  0  0  0  0  0
  -10.7415   -7.1477    9.0276 O   0  0  0  0  0  0  0  0  0  0  0  0
  -11.5565   -5.4411   12.1618 C   0  0  0  0  0  0  0  0  0  0  0  0
  -12.7592   -4.8336   11.8667 C   0  0  0  0  0  0  0  0  0  0  0  0
  -13.3520   -4.9528   10.6347 C   0  0  0  0  0  0  0  0  0  0  0  0
  -12.6748   -5.7275    9.6780 C   0  0  0  0  0  0  0  0  0  0  0  0
  -11.5047   -6.3430    9.9075 C   0  0  0  0  0  0  0  0  0  0  0  0
  -10.9284   -6.1890   11.1998 C   0  0  0  0  0  0  0  0  0  0  0  0
  -11.4424   -4.6454   14.4461 N   0  0  0  0  0  0  0  0  0  0  0  0
  -10.9452   -5.3115   13.4904 C   0  0  0  0  0  0  0  0  0  0  0  0
   -9.7042   -5.9632   13.7170 N   0  0  0  0  0  0  0  0  0  0  0  0
  -12.3075   -4.1106   14.4951 H   0  0  0  0  0  0  0  0  0  0  0  0
   -8.8844   -5.3266   13.8922 H   0  0  0  0  0  0  0  0  0  0  0  0
   -9.5291   -6.9719   13.7264 H   0  0  0  0  0  0  0  0  0  0  0  0
 39 40  2  0  0  0
 40 41  1  0  0  0
 40 33  1  0  0  0
 33 34  2  0  0  0
 34 35  1  0  0  0
 35 36  2  0  0  0
 36 37  1  0  0  0
 37 32  1  0  0  0
 32  1  1  0  0  0
  1  2  2  0  0  0
  2  3  1  0  0  0
  3  4  2  0  0  0
  4  5  1  0  0  0
  4  6  1  0  0  0
  6  7  2  0  0  0
  7 10  1  0  0  0
 10 11  2  0  0  0
 10 12  1  0  0  0
 12 14  1  0  0  0
 14 15  2  0  0  0
 15 16  1  0  0  0
 16 17  2  0  0  0
 17 20  1  0  0  0
 20 21  2  0  0  0
 21 22  1  0  0  0
 22 23  2  0  0  0
 23 24  1  0  0  0
 24 25  2  0  0  0
 25 26  1  0  0  0
 26 27  1  0  0  0
 26 28  2  0  0  0
 26 29  2  0  0  0
 17 18  1  0  0  0
 18 19  2  0  0  0
 37 38  2  0  0  0
 38 33  1  0  0  0
  7  1  1  0  0  0
 19 14  1  0  0  0
 25 20  1  0  0  0
 39 42  1  0  0  0
 41 43  1  0  0  0
 41 44  1  0  0  0
  5  8  1  0  0  0
  5  9  1  0  0  0
 12 13  1  0  0  0
 27 30  1  0  0  0
 27 31  1  0  0  0
M  END
> <minimizedAffinity>
-4.21691

> <CNNscore>
0.3196886182

> <CNNaffinity>
6.6468620300

> <CNN_VS>
2.1249260902

> <CNNaffinity_variance>
0.1245932728

$$$$
[H]N=C(c1c([H])c([H])c([H])c(Oc2c([H])c([H])c(N([H])[H])c([H])c2C(=O)N([H])c2c([H])c([H])c(-c3c([H])c([H])c([H])c([H])c3S(=O)(=O)N([H])[H])c([H])c2[H])c1[H])N([H])[H]


 44 47  0  0  0  0  0  0  0  0999 V2000
   -7.8931   -8.3063    7.9953 C   0  0  0  0  0  0  0  0  0  0  0  0
   -6.5158   -8.5574    7.7693 C   0  0  0  0  0  0  0  0  0  0  0  0
   -5.7290   -7.6058    7.1780 C   0  0  0  0  0  0  0  0  0  0  0  0
   -6.3116   -6.4174    6.8152 C   0  0  0  0  0  0  0  0  0  0  0  0
   -5.4808   -5.4536    6.1928 N   0  0  0  0  0  0  0  0  0  0  0  0
   -7.6427   -6.1735    7.0401 C   0  0  0  0  0  0  0  0  0  0  0  0
   -8.4863   -7.1519    7.6647 C   0  0  0  0  0  0  0  0  0  0  0  0
   -5.4905   -4.4701    6.4795 H   0  0  0  0  0  0  0  0  0  0  0  0
   -4.8710   -5.7903    5.4303 H   0  0  0  0  0  0  0  0  0  0  0  0
   -9.7684   -6.6058    8.1872 C   0  0  0  0  0  0  0  0  0  0  0  0
   -9.5375   -5.8727    9.2374 O   0  0  0  0  0  0  0  0  0  0  0  0
  -11.0008   -6.7585    7.7489 N   0  0  0  0  0  0  0  0  0  0  0  0
  -11.3763   -5.6536    8.5067 H   0  0  0  0  0  0  0  0  0  0  0  0
  -12.2916   -6.9185    7.2897 C   0  0  0  0  0  0  0  0  0  0  0  0
  -12.5103   -7.5070    6.0221 C   0  0  0  0  0  0  0  0  0  0  0  0
  -13.7700   -7.6145    5.4782 C   0  0  0  0  0  0  0  0  0  0  0  0
  -14.8752   -7.1530    6.1466 C   0  0  0  0  0  0  0  0  0  0  0  0
  -14.6937   -6.5822    7.3796 C   0  0  0  0  0  0  0  0  0  0  0  0
  -13.4313   -6.4684    7.9365 C   0  0  0  0  0  0  0  0  0  0  0  0
  -16.2060   -7.2024    5.5852 C   0  0  0  0  0  0  0  0  0  0  0  0
  -17.0621   -8.2549    5.8496 C   0  0  0  0  0  0  0  0  0  0  0  0
  -18.3134   -8.3300    5.2932 C   0  0  0  0  0  0  0  0  0  0  0  0
  -18.7307   -7.3275    4.4450 C   0  0  0  0  0  0  0  0  0  0  0  0
  -17.8980   -6.2769    4.1720 C   0  0  0  0  0  0  0  0  0  0  0  0
  -16.6307   -6.2061    4.7408 C   0  0  0  0  0  0  0  0  0  0  0  0
  -15.6587   -4.8415    4.3733 S   0  0  0  0  0  0  0  0  0  0  0  0
  -16.4721   -3.8891    3.1461 N   0  0  0  0  0  0  0  0  0  0  0  0
  -14.3834   -5.2901    3.6793 O   0  0  0  0  0  0  0  0  0  0  0  0
  -15.3638   -3.9478    5.5429 O   0  0  0  0  0  0  0  0  0  0  0  0
  -16.4449   -4.3699    2.2223 H   0  0  0  0  0  0  0  0  0  0  0  0
  -17.4601   -3.7564    3.4187 H   0  0  0  0  0  0  0  0  0  0  0  0
   -8.6105   -9.3746    8.5839 O   0  0  0  0  0  0  0  0  0  0  0  0
  -12.0921  -10.0860    7.7054 C   0  0  0  0  0  0  0  0  0  0  0  0
  -11.9823  -10.5686    6.4179 C   0  0  0  0  0  0  0  0  0  0  0  0
  -10.7707  -10.6794    5.7828 C   0  0  0  0  0  0  0  0  0  0  0  0
   -9.6365  -10.2763    6.5074 C   0  0  0  0  0  0  0  0  0  0  0  0
   -9.6809   -9.8013    7.7615 C   0  0  0  0  0  0  0  0  0  0  0  0
  -10.9603   -9.7038    8.3778 C   0  0  0  0  0  0  0  0  0  0  0  0
  -14.5002  -10.3050    7.8369 N   0  0  0  0  0  0  0  0  0  0  0  0
  -13.3968   -9.9875    8.3716 C   0  0  0  0  0  0  0  0  0  0  0  0
  -13.4282   -9.4872    9.7001 N   0  0  0  0  0  0  0  0  0  0  0  0
  -14.6993  -10.6767    6.9100 H   0  0  0  0  0  0  0  0  0  0  0  0
  -13.9205   -8.5653    9.8247 H   0  0  0  0  0  0  0  0  0  0  0  0
  -13.0267   -9.9247   10.5342 H   0  0  0  0  0  0  0  0  0  0  0  0
 39 40  2  0  0  0
 40 41  1  0  0  0
 40 33  1  0  0  0
 33 34  2  0  0  0
 34 35  1  0  0  0
 35 36  2  0  0  0
 36 37  1  0  0  0
 37 32  1  0  0  0
 32  1  1  0  0  0
  1  2  2  0  0  0
  2  3  1  0  0  0
  3  4  2  0  0  0
  4  5  1  0  0  0
  4  6  1  0  0  0
  6  7  2  0  0  0
  7 10  1  0  0  0
 10 11  2  0  0  0
 10 12  1  0  0  0
 12 14  1  0  0  0
 14 15  2  0  0  0
 15 16  1  0  0  0
 16 17  2  0  0  0
 17 20  1  0  0  0
 20 21  2  0  0  0
 21 22  1  0  0  0
 22 23  2  0  0  0
 23 24  1  0  0  0
 24 25  2  0  0  0
 25 26  1  0  0  0
 26 27  1  0  0  0
 26 28  2  0  0  0
 26 29  2  0  0  0
 17 18  1  0  0  0
 18 19  2  0  0  0
 37 38  2  0  0  0
 38 33  1  0  0  0
  7  1  1  0  0  0
 19 14  1  0  0  0
 25 20  1  0  0  0
 39 42  1  0  0  0
 41 43  1  0  0  0
 41 44  1  0  0  0
  5  8  1  0  0  0
  5  9  1  0  0  0
 12 13  1  0  0  0
 27 30  1  0  0  0
 27 31  1  0  0  0
M  END
> <minimizedAffinity>
-1.13342

> <CNNscore>
0.2860983312

> <CNNaffinity>
6.9620757103

> <CNN_VS>
1.9918382168

> <CNNaffinity_variance>
0.1793999225

$$$$
[H]N=C(c1c([H])c([H])c([H])c(Oc2c([H])c([H])c(N([H])[H])c([H])c2C(=O)N([H])c2c([H])c([H])c(-c3c([H])c([H])c([H])c([H])c3S(=O)(=O)N([H])[H])c([H])c2[H])c1[H])N([H])[H]


 44 47  0  0  0  0  0  0  0  0999 V2000
  -12.1837   -7.7811    8.0997 C   0  0  0  0  0  0  0  0  0  0  0  0
  -13.5164   -7.3383    8.2966 C   0  0  0  0  0  0  0  0  0  0  0  0
  -14.5119   -7.7496    7.4516 C   0  0  0  0  0  0  0  0  0  0  0  0
  -14.1798   -8.5926    6.4208 C   0  0  0  0  0  0  0  0  0  0  0  0
  -15.2240   -8.9936    5.5518 N   0  0  0  0  0  0  0  0  0  0  0  0
  -12.8913   -9.0251    6.2354 C   0  0  0  0  0  0  0  0  0  0  0  0
  -11.8318   -8.6140    7.1116 C   0  0  0  0  0  0  0  0  0  0  0  0
  -15.3462   -9.9722    5.2741 H   0  0  0  0  0  0  0  0  0  0  0  0
  -15.8507   -8.2494    5.2056 H   0  0  0  0  0  0  0  0  0  0  0  0
  -10.6084   -9.4568    7.0247 C   0  0  0  0  0  0  0  0  0  0  0  0
  -10.9450  -10.7087    6.9096 O   0  0  0  0  0  0  0  0  0  0  0  0
   -9.3364   -9.1162    7.0438 N   0  0  0  0  0  0  0  0  0  0  0  0
   -9.0240  -10.3653    6.5162 H   0  0  0  0  0  0  0  0  0  0  0  0
   -8.0041   -8.7595    7.0639 C   0  0  0  0  0  0  0  0  0  0  0  0
   -7.2812   -8.7045    5.8492 C   0  0  0  0  0  0  0  0  0  0  0  0
   -5.9315   -8.4372    5.8181 C   0  0  0  0  0  0  0  0  0  0  0  0
   -5.2244   -8.2106    6.9713 C   0  0  0  0  0  0  0  0  0  0  0  0
   -5.9002   -8.2528    8.1631 C   0  0  0  0  0  0  0  0  0  0  0  0
   -7.2577   -8.5210    8.2066 C   0  0  0  0  0  0  0  0  0  0  0  0
   -3.7981   -7.9778    6.9812 C   0  0  0  0  0  0  0  0  0  0  0  0
   -2.8980   -9.0183    7.1139 C   0  0  0  0  0  0  0  0  0  0  0  0
   -1.5440   -8.8051    7.1611 C   0  0  0  0  0  0  0  0  0  0  0  0
   -1.0653   -7.5159    7.0743 C   0  0  0  0  0  0  0  0  0  0  0  0
   -1.9406   -6.4729    6.9414 C   0  0  0  0  0  0  0  0  0  0  0  0
   -3.3126   -6.6962    6.8928 C   0  0  0  0  0  0  0  0  0  0  0  0
   -4.3422   -5.3390    6.6939 S   0  0  0  0  0  0  0  0  0  0  0  0
   -3.4185   -3.8836    7.0153 N   0  0  0  0  0  0  0  0  0  0  0  0
   -5.3991   -5.3305    7.7857 O   0  0  0  0  0  0  0  0  0  0  0  0
   -4.9583   -5.2130    5.3306 O   0  0  0  0  0  0  0  0  0  0  0  0
   -3.2108   -3.7909    8.0319 H   0  0  0  0  0  0  0  0  0  0  0  0
   -2.5239   -3.9284    6.4997 H   0  0  0  0  0  0  0  0  0  0  0  0
  -11.2370   -7.2652    9.0163 O   0  0  0  0  0  0  0  0  0  0  0  0
  -11.5817   -5.4548   12.1790 C   0  0  0  0  0  0  0  0  0  0  0  0
  -12.7594   -4.7599   11.9982 C   0  0  0  0  0  0  0  0  0  0  0  0
  -13.4873   -4.8505   10.8383 C   0  0  0  0  0  0  0  0  0  0  0  0
  -12.9766   -5.6895    9.8337 C   0  0  0  0  0  0  0  0  0  0  0  0
  -11.8389   -6.3908    9.9529 C   0  0  0  0  0  0  0  0  0  0  0  0
  -11.1182   -6.2633   11.1737 C   0  0  0  0  0  0  0  0  0  0  0  0
   -9.7614   -5.9959   13.6816 N   0  0  0  0  0  0  0  0  0  0  0  0
  -10.8244   -5.3540   13.4329 C   0  0  0  0  0  0  0  0  0  0  0  0
  -11.3246   -4.4908   14.4434 N   0  0  0  0  0  0  0  0  0  0  0  0
   -9.2420   -6.6566   13.1065 H   0  0  0  0  0  0  0  0  0  0  0  0
  -11.6451   -4.9659   15.3262 H   0  0  0  0  0  0  0  0  0  0  0  0
  -11.4042   -3.4709   14.4004 H   0  0  0  0  0  0  0  0  0  0  0  0
 39 40  2  0  0  0
 40 41  1  0  0  0
 40 33  1  0  0  0
 33 34  2  0  0  0
 34 35  1  0  0  0
 35 36  2  0  0  0
 36 37  1  0  0  0
 37 32  1  0  0  0
 32  1  1  0  0  0
  1  2  2  0  0  0
  2  3  1  0  0  0
  3  4  2  0  0  0
  4  5  1  0  0  0
  4  6  1  0  0  0
  6  7  2  0  0  0
  7 10  1  0  0  0
 10 11  2  0  0  0
 10 12  1  0  0  0
 12 14  1  0  0  0
 14 15  2  0  0  0
 15 16  1  0  0  0
 16 17  2  0  0  0
 17 20  1  0  0  0
 20 21  2  0  0  0
 21 22  1  0  0  0
 22 23  2  0  0  0
 23 24  1  0  0  0
 24 25  2  0  0  0
 25 26  1  0  0  0
 26 27  1  0  0  0
 26 28  2  0  0  0
 26 29  2  0  0  0
 17 18  1  0  0  0
 18 19  2  0  0  0
 37 38  2  0  0  0
 38 33  1  0  0  0
  7  1  1  0  0  0
 19 14  1  0  0  0
 25 20  1  0  0  0
 39 42  1  0  0  0
 41 43  1  0  0  0
 41 44  1  0  0  0
  5  8  1  0  0  0
  5  9  1  0  0  0
 12 13  1  0  0  0
 27 30  1  0  0  0
 27 31  1  0  0  0
M  END
> <minimizedAffinity>
-4.12927

> <CNNscore>
0.2769923508

> <CNNaffinity>
6.5338735580

> <CNN_VS>
1.8098330498

> <CNNaffinity_variance>
0.2545705438

$$$$
[H]N=C(c1c([H])c([H])c([H])c(Oc2c([H])c([H])c(N([H])[H])c([H])c2C(=O)N([H])c2c([H])c([H])c(-c3c([H])c([H])c([H])c([H])c3S(=O)(=O)N([H])[H])c([H])c2[H])c1[H])N([H])[H]


 44 47  0  0  0  0  0  0  0  0999 V2000
  -13.0695   -7.9606    7.9178 C   0  0  0  0  0  0  0  0  0  0  0  0
  -14.0135   -9.0091    8.0603 C   0  0  0  0  0  0  0  0  0  0  0  0
  -13.6147  -10.3148    7.9607 C   0  0  0  0  0  0  0  0  0  0  0  0
  -12.2880  -10.5705    7.7200 C   0  0  0  0  0  0  0  0  0  0  0  0
  -11.9015  -11.9286    7.6073 N   0  0  0  0  0  0  0  0  0  0  0  0
  -11.3747   -9.5554    7.5885 C   0  0  0  0  0  0  0  0  0  0  0  0
  -11.7668   -8.1792    7.6961 C   0  0  0  0  0  0  0  0  0  0  0  0
  -11.0771  -12.2949    8.0929 H   0  0  0  0  0  0  0  0  0  0  0  0
  -12.4873  -12.5289    7.0049 H   0  0  0  0  0  0  0  0  0  0  0  0
  -10.6352   -7.2398    7.9237 C   0  0  0  0  0  0  0  0  0  0  0  0
  -11.0766   -6.1459    8.4735 O   0  0  0  0  0  0  0  0  0  0  0  0
   -9.3514   -7.3737    7.6623 N   0  0  0  0  0  0  0  0  0  0  0  0
   -9.0941   -6.3177    8.5313 H   0  0  0  0  0  0  0  0  0  0  0  0
   -8.0067   -7.5138    7.3886 C   0  0  0  0  0  0  0  0  0  0  0  0
   -7.0665   -7.3777    8.4367 C   0  0  0  0  0  0  0  0  0  0  0  0
   -5.7103   -7.4239    8.2070 C   0  0  0  0  0  0  0  0  0  0  0  0
   -5.2085   -7.6055    6.9435 C   0  0  0  0  0  0  0  0  0  0  0  0
   -6.0968   -7.7453    5.9089 C   0  0  0  0  0  0  0  0  0  0  0  0
   -7.4630   -7.7003    6.1279 C   0  0  0  0  0  0  0  0  0  0  0  0
   -3.7919   -7.6081    6.6574 C   0  0  0  0  0  0  0  0  0  0  0  0
   -3.0530   -8.7759    6.6813 C   0  0  0  0  0  0  0  0  0  0  0  0
   -1.7016   -8.7846    6.4472 C   0  0  0  0  0  0  0  0  0  0  0  0
   -1.0601   -7.5947    6.1805 C   0  0  0  0  0  0  0  0  0  0  0  0
   -1.7747   -6.4285    6.1514 C   0  0  0  0  0  0  0  0  0  0  0  0
   -3.1453   -6.4267    6.3883 C   0  0  0  0  0  0  0  0  0  0  0  0
   -3.9748   -4.9279    6.3034 S   0  0  0  0  0  0  0  0  0  0  0  0
   -2.8172   -3.6684    5.9182 N   0  0  0  0  0  0  0  0  0  0  0  0
   -4.4713   -4.5357    7.6850 O   0  0  0  0  0  0  0  0  0  0  0  0
   -5.0787   -4.8783    5.2872 O   0  0  0  0  0  0  0  0  0  0  0  0
   -2.1958   -3.4721    6.7310 H   0  0  0  0  0  0  0  0  0  0  0  0
   -2.2321   -3.9763    5.1239 H   0  0  0  0  0  0  0  0  0  0  0  0
  -13.6039   -6.6535    8.0091 O   0  0  0  0  0  0  0  0  0  0  0  0
  -15.2701   -5.2735    5.0563 C   0  0  0  0  0  0  0  0  0  0  0  0
  -16.5215   -5.8497    5.1233 C   0  0  0  0  0  0  0  0  0  0  0  0
  -16.8725   -6.7128    6.1309 C   0  0  0  0  0  0  0  0  0  0  0  0
  -15.8932   -6.9867    7.1004 C   0  0  0  0  0  0  0  0  0  0  0  0
  -14.6611   -6.4555    7.0885 C   0  0  0  0  0  0  0  0  0  0  0  0
  -14.3433   -5.5670    6.0228 C   0  0  0  0  0  0  0  0  0  0  0  0
  -15.6450   -3.3759    3.5994 N   0  0  0  0  0  0  0  0  0  0  0  0
  -14.9187   -4.3425    3.9768 C   0  0  0  0  0  0  0  0  0  0  0  0
  -13.6889   -4.5471    3.2971 N   0  0  0  0  0  0  0  0  0  0  0  0
  -16.5488   -3.0582    3.9445 H   0  0  0  0  0  0  0  0  0  0  0  0
  -13.7720   -4.8154    2.2827 H   0  0  0  0  0  0  0  0  0  0  0  0
  -12.7462   -4.4624    3.6875 H   0  0  0  0  0  0  0  0  0  0  0  0
 39 40  2  0  0  0
 40 41  1  0  0  0
 40 33  1  0  0  0
 33 34  2  0  0  0
 34 35  1  0  0  0
 35 36  2  0  0  0
 36 37  1  0  0  0
 37 32  1  0  0  0
 32  1  1  0  0  0
  1  2  2  0  0  0
  2  3  1  0  0  0
  3  4  2  0  0  0
  4  5  1  0  0  0
  4  6  1  0  0  0
  6  7  2  0  0  0
  7 10  1  0  0  0
 10 11  2  0  0  0
 10 12  1  0  0  0
 12 14  1  0  0  0
 14 15  2  0  0  0
 15 16  1  0  0  0
 16 17  2  0  0  0
 17 20  1  0  0  0
 20 21  2  0  0  0
 21 22  1  0  0  0
 22 23  2  0  0  0
 23 24  1  0  0  0
 24 25  2  0  0  0
 25 26  1  0  0  0
 26 27  1  0  0  0
 26 28  2  0  0  0
 26 29  2  0  0  0
 17 18  1  0  0  0
 18 19  2  0  0  0
 37 38  2  0  0  0
 38 33  1  0  0  0
  7  1  1  0  0  0
 19 14  1  0  0  0
 25 20  1  0  0  0
 39 42  1  0  0  0
 41 43  1  0  0  0
 41 44  1  0  0  0
  5  8  1  0  0  0
  5  9  1  0  0  0
 12 13  1  0  0  0
 27 30  1  0  0  0
 27 31  1  0  0  0
M  END
> <minimizedAffinity>
-1.68768

> <CNNscore>
0.2646621466

> <CNNaffinity>
6.6840996742

> <CNN_VS>
1.7690281868

> <CNNaffinity_variance>
0.6334018707

$$$$
[H]N=C(c1c([H])c([H])c([H])c(Oc2c([H])c([H])c(N([H])[H])c([H])c2C(=O)N([H])c2c([H])c([H])c(-c3c([H])c([H])c([H])c([H])c3S(=O)(=O)N([H])[H])c([H])c2[H])c1[H])N([H])[H]


 44 47  0  0  0  0  0  0  0  0999 V2000
  -11.7163   -7.6572    7.3459 C   0  0  0  0  0  0  0  0  0  0  0  0
  -13.1191   -7.4937    7.2179 C   0  0  0  0  0  0  0  0  0  0  0  0
  -13.8452   -8.3515    6.4362 C   0  0  0  0  0  0  0  0  0  0  0  0
  -13.1775   -9.3605    5.7884 C   0  0  0  0  0  0  0  0  0  0  0  0
  -13.9478  -10.2270    4.9746 N   0  0  0  0  0  0  0  0  0  0  0  0
  -11.8213   -9.5212    5.9181 C   0  0  0  0  0  0  0  0  0  0  0  0
  -11.0395   -8.6398    6.7372 C   0  0  0  0  0  0  0  0  0  0  0  0
  -13.8388  -11.2447    5.0195 H   0  0  0  0  0  0  0  0  0  0  0  0
  -14.6186   -9.7814    4.3281 H   0  0  0  0  0  0  0  0  0  0  0  0
   -9.6922   -9.1673    7.0854 C   0  0  0  0  0  0  0  0  0  0  0  0
   -9.7880  -10.4155    7.4411 O   0  0  0  0  0  0  0  0  0  0  0  0
   -8.5162   -8.5747    7.0729 N   0  0  0  0  0  0  0  0  0  0  0  0
   -7.9159   -9.8297    7.1017 H   0  0  0  0  0  0  0  0  0  0  0  0
   -7.2844   -7.9541    7.0598 C   0  0  0  0  0  0  0  0  0  0  0  0
   -6.5539   -7.8342    8.2653 C   0  0  0  0  0  0  0  0  0  0  0  0
   -5.3604   -7.1516    8.3271 C   0  0  0  0  0  0  0  0  0  0  0  0
   -4.8240   -6.5546    7.2150 C   0  0  0  0  0  0  0  0  0  0  0  0
   -5.5079   -6.6587    6.0316 C   0  0  0  0  0  0  0  0  0  0  0  0
   -6.7093   -7.3425    5.9575 C   0  0  0  0  0  0  0  0  0  0  0  0
   -3.6000   -5.7869    7.2529 C   0  0  0  0  0  0  0  0  0  0  0  0
   -3.6102   -4.4235    7.4798 C   0  0  0  0  0  0  0  0  0  0  0  0
   -2.4580   -3.6795    7.4817 C   0  0  0  0  0  0  0  0  0  0  0  0
   -1.2540   -4.3083    7.2504 C   0  0  0  0  0  0  0  0  0  0  0  0
   -1.2235   -5.6573    7.0250 C   0  0  0  0  0  0  0  0  0  0  0  0
   -2.3955   -6.4063    7.0258 C   0  0  0  0  0  0  0  0  0  0  0  0
   -2.2704   -8.0971    6.7660 S   0  0  0  0  0  0  0  0  0  0  0  0
   -1.8709   -8.8694    8.2887 N   0  0  0  0  0  0  0  0  0  0  0  0
   -1.0616   -8.3957    5.8949 O   0  0  0  0  0  0  0  0  0  0  0  0
   -3.5126   -8.7423    6.2235 O   0  0  0  0  0  0  0  0  0  0  0  0
   -0.8863   -8.6669    8.5623 H   0  0  0  0  0  0  0  0  0  0  0  0
   -2.4980   -8.5092    9.0270 H   0  0  0  0  0  0  0  0  0  0  0  0
  -11.0696   -6.6925    8.1543 O   0  0  0  0  0  0  0  0  0  0  0  0
  -13.8397   -6.9675   10.5314 C   0  0  0  0  0  0  0  0  0  0  0  0
  -13.5953   -5.9216   11.3967 C   0  0  0  0  0  0  0  0  0  0  0  0
  -12.5173   -5.0863   11.2429 C   0  0  0  0  0  0  0  0  0  0  0  0
  -11.6655   -5.3447   10.1558 C   0  0  0  0  0  0  0  0  0  0  0  0
  -11.8531   -6.3448    9.2811 C   0  0  0  0  0  0  0  0  0  0  0  0
  -12.9841   -7.1852    9.4827 C   0  0  0  0  0  0  0  0  0  0  0  0
  -15.4429   -8.2385   11.8270 N   0  0  0  0  0  0  0  0  0  0  0  0
  -15.0061   -7.8421   10.7063 C   0  0  0  0  0  0  0  0  0  0  0  0
  -15.6825   -8.2883    9.5402 N   0  0  0  0  0  0  0  0  0  0  0  0
  -15.1112   -8.0414   12.7694 H   0  0  0  0  0  0  0  0  0  0  0  0
  -15.6334   -9.3237    9.3572 H   0  0  0  0  0  0  0  0  0  0  0  0
  -16.2033   -7.7146    8.8709 H   0  0  0  0  0  0  0  0  0  0  0  0
 39 40  2  0  0  0
 40 41  1  0  0  0
 40 33  1  0  0  0
 33 34  2  0  0  0
 34 35  1  0  0  0
 35 36  2  0  0  0
 36 37  1  0  0  0
 37 32  1  0  0  0
 32  1  1  0  0  0
  1  2  2  0  0  0
  2  3  1  0  0  0
  3  4  2  0  0  0
  4  5  1  0  0  0
  4  6  1  0  0  0
  6  7  2  0  0  0
  7 10  1  0  0  0
 10 11  2  0  0  0
 10 12  1  0  0  0
 12 14  1  0  0  0
 14 15  2  0  0  0
 15 16  1  0  0  0
 16 17  2  0  0  0
 17 20  1  0  0  0
 20 21  2  0  0  0
 21 22  1  0  0  0
 22 23  2  0  0  0
 23 24  1  0  0  0
 24 25  2  0  0  0
 25 26  1  0  0  0
 26 27  1  0  0  0
 26 28  2  0  0  0
 26 29  2  0  0  0
 17 18  1  0  0  0
 18 19  2  0  0  0
 37 38  2  0  0  0
 38 33  1  0  0  0
  7  1  1  0  0  0
 19 14  1  0  0  0
 25 20  1  0  0  0
 39 42  1  0  0  0
 41 43  1  0  0  0
 41 44  1  0  0  0
  5  8  1  0  0  0
  5  9  1  0  0  0
 12 13  1  0  0  0
 27 30  1  0  0  0
 27 31  1  0  0  0
M  END
> <minimizedAffinity>
-2.24926

> <CNNscore>
0.2601705194

> <CNNaffinity>
6.7829804420

> <CNN_VS>
1.7647315264

> <CNNaffinity_variance>
0.3306115270

$$$$
[H]N=C(c1c([H])c([H])c([H])c(Oc2c([H])c([H])c(N([H])[H])c([H])c2C(=O)N([H])c2c([H])c([H])c(-c3c([H])c([H])c([H])c([H])c3S(=O)(=O)N([H])[H])c([H])c2[H])c1[H])N([H])[H]


 44 47  0  0  0  0  0  0  0  0999 V2000
   -8.2988   -8.0606    7.9253 C   0  0  0  0  0  0  0  0  0  0  0  0
   -7.4244   -8.9543    7.2562 C   0  0  0  0  0  0  0  0  0  0  0  0
   -7.8924  -10.1485    6.7775 C   0  0  0  0  0  0  0  0  0  0  0  0
   -9.2185  -10.4473    6.9663 C   0  0  0  0  0  0  0  0  0  0  0  0
   -9.6765  -11.6942    6.4745 N   0  0  0  0  0  0  0  0  0  0  0  0
  -10.0645   -9.5791    7.6083 C   0  0  0  0  0  0  0  0  0  0  0  0
   -9.5997   -8.3186    8.1125 C   0  0  0  0  0  0  0  0  0  0  0  0
  -10.5430  -11.7732    5.9336 H   0  0  0  0  0  0  0  0  0  0  0  0
   -9.0978  -12.5206    6.6954 H   0  0  0  0  0  0  0  0  0  0  0  0
  -10.6852   -7.3468    8.4164 C   0  0  0  0  0  0  0  0  0  0  0  0
  -10.3635   -6.6425    9.4625 O   0  0  0  0  0  0  0  0  0  0  0  0
  -11.8304   -7.1300    7.8035 N   0  0  0  0  0  0  0  0  0  0  0  0
  -11.9143   -5.9040    8.4562 H   0  0  0  0  0  0  0  0  0  0  0  0
  -13.0300   -6.9029    7.1616 C   0  0  0  0  0  0  0  0  0  0  0  0
  -13.1203   -7.1079    5.7648 C   0  0  0  0  0  0  0  0  0  0  0  0
  -14.2661   -6.8170    5.0601 C   0  0  0  0  0  0  0  0  0  0  0  0
  -15.3775   -6.3128    5.6860 C   0  0  0  0  0  0  0  0  0  0  0  0
  -15.3203   -6.1084    7.0402 C   0  0  0  0  0  0  0  0  0  0  0  0
  -14.1731   -6.3972    7.7594 C   0  0  0  0  0  0  0  0  0  0  0  0
  -16.5796   -5.9478    4.9714 C   0  0  0  0  0  0  0  0  0  0  0  0
  -16.7292   -4.6970    4.4026 C   0  0  0  0  0  0  0  0  0  0  0  0
  -17.8798   -4.3277    3.7538 C   0  0  0  0  0  0  0  0  0  0  0  0
  -18.9183   -5.2290    3.6662 C   0  0  0  0  0  0  0  0  0  0  0  0
  -18.7886   -6.4723    4.2220 C   0  0  0  0  0  0  0  0  0  0  0  0
  -17.6185   -6.8410    4.8773 C   0  0  0  0  0  0  0  0  0  0  0  0
  -17.5222   -8.4281    5.5205 S   0  0  0  0  0  0  0  0  0  0  0  0
  -16.2575   -9.2993    4.6740 N   0  0  0  0  0  0  0  0  0  0  0  0
  -18.7793   -9.2044    5.1654 O   0  0  0  0  0  0  0  0  0  0  0  0
  -17.2329   -8.4924    6.9922 O   0  0  0  0  0  0  0  0  0  0  0  0
  -16.5501   -9.5286    3.7009 H   0  0  0  0  0  0  0  0  0  0  0  0
  -15.4091   -8.7107    4.6322 H   0  0  0  0  0  0  0  0  0  0  0  0
   -7.6952   -6.8731    8.4026 O   0  0  0  0  0  0  0  0  0  0  0  0
   -4.1489   -6.0878    7.9484 C   0  0  0  0  0  0  0  0  0  0  0  0
   -4.0501   -5.9338    6.5813 C   0  0  0  0  0  0  0  0  0  0  0  0
   -5.1334   -6.0821    5.7519 C   0  0  0  0  0  0  0  0  0  0  0  0
   -6.3588   -6.4004    6.3610 C   0  0  0  0  0  0  0  0  0  0  0  0
   -6.5162   -6.5606    7.6839 C   0  0  0  0  0  0  0  0  0  0  0  0
   -5.3635   -6.3980    8.5030 C   0  0  0  0  0  0  0  0  0  0  0  0
   -1.9827   -6.6924    8.8464 N   0  0  0  0  0  0  0  0  0  0  0  0
   -2.9801   -5.9122    8.8195 C   0  0  0  0  0  0  0  0  0  0  0  0
   -2.9721   -4.8019    9.7046 N   0  0  0  0  0  0  0  0  0  0  0  0
   -1.7903   -7.5331    8.3050 H   0  0  0  0  0  0  0  0  0  0  0  0
   -3.0017   -5.0402   10.7294 H   0  0  0  0  0  0  0  0  0  0  0  0
   -2.9417   -3.8104    9.4511 H   0  0  0  0  0  0  0  0  0  0  0  0
 39 40  2  0  0  0
 40 41  1  0  0  0
 40 33  1  0  0  0
 33 34  2  0  0  0
 34 35  1  0  0  0
 35 36  2  0  0  0
 36 37  1  0  0  0
 37 32  1  0  0  0
 32  1  1  0  0  0
  1  2  2  0  0  0
  2  3  1  0  0  0
  3  4  2  0  0  0
  4  5  1  0  0  0
  4  6  1  0  0  0
  6  7  2  0  0  0
  7 10  1  0  0  0
 10 11  2  0  0  0
 10 12  1  0  0  0
 12 14  1  0  0  0
 14 15  2  0  0  0
 15 16  1  0  0  0
 16 17  2  0  0  0
 17 20  1  0  0  0
 20 21  2  0  0  0
 21 22  1  0  0  0
 22 23  2  0  0  0
 23 24  1  0  0  0
 24 25  2  0  0  0
 25 26  1  0  0  0
 26 27  1  0  0  0
 26 28  2  0  0  0
 26 29  2  0  0  0
 17 18  1  0  0  0
 18 19  2  0  0  0
 37 38  2  0  0  0
 38 33  1  0  0  0
  7  1  1  0  0  0
 19 14  1  0  0  0
 25 20  1  0  0  0
 39 42  1  0  0  0
 41 43  1  0  0  0
 41 44  1  0  0  0
  5  8  1  0  0  0
  5  9  1  0  0  0
 12 13  1  0  0  0
 27 30  1  0  0  0
 27 31  1  0  0  0
M  END
> <minimizedAffinity>
-4.09686

> <CNNscore>
0.2432407886

> <CNNaffinity>
6.4336075783

> <CNN_VS>
1.5649157763

> <CNNaffinity_variance>
0.4410791993

$$$$
[H]N=C(c1c([H])c([H])c([H])c(Oc2c([H])c([H])c(N([H])[H])c([H])c2C(=O)N([H])c2c([H])c([H])c(-c3c([H])c([H])c([H])c([H])c3S(=O)(=O)N([H])[H])c([H])c2[H])c1[H])N([H])[H]


 44 47  0  0  0  0  0  0  0  0999 V2000
  -12.6458   -9.2644    7.9100 C   0  0  0  0  0  0  0  0  0  0  0  0
  -14.0470   -9.2678    7.6921 C   0  0  0  0  0  0  0  0  0  0  0  0
  -14.5470   -9.3116    6.4184 C   0  0  0  0  0  0  0  0  0  0  0  0
  -13.6575   -9.3502    5.3741 C   0  0  0  0  0  0  0  0  0  0  0  0
  -14.1983   -9.3813    4.0652 N   0  0  0  0  0  0  0  0  0  0  0  0
  -12.3023   -9.3532    5.5866 C   0  0  0  0  0  0  0  0  0  0  0  0
  -11.7539   -9.3151    6.9120 C   0  0  0  0  0  0  0  0  0  0  0  0
  -13.8546  -10.0371    3.3571 H   0  0  0  0  0  0  0  0  0  0  0  0
  -14.9502   -8.7045    3.8580 H   0  0  0  0  0  0  0  0  0  0  0  0
  -10.3229   -9.7164    6.9906 C   0  0  0  0  0  0  0  0  0  0  0  0
  -10.2375  -10.9906    7.2416 O   0  0  0  0  0  0  0  0  0  0  0  0
   -9.2280   -8.9994    6.8443 N   0  0  0  0  0  0  0  0  0  0  0  0
   -8.5142  -10.1799    6.6619 H   0  0  0  0  0  0  0  0  0  0  0  0
   -8.0811   -8.2485    6.6910 C   0  0  0  0  0  0  0  0  0  0  0  0
   -8.0540   -6.9166    7.1669 C   0  0  0  0  0  0  0  0  0  0  0  0
   -6.9681   -6.0952    6.9664 C   0  0  0  0  0  0  0  0  0  0  0  0
   -5.8577   -6.5357    6.2924 C   0  0  0  0  0  0  0  0  0  0  0  0
   -5.8542   -7.8239    5.8240 C   0  0  0  0  0  0  0  0  0  0  0  0
   -6.9409   -8.6591    6.0195 C   0  0  0  0  0  0  0  0  0  0  0  0
   -4.7208   -5.6863    6.0186 C   0  0  0  0  0  0  0  0  0  0  0  0
   -4.6198   -4.9740    4.8384 C   0  0  0  0  0  0  0  0  0  0  0  0
   -3.5286   -4.1938    4.5527 C   0  0  0  0  0  0  0  0  0  0  0  0
   -2.5017   -4.1171    5.4681 C   0  0  0  0  0  0  0  0  0  0  0  0
   -2.5840   -4.8140    6.6426 C   0  0  0  0  0  0  0  0  0  0  0  0
   -3.6941   -5.6023    6.9268 C   0  0  0  0  0  0  0  0  0  0  0  0
   -3.7357   -6.4203    8.4338 S   0  0  0  0  0  0  0  0  0  0  0  0
   -4.8821   -5.6057    9.4813 N   0  0  0  0  0  0  0  0  0  0  0  0
   -2.4112   -6.2369    9.1555 O   0  0  0  0  0  0  0  0  0  0  0  0
   -4.1217   -7.8687    8.3512 O   0  0  0  0  0  0  0  0  0  0  0  0
   -4.5091   -4.6861    9.7982 H   0  0  0  0  0  0  0  0  0  0  0  0
   -5.7605   -5.4429    8.9618 H   0  0  0  0  0  0  0  0  0  0  0  0
  -12.2481   -9.1857    9.2657 O   0  0  0  0  0  0  0  0  0  0  0  0
  -11.9856   -5.6035    9.9720 C   0  0  0  0  0  0  0  0  0  0  0  0
  -13.0490   -5.3887   10.8239 C   0  0  0  0  0  0  0  0  0  0  0  0
  -13.8960   -6.4007   11.2005 C   0  0  0  0  0  0  0  0  0  0  0  0
  -13.6308   -7.6770   10.6763 C   0  0  0  0  0  0  0  0  0  0  0  0
  -12.6118   -7.9466    9.8460 C   0  0  0  0  0  0  0  0  0  0  0  0
  -11.7614   -6.8644    9.4830 C   0  0  0  0  0  0  0  0  0  0  0  0
  -10.0453   -4.6513    8.8799 N   0  0  0  0  0  0  0  0  0  0  0  0
  -11.0835   -4.5095    9.5914 C   0  0  0  0  0  0  0  0  0  0  0  0
  -11.3842   -3.2052   10.0654 N   0  0  0  0  0  0  0  0  0  0  0  0
   -9.6539   -5.4854    8.4464 H   0  0  0  0  0  0  0  0  0  0  0  0
  -10.6879   -2.7980   10.7417 H   0  0  0  0  0  0  0  0  0  0  0  0
  -12.1960   -2.6312    9.8207 H   0  0  0  0  0  0  0  0  0  0  0  0
 39 40  2  0  0  0
 40 41  1  0  0  0
 40 33  1  0  0  0
 33 34  2  0  0  0
 34 35  1  0  0  0
 35 36  2  0  0  0
 36 37  1  0  0  0
 37 32  1  0  0  0
 32  1  1  0  0  0
  1  2  2  0  0  0
  2  3  1  0  0  0
  3  4  2  0  0  0
  4  5  1  0  0  0
  4  6  1  0  0  0
  6  7  2  0  0  0
  7 10  1  0  0  0
 10 11  2  0  0  0
 10 12  1  0  0  0
 12 14  1  0  0  0
 14 15  2  0  0  0
 15 16  1  0  0  0
 16 17  2  0  0  0
 17 20  1  0  0  0
 20 21  2  0  0  0
 21 22  1  0  0  0
 22 23  2  0  0  0
 23 24  1  0  0  0
 24 25  2  0  0  0
 25 26  1  0  0  0
 26 27  1  0  0  0
 26 28  2  0  0  0
 26 29  2  0  0  0
 17 18  1  0  0  0
 18 19  2  0  0  0
 37 38  2  0  0  0
 38 33  1  0  0  0
  7  1  1  0  0  0
 19 14  1  0  0  0
 25 20  1  0  0  0
 39 42  1  0  0  0
 41 43  1  0  0  0
 41 44  1  0  0  0
  5  8  1  0  0  0
  5  9  1  0  0  0
 12 13  1  0  0  0
 27 30  1  0  0  0
 27 31  1  0  0  0
M  END
> <minimizedAffinity>
-2.19955

> <CNNscore>
0.2382749021

> <CNNaffinity>
6.6553483009

> <CNN_VS>
1.5858024359

> <CNNaffinity_variance>
0.2918508053

$$$$
[H]N=C(c1c([H])c([H])c([H])c(Oc2c([H])c([H])c(N([H])[H])c([H])c2C(=O)N([H])c2c([H])c([H])c(-c3c([H])c([H])c([H])c([H])c3S(=O)(=O)N([H])[H])c([H])c2[H])c1[H])N([H])[H]


 44 47  0  0  0  0  0  0  0  0999 V2000
  -13.6703   -7.2791    7.6343 C   0  0  0  0  0  0  0  0  0  0  0  0
  -14.7484   -8.1990    7.5858 C   0  0  0  0  0  0  0  0  0  0  0  0
  -14.5250   -9.5348    7.7859 C   0  0  0  0  0  0  0  0  0  0  0  0
  -13.2391   -9.9472    8.0303 C   0  0  0  0  0  0  0  0  0  0  0  0
  -13.0306  -11.3353    8.2206 N   0  0  0  0  0  0  0  0  0  0  0  0
  -12.1981   -9.0554    8.0832 C   0  0  0  0  0  0  0  0  0  0  0  0
  -12.4077   -7.6499    7.8840 C   0  0  0  0  0  0  0  0  0  0  0  0
  -12.4593  -11.6922    8.9926 H   0  0  0  0  0  0  0  0  0  0  0  0
  -13.4763  -11.9690    7.5378 H   0  0  0  0  0  0  0  0  0  0  0  0
  -11.2845   -6.7942    8.3543 C   0  0  0  0  0  0  0  0  0  0  0  0
  -11.7534   -5.7913    9.0384 O   0  0  0  0  0  0  0  0  0  0  0  0
   -9.9855   -6.9223    8.1802 N   0  0  0  0  0  0  0  0  0  0  0  0
   -9.7862   -6.0296    9.2288 H   0  0  0  0  0  0  0  0  0  0  0  0
   -8.6248   -7.0565    7.9978 C   0  0  0  0  0  0  0  0  0  0  0  0
   -7.9973   -6.3793    6.9260 C   0  0  0  0  0  0  0  0  0  0  0  0
   -6.6598   -6.5433    6.6462 C   0  0  0  0  0  0  0  0  0  0  0  0
   -5.8721   -7.3756    7.3999 C   0  0  0  0  0  0  0  0  0  0  0  0
   -6.4525   -8.0412    8.4483 C   0  0  0  0  0  0  0  0  0  0  0  0
   -7.7970   -7.8843    8.7389 C   0  0  0  0  0  0  0  0  0  0  0  0
   -4.4772   -7.6117    7.1048 C   0  0  0  0  0  0  0  0  0  0  0  0
   -4.0704   -8.7126    6.3747 C   0  0  0  0  0  0  0  0  0  0  0  0
   -2.7467   -8.9658    6.1199 C   0  0  0  0  0  0  0  0  0  0  0  0
   -1.7931   -8.0980    6.6058 C   0  0  0  0  0  0  0  0  0  0  0  0
   -2.1762   -7.0022    7.3296 C   0  0  0  0  0  0  0  0  0  0  0  0
   -3.5204   -6.7504    7.5832 C   0  0  0  0  0  0  0  0  0  0  0  0
   -3.9213   -5.3392    8.4717 S   0  0  0  0  0  0  0  0  0  0  0  0
   -2.5002   -4.8093    9.3519 N   0  0  0  0  0  0  0  0  0  0  0  0
   -4.9059   -5.6882    9.5752 O   0  0  0  0  0  0  0  0  0  0  0  0
   -4.4128   -4.1913    7.6382 O   0  0  0  0  0  0  0  0  0  0  0  0
   -2.2903   -5.4535   10.1432 H   0  0  0  0  0  0  0  0  0  0  0  0
   -1.6887   -4.7992    8.7121 H   0  0  0  0  0  0  0  0  0  0  0  0
  -14.0182   -5.9309    7.3815 O   0  0  0  0  0  0  0  0  0  0  0  0
  -16.5524   -6.7425    4.8678 C   0  0  0  0  0  0  0  0  0  0  0  0
  -16.3130   -5.8014    3.8882 C   0  0  0  0  0  0  0  0  0  0  0  0
  -15.3188   -4.8630    4.0077 C   0  0  0  0  0  0  0  0  0  0  0  0
  -14.5480   -4.9025    5.1817 C   0  0  0  0  0  0  0  0  0  0  0  0
  -14.7327   -5.7944    6.1670 C   0  0  0  0  0  0  0  0  0  0  0  0
  -15.7769   -6.7470    5.9982 C   0  0  0  0  0  0  0  0  0  0  0  0
  -17.5321   -8.9423    5.1232 N   0  0  0  0  0  0  0  0  0  0  0  0
  -17.6131   -7.7461    4.7148 C   0  0  0  0  0  0  0  0  0  0  0  0
  -18.8055   -7.3563    4.0496 N   0  0  0  0  0  0  0  0  0  0  0  0
  -16.7792   -9.4200    5.6149 H   0  0  0  0  0  0  0  0  0  0  0  0
  -18.9884   -7.8362    3.1308 H   0  0  0  0  0  0  0  0  0  0  0  0
  -19.4927   -6.6672    4.3675 H   0  0  0  0  0  0  0  0  0  0  0  0
 39 40  2  0  0  0
 40 41  1  0  0  0
 40 33  1  0  0  0
 33 34  2  0  0  0
 34 35  1  0  0  0
 35 36  2  0  0  0
 36 37  1  0  0  0
 37 32  1  0  0  0
 32  1  1  0  0  0
  1  2  2  0  0  0
  2  3  1  0  0  0
  3  4  2  0  0  0
  4  5  1  0  0  0
  4  6  1  0  0  0
  6  7  2  0  0  0
  7 10  1  0  0  0
 10 11  2  0  0  0
 10 12  1  0  0  0
 12 14  1  0  0  0
 14 15  2  0  0  0
 15 16  1  0  0  0
 16 17  2  0  0  0
 17 20  1  0  0  0
 20 21  2  0  0  0
 21 22  1  0  0  0
 22 23  2  0  0  0
 23 24  1  0  0  0
 24 25  2  0  0  0
 25 26  1  0  0  0
 26 27  1  0  0  0
 26 28  2  0  0  0
 26 29  2  0  0  0
 17 18  1  0  0  0
 18 19  2  0  0  0
 37 38  2  0  0  0
 38 33  1  0  0  0
  7  1  1  0  0  0
 19 14  1  0  0  0
 25 20  1  0  0  0
 39 42  1  0  0  0
 41 43  1  0  0  0
 41 44  1  0  0  0
  5  8  1  0  0  0
  5  9  1  0  0  0
 12 13  1  0  0  0
 27 30  1  0  0  0
 27 31  1  0  0  0
M  END
> <minimizedAffinity>
-6.84107

> <CNNscore>
0.2380806059

> <CNNaffinity>
6.9708504677

> <CNN_VS>
1.6596243382

> <CNNaffinity_variance>
0.2305950373

$$$$
[H]N1C(=NC2([H])C([H])([H])C([H])([H])C([H])([H])C([H])([H])C([H])([H])C([H])([H])C2([H])[H])O[C@@]2([H])C([H])([H])C([H])([H])C([H])([H])C([H])([H])[C@@]2([H])S1(=O)=O


 22 24  0  0  0  0  0  0  0  0999 V2000
  -14.4931  -10.7785    6.2787 O   0  0  0  0  0  0  0  0  0  0  0  0
  -14.1722   -9.3791    5.8550 S   0  0  0  0  0  0  0  0  0  0  0  0
  -13.2821   -9.3484    4.6440 O   0  0  0  0  0  0  0  0  0  0  0  0
  -13.4113   -8.4915    7.1523 N   0  0  0  0  0  0  0  0  0  0  0  0
  -13.6441   -7.1018    7.2324 C   0  0  0  0  0  0  0  0  0  0  0  0
  -12.7763   -6.3514    7.7878 N   0  0  0  0  0  0  0  0  0  0  0  0
  -14.7839   -6.5480    6.7242 O   0  0  0  0  0  0  0  0  0  0  0  0
  -15.5580   -7.0337    5.6860 C   0  0  0  0  0  0  0  0  0  0  0  0
  -15.0995   -6.3173    4.4068 C   0  0  0  0  0  0  0  0  0  0  0  0
  -16.2522   -6.3693    3.4448 C   0  0  0  0  0  0  0  0  0  0  0  0
  -16.9548   -7.6846    3.5173 C   0  0  0  0  0  0  0  0  0  0  0  0
  -15.9945   -8.7618    4.0255 C   0  0  0  0  0  0  0  0  0  0  0  0
  -15.6439   -8.4861    5.4730 C   0  0  0  0  0  0  0  0  0  0  0  0
  -12.8378   -9.0363    7.7863 H   0  0  0  0  0  0  0  0  0  0  0  0
  -11.5458   -6.8256    8.3537 C   0  0  0  0  0  0  0  0  0  0  0  0
  -10.6088   -5.7020    8.7265 C   0  0  0  0  0  0  0  0  0  0  0  0
  -10.7073   -5.2610   10.1475 C   0  0  0  0  0  0  0  0  0  0  0  0
  -12.0118   -4.6529   10.5367 C   0  0  0  0  0  0  0  0  0  0  0  0
  -12.6351   -5.3419   11.7451 C   0  0  0  0  0  0  0  0  0  0  0  0
  -12.5651   -6.8319   11.6607 C   0  0  0  0  0  0  0  0  0  0  0  0
  -13.0321   -7.2919   10.3178 C   0  0  0  0  0  0  0  0  0  0  0  0
  -11.8291   -7.7407    9.5209 C   0  0  0  0  0  0  0  0  0  0  0  0
  1  2  2  0  0  0
  2  3  2  0  0  0
  2  4  1  0  0  0
  4  5  1  0  0  0
  5  6  2  0  0  0
  6 15  1  0  0  0
 15 16  1  0  0  0
 16 17  1  0  0  0
 17 18  1  0  0  0
 18 19  1  0  0  0
 19 20  1  0  0  0
 20 21  1  0  0  0
 21 22  1  0  0  0
  5  7  1  0  0  0
  7  8  1  0  0  0
  8  9  1  0  0  0
  9 10  1  0  0  0
 10 11  1  0  0  0
 11 12  1  0  0  0
 12 13  1  0  0  0
 13  2  1  0  0  0
 22 15  1  0  0  0
 13  8  1  0  0  0
  4 14  1  0  0  0
M  END
> <minimizedAffinity>
0.13032

> <CNNscore>
0.4834821522

> <CNNaffinity>
6.1760606766

> <CNN_VS>
2.9860150814

> <CNNaffinity_variance>
0.7939915061

$$$$
[H]N1C(=NC2([H])C([H])([H])C([H])([H])C([H])([H])C([H])([H])C([H])([H])C([H])([H])C2([H])[H])O[C@@]2([H])C([H])([H])C([H])([H])C([H])([H])C([H])([H])[C@@]2([H])S1(=O)=O


 22 24  0  0  0  0  0  0  0  0999 V2000
  -14.7128   -5.8196    4.9385 O   0  0  0  0  0  0  0  0  0  0  0  0
  -14.4697   -6.6373    6.1686 S   0  0  0  0  0  0  0  0  0  0  0  0
  -15.7301   -6.8516    6.9594 O   0  0  0  0  0  0  0  0  0  0  0  0
  -13.2683   -5.8879    7.1908 N   0  0  0  0  0  0  0  0  0  0  0  0
  -12.4348   -6.7268    7.9612 C   0  0  0  0  0  0  0  0  0  0  0  0
  -11.9282   -6.2844    9.0439 N   0  0  0  0  0  0  0  0  0  0  0  0
  -12.1625   -8.0048    7.5656 O   0  0  0  0  0  0  0  0  0  0  0  0
  -12.9546   -8.8235    6.7810 C   0  0  0  0  0  0  0  0  0  0  0  0
  -13.7777   -9.7038    7.7336 C   0  0  0  0  0  0  0  0  0  0  0  0
  -14.1610  -10.9348    6.9626 C   0  0  0  0  0  0  0  0  0  0  0  0
  -14.5068  -10.5989    5.5496 C   0  0  0  0  0  0  0  0  0  0  0  0
  -14.9749   -9.1452    5.4584 C   0  0  0  0  0  0  0  0  0  0  0  0
  -13.8124   -8.2192    5.7508 C   0  0  0  0  0  0  0  0  0  0  0  0
  -13.2366   -4.8750    7.1694 H   0  0  0  0  0  0  0  0  0  0  0  0
  -12.1473   -4.9609    9.5535 C   0  0  0  0  0  0  0  0  0  0  0  0
  -13.4706   -4.8271   10.2680 C   0  0  0  0  0  0  0  0  0  0  0  0
  -13.3988   -5.0258   11.7441 C   0  0  0  0  0  0  0  0  0  0  0  0
  -13.0019   -6.3939   12.1841 C   0  0  0  0  0  0  0  0  0  0  0  0
  -11.8048   -6.3750   13.1275 C   0  0  0  0  0  0  0  0  0  0  0  0
  -10.7208   -5.4555   12.6673 C   0  0  0  0  0  0  0  0  0  0  0  0
  -10.4257   -5.6935   11.2219 C   0  0  0  0  0  0  0  0  0  0  0  0
  -10.9867   -4.5400   10.4228 C   0  0  0  0  0  0  0  0  0  0  0  0
  1  2  2  0  0  0
  2  3  2  0  0  0
  2  4  1  0  0  0
  4  5  1  0  0  0
  5  6  2  0  0  0
  6 15  1  0  0  0
 15 16  1  0  0  0
 16 17  1  0  0  0
 17 18  1  0  0  0
 18 19  1  0  0  0
 19 20  1  0  0  0
 20 21  1  0  0  0
 21 22  1  0  0  0
  5  7  1  0  0  0
  7  8  1  0  0  0
  8  9  1  0  0  0
  9 10  1  0  0  0
 10 11  1  0  0  0
 11 12  1  0  0  0
 12 13  1  0  0  0
 13  2  1  0  0  0
 22 15  1  0  0  0
 13  8  1  0  0  0
  4 14  1  0  0  0
M  END
> <minimizedAffinity>
13.17522

> <CNNscore>
0.4756216109

> <CNNaffinity>
5.8372292519

> <CNN_VS>
2.7763123512

> <CNNaffinity_variance>
0.9849211574

$$$$
[H]N1C(=NC2([H])C([H])([H])C([H])([H])C([H])([H])C([H])([H])C([H])([H])C([H])([H])C2([H])[H])O[C@@]2([H])C([H])([H])C([H])([H])C([H])([H])C([H])([H])[C@@]2([H])S1(=O)=O


 22 24  0  0  0  0  0  0  0  0999 V2000
  -16.0081   -3.7048    4.5799 O   0  0  0  0  0  0  0  0  0  0  0  0
  -16.3913   -5.0719    5.0541 S   0  0  0  0  0  0  0  0  0  0  0  0
  -17.7367   -5.0779    5.7247 O   0  0  0  0  0  0  0  0  0  0  0  0
  -15.1956   -5.7103    6.1554 N   0  0  0  0  0  0  0  0  0  0  0  0
  -14.9864   -7.1059    6.1728 C   0  0  0  0  0  0  0  0  0  0  0  0
  -14.5470   -7.6611    7.2327 N   0  0  0  0  0  0  0  0  0  0  0  0
  -15.2473   -7.8712    5.0726 O   0  0  0  0  0  0  0  0  0  0  0  0
  -16.1604   -7.6066    4.0680 C   0  0  0  0  0  0  0  0  0  0  0  0
  -17.4521   -8.3592    4.4215 C   0  0  0  0  0  0  0  0  0  0  0  0
  -18.1952   -8.5721    3.1333 C   0  0  0  0  0  0  0  0  0  0  0  0
  -18.0836   -7.3781    2.2440 C   0  0  0  0  0  0  0  0  0  0  0  0
  -17.8244   -6.1251    3.0828 C   0  0  0  0  0  0  0  0  0  0  0  0
  -16.4475   -6.2100    3.7084 C   0  0  0  0  0  0  0  0  0  0  0  0
  -14.7100   -5.0286    6.7272 H   0  0  0  0  0  0  0  0  0  0  0  0
  -14.2405   -6.9550    8.4438 C   0  0  0  0  0  0  0  0  0  0  0  0
  -14.3253   -7.8374    9.6660 C   0  0  0  0  0  0  0  0  0  0  0  0
  -13.0280   -8.4434   10.0820 C   0  0  0  0  0  0  0  0  0  0  0  0
  -12.4317   -9.4025    9.1086 C   0  0  0  0  0  0  0  0  0  0  0  0
  -11.0017   -9.0328    8.7322 C   0  0  0  0  0  0  0  0  0  0  0  0
  -10.8358   -7.5740    8.4548 C   0  0  0  0  0  0  0  0  0  0  0  0
  -11.9107   -7.1024    7.5301 C   0  0  0  0  0  0  0  0  0  0  0  0
  -12.8966   -6.2770    8.3242 C   0  0  0  0  0  0  0  0  0  0  0  0
  1  2  2  0  0  0
  2  3  2  0  0  0
  2  4  1  0  0  0
  4  5  1  0  0  0
  5  6  2  0  0  0
  6 15  1  0  0  0
 15 16  1  0  0  0
 16 17  1  0  0  0
 17 18  1  0  0  0
 18 19  1  0  0  0
 19 20  1  0  0  0
 20 21  1  0  0  0
 21 22  1  0  0  0
  5  7  1  0  0  0
  7  8  1  0  0  0
  8  9  1  0  0  0
  9 10  1  0  0  0
 10 11  1  0  0  0
 11 12  1  0  0  0
 12 13  1  0  0  0
 13  2  1  0  0  0
 22 15  1  0  0  0
 13  8  1  0  0  0
  4 14  1  0  0  0
M  END
> <minimizedAffinity>
-2.45338

> <CNNscore>
0.3913693726

> <CNNaffinity>
6.2487969398

> <CNN_VS>
2.4455876350

> <CNNaffinity_variance>
0.6164030433

$$$$
[H]N1C(=NC2([H])C([H])([H])C([H])([H])C([H])([H])C([H])([H])C([H])([H])C([H])([H])C2([H])[H])O[C@@]2([H])C([H])([H])C([H])([H])C([H])([H])C([H])([H])[C@@]2([H])S1(=O)=O


 22 24  0  0  0  0  0  0  0  0999 V2000
   -9.4228   -6.0149   10.1147 O   0  0  0  0  0  0  0  0  0  0  0  0
   -9.5720   -6.5371    8.7198 S   0  0  0  0  0  0  0  0  0  0  0  0
   -8.7983   -5.7161    7.7263 O   0  0  0  0  0  0  0  0  0  0  0  0
  -11.2521   -6.5833    8.2453 N   0  0  0  0  0  0  0  0  0  0  0  0
  -11.6626   -7.5959    7.3520 C   0  0  0  0  0  0  0  0  0  0  0  0
  -12.6748   -7.3988    6.6029 N   0  0  0  0  0  0  0  0  0  0  0  0
  -10.9929   -8.7832    7.2772 O   0  0  0  0  0  0  0  0  0  0  0  0
   -9.6603   -9.0109    7.5698 C   0  0  0  0  0  0  0  0  0  0  0  0
   -8.8867   -8.9323    6.2450 C   0  0  0  0  0  0  0  0  0  0  0  0
   -7.6255   -9.7268    6.4326 C   0  0  0  0  0  0  0  0  0  0  0  0
   -7.0599   -9.5239    7.7992 C   0  0  0  0  0  0  0  0  0  0  0  0
   -7.5124   -8.1725    8.3559 C   0  0  0  0  0  0  0  0  0  0  0  0
   -9.0055   -8.2032    8.6095 C   0  0  0  0  0  0  0  0  0  0  0  0
  -11.8470   -5.8684    8.6486 H   0  0  0  0  0  0  0  0  0  0  0  0
  -13.4504   -6.1915    6.5985 C   0  0  0  0  0  0  0  0  0  0  0  0
  -14.1471   -5.9555    5.2799 C   0  0  0  0  0  0  0  0  0  0  0  0
  -15.5479   -6.4633    5.2215 C   0  0  0  0  0  0  0  0  0  0  0  0
  -15.6942   -7.9429    5.3327 C   0  0  0  0  0  0  0  0  0  0  0  0
  -16.6465   -8.3488    6.4516 C   0  0  0  0  0  0  0  0  0  0  0  0
  -16.4179   -7.5803    7.7124 C   0  0  0  0  0  0  0  0  0  0  0  0
  -14.9620   -7.5684    8.0488 C   0  0  0  0  0  0  0  0  0  0  0  0
  -14.4155   -6.1894    7.7598 C   0  0  0  0  0  0  0  0  0  0  0  0
  1  2  2  0  0  0
  2  3  2  0  0  0
  2  4  1  0  0  0
  4  5  1  0  0  0
  5  6  2  0  0  0
  6 15  1  0  0  0
 15 16  1  0  0  0
 16 17  1  0  0  0
 17 18  1  0  0  0
 18 19  1  0  0  0
 19 20  1  0  0  0
 20 21  1  0  0  0
 21 22  1  0  0  0
  5  7  1  0  0  0
  7  8  1  0  0  0
  8  9  1  0  0  0
  9 10  1  0  0  0
 10 11  1  0  0  0
 11 12  1  0  0  0
 12 13  1  0  0  0
 13  2  1  0  0  0
 22 15  1  0  0  0
 13  8  1  0  0  0
  4 14  1  0  0  0
M  END
> <minimizedAffinity>
0.28919

> <CNNscore>
0.3873021603

> <CNNaffinity>
5.9685750008

> <CNN_VS>
2.3116419315

> <CNNaffinity_variance>
0.9549654126

$$$$
[H]N1C(=NC2([H])C([H])([H])C([H])([H])C([H])([H])C([H])([H])C([H])([H])C([H])([H])C2([H])[H])O[C@@]2([H])C([H])([H])C([H])([H])C([H])([H])C([H])([H])[C@@]2([H])S1(=O)=O


 22 24  0  0  0  0  0  0  0  0999 V2000
  -15.0749  -10.3367    4.8029 O   0  0  0  0  0  0  0  0  0  0  0  0
  -14.7337   -8.9915    5.3639 S   0  0  0  0  0  0  0  0  0  0  0  0
  -13.3780   -8.5222    4.9144 O   0  0  0  0  0  0  0  0  0  0  0  0
  -14.7879   -9.0093    7.1094 N   0  0  0  0  0  0  0  0  0  0  0  0
  -15.1704   -7.8246    7.7743 C   0  0  0  0  0  0  0  0  0  0  0  0
  -14.7597   -7.6114    8.9620 N   0  0  0  0  0  0  0  0  0  0  0  0
  -15.9731   -6.9030    7.1658 O   0  0  0  0  0  0  0  0  0  0  0  0
  -16.0962   -6.6685    5.8082 C   0  0  0  0  0  0  0  0  0  0  0  0
  -15.1529   -5.5064    5.4628 C   0  0  0  0  0  0  0  0  0  0  0  0
  -15.6864   -4.8742    4.2088 C   0  0  0  0  0  0  0  0  0  0  0  0
  -16.1988   -5.9076    3.2610 C   0  0  0  0  0  0  0  0  0  0  0  0
  -15.4990   -7.2437    3.5177 C   0  0  0  0  0  0  0  0  0  0  0  0
  -15.9204   -7.7854    4.8680 C   0  0  0  0  0  0  0  0  0  0  0  0
  -14.5394   -9.8866    7.5523 H   0  0  0  0  0  0  0  0  0  0  0  0
  -13.9140   -8.5096    9.6949 C   0  0  0  0  0  0  0  0  0  0  0  0
  -12.8106   -9.0907    8.8437 C   0  0  0  0  0  0  0  0  0  0  0  0
  -11.5202   -8.3467    8.9124 C   0  0  0  0  0  0  0  0  0  0  0  0
  -11.5576   -6.9557    8.3771 C   0  0  0  0  0  0  0  0  0  0  0  0
  -11.0593   -5.9312    9.3899 C   0  0  0  0  0  0  0  0  0  0  0  0
  -11.6085   -6.1592   10.7606 C   0  0  0  0  0  0  0  0  0  0  0  0
  -13.0872   -6.3638   10.6930 C   0  0  0  0  0  0  0  0  0  0  0  0
  -13.3790   -7.8273   10.9311 C   0  0  0  0  0  0  0  0  0  0  0  0
  1  2  2  0  0  0
  2  3  2  0  0  0
  2  4  1  0  0  0
  4  5  1  0  0  0
  5  6  2  0  0  0
  6 15  1  0  0  0
 15 16  1  0  0  0
 16 17  1  0  0  0
 17 18  1  0  0  0
 18 19  1  0  0  0
 19 20  1  0  0  0
 20 21  1  0  0  0
 21 22  1  0  0  0
  5  7  1  0  0  0
  7  8  1  0  0  0
  8  9  1  0  0  0
  9 10  1  0  0  0
 10 11  1  0  0  0
 11 12  1  0  0  0
 12 13  1  0  0  0
 13  2  1  0  0  0
 22 15  1  0  0  0
 13  8  1  0  0  0
  4 14  1  0  0  0
M  END
> <minimizedAffinity>
-4.21398

> <CNNscore>
0.3437794149

> <CNNaffinity>
6.0219035149

> <CNN_VS>
2.0702064037

> <CNNaffinity_variance>
0.0645207986

$$$$
[H]N1C(=NC2([H])C([H])([H])C([H])([H])C([H])([H])C([H])([H])C([H])([H])C([H])([H])C2([H])[H])O[C@@]2([H])C([H])([H])C([H])([H])C([H])([H])C([H])([H])[C@@]2([H])S1(=O)=O


 22 24  0  0  0  0  0  0  0  0999 V2000
   -4.4498   -5.1746    9.5279 O   0  0  0  0  0  0  0  0  0  0  0  0
   -4.4107   -5.9416    8.2430 S   0  0  0  0  0  0  0  0  0  0  0  0
   -3.5759   -7.1866    8.3566 O   0  0  0  0  0  0  0  0  0  0  0  0
   -3.7957   -4.9521    6.9420 N   0  0  0  0  0  0  0  0  0  0  0  0
   -4.2844   -5.1886    5.6393 C   0  0  0  0  0  0  0  0  0  0  0  0
   -3.5590   -4.8926    4.6339 N   0  0  0  0  0  0  0  0  0  0  0  0
   -5.5218   -5.7295    5.4384 O   0  0  0  0  0  0  0  0  0  0  0  0
   -6.2185   -6.5630    6.2947 C   0  0  0  0  0  0  0  0  0  0  0  0
   -5.9387   -8.0059    5.8481 C   0  0  0  0  0  0  0  0  0  0  0  0
   -7.0868   -8.8411    6.3390 C   0  0  0  0  0  0  0  0  0  0  0  0
   -7.5262   -8.4064    7.6980 C   0  0  0  0  0  0  0  0  0  0  0  0
   -6.3662   -7.7277    8.4291 C   0  0  0  0  0  0  0  0  0  0  0  0
   -6.0344   -6.4170    7.7463 C   0  0  0  0  0  0  0  0  0  0  0  0
   -3.1125   -4.2501    7.2030 H   0  0  0  0  0  0  0  0  0  0  0  0
   -2.2460   -4.3213    4.7287 C   0  0  0  0  0  0  0  0  0  0  0  0
   -1.2443   -5.0216    3.8421 C   0  0  0  0  0  0  0  0  0  0  0  0
   -1.0600   -4.3939    2.5022 C   0  0  0  0  0  0  0  0  0  0  0  0
   -2.2581   -4.4224    1.6152 C   0  0  0  0  0  0  0  0  0  0  0  0
   -2.6399   -3.0352    1.1119 C   0  0  0  0  0  0  0  0  0  0  0  0
   -2.6010   -1.9990    2.1877 C   0  0  0  0  0  0  0  0  0  0  0  0
   -3.3249   -2.4903    3.3992 C   0  0  0  0  0  0  0  0  0  0  0  0
   -2.3044   -2.8369    4.4585 C   0  0  0  0  0  0  0  0  0  0  0  0
  1  2  2  0  0  0
  2  3  2  0  0  0
  2  4  1  0  0  0
  4  5  1  0  0  0
  5  6  2  0  0  0
  6 15  1  0  0  0
 15 16  1  0  0  0
 16 17  1  0  0  0
 17 18  1  0  0  0
 18 19  1  0  0  0
 19 20  1  0  0  0
 20 21  1  0  0  0
 21 22  1  0  0  0
  5  7  1  0  0  0
  7  8  1  0  0  0
  8  9  1  0  0  0
  9 10  1  0  0  0
 10 11  1  0  0  0
 11 12  1  0  0  0
 12 13  1  0  0  0
 13  2  1  0  0  0
 22 15  1  0  0  0
 13  8  1  0  0  0
  4 14  1  0  0  0
M  END
> <minimizedAffinity>
-5.20567

> <CNNscore>
0.2905026972

> <CNNaffinity>
4.5903048515

> <CNN_VS>
1.3334959745

> <CNNaffinity_variance>
0.0909372717

$$$$
[H]N1C(=NC2([H])C([H])([H])C([H])([H])C([H])([H])C([H])([H])C([H])([H])C([H])([H])C2([H])[H])O[C@@]2([H])C([H])([H])C([H])([H])C([H])([H])C([H])([H])[C@@]2([H])S1(=O)=O


 22 24  0  0  0  0  0  0  0  0999 V2000
  -15.6861   -9.7785    3.3305 O   0  0  0  0  0  0  0  0  0  0  0  0
  -15.5787   -8.5535    4.1840 S   0  0  0  0  0  0  0  0  0  0  0  0
  -14.7140   -7.5001    3.5494 O   0  0  0  0  0  0  0  0  0  0  0  0
  -14.9448   -8.9448    5.7635 N   0  0  0  0  0  0  0  0  0  0  0  0
  -15.3790   -8.1741    6.8633 C   0  0  0  0  0  0  0  0  0  0  0  0
  -14.6260   -8.0599    7.8854 N   0  0  0  0  0  0  0  0  0  0  0  0
  -16.5926   -7.5488    6.8500 O   0  0  0  0  0  0  0  0  0  0  0  0
  -17.2963   -7.1134    5.7417 C   0  0  0  0  0  0  0  0  0  0  0  0
  -16.9601   -5.6271    5.5478 C   0  0  0  0  0  0  0  0  0  0  0  0
  -18.1015   -5.0217    4.7813 C   0  0  0  0  0  0  0  0  0  0  0  0
  -18.6020   -5.9584    3.7320 C   0  0  0  0  0  0  0  0  0  0  0  0
  -17.4888   -6.9241    3.3207 C   0  0  0  0  0  0  0  0  0  0  0  0
  -17.1693   -7.8505    4.4757 C   0  0  0  0  0  0  0  0  0  0  0  0
  -14.2915   -9.7190    5.8003 H   0  0  0  0  0  0  0  0  0  0  0  0
  -13.3339   -8.6723    8.0061 C   0  0  0  0  0  0  0  0  0  0  0  0
  -12.2337   -7.8248    7.4137 C   0  0  0  0  0  0  0  0  0  0  0  0
  -11.5395   -6.9404    8.3932 C   0  0  0  0  0  0  0  0  0  0  0  0
  -12.3876   -5.8771    9.0039 C   0  0  0  0  0  0  0  0  0  0  0  0
  -12.3609   -5.9180   10.5274 C   0  0  0  0  0  0  0  0  0  0  0  0
  -12.4919   -7.3035   11.0709 C   0  0  0  0  0  0  0  0  0  0  0  0
  -13.6285   -8.0098   10.4058 C   0  0  0  0  0  0  0  0  0  0  0  0
  -13.0616   -9.0314    9.4472 C   0  0  0  0  0  0  0  0  0  0  0  0
  1  2  2  0  0  0
  2  3  2  0  0  0
  2  4  1  0  0  0
  4  5  1  0  0  0
  5  6  2  0  0  0
  6 15  1  0  0  0
 15 16  1  0  0  0
 16 17  1  0  0  0
 17 18  1  0  0  0
 18 19  1  0  0  0
 19 20  1  0  0  0
 20 21  1  0  0  0
 21 22  1  0  0  0
  5  7  1  0  0  0
  7  8  1  0  0  0
  8  9  1  0  0  0
  9 10  1  0  0  0
 10 11  1  0  0  0
 11 12  1  0  0  0
 12 13  1  0  0  0
 13  2  1  0  0  0
 22 15  1  0  0  0
 13  8  1  0  0  0
  4 14  1  0  0  0
M  END
> <minimizedAffinity>
-7.46947

> <CNNscore>
0.2240592241

> <CNNaffinity>
6.0164427757

> <CNN_VS>
1.3480395079

> <CNNaffinity_variance>
0.0308144838

$$$$
[H]N1C(=NC2([H])C([H])([H])C([H])([H])C([H])([H])C([H])([H])C([H])([H])C([H])([H])C2([H])[H])O[C@@]2([H])C([H])([H])C([H])([H])C([H])([H])C([H])([H])[C@@]2([H])S1(=O)=O


 22 24  0  0  0  0  0  0  0  0999 V2000
   -7.3129   -6.2492    4.2955 O   0  0  0  0  0  0  0  0  0  0  0  0
   -7.3705   -6.9853    5.5977 S   0  0  0  0  0  0  0  0  0  0  0  0
   -6.8033   -8.3729    5.4848 O   0  0  0  0  0  0  0  0  0  0  0  0
   -9.0102   -7.0795    6.1913 N   0  0  0  0  0  0  0  0  0  0  0  0
   -9.2117   -7.0871    7.5881 C   0  0  0  0  0  0  0  0  0  0  0  0
  -10.2544   -7.6410    8.0684 N   0  0  0  0  0  0  0  0  0  0  0  0
   -8.3077   -6.5108    8.4335 O   0  0  0  0  0  0  0  0  0  0  0  0
   -6.9527   -6.3380    8.2162 C   0  0  0  0  0  0  0  0  0  0  0  0
   -6.2340   -7.5244    8.8763 C   0  0  0  0  0  0  0  0  0  0  0  0
   -4.8308   -7.0732    9.1665 C   0  0  0  0  0  0  0  0  0  0  0  0
   -4.2993   -6.2228    8.0605 C   0  0  0  0  0  0  0  0  0  0  0  0
   -5.0181   -6.5589    6.7523 C   0  0  0  0  0  0  0  0  0  0  0  0
   -6.4668   -6.1263    6.8445 C   0  0  0  0  0  0  0  0  0  0  0  0
   -9.7363   -7.1214    5.4851 H   0  0  0  0  0  0  0  0  0  0  0  0
  -11.2674   -8.2756    7.2744 C   0  0  0  0  0  0  0  0  0  0  0  0
  -11.6633   -9.6289    7.8143 C   0  0  0  0  0  0  0  0  0  0  0  0
  -12.8498   -9.6110    8.7172 C   0  0  0  0  0  0  0  0  0  0  0  0
  -12.6671   -8.8638    9.9944 C   0  0  0  0  0  0  0  0  0  0  0  0
  -13.7370   -7.7978   10.2006 C   0  0  0  0  0  0  0  0  0  0  0  0
  -14.0039   -7.0003    8.9657 C   0  0  0  0  0  0  0  0  0  0  0  0
  -12.7157   -6.5427    8.3624 C   0  0  0  0  0  0  0  0  0  0  0  0
  -12.4552   -7.3568    7.1162 C   0  0  0  0  0  0  0  0  0  0  0  0
  1  2  2  0  0  0
  2  3  2  0  0  0
  2  4  1  0  0  0
  4  5  1  0  0  0
  5  6  2  0  0  0
  6 15  1  0  0  0
 15 16  1  0  0  0
 16 17  1  0  0  0
 17 18  1  0  0  0
 18 19  1  0  0  0
 19 20  1  0  0  0
 20 21  1  0  0  0
 21 22  1  0  0  0
  5  7  1  0  0  0
  7  8  1  0  0  0
  8  9  1  0  0  0
  9 10  1  0  0  0
 10 11  1  0  0  0
 11 12  1  0  0  0
 12 13  1  0  0  0
 13  2  1  0  0  0
 22 15  1  0  0  0
 13  8  1  0  0  0
  4 14  1  0  0  0
M  END
> <minimizedAffinity>
-3.13056

> <CNNscore>
0.2047087401

> <CNNaffinity>
5.6380462646

> <CNN_VS>
1.1541574001

> <CNNaffinity_variance>
0.2405364215

$$$$
[H]N1C(=NC2([H])C([H])([H])C([H])([H])C([H])([H])C([H])([H])C([H])([H])C([H])([H])C2([H])[H])O[C@@]2([H])C([H])([H])C([H])([H])C([H])([H])C([H])([H])[C@@]2([H])S1(=O)=O


 22 24  0  0  0  0  0  0  0  0999 V2000
  -11.6713   -4.1613   10.0125 O   0  0  0  0  0  0  0  0  0  0  0  0
  -11.7224   -5.6379    9.7721 S   0  0  0  0  0  0  0  0  0  0  0  0
  -11.9111   -6.4093   11.0485 O   0  0  0  0  0  0  0  0  0  0  0  0
  -10.2720   -6.1923    8.9727 N   0  0  0  0  0  0  0  0  0  0  0  0
  -10.3776   -7.2884    8.0899 C   0  0  0  0  0  0  0  0  0  0  0  0
   -9.3615   -8.0309    7.8877 N   0  0  0  0  0  0  0  0  0  0  0  0
  -11.5506   -7.5664    7.4490 O   0  0  0  0  0  0  0  0  0  0  0  0
  -12.8298   -7.2614    7.8778 C   0  0  0  0  0  0  0  0  0  0  0  0
  -13.3743   -8.5051    8.5964 C   0  0  0  0  0  0  0  0  0  0  0  0
  -14.8729   -8.4194    8.5341 C   0  0  0  0  0  0  0  0  0  0  0  0
  -15.3399   -7.0141    8.7238 C   0  0  0  0  0  0  0  0  0  0  0  0
  -14.3000   -6.2214    9.5182 C   0  0  0  0  0  0  0  0  0  0  0  0
  -13.0471   -6.0511    8.6842 C   0  0  0  0  0  0  0  0  0  0  0  0
   -9.4228   -5.6837    9.1910 H   0  0  0  0  0  0  0  0  0  0  0  0
   -8.0825   -7.8317    8.5071 C   0  0  0  0  0  0  0  0  0  0  0  0
   -7.1748   -9.0292    8.3600 C   0  0  0  0  0  0  0  0  0  0  0  0
   -6.2494   -8.9636    7.1926 C   0  0  0  0  0  0  0  0  0  0  0  0
   -6.9092   -8.9705    5.8556 C   0  0  0  0  0  0  0  0  0  0  0  0
   -6.4862   -7.7862    4.9943 C   0  0  0  0  0  0  0  0  0  0  0  0
   -6.4708   -6.4977    5.7506 C   0  0  0  0  0  0  0  0  0  0  0  0
   -7.7413   -6.3403    6.5212 C   0  0  0  0  0  0  0  0  0  0  0  0
   -7.4439   -6.5667    7.9855 C   0  0  0  0  0  0  0  0  0  0  0  0
  1  2  2  0  0  0
  2  3  2  0  0  0
  2  4  1  0  0  0
  4  5  1  0  0  0
  5  6  2  0  0  0
  6 15  1  0  0  0
 15 16  1  0  0  0
 16 17  1  0  0  0
 17 18  1  0  0  0
 18 19  1  0  0  0
 19 20  1  0  0  0
 20 21  1  0  0  0
 21 22  1  0  0  0
  5  7  1  0  0  0
  7  8  1  0  0  0
  8  9  1  0  0  0
  9 10  1  0  0  0
 10 11  1  0  0  0
 11 12  1  0  0  0
 12 13  1  0  0  0
 13  2  1  0  0  0
 22 15  1  0  0  0
 13  8  1  0  0  0
  4 14  1  0  0  0
M  END
> <minimizedAffinity>
-3.46271

> <CNNscore>
0.2005686462

> <CNNaffinity>
5.5707864761

> <CNN_VS>
1.1173250675

> <CNNaffinity_variance>
0.1639237851

$$$$
[H]C(=NN([H])C(=S)N([H])C([H])([H])c1c([H])c([H])c(OC([H])(C([H])([H])[H])C([H])([H])[H])c([H])c1[H])c1c([H])c([H])c([N+](=O)[O-])c([H])c1[H]


 28 29  0  0  0  0  0  0  0  0999 V2000
  -12.5333   -8.2629    9.1442 C   0  0  0  0  0  0  0  0  0  0  0  0
  -13.4548   -7.2264    9.9940 S   0  0  0  0  0  0  0  0  0  0  0  0
  -11.1566   -8.0073    8.9991 N   0  0  0  0  0  0  0  0  0  0  0  0
  -10.4656   -8.4603    9.6259 H   0  0  0  0  0  0  0  0  0  0  0  0
  -10.6872   -7.1078    7.9718 C   0  0  0  0  0  0  0  0  0  0  0  0
   -6.6516   -7.9502    6.7794 C   0  0  0  0  0  0  0  0  0  0  0  0
   -7.2206   -6.6880    6.6049 C   0  0  0  0  0  0  0  0  0  0  0  0
   -8.5158   -6.4362    6.9932 C   0  0  0  0  0  0  0  0  0  0  0  0
   -9.2959   -7.4162    7.5662 C   0  0  0  0  0  0  0  0  0  0  0  0
   -8.7049   -8.6452    7.7229 C   0  0  0  0  0  0  0  0  0  0  0  0
   -7.3981   -8.9342    7.3416 C   0  0  0  0  0  0  0  0  0  0  0  0
   -5.3565   -8.1513    6.3761 O   0  0  0  0  0  0  0  0  0  0  0  0
   -3.7750   -6.3352    6.1271 C   0  0  0  0  0  0  0  0  0  0  0  0
   -4.2190   -7.5724    6.9064 C   0  0  0  0  0  0  0  0  0  0  0  0
   -3.0624   -8.5708    6.8389 C   0  0  0  0  0  0  0  0  0  0  0  0
  -13.1073   -9.4232    8.5476 N   0  0  0  0  0  0  0  0  0  0  0  0
  -13.8562   -9.9825    9.0509 H   0  0  0  0  0  0  0  0  0  0  0  0
  -12.7253   -9.8630    7.3232 N   0  0  0  0  0  0  0  0  0  0  0  0
  -12.9935   -9.6044    6.1544 C   0  0  0  0  0  0  0  0  0  0  0  0
  -13.9222   -8.6215    5.6509 C   0  0  0  0  0  0  0  0  0  0  0  0
  -14.0552   -7.3377    6.1267 C   0  0  0  0  0  0  0  0  0  0  0  0
  -14.9708   -6.4282    5.6014 C   0  0  0  0  0  0  0  0  0  0  0  0
  -15.8023   -6.7758    4.5624 C   0  0  0  0  0  0  0  0  0  0  0  0
  -15.6927   -8.0533    4.0654 C   0  0  0  0  0  0  0  0  0  0  0  0
  -14.7890   -8.9380    4.5897 C   0  0  0  0  0  0  0  0  0  0  0  0
  -16.7386   -5.8363    4.0301 N   0  0  0  0  0  0  0  0  0  0  0  0
  -16.3787   -4.6577    3.8501 O   0  0  0  0  0  0  0  0  0  0  0  0
  -17.9991   -6.2938    3.7437 O   0  0  0  0  0  0  0  0  0  0  0  0
 13 14  1  0  0  0
 14 15  1  0  0  0
 14 12  1  0  0  0
 12  6  1  0  0  0
  6  7  2  0  0  0
  7  8  1  0  0  0
  8  9  2  0  0  0
  9  5  1  0  0  0
  5  3  1  0  0  0
  3  1  1  0  0  0
  1  2  2  0  0  0
  1 16  1  0  0  0
 16 18  1  0  0  0
 18 19  2  0  0  0
 19 20  1  0  0  0
 20 21  2  0  0  0
 21 22  1  0  0  0
 22 23  2  0  0  0
 23 26  1  0  0  0
 26 27  2  0  0  0
 26 28  1  0  0  0
 23 24  1  0  0  0
 24 25  2  0  0  0
  9 10  1  0  0  0
 10 11  2  0  0  0
 11  6  1  0  0  0
 25 20  1  0  0  0
  3  4  1  0  0  0
 16 17  1  0  0  0
M  CHG 1  26   1
M  CHG 1  28  -1
M  END
> <minimizedAffinity>
-7.92940

> <CNNscore>
0.7222152352

> <CNNaffinity>
6.8624725342

> <CNN_VS>
4.9561820030

> <CNNaffinity_variance>
0.0109768864

$$$$
[H]C(=NN([H])C(=S)N([H])C([H])([H])c1c([H])c([H])c(OC([H])(C([H])([H])[H])C([H])([H])[H])c([H])c1[H])c1c([H])c([H])c([N+](=O)[O-])c([H])c1[H]


 28 29  0  0  0  0  0  0  0  0999 V2000
  -14.2235   -9.0603    8.5446 C   0  0  0  0  0  0  0  0  0  0  0  0
  -15.6533   -8.2955    8.6728 S   0  0  0  0  0  0  0  0  0  0  0  0
  -13.1369   -8.6343    9.3318 N   0  0  0  0  0  0  0  0  0  0  0  0
  -12.8365   -9.1822   10.1595 H   0  0  0  0  0  0  0  0  0  0  0  0
  -12.4240   -7.4246    8.9953 C   0  0  0  0  0  0  0  0  0  0  0  0
   -8.4955   -8.2139    7.4585 C   0  0  0  0  0  0  0  0  0  0  0  0
   -8.8388   -6.9717    7.9936 C   0  0  0  0  0  0  0  0  0  0  0  0
  -10.1030   -6.7367    8.4817 C   0  0  0  0  0  0  0  0  0  0  0  0
  -11.0730   -7.7146    8.4605 C   0  0  0  0  0  0  0  0  0  0  0  0
  -10.7013   -8.9237    7.9275 C   0  0  0  0  0  0  0  0  0  0  0  0
   -9.4322   -9.1954    7.4254 C   0  0  0  0  0  0  0  0  0  0  0  0
   -7.2221   -8.3988    6.9846 O   0  0  0  0  0  0  0  0  0  0  0  0
   -6.5415   -6.7553    5.3423 C   0  0  0  0  0  0  0  0  0  0  0  0
   -6.2902   -7.4199    6.6952 C   0  0  0  0  0  0  0  0  0  0  0  0
   -4.8983   -8.0497    6.6219 C   0  0  0  0  0  0  0  0  0  0  0  0
  -14.0634  -10.1540    7.6448 N   0  0  0  0  0  0  0  0  0  0  0  0
  -14.4671  -11.1098    7.8695 H   0  0  0  0  0  0  0  0  0  0  0  0
  -13.3928  -10.0259    6.4733 N   0  0  0  0  0  0  0  0  0  0  0  0
  -13.4774   -9.3348    5.4634 C   0  0  0  0  0  0  0  0  0  0  0  0
  -14.4450   -8.3060    5.1675 C   0  0  0  0  0  0  0  0  0  0  0  0
  -15.5969   -8.4858    4.4373 C   0  0  0  0  0  0  0  0  0  0  0  0
  -16.4981   -7.4544    4.1815 C   0  0  0  0  0  0  0  0  0  0  0  0
  -16.2761   -6.1823    4.6550 C   0  0  0  0  0  0  0  0  0  0  0  0
  -15.1323   -5.9715    5.3886 C   0  0  0  0  0  0  0  0  0  0  0  0
  -14.2543   -6.9930    5.6334 C   0  0  0  0  0  0  0  0  0  0  0  0
  -17.2061   -5.1304    4.3876 N   0  0  0  0  0  0  0  0  0  0  0  0
  -18.0242   -4.8062    5.2689 O   0  0  0  0  0  0  0  0  0  0  0  0
  -17.1433   -4.5293    3.1568 O   0  0  0  0  0  0  0  0  0  0  0  0
 13 14  1  0  0  0
 14 15  1  0  0  0
 14 12  1  0  0  0
 12  6  1  0  0  0
  6  7  2  0  0  0
  7  8  1  0  0  0
  8  9  2  0  0  0
  9  5  1  0  0  0
  5  3  1  0  0  0
  3  1  1  0  0  0
  1  2  2  0  0  0
  1 16  1  0  0  0
 16 18  1  0  0  0
 18 19  2  0  0  0
 19 20  1  0  0  0
 20 21  2  0  0  0
 21 22  1  0  0  0
 22 23  2  0  0  0
 23 26  1  0  0  0
 26 27  2  0  0  0
 26 28  1  0  0  0
 23 24  1  0  0  0
 24 25  2  0  0  0
  9 10  1  0  0  0
 10 11  2  0  0  0
 11  6  1  0  0  0
 25 20  1  0  0  0
  3  4  1  0  0  0
 16 17  1  0  0  0
M  CHG 1  26   1
M  CHG 1  28  -1
M  END
> <minimizedAffinity>
-7.86652

> <CNNscore>
0.7068535686

> <CNNaffinity>
7.0775728226

> <CNN_VS>
5.0028076172

> <CNNaffinity_variance>
0.0803985223

$$$$
[H]C(=NN([H])C(=S)N([H])C([H])([H])c1c([H])c([H])c(OC([H])(C([H])([H])[H])C([H])([H])[H])c([H])c1[H])c1c([H])c([H])c([N+](=O)[O-])c([H])c1[H]


 28 29  0  0  0  0  0  0  0  0999 V2000
  -12.6507   -9.7001    6.7437 C   0  0  0  0  0  0  0  0  0  0  0  0
  -12.2201  -11.1672    7.2987 S   0  0  0  0  0  0  0  0  0  0  0  0
  -12.2497   -8.5483    7.4467 N   0  0  0  0  0  0  0  0  0  0  0  0
  -11.2479   -8.3763    7.6527 H   0  0  0  0  0  0  0  0  0  0  0  0
  -13.2319   -7.5880    7.8916 C   0  0  0  0  0  0  0  0  0  0  0  0
  -11.8219   -5.4117   11.3113 C   0  0  0  0  0  0  0  0  0  0  0  0
  -10.9473   -6.0856   10.4578 C   0  0  0  0  0  0  0  0  0  0  0  0
  -11.4172   -6.7780    9.3664 C   0  0  0  0  0  0  0  0  0  0  0  0
  -12.7627   -6.8319    9.0764 C   0  0  0  0  0  0  0  0  0  0  0  0
  -13.5942   -6.1583    9.9361 C   0  0  0  0  0  0  0  0  0  0  0  0
  -13.1529   -5.4484   11.0487 C   0  0  0  0  0  0  0  0  0  0  0  0
  -11.3046   -4.7355   12.3862 O   0  0  0  0  0  0  0  0  0  0  0  0
  -11.0345   -3.9916   14.6742 C   0  0  0  0  0  0  0  0  0  0  0  0
  -11.3078   -5.1427   13.7070 C   0  0  0  0  0  0  0  0  0  0  0  0
  -10.1961   -6.1704   13.9242 C   0  0  0  0  0  0  0  0  0  0  0  0
  -13.4280   -9.5728    5.5557 N   0  0  0  0  0  0  0  0  0  0  0  0
  -12.9637   -9.5146    4.6028 H   0  0  0  0  0  0  0  0  0  0  0  0
  -14.7824   -9.5183    5.5879 N   0  0  0  0  0  0  0  0  0  0  0  0
  -15.6492   -8.6673    5.4174 C   0  0  0  0  0  0  0  0  0  0  0  0
  -15.4753   -7.2738    5.0853 C   0  0  0  0  0  0  0  0  0  0  0  0
  -14.4854   -6.4572    5.5807 C   0  0  0  0  0  0  0  0  0  0  0  0
  -14.3642   -5.1155    5.2248 C   0  0  0  0  0  0  0  0  0  0  0  0
  -15.2447   -4.5308    4.3448 C   0  0  0  0  0  0  0  0  0  0  0  0
  -16.2457   -5.3224    3.8326 C   0  0  0  0  0  0  0  0  0  0  0  0
  -16.3544   -6.6395    4.1897 C   0  0  0  0  0  0  0  0  0  0  0  0
  -15.1127   -3.1537    3.9855 N   0  0  0  0  0  0  0  0  0  0  0  0
  -15.6223   -2.7532    2.9221 O   0  0  0  0  0  0  0  0  0  0  0  0
  -14.4215   -2.3399    4.8459 O   0  0  0  0  0  0  0  0  0  0  0  0
 13 14  1  0  0  0
 14 15  1  0  0  0
 14 12  1  0  0  0
 12  6  1  0  0  0
  6  7  2  0  0  0
  7  8  1  0  0  0
  8  9  2  0  0  0
  9  5  1  0  0  0
  5  3  1  0  0  0
  3  1  1  0  0  0
  1  2  2  0  0  0
  1 16  1  0  0  0
 16 18  1  0  0  0
 18 19  2  0  0  0
 19 20  1  0  0  0
 20 21  2  0  0  0
 21 22  1  0  0  0
 22 23  2  0  0  0
 23 26  1  0  0  0
 26 27  2  0  0  0
 26 28  1  0  0  0
 23 24  1  0  0  0
 24 25  2  0  0  0
  9 10  1  0  0  0
 10 11  2  0  0  0
 11  6  1  0  0  0
 25 20  1  0  0  0
  3  4  1  0  0  0
 16 17  1  0  0  0
M  CHG 1  26   1
M  CHG 1  28  -1
M  END
> <minimizedAffinity>
2.00832

> <CNNscore>
0.5977390409

> <CNNaffinity>
6.6424856186

> <CNN_VS>
3.9704730511

> <CNNaffinity_variance>
1.4803345203

$$$$
[H]C(=NN([H])C(=S)N([H])C([H])([H])c1c([H])c([H])c(OC([H])(C([H])([H])[H])C([H])([H])[H])c([H])c1[H])c1c([H])c([H])c([N+](=O)[O-])c([H])c1[H]


 28 29  0  0  0  0  0  0  0  0999 V2000
  -11.9700   -7.2257    9.0450 C   0  0  0  0  0  0  0  0  0  0  0  0
  -11.5411   -5.9729    9.9895 S   0  0  0  0  0  0  0  0  0  0  0  0
  -11.2178   -7.5121    7.8901 N   0  0  0  0  0  0  0  0  0  0  0  0
  -11.3207   -6.9343    7.0350 H   0  0  0  0  0  0  0  0  0  0  0  0
  -10.2897   -8.6181    7.8813 C   0  0  0  0  0  0  0  0  0  0  0  0
   -6.3628   -7.4532    6.6005 C   0  0  0  0  0  0  0  0  0  0  0  0
   -6.6722   -8.7791    6.9063 C   0  0  0  0  0  0  0  0  0  0  0  0
   -7.9365   -9.1341    7.3153 C   0  0  0  0  0  0  0  0  0  0  0  0
   -8.9397   -8.1982    7.4378 C   0  0  0  0  0  0  0  0  0  0  0  0
   -8.6008   -6.9044    7.1291 C   0  0  0  0  0  0  0  0  0  0  0  0
   -7.3327   -6.5106    6.7126 C   0  0  0  0  0  0  0  0  0  0  0  0
   -5.0879   -7.1496    6.1971 O   0  0  0  0  0  0  0  0  0  0  0  0
   -3.2717   -5.6643    5.5995 C   0  0  0  0  0  0  0  0  0  0  0  0
   -4.3000   -6.1042    6.6408 C   0  0  0  0  0  0  0  0  0  0  0  0
   -3.5118   -6.5501    7.8733 C   0  0  0  0  0  0  0  0  0  0  0  0
  -13.0974   -8.0323    9.3768 N   0  0  0  0  0  0  0  0  0  0  0  0
  -13.6527   -7.8564   10.2643 H   0  0  0  0  0  0  0  0  0  0  0  0
  -13.5069   -9.0527    8.5832 N   0  0  0  0  0  0  0  0  0  0  0  0
  -14.2205   -9.1881    7.5947 C   0  0  0  0  0  0  0  0  0  0  0  0
  -14.9426   -8.1692    6.8719 C   0  0  0  0  0  0  0  0  0  0  0  0
  -16.3067   -7.9932    6.8978 C   0  0  0  0  0  0  0  0  0  0  0  0
  -16.9529   -6.9900    6.1784 C   0  0  0  0  0  0  0  0  0  0  0  0
  -16.2458   -6.1103    5.3925 C   0  0  0  0  0  0  0  0  0  0  0  0
  -14.8798   -6.2613    5.3464 C   0  0  0  0  0  0  0  0  0  0  0  0
  -14.2561   -7.2508    6.0577 C   0  0  0  0  0  0  0  0  0  0  0  0
  -16.9172   -5.0843    4.6581 N   0  0  0  0  0  0  0  0  0  0  0  0
  -16.3429   -4.5608    3.6848 O   0  0  0  0  0  0  0  0  0  0  0  0
  -18.1748   -4.7296    5.0739 O   0  0  0  0  0  0  0  0  0  0  0  0
 13 14  1  0  0  0
 14 15  1  0  0  0
 14 12  1  0  0  0
 12  6  1  0  0  0
  6  7  2  0  0  0
  7  8  1  0  0  0
  8  9  2  0  0  0
  9  5  1  0  0  0
  5  3  1  0  0  0
  3  1  1  0  0  0
  1  2  2  0  0  0
  1 16  1  0  0  0
 16 18  1  0  0  0
 18 19  2  0  0  0
 19 20  1  0  0  0
 20 21  2  0  0  0
 21 22  1  0  0  0
 22 23  2  0  0  0
 23 26  1  0  0  0
 26 27  2  0  0  0
 26 28  1  0  0  0
 23 24  1  0  0  0
 24 25  2  0  0  0
  9 10  1  0  0  0
 10 11  2  0  0  0
 11  6  1  0  0  0
 25 20  1  0  0  0
  3  4  1  0  0  0
 16 17  1  0  0  0
M  CHG 1  26   1
M  CHG 1  28  -1
M  END
> <minimizedAffinity>
-7.60612

> <CNNscore>
0.5569987297

> <CNNaffinity>
6.6148214340

> <CNN_VS>
3.6844470501

> <CNNaffinity_variance>
0.0439284444

$$$$
[H]C(=NN([H])C(=S)N([H])C([H])([H])c1c([H])c([H])c(OC([H])(C([H])([H])[H])C([H])([H])[H])c([H])c1[H])c1c([H])c([H])c([N+](=O)[O-])c([H])c1[H]


 28 29  0  0  0  0  0  0  0  0999 V2000
  -13.0251  -10.7755   12.6138 C   0  0  0  0  0  0  0  0  0  0  0  0
  -13.4084  -12.3374   12.8571 S   0  0  0  0  0  0  0  0  0  0  0  0
  -13.4798  -10.1234   11.4520 N   0  0  0  0  0  0  0  0  0  0  0  0
  -14.4338   -9.7188   11.4115 H   0  0  0  0  0  0  0  0  0  0  0  0
  -12.6203  -10.0091   10.2974 C   0  0  0  0  0  0  0  0  0  0  0  0
  -14.2985   -7.3434    7.3827 C   0  0  0  0  0  0  0  0  0  0  0  0
  -15.0882   -7.9622    8.3527 C   0  0  0  0  0  0  0  0  0  0  0  0
  -14.5329   -8.8138    9.2791 C   0  0  0  0  0  0  0  0  0  0  0  0
  -13.1827   -9.0863    9.2838 C   0  0  0  0  0  0  0  0  0  0  0  0
  -12.4361   -8.4609    8.3164 C   0  0  0  0  0  0  0  0  0  0  0  0
  -12.9649   -7.5943    7.3647 C   0  0  0  0  0  0  0  0  0  0  0  0
  -14.8991   -6.5026    6.4812 O   0  0  0  0  0  0  0  0  0  0  0  0
  -15.0274   -4.9872    4.5975 C   0  0  0  0  0  0  0  0  0  0  0  0
  -14.5704   -6.3371    5.1490 C   0  0  0  0  0  0  0  0  0  0  0  0
  -15.2719   -7.4107    4.3157 C   0  0  0  0  0  0  0  0  0  0  0  0
  -12.2354  -10.0652   13.5643 N   0  0  0  0  0  0  0  0  0  0  0  0
  -11.2223  -10.3298   13.7394 H   0  0  0  0  0  0  0  0  0  0  0  0
  -12.7373   -9.0307   14.2829 N   0  0  0  0  0  0  0  0  0  0  0  0
  -12.8586   -7.8181   14.1432 C   0  0  0  0  0  0  0  0  0  0  0  0
  -12.4509   -7.0061   13.0221 C   0  0  0  0  0  0  0  0  0  0  0  0
  -13.0854   -6.9604   11.8025 C   0  0  0  0  0  0  0  0  0  0  0  0
  -12.6473   -6.1561   10.7524 C   0  0  0  0  0  0  0  0  0  0  0  0
  -11.5383   -5.3536   10.8861 C   0  0  0  0  0  0  0  0  0  0  0  0
  -10.8825   -5.3780   12.0945 C   0  0  0  0  0  0  0  0  0  0  0  0
  -11.3226   -6.1724   13.1189 C   0  0  0  0  0  0  0  0  0  0  0  0
  -11.0962   -4.5318    9.8036 N   0  0  0  0  0  0  0  0  0  0  0  0
  -11.4022   -3.3246    9.7949 O   0  0  0  0  0  0  0  0  0  0  0  0
  -10.3490   -5.1293    8.8212 O   0  0  0  0  0  0  0  0  0  0  0  0
 13 14  1  0  0  0
 14 15  1  0  0  0
 14 12  1  0  0  0
 12  6  1  0  0  0
  6  7  2  0  0  0
  7  8  1  0  0  0
  8  9  2  0  0  0
  9  5  1  0  0  0
  5  3  1  0  0  0
  3  1  1  0  0  0
  1  2  2  0  0  0
  1 16  1  0  0  0
 16 18  1  0  0  0
 18 19  2  0  0  0
 19 20  1  0  0  0
 20 21  2  0  0  0
 21 22  1  0  0  0
 22 23  2  0  0  0
 23 26  1  0  0  0
 26 27  2  0  0  0
 26 28  1  0  0  0
 23 24  1  0  0  0
 24 25  2  0  0  0
  9 10  1  0  0  0
 10 11  2  0  0  0
 11  6  1  0  0  0
 25 20  1  0  0  0
  3  4  1  0  0  0
 16 17  1  0  0  0
M  CHG 1  26   1
M  CHG 1  28  -1
M  END
> <minimizedAffinity>
19.35272

> <CNNscore>
0.5190441608

> <CNNaffinity>
6.0097212791

> <CNN_VS>
3.1193108559

> <CNNaffinity_variance>
0.3121023774

$$$$
[H]C(=NN([H])C(=S)N([H])C([H])([H])c1c([H])c([H])c(OC([H])(C([H])([H])[H])C([H])([H])[H])c([H])c1[H])c1c([H])c([H])c([N+](=O)[O-])c([H])c1[H]


 28 29  0  0  0  0  0  0  0  0999 V2000
  -11.1818   -7.1614    8.5996 C   0  0  0  0  0  0  0  0  0  0  0  0
  -11.7799   -6.3229    9.8585 S   0  0  0  0  0  0  0  0  0  0  0  0
   -9.8302   -7.5551    8.6088 N   0  0  0  0  0  0  0  0  0  0  0  0
   -9.2308   -7.3695    9.4345 H   0  0  0  0  0  0  0  0  0  0  0  0
   -9.2591   -8.2251    7.4643 C   0  0  0  0  0  0  0  0  0  0  0  0
   -5.0062   -7.7073    7.2151 C   0  0  0  0  0  0  0  0  0  0  0  0
   -5.7240   -8.3756    6.2223 C   0  0  0  0  0  0  0  0  0  0  0  0
   -7.0870   -8.5320    6.3190 C   0  0  0  0  0  0  0  0  0  0  0  0
   -7.7911   -8.0372    7.3946 C   0  0  0  0  0  0  0  0  0  0  0  0
   -7.0539   -7.3858    8.3519 C   0  0  0  0  0  0  0  0  0  0  0  0
   -5.6751   -7.2096    8.2858 C   0  0  0  0  0  0  0  0  0  0  0  0
   -3.6485   -7.5771    7.0729 O   0  0  0  0  0  0  0  0  0  0  0  0
   -1.9909   -9.3325    7.2529 C   0  0  0  0  0  0  0  0  0  0  0  0
   -2.8031   -8.4010    6.3541 C   0  0  0  0  0  0  0  0  0  0  0  0
   -1.7948   -7.5465    5.5843 C   0  0  0  0  0  0  0  0  0  0  0  0
  -12.0126   -7.4990    7.4917 N   0  0  0  0  0  0  0  0  0  0  0  0
  -12.2774   -6.7711    6.7657 H   0  0  0  0  0  0  0  0  0  0  0  0
  -12.5000   -8.7522    7.3171 N   0  0  0  0  0  0  0  0  0  0  0  0
  -13.4951   -9.2647    6.8153 C   0  0  0  0  0  0  0  0  0  0  0  0
  -14.6048   -8.6071    6.1685 C   0  0  0  0  0  0  0  0  0  0  0  0
  -15.6402   -7.9747    6.8168 C   0  0  0  0  0  0  0  0  0  0  0  0
  -16.6886   -7.3542    6.1405 C   0  0  0  0  0  0  0  0  0  0  0  0
  -16.7408   -7.3436    4.7661 C   0  0  0  0  0  0  0  0  0  0  0  0
  -15.7193   -7.9683    4.0899 C   0  0  0  0  0  0  0  0  0  0  0  0
  -14.6945   -8.5744    4.7656 C   0  0  0  0  0  0  0  0  0  0  0  0
  -17.8202   -6.7047    4.0808 N   0  0  0  0  0  0  0  0  0  0  0  0
  -18.4049   -7.3167    3.1672 O   0  0  0  0  0  0  0  0  0  0  0  0
  -18.1550   -5.4347    4.4747 O   0  0  0  0  0  0  0  0  0  0  0  0
 13 14  1  0  0  0
 14 15  1  0  0  0
 14 12  1  0  0  0
 12  6  1  0  0  0
  6  7  2  0  0  0
  7  8  1  0  0  0
  8  9  2  0  0  0
  9  5  1  0  0  0
  5  3  1  0  0  0
  3  1  1  0  0  0
  1  2  2  0  0  0
  1 16  1  0  0  0
 16 18  1  0  0  0
 18 19  2  0  0  0
 19 20  1  0  0  0
 20 21  2  0  0  0
 21 22  1  0  0  0
 22 23  2  0  0  0
 23 26  1  0  0  0
 26 27  2  0  0  0
 26 28  1  0  0  0
 23 24  1  0  0  0
 24 25  2  0  0  0
  9 10  1  0  0  0
 10 11  2  0  0  0
 11  6  1  0  0  0
 25 20  1  0  0  0
  3  4  1  0  0  0
 16 17  1  0  0  0
M  CHG 1  26   1
M  CHG 1  28  -1
M  END
> <minimizedAffinity>
-7.37516

> <CNNscore>
0.4871485531

> <CNNaffinity>
6.3966169357

> <CNN_VS>
3.1161026955

> <CNNaffinity_variance>
0.1611571908

$$$$
[H]C(=NN([H])C(=S)N([H])C([H])([H])c1c([H])c([H])c(OC([H])(C([H])([H])[H])C([H])([H])[H])c([H])c1[H])c1c([H])c([H])c([N+](=O)[O-])c([H])c1[H]


 28 29  0  0  0  0  0  0  0  0999 V2000
  -11.6496   -8.3492    8.5508 C   0  0  0  0  0  0  0  0  0  0  0  0
  -11.8754   -6.9107    9.2757 S   0  0  0  0  0  0  0  0  0  0  0  0
  -12.4360   -9.4509    8.9375 N   0  0  0  0  0  0  0  0  0  0  0  0
  -12.4931   -9.7367    9.9328 H   0  0  0  0  0  0  0  0  0  0  0  0
  -13.1761  -10.1998    7.9495 C   0  0  0  0  0  0  0  0  0  0  0  0
  -15.7465   -7.6822    5.6102 C   0  0  0  0  0  0  0  0  0  0  0  0
  -14.6928   -8.3932    5.0344 C   0  0  0  0  0  0  0  0  0  0  0  0
  -13.8791   -9.1954    5.7999 C   0  0  0  0  0  0  0  0  0  0  0  0
  -14.0732   -9.3263    7.1573 C   0  0  0  0  0  0  0  0  0  0  0  0
  -15.1181   -8.6135    7.6904 C   0  0  0  0  0  0  0  0  0  0  0  0
  -15.9603   -7.7932    6.9458 C   0  0  0  0  0  0  0  0  0  0  0  0
  -16.5296   -6.8959    4.8047 O   0  0  0  0  0  0  0  0  0  0  0  0
  -18.1237   -5.1463    4.2956 C   0  0  0  0  0  0  0  0  0  0  0  0
  -16.8172   -5.5548    4.9749 C   0  0  0  0  0  0  0  0  0  0  0  0
  -15.7105   -4.7132    4.3375 C   0  0  0  0  0  0  0  0  0  0  0  0
  -10.6653   -8.5018    7.5313 N   0  0  0  0  0  0  0  0  0  0  0  0
  -10.5246   -7.7535    6.7915 H   0  0  0  0  0  0  0  0  0  0  0  0
   -9.8730   -9.5998    7.4586 N   0  0  0  0  0  0  0  0  0  0  0  0
   -8.6709   -9.8343    7.3901 C   0  0  0  0  0  0  0  0  0  0  0  0
   -7.5801   -8.8901    7.3614 C   0  0  0  0  0  0  0  0  0  0  0  0
   -6.8091   -8.6008    6.2595 C   0  0  0  0  0  0  0  0  0  0  0  0
   -5.7657   -7.6778    6.2886 C   0  0  0  0  0  0  0  0  0  0  0  0
   -5.4494   -6.9981    7.4416 C   0  0  0  0  0  0  0  0  0  0  0  0
   -6.2029   -7.2662    8.5603 C   0  0  0  0  0  0  0  0  0  0  0  0
   -7.2257   -8.1752    8.5194 C   0  0  0  0  0  0  0  0  0  0  0  0
   -4.3774   -6.0530    7.4621 N   0  0  0  0  0  0  0  0  0  0  0  0
   -3.5007   -6.1498    8.3414 O   0  0  0  0  0  0  0  0  0  0  0  0
   -4.3758   -5.0786    6.4973 O   0  0  0  0  0  0  0  0  0  0  0  0
 13 14  1  0  0  0
 14 15  1  0  0  0
 14 12  1  0  0  0
 12  6  1  0  0  0
  6  7  2  0  0  0
  7  8  1  0  0  0
  8  9  2  0  0  0
  9  5  1  0  0  0
  5  3  1  0  0  0
  3  1  1  0  0  0
  1  2  2  0  0  0
  1 16  1  0  0  0
 16 18  1  0  0  0
 18 19  2  0  0  0
 19 20  1  0  0  0
 20 21  2  0  0  0
 21 22  1  0  0  0
 22 23  2  0  0  0
 23 26  1  0  0  0
 26 27  2  0  0  0
 26 28  1  0  0  0
 23 24  1  0  0  0
 24 25  2  0  0  0
  9 10  1  0  0  0
 10 11  2  0  0  0
 11  6  1  0  0  0
 25 20  1  0  0  0
  3  4  1  0  0  0
 16 17  1  0  0  0
M  CHG 1  26   1
M  CHG 1  28  -1
M  END
> <minimizedAffinity>
-8.41551

> <CNNscore>
0.4855428934

> <CNNaffinity>
6.5638136864

> <CNN_VS>
3.1870131493

> <CNNaffinity_variance>
0.1191178560

$$$$
[H]C(=NN([H])C(=S)N([H])C([H])([H])c1c([H])c([H])c(OC([H])(C([H])([H])[H])C([H])([H])[H])c([H])c1[H])c1c([H])c([H])c([N+](=O)[O-])c([H])c1[H]


 28 29  0  0  0  0  0  0  0  0999 V2000
  -10.5415   -9.1065    7.8281 C   0  0  0  0  0  0  0  0  0  0  0  0
   -9.9736  -10.2025    6.7687 S   0  0  0  0  0  0  0  0  0  0  0  0
  -11.8433   -9.2514    8.3439 N   0  0  0  0  0  0  0  0  0  0  0  0
  -12.1285   -8.7531    9.2075 H   0  0  0  0  0  0  0  0  0  0  0  0
  -12.8017  -10.0988    7.6744 C   0  0  0  0  0  0  0  0  0  0  0  0
  -15.7185   -7.7945    5.5296 C   0  0  0  0  0  0  0  0  0  0  0  0
  -15.7740   -7.9418    6.9162 C   0  0  0  0  0  0  0  0  0  0  0  0
  -14.8303   -8.6842    7.5869 C   0  0  0  0  0  0  0  0  0  0  0  0
  -13.7999   -9.3072    6.9179 C   0  0  0  0  0  0  0  0  0  0  0  0
  -13.7757   -9.1414    5.5555 C   0  0  0  0  0  0  0  0  0  0  0  0
  -14.7136   -8.3978    4.8456 C   0  0  0  0  0  0  0  0  0  0  0  0
  -16.6827   -7.0443    4.9069 O   0  0  0  0  0  0  0  0  0  0  0  0
  -18.1400   -5.2151    4.2809 C   0  0  0  0  0  0  0  0  0  0  0  0
  -16.9222   -5.6929    5.0707 C   0  0  0  0  0  0  0  0  0  0  0  0
  -15.7235   -4.8981    4.5505 C   0  0  0  0  0  0  0  0  0  0  0  0
   -9.7340   -8.0051    8.2362 N   0  0  0  0  0  0  0  0  0  0  0  0
   -9.3092   -7.9699    9.2084 H   0  0  0  0  0  0  0  0  0  0  0  0
   -9.4758   -6.9611    7.4105 N   0  0  0  0  0  0  0  0  0  0  0  0
   -8.5008   -6.5017    6.8249 C   0  0  0  0  0  0  0  0  0  0  0  0
   -7.1444   -6.9939    6.8329 C   0  0  0  0  0  0  0  0  0  0  0  0
   -6.7014   -8.1117    6.1645 C   0  0  0  0  0  0  0  0  0  0  0  0
   -5.3770   -8.5423    6.2072 C   0  0  0  0  0  0  0  0  0  0  0  0
   -4.4299   -7.8585    6.9333 C   0  0  0  0  0  0  0  0  0  0  0  0
   -4.8429   -6.7365    7.6126 C   0  0  0  0  0  0  0  0  0  0  0  0
   -6.1471   -6.3232    7.5629 C   0  0  0  0  0  0  0  0  0  0  0  0
   -3.0736   -8.3077    6.9713 N   0  0  0  0  0  0  0  0  0  0  0  0
   -2.5913   -8.8649    5.9673 O   0  0  0  0  0  0  0  0  0  0  0  0
   -2.3704   -8.0962    8.1293 O   0  0  0  0  0  0  0  0  0  0  0  0
 13 14  1  0  0  0
 14 15  1  0  0  0
 14 12  1  0  0  0
 12  6  1  0  0  0
  6  7  2  0  0  0
  7  8  1  0  0  0
  8  9  2  0  0  0
  9  5  1  0  0  0
  5  3  1  0  0  0
  3  1  1  0  0  0
  1  2  2  0  0  0
  1 16  1  0  0  0
 16 18  1  0  0  0
 18 19  2  0  0  0
 19 20  1  0  0  0
 20 21  2  0  0  0
 21 22  1  0  0  0
 22 23  2  0  0  0
 23 26  1  0  0  0
 26 27  2  0  0  0
 26 28  1  0  0  0
 23 24  1  0  0  0
 24 25  2  0  0  0
  9 10  1  0  0  0
 10 11  2  0  0  0
 11  6  1  0  0  0
 25 20  1  0  0  0
  3  4  1  0  0  0
 16 17  1  0  0  0
M  CHG 1  26   1
M  CHG 1  28  -1
M  END
> <minimizedAffinity>
-7.68277

> <CNNscore>
0.4427272081

> <CNNaffinity>
6.4182882309

> <CNN_VS>
2.8415508270

> <CNNaffinity_variance>
0.0424462333

$$$$
[H]C(=NN([H])C(=S)N([H])C([H])([H])c1c([H])c([H])c(OC([H])(C([H])([H])[H])C([H])([H])[H])c([H])c1[H])c1c([H])c([H])c([N+](=O)[O-])c([H])c1[H]


 28 29  0  0  0  0  0  0  0  0999 V2000
  -11.4336   -8.4358    8.4768 C   0  0  0  0  0  0  0  0  0  0  0  0
  -11.4264   -6.9765    9.1952 S   0  0  0  0  0  0  0  0  0  0  0  0
  -12.3623   -9.4084    8.8931 N   0  0  0  0  0  0  0  0  0  0  0  0
  -12.5410   -9.5717    9.9016 H   0  0  0  0  0  0  0  0  0  0  0  0
  -13.0808  -10.1938    7.9176 C   0  0  0  0  0  0  0  0  0  0  0  0
  -15.6217   -7.7319    5.4885 C   0  0  0  0  0  0  0  0  0  0  0  0
  -15.8058   -7.8415    6.8674 C   0  0  0  0  0  0  0  0  0  0  0  0
  -14.9816   -8.6354    7.6302 C   0  0  0  0  0  0  0  0  0  0  0  0
  -13.9482   -9.3488    7.0638 C   0  0  0  0  0  0  0  0  0  0  0  0
  -13.7959   -9.2180    5.7060 C   0  0  0  0  0  0  0  0  0  0  0  0
  -14.6109   -8.4242    4.9046 C   0  0  0  0  0  0  0  0  0  0  0  0
  -16.4699   -6.9275    4.7716 O   0  0  0  0  0  0  0  0  0  0  0  0
  -18.0852   -5.1650    4.3901 C   0  0  0  0  0  0  0  0  0  0  0  0
  -16.7573   -5.5969    5.0108 C   0  0  0  0  0  0  0  0  0  0  0  0
  -15.6736   -4.7218    4.3792 C   0  0  0  0  0  0  0  0  0  0  0  0
  -10.5103   -8.7358    7.4332 N   0  0  0  0  0  0  0  0  0  0  0  0
  -10.5295   -8.2010    6.5163 H   0  0  0  0  0  0  0  0  0  0  0  0
   -9.5757   -9.7098    7.5613 N   0  0  0  0  0  0  0  0  0  0  0  0
   -8.3511   -9.7813    7.5678 C   0  0  0  0  0  0  0  0  0  0  0  0
   -7.3962   -8.7093    7.4217 C   0  0  0  0  0  0  0  0  0  0  0  0
   -6.9319   -7.9148    8.4442 C   0  0  0  0  0  0  0  0  0  0  0  0
   -6.0074   -6.8914    8.2456 C   0  0  0  0  0  0  0  0  0  0  0  0
   -5.5044   -6.6202    6.9946 C   0  0  0  0  0  0  0  0  0  0  0  0
   -5.9502   -7.3980    5.9518 C   0  0  0  0  0  0  0  0  0  0  0  0
   -6.8588   -8.4008    6.1594 C   0  0  0  0  0  0  0  0  0  0  0  0
   -4.5564   -5.5683    6.8004 N   0  0  0  0  0  0  0  0  0  0  0  0
   -4.0111   -5.0528    7.7943 O   0  0  0  0  0  0  0  0  0  0  0  0
   -4.2978   -5.1811    5.5106 O   0  0  0  0  0  0  0  0  0  0  0  0
 13 14  1  0  0  0
 14 15  1  0  0  0
 14 12  1  0  0  0
 12  6  1  0  0  0
  6  7  2  0  0  0
  7  8  1  0  0  0
  8  9  2  0  0  0
  9  5  1  0  0  0
  5  3  1  0  0  0
  3  1  1  0  0  0
  1  2  2  0  0  0
  1 16  1  0  0  0
 16 18  1  0  0  0
 18 19  2  0  0  0
 19 20  1  0  0  0
 20 21  2  0  0  0
 21 22  1  0  0  0
 22 23  2  0  0  0
 23 26  1  0  0  0
 26 27  2  0  0  0
 26 28  1  0  0  0
 23 24  1  0  0  0
 24 25  2  0  0  0
  9 10  1  0  0  0
 10 11  2  0  0  0
 11  6  1  0  0  0
 25 20  1  0  0  0
  3  4  1  0  0  0
 16 17  1  0  0  0
M  CHG 1  26   1
M  CHG 1  28  -1
M  END
> <minimizedAffinity>
-8.38747

> <CNNscore>
0.4391183257

> <CNNaffinity>
6.4980382919

> <CNN_VS>
2.8534076214

> <CNNaffinity_variance>
0.1131821647

$$$$
[H]c1nc(N([H])[H])c(C(=O)N([H])c2c([H])nc([H])c([H])c2N2C([H])([H])C([H])([H])C([H])(N([H])[H])C([H])([H])C2([H])[H])nc1-c1c([H])c([H])c(OC([H])([H])[H])c([H])c1[H]


 36 39  0  0  0  0  0  0  0  0999 V2000
  -15.1362   -6.2435    7.1552 C   0  0  0  0  0  0  0  0  0  0  0  0
  -14.5055   -5.1846    6.9692 O   0  0  0  0  0  0  0  0  0  0  0  0
  -16.2586   -6.7067    6.4548 N   0  0  0  0  0  0  0  0  0  0  0  0
  -16.6244   -7.6577    6.7761 H   0  0  0  0  0  0  0  0  0  0  0  0
  -13.1842   -7.2407   10.1565 C   0  0  0  0  0  0  0  0  0  0  0  0
  -13.5757   -8.5448   10.2943 C   0  0  0  0  0  0  0  0  0  0  0  0
  -14.4676   -9.1178    9.4293 N   0  0  0  0  0  0  0  0  0  0  0  0
  -14.9779   -8.3819    8.4120 C   0  0  0  0  0  0  0  0  0  0  0  0
  -15.9134   -8.9485    7.4895 N   0  0  0  0  0  0  0  0  0  0  0  0
  -14.5998   -7.0833    8.2598 C   0  0  0  0  0  0  0  0  0  0  0  0
  -13.7099   -6.5427    9.1378 N   0  0  0  0  0  0  0  0  0  0  0  0
  -15.6146   -9.2791    6.5499 H   0  0  0  0  0  0  0  0  0  0  0  0
  -16.8959   -9.0277    7.7646 H   0  0  0  0  0  0  0  0  0  0  0  0
  -10.4797   -5.3303   12.8514 C   0  0  0  0  0  0  0  0  0  0  0  0
  -10.0239   -5.7943   11.6423 C   0  0  0  0  0  0  0  0  0  0  0  0
  -10.9090   -6.4063   10.7893 C   0  0  0  0  0  0  0  0  0  0  0  0
  -12.2415   -6.5979   11.0490 C   0  0  0  0  0  0  0  0  0  0  0  0
  -12.6762   -6.1132   12.2912 C   0  0  0  0  0  0  0  0  0  0  0  0
  -11.8173   -5.4924   13.1760 C   0  0  0  0  0  0  0  0  0  0  0  0
   -8.3273   -5.2801   13.9373 C   0  0  0  0  0  0  0  0  0  0  0  0
   -9.5937   -4.7149   13.7106 O   0  0  0  0  0  0  0  0  0  0  0  0
  -16.9420   -6.0991    5.3815 C   0  0  0  0  0  0  0  0  0  0  0  0
  -18.0556   -5.3328    5.5503 C   0  0  0  0  0  0  0  0  0  0  0  0
  -18.6641   -4.7261    4.5160 N   0  0  0  0  0  0  0  0  0  0  0  0
  -18.2073   -4.8430    3.2639 C   0  0  0  0  0  0  0  0  0  0  0  0
  -17.0893   -5.6027    3.0307 C   0  0  0  0  0  0  0  0  0  0  0  0
  -16.4454   -6.2399    4.0905 C   0  0  0  0  0  0  0  0  0  0  0  0
  -15.3176   -7.0518    3.8301 N   0  0  0  0  0  0  0  0  0  0  0  0
  -13.9711   -6.7311    4.2095 C   0  0  0  0  0  0  0  0  0  0  0  0
  -13.3393   -7.9149    4.9047 C   0  0  0  0  0  0  0  0  0  0  0  0
  -14.3738   -8.9388    5.2480 C   0  0  0  0  0  0  0  0  0  0  0  0
  -13.7297  -10.1370    5.8035 N   0  0  0  0  0  0  0  0  0  0  0  0
  -15.1870   -9.4238    4.0788 C   0  0  0  0  0  0  0  0  0  0  0  0
  -15.5241   -8.3119    3.1294 C   0  0  0  0  0  0  0  0  0  0  0  0
  -14.3955  -10.9158    5.8145 H   0  0  0  0  0  0  0  0  0  0  0  0
  -13.2751   -9.9309    6.7153 H   0  0  0  0  0  0  0  0  0  0  0  0
 20 21  1  0  0  0
 21 14  1  0  0  0
 14 15  2  0  0  0
 15 16  1  0  0  0
 16 17  2  0  0  0
 17  5  1  0  0  0
  5  6  2  0  0  0
  6  7  1  0  0  0
  7  8  2  0  0  0
  8  9  1  0  0  0
  8 10  1  0  0  0
 10  1  1  0  0  0
  1  2  2  0  0  0
  1  3  1  0  0  0
  3 22  1  0  0  0
 22 23  2  0  0  0
 23 24  1  0  0  0
 24 25  2  0  0  0
 25 26  1  0  0  0
 26 27  2  0  0  0
 27 28  1  0  0  0
 28 29  1  0  0  0
 29 30  1  0  0  0
 30 31  1  0  0  0
 31 32  1  0  0  0
 31 33  1  0  0  0
 33 34  1  0  0  0
 10 11  2  0  0  0
 17 18  1  0  0  0
 18 19  2  0  0  0
 19 14  1  0  0  0
 11  5  1  0  0  0
 27 22  1  0  0  0
 34 28  1  0  0  0
  9 12  1  0  0  0
  9 13  1  0  0  0
  3  4  1  0  0  0
 32 35  1  0  0  0
 32 36  1  0  0  0
M  END
> <minimizedAffinity>
9.42927

> <CNNscore>
0.4615835249

> <CNNaffinity>
7.2079086304

> <CNN_VS>
3.3270518780

> <CNNaffinity_variance>
0.5110120773

$$$$
[H]c1nc(N([H])[H])c(C(=O)N([H])c2c([H])nc([H])c([H])c2N2C([H])([H])C([H])([H])C([H])(N([H])[H])C([H])([H])C2([H])[H])nc1-c1c([H])c([H])c(OC([H])([H])[H])c([H])c1[H]


 36 39  0  0  0  0  0  0  0  0999 V2000
  -14.5699   -6.4436    6.1015 C   0  0  0  0  0  0  0  0  0  0  0  0
  -14.2082   -5.2647    5.9199 O   0  0  0  0  0  0  0  0  0  0  0  0
  -15.7558   -7.0526    5.6684 N   0  0  0  0  0  0  0  0  0  0  0  0
  -15.8463   -8.0860    5.9236 H   0  0  0  0  0  0  0  0  0  0  0  0
  -12.2032   -7.4570    8.7819 C   0  0  0  0  0  0  0  0  0  0  0  0
  -11.8244   -8.6935    8.3343 C   0  0  0  0  0  0  0  0  0  0  0  0
  -12.3221   -9.2154    7.1715 N   0  0  0  0  0  0  0  0  0  0  0  0
  -13.2104   -8.4960    6.4433 C   0  0  0  0  0  0  0  0  0  0  0  0
  -13.7518   -9.0111    5.2231 N   0  0  0  0  0  0  0  0  0  0  0  0
  -13.5984   -7.2643    6.8734 C   0  0  0  0  0  0  0  0  0  0  0  0
  -13.0842   -6.7733    8.0352 N   0  0  0  0  0  0  0  0  0  0  0  0
  -13.3821   -8.7124    4.2982 H   0  0  0  0  0  0  0  0  0  0  0  0
  -14.5189   -9.6871    5.2668 H   0  0  0  0  0  0  0  0  0  0  0  0
  -10.8004   -5.7474   12.4337 C   0  0  0  0  0  0  0  0  0  0  0  0
  -10.0169   -5.6884   11.3078 C   0  0  0  0  0  0  0  0  0  0  0  0
  -10.4854   -6.2444   10.1429 C   0  0  0  0  0  0  0  0  0  0  0  0
  -11.6985   -6.8685   10.0056 C   0  0  0  0  0  0  0  0  0  0  0  0
  -12.4750   -6.9123   11.1727 C   0  0  0  0  0  0  0  0  0  0  0  0
  -12.0391   -6.3650   12.3628 C   0  0  0  0  0  0  0  0  0  0  0  0
   -8.9841   -5.3434   13.9676 C   0  0  0  0  0  0  0  0  0  0  0  0
  -10.3332   -5.1900   13.6055 O   0  0  0  0  0  0  0  0  0  0  0  0
  -16.8176   -6.4911    4.9297 C   0  0  0  0  0  0  0  0  0  0  0  0
  -16.6782   -5.3736    4.1633 C   0  0  0  0  0  0  0  0  0  0  0  0
  -17.6939   -4.8825    3.4316 N   0  0  0  0  0  0  0  0  0  0  0  0
  -18.8975   -5.4666    3.4172 C   0  0  0  0  0  0  0  0  0  0  0  0
  -19.0993   -6.5954    4.1698 C   0  0  0  0  0  0  0  0  0  0  0  0
  -18.0583   -7.1187    4.9356 C   0  0  0  0  0  0  0  0  0  0  0  0
  -18.2920   -8.2596    5.7372 N   0  0  0  0  0  0  0  0  0  0  0  0
  -18.3959   -8.2488    7.1686 C   0  0  0  0  0  0  0  0  0  0  0  0
  -19.6339   -9.0017    7.5979 C   0  0  0  0  0  0  0  0  0  0  0  0
  -20.5201   -9.2725    6.4241 C   0  0  0  0  0  0  0  0  0  0  0  0
  -21.6518  -10.1158    6.8330 N   0  0  0  0  0  0  0  0  0  0  0  0
  -19.8550  -10.0107    5.2944 C   0  0  0  0  0  0  0  0  0  0  0  0
  -18.4452   -9.5470    5.0735 C   0  0  0  0  0  0  0  0  0  0  0  0
  -22.1190  -10.4960    6.0042 H   0  0  0  0  0  0  0  0  0  0  0  0
  -22.2723   -9.6147    7.4997 H   0  0  0  0  0  0  0  0  0  0  0  0
 20 21  1  0  0  0
 21 14  1  0  0  0
 14 15  2  0  0  0
 15 16  1  0  0  0
 16 17  2  0  0  0
 17  5  1  0  0  0
  5  6  2  0  0  0
  6  7  1  0  0  0
  7  8  2  0  0  0
  8  9  1  0  0  0
  8 10  1  0  0  0
 10  1  1  0  0  0
  1  2  2  0  0  0
  1  3  1  0  0  0
  3 22  1  0  0  0
 22 23  2  0  0  0
 23 24  1  0  0  0
 24 25  2  0  0  0
 25 26  1  0  0  0
 26 27  2  0  0  0
 27 28  1  0  0  0
 28 29  1  0  0  0
 29 30  1  0  0  0
 30 31  1  0  0  0
 31 32  1  0  0  0
 31 33  1  0  0  0
 33 34  1  0  0  0
 10 11  2  0  0  0
 17 18  1  0  0  0
 18 19  2  0  0  0
 19 14  1  0  0  0
 11  5  1  0  0  0
 27 22  1  0  0  0
 34 28  1  0  0  0
  9 12  1  0  0  0
  9 13  1  0  0  0
  3  4  1  0  0  0
 32 35  1  0  0  0
 32 36  1  0  0  0
M  END
> <minimizedAffinity>
7.25329

> <CNNscore>
0.3647308052

> <CNNaffinity>
7.0245256424

> <CNN_VS>
2.5620608330

> <CNNaffinity_variance>
0.8250058889

$$$$
[H]c1nc(N([H])[H])c(C(=O)N([H])c2c([H])nc([H])c([H])c2N2C([H])([H])C([H])([H])C([H])(N([H])[H])C([H])([H])C2([H])[H])nc1-c1c([H])c([H])c(OC([H])([H])[H])c([H])c1[H]


 36 39  0  0  0  0  0  0  0  0999 V2000
   -9.3345   -7.0749    6.1932 C   0  0  0  0  0  0  0  0  0  0  0  0
   -9.5753   -7.4111    5.0174 O   0  0  0  0  0  0  0  0  0  0  0  0
  -10.2490   -6.6533    7.1684 N   0  0  0  0  0  0  0  0  0  0  0  0
   -9.8169   -6.4327    8.1202 H   0  0  0  0  0  0  0  0  0  0  0  0
   -6.2167   -6.7375    8.1877 C   0  0  0  0  0  0  0  0  0  0  0  0
   -5.2948   -7.2349    7.3070 C   0  0  0  0  0  0  0  0  0  0  0  0
   -5.6610   -7.6832    6.0672 N   0  0  0  0  0  0  0  0  0  0  0  0
   -6.9644   -7.6362    5.6983 C   0  0  0  0  0  0  0  0  0  0  0  0
   -7.3829   -8.0973    4.4102 N   0  0  0  0  0  0  0  0  0  0  0  0
   -7.8949   -7.1446    6.5616 C   0  0  0  0  0  0  0  0  0  0  0  0
   -7.4976   -6.7060    7.7884 N   0  0  0  0  0  0  0  0  0  0  0  0
   -7.5683   -7.4334    3.6316 H   0  0  0  0  0  0  0  0  0  0  0  0
   -7.5012   -9.1022    4.2570 H   0  0  0  0  0  0  0  0  0  0  0  0
   -5.2733   -5.3524   12.1142 C   0  0  0  0  0  0  0  0  0  0  0  0
   -4.4896   -4.9761   11.0516 C   0  0  0  0  0  0  0  0  0  0  0  0
   -4.8090   -5.4323    9.7964 C   0  0  0  0  0  0  0  0  0  0  0  0
   -5.8698   -6.2515    9.5074 C   0  0  0  0  0  0  0  0  0  0  0  0
   -6.6507   -6.6179   10.6133 C   0  0  0  0  0  0  0  0  0  0  0  0
   -6.3622   -6.1801   11.8904 C   0  0  0  0  0  0  0  0  0  0  0  0
   -4.2166   -5.7093   14.2522 C   0  0  0  0  0  0  0  0  0  0  0  0
   -4.9557   -4.8961   13.3763 O   0  0  0  0  0  0  0  0  0  0  0  0
  -11.6475   -6.5079    7.0629 C   0  0  0  0  0  0  0  0  0  0  0  0
  -12.2375   -5.5549    6.2886 C   0  0  0  0  0  0  0  0  0  0  0  0
  -13.5738   -5.4644    6.1681 N   0  0  0  0  0  0  0  0  0  0  0  0
  -14.3962   -6.3071    6.8032 C   0  0  0  0  0  0  0  0  0  0  0  0
  -13.8608   -7.2881    7.5985 C   0  0  0  0  0  0  0  0  0  0  0  0
  -12.4777   -7.3969    7.7363 C   0  0  0  0  0  0  0  0  0  0  0  0
  -11.9412   -8.3876    8.5905 N   0  0  0  0  0  0  0  0  0  0  0  0
  -12.0296   -8.3707   10.0229 C   0  0  0  0  0  0  0  0  0  0  0  0
  -12.5174   -9.7113   10.5217 C   0  0  0  0  0  0  0  0  0  0  0  0
  -13.0345  -10.5393    9.3887 C   0  0  0  0  0  0  0  0  0  0  0  0
  -13.3827  -11.8842    9.8675 N   0  0  0  0  0  0  0  0  0  0  0  0
  -12.0522  -10.7519    8.2691 C   0  0  0  0  0  0  0  0  0  0  0  0
  -11.2490   -9.5168    7.9847 C   0  0  0  0  0  0  0  0  0  0  0  0
  -13.5057  -12.5157    9.0700 H   0  0  0  0  0  0  0  0  0  0  0  0
  -14.1807  -11.8514   10.5328 H   0  0  0  0  0  0  0  0  0  0  0  0
 20 21  1  0  0  0
 21 14  1  0  0  0
 14 15  2  0  0  0
 15 16  1  0  0  0
 16 17  2  0  0  0
 17  5  1  0  0  0
  5  6  2  0  0  0
  6  7  1  0  0  0
  7  8  2  0  0  0
  8  9  1  0  0  0
  8 10  1  0  0  0
 10  1  1  0  0  0
  1  2  2  0  0  0
  1  3  1  0  0  0
  3 22  1  0  0  0
 22 23  2  0  0  0
 23 24  1  0  0  0
 24 25  2  0  0  0
 25 26  1  0  0  0
 26 27  2  0  0  0
 27 28  1  0  0  0
 28 29  1  0  0  0
 29 30  1  0  0  0
 30 31  1  0  0  0
 31 32  1  0  0  0
 31 33  1  0  0  0
 33 34  1  0  0  0
 10 11  2  0  0  0
 17 18  1  0  0  0
 18 19  2  0  0  0
 19 14  1  0  0  0
 11  5  1  0  0  0
 27 22  1  0  0  0
 34 28  1  0  0  0
  9 12  1  0  0  0
  9 13  1  0  0  0
  3  4  1  0  0  0
 32 35  1  0  0  0
 32 36  1  0  0  0
M  END
> <minimizedAffinity>
27.85910

> <CNNscore>
0.3520419896

> <CNNaffinity>
6.3979592323

> <CNN_VS>
2.2523503304

> <CNNaffinity_variance>
1.2477240562

$$$$
[H]c1nc(N([H])[H])c(C(=O)N([H])c2c([H])nc([H])c([H])c2N2C([H])([H])C([H])([H])C([H])(N([H])[H])C([H])([H])C2([H])[H])nc1-c1c([H])c([H])c(OC([H])([H])[H])c([H])c1[H]


 36 39  0  0  0  0  0  0  0  0999 V2000
  -15.6294   -5.6568    5.6416 C   0  0  0  0  0  0  0  0  0  0  0  0
  -15.9543   -6.2474    6.6900 O   0  0  0  0  0  0  0  0  0  0  0  0
  -16.4738   -5.0346    4.7116 N   0  0  0  0  0  0  0  0  0  0  0  0
  -15.9703   -4.5709    3.8914 H   0  0  0  0  0  0  0  0  0  0  0  0
  -12.0225   -6.5131    5.9043 C   0  0  0  0  0  0  0  0  0  0  0  0
  -11.4877   -5.6523    4.9846 C   0  0  0  0  0  0  0  0  0  0  0  0
  -12.2751   -4.7900    4.2714 N   0  0  0  0  0  0  0  0  0  0  0  0
  -13.6148   -4.7844    4.4763 C   0  0  0  0  0  0  0  0  0  0  0  0
  -14.4682   -3.8969    3.7475 N   0  0  0  0  0  0  0  0  0  0  0  0
  -14.1639   -5.6339    5.3871 C   0  0  0  0  0  0  0  0  0  0  0  0
  -13.3525   -6.4798    6.0809 N   0  0  0  0  0  0  0  0  0  0  0  0
  -14.8180   -3.0135    4.1702 H   0  0  0  0  0  0  0  0  0  0  0  0
  -14.7374   -4.1410    2.7909 H   0  0  0  0  0  0  0  0  0  0  0  0
   -9.5885   -9.2154    8.1402 C   0  0  0  0  0  0  0  0  0  0  0  0
  -10.9362   -9.1436    8.3920 C   0  0  0  0  0  0  0  0  0  0  0  0
  -11.7023   -8.2679    7.6626 C   0  0  0  0  0  0  0  0  0  0  0  0
  -11.2238   -7.4393    6.6806 C   0  0  0  0  0  0  0  0  0  0  0  0
   -9.8442   -7.5362    6.4473 C   0  0  0  0  0  0  0  0  0  0  0  0
   -9.0406   -8.4040    7.1593 C   0  0  0  0  0  0  0  0  0  0  0  0
   -7.4521   -9.8256    9.0775 C   0  0  0  0  0  0  0  0  0  0  0  0
   -8.8159  -10.0939    8.8706 O   0  0  0  0  0  0  0  0  0  0  0  0
  -17.8793   -4.9234    4.7317 C   0  0  0  0  0  0  0  0  0  0  0  0
  -18.5299   -3.8348    5.2293 C   0  0  0  0  0  0  0  0  0  0  0  0
  -19.8702   -3.7315    5.1964 N   0  0  0  0  0  0  0  0  0  0  0  0
  -20.6374   -4.6941    4.6722 C   0  0  0  0  0  0  0  0  0  0  0  0
  -20.0396   -5.8155    4.1558 C   0  0  0  0  0  0  0  0  0  0  0  0
  -18.6513   -5.9407    4.1819 C   0  0  0  0  0  0  0  0  0  0  0  0
  -18.0513   -7.1194    3.6823 N   0  0  0  0  0  0  0  0  0  0  0  0
  -17.0320   -7.1561    2.6726 C   0  0  0  0  0  0  0  0  0  0  0  0
  -15.8904   -8.0349    3.1292 C   0  0  0  0  0  0  0  0  0  0  0  0
  -16.0225   -8.3581    4.5833 C   0  0  0  0  0  0  0  0  0  0  0  0
  -14.9820   -9.3161    4.9816 N   0  0  0  0  0  0  0  0  0  0  0  0
  -17.3286   -8.9995    4.9661 C   0  0  0  0  0  0  0  0  0  0  0  0
  -18.4876   -8.3977    4.2274 C   0  0  0  0  0  0  0  0  0  0  0  0
  -15.2108   -9.7172    5.8962 H   0  0  0  0  0  0  0  0  0  0  0  0
  -14.0348   -8.8943    4.9081 H   0  0  0  0  0  0  0  0  0  0  0  0
 20 21  1  0  0  0
 21 14  1  0  0  0
 14 15  2  0  0  0
 15 16  1  0  0  0
 16 17  2  0  0  0
 17  5  1  0  0  0
  5  6  2  0  0  0
  6  7  1  0  0  0
  7  8  2  0  0  0
  8  9  1  0  0  0
  8 10  1  0  0  0
 10  1  1  0  0  0
  1  2  2  0  0  0
  1  3  1  0  0  0
  3 22  1  0  0  0
 22 23  2  0  0  0
 23 24  1  0  0  0
 24 25  2  0  0  0
 25 26  1  0  0  0
 26 27  2  0  0  0
 27 28  1  0  0  0
 28 29  1  0  0  0
 29 30  1  0  0  0
 30 31  1  0  0  0
 31 32  1  0  0  0
 31 33  1  0  0  0
 33 34  1  0  0  0
 10 11  2  0  0  0
 17 18  1  0  0  0
 18 19  2  0  0  0
 19 14  1  0  0  0
 11  5  1  0  0  0
 27 22  1  0  0  0
 34 28  1  0  0  0
  9 12  1  0  0  0
  9 13  1  0  0  0
  3  4  1  0  0  0
 32 35  1  0  0  0
 32 36  1  0  0  0
M  END
> <minimizedAffinity>
24.74570

> <CNNscore>
0.3503921926

> <CNNaffinity>
6.8509459496

> <CNN_VS>
2.4005179405

> <CNNaffinity_variance>
0.5912551880

$$$$
[H]c1nc(N([H])[H])c(C(=O)N([H])c2c([H])nc([H])c([H])c2N2C([H])([H])C([H])([H])C([H])(N([H])[H])C([H])([H])C2([H])[H])nc1-c1c([H])c([H])c(OC([H])([H])[H])c([H])c1[H]


 36 39  0  0  0  0  0  0  0  0999 V2000
  -10.0954   -7.0493    7.2371 C   0  0  0  0  0  0  0  0  0  0  0  0
   -9.9798   -5.8735    7.6343 O   0  0  0  0  0  0  0  0  0  0  0  0
  -11.2782   -7.7771    7.0466 N   0  0  0  0  0  0  0  0  0  0  0  0
  -11.1372   -8.7700    6.6782 H   0  0  0  0  0  0  0  0  0  0  0  0
   -7.5393   -9.0944    5.4774 C   0  0  0  0  0  0  0  0  0  0  0  0
   -6.4806   -8.9747    6.3363 C   0  0  0  0  0  0  0  0  0  0  0  0
   -6.5735   -8.2388    7.4861 N   0  0  0  0  0  0  0  0  0  0  0  0
   -7.7375   -7.6124    7.7856 C   0  0  0  0  0  0  0  0  0  0  0  0
   -7.8698   -6.8339    8.9788 N   0  0  0  0  0  0  0  0  0  0  0  0
   -8.8008   -7.7205    6.9428 C   0  0  0  0  0  0  0  0  0  0  0  0
   -8.6757   -8.4607    5.8062 N   0  0  0  0  0  0  0  0  0  0  0  0
   -8.3386   -7.2156    9.8249 H   0  0  0  0  0  0  0  0  0  0  0  0
   -7.4938   -5.8823    8.9948 H   0  0  0  0  0  0  0  0  0  0  0  0
   -7.4362  -11.4297    1.9051 C   0  0  0  0  0  0  0  0  0  0  0  0
   -6.6462  -10.3119    2.0122 C   0  0  0  0  0  0  0  0  0  0  0  0
   -6.6938   -9.5735    3.1690 C   0  0  0  0  0  0  0  0  0  0  0  0
   -7.4822   -9.8650    4.2522 C   0  0  0  0  0  0  0  0  0  0  0  0
   -8.2768  -11.0121    4.1119 C   0  0  0  0  0  0  0  0  0  0  0  0
   -8.2572  -11.7804    2.9651 C   0  0  0  0  0  0  0  0  0  0  0  0
   -8.1687  -11.7961   -0.3630 C   0  0  0  0  0  0  0  0  0  0  0  0
   -7.3910  -12.1739    0.7448 O   0  0  0  0  0  0  0  0  0  0  0  0
  -12.6109   -7.3654    7.2529 C   0  0  0  0  0  0  0  0  0  0  0  0
  -13.5076   -7.2199    6.2377 C   0  0  0  0  0  0  0  0  0  0  0  0
  -14.7861   -6.8698    6.4637 N   0  0  0  0  0  0  0  0  0  0  0  0
  -15.2462   -6.6456    7.6998 C   0  0  0  0  0  0  0  0  0  0  0  0
  -14.3900   -6.7758    8.7634 C   0  0  0  0  0  0  0  0  0  0  0  0
  -13.0606   -7.1371    8.5486 C   0  0  0  0  0  0  0  0  0  0  0  0
  -12.1796   -7.2288    9.6506 N   0  0  0  0  0  0  0  0  0  0  0  0
  -10.9093   -6.5672    9.7422 C   0  0  0  0  0  0  0  0  0  0  0  0
  -10.7995   -5.8510   11.0684 C   0  0  0  0  0  0  0  0  0  0  0  0
  -12.1293   -5.7970   11.7505 C   0  0  0  0  0  0  0  0  0  0  0  0
  -11.9825   -5.2161   13.0922 N   0  0  0  0  0  0  0  0  0  0  0  0
  -12.7801   -7.1372   11.9606 C   0  0  0  0  0  0  0  0  0  0  0  0
  -12.5808   -8.0487   10.7856 C   0  0  0  0  0  0  0  0  0  0  0  0
  -12.8278   -5.3955   13.6427 H   0  0  0  0  0  0  0  0  0  0  0  0
  -11.6918   -4.2194   13.0404 H   0  0  0  0  0  0  0  0  0  0  0  0
 20 21  1  0  0  0
 21 14  1  0  0  0
 14 15  2  0  0  0
 15 16  1  0  0  0
 16 17  2  0  0  0
 17  5  1  0  0  0
  5  6  2  0  0  0
  6  7  1  0  0  0
  7  8  2  0  0  0
  8  9  1  0  0  0
  8 10  1  0  0  0
 10  1  1  0  0  0
  1  2  2  0  0  0
  1  3  1  0  0  0
  3 22  1  0  0  0
 22 23  2  0  0  0
 23 24  1  0  0  0
 24 25  2  0  0  0
 25 26  1  0  0  0
 26 27  2  0  0  0
 27 28  1  0  0  0
 28 29  1  0  0  0
 29 30  1  0  0  0
 30 31  1  0  0  0
 31 32  1  0  0  0
 31 33  1  0  0  0
 33 34  1  0  0  0
 10 11  2  0  0  0
 17 18  1  0  0  0
 18 19  2  0  0  0
 19 14  1  0  0  0
 11  5  1  0  0  0
 27 22  1  0  0  0
 34 28  1  0  0  0
  9 12  1  0  0  0
  9 13  1  0  0  0
  3  4  1  0  0  0
 32 35  1  0  0  0
 32 36  1  0  0  0
M  END
> <minimizedAffinity>
14.96642

> <CNNscore>
0.3478975296

> <CNNaffinity>
6.6975822449

> <CNN_VS>
2.3300724030

> <CNNaffinity_variance>
0.9403684735

$$$$
[H]c1nc(N([H])[H])c(C(=O)N([H])c2c([H])nc([H])c([H])c2N2C([H])([H])C([H])([H])C([H])(N([H])[H])C([H])([H])C2([H])[H])nc1-c1c([H])c([H])c(OC([H])([H])[H])c([H])c1[H]


 36 39  0  0  0  0  0  0  0  0999 V2000
  -11.5936   -8.0957    6.9313 C   0  0  0  0  0  0  0  0  0  0  0  0
  -10.7791   -7.2202    6.5796 O   0  0  0  0  0  0  0  0  0  0  0  0
  -11.3378   -9.4492    7.1914 N   0  0  0  0  0  0  0  0  0  0  0  0
  -12.1907  -10.0135    7.5004 H   0  0  0  0  0  0  0  0  0  0  0  0
  -14.7086   -6.1742    6.2860 C   0  0  0  0  0  0  0  0  0  0  0  0
  -15.5142   -6.6504    7.2846 C   0  0  0  0  0  0  0  0  0  0  0  0
  -15.0695   -7.5905    8.1737 N   0  0  0  0  0  0  0  0  0  0  0  0
  -13.8040   -8.0641    8.0673 C   0  0  0  0  0  0  0  0  0  0  0  0
  -13.3062   -9.0481    8.9790 N   0  0  0  0  0  0  0  0  0  0  0  0
  -12.9890   -7.6018    7.0801 C   0  0  0  0  0  0  0  0  0  0  0  0
  -13.4621   -6.6657    6.2111 N   0  0  0  0  0  0  0  0  0  0  0  0
  -12.6978   -8.7850    9.7802 H   0  0  0  0  0  0  0  0  0  0  0  0
  -13.5568  -10.0298    8.8352 H   0  0  0  0  0  0  0  0  0  0  0  0
  -15.9161   -3.1755    3.4974 C   0  0  0  0  0  0  0  0  0  0  0  0
  -16.5355   -4.4007    3.4922 C   0  0  0  0  0  0  0  0  0  0  0  0
  -16.1327   -5.3524    4.3965 C   0  0  0  0  0  0  0  0  0  0  0  0
  -15.1406   -5.1784    5.3267 C   0  0  0  0  0  0  0  0  0  0  0  0
  -14.5277   -3.9170    5.3068 C   0  0  0  0  0  0  0  0  0  0  0  0
  -14.9043   -2.9343    4.4133 C   0  0  0  0  0  0  0  0  0  0  0  0
  -15.6354   -2.0739    1.3708 C   0  0  0  0  0  0  0  0  0  0  0  0
  -16.3180   -2.2172    2.5907 O   0  0  0  0  0  0  0  0  0  0  0  0
  -10.1137  -10.1454    7.1217 C   0  0  0  0  0  0  0  0  0  0  0  0
  -10.0307  -11.4705    6.8167 C   0  0  0  0  0  0  0  0  0  0  0  0
   -8.8485  -12.1028    6.7116 N   0  0  0  0  0  0  0  0  0  0  0  0
   -7.6890  -11.4628    6.9010 C   0  0  0  0  0  0  0  0  0  0  0  0
   -7.7082  -10.1268    7.2115 C   0  0  0  0  0  0  0  0  0  0  0  0
   -8.9244   -9.4547    7.3257 C   0  0  0  0  0  0  0  0  0  0  0  0
   -8.9304   -8.0873    7.6852 N   0  0  0  0  0  0  0  0  0  0  0  0
   -9.1986   -7.5872    9.0034 C   0  0  0  0  0  0  0  0  0  0  0  0
   -8.1300   -6.5957    9.4021 C   0  0  0  0  0  0  0  0  0  0  0  0
   -6.9776   -6.6512    8.4507 C   0  0  0  0  0  0  0  0  0  0  0  0
   -6.0084   -5.5949    8.7734 N   0  0  0  0  0  0  0  0  0  0  0  0
   -7.3454   -6.4336    7.0081 C   0  0  0  0  0  0  0  0  0  0  0  0
   -8.6400   -7.1030    6.6516 C   0  0  0  0  0  0  0  0  0  0  0  0
   -5.3520   -5.4764    7.9957 H   0  0  0  0  0  0  0  0  0  0  0  0
   -5.5697   -5.7581    9.7015 H   0  0  0  0  0  0  0  0  0  0  0  0
 20 21  1  0  0  0
 21 14  1  0  0  0
 14 15  2  0  0  0
 15 16  1  0  0  0
 16 17  2  0  0  0
 17  5  1  0  0  0
  5  6  2  0  0  0
  6  7  1  0  0  0
  7  8  2  0  0  0
  8  9  1  0  0  0
  8 10  1  0  0  0
 10  1  1  0  0  0
  1  2  2  0  0  0
  1  3  1  0  0  0
  3 22  1  0  0  0
 22 23  2  0  0  0
 23 24  1  0  0  0
 24 25  2  0  0  0
 25 26  1  0  0  0
 26 27  2  0  0  0
 27 28  1  0  0  0
 28 29  1  0  0  0
 29 30  1  0  0  0
 30 31  1  0  0  0
 31 32  1  0  0  0
 31 33  1  0  0  0
 33 34  1  0  0  0
 10 11  2  0  0  0
 17 18  1  0  0  0
 18 19  2  0  0  0
 19 14  1  0  0  0
 11  5  1  0  0  0
 27 22  1  0  0  0
 34 28  1  0  0  0
  9 12  1  0  0  0
  9 13  1  0  0  0
  3  4  1  0  0  0
 32 35  1  0  0  0
 32 36  1  0  0  0
M  END
> <minimizedAffinity>
15.36869

> <CNNscore>
0.3466040492

> <CNNaffinity>
6.9704017639

> <CNN_VS>
2.4159693718

> <CNNaffinity_variance>
1.7530651093

$$$$
[H]c1nc(N([H])[H])c(C(=O)N([H])c2c([H])nc([H])c([H])c2N2C([H])([H])C([H])([H])C([H])(N([H])[H])C([H])([H])C2([H])[H])nc1-c1c([H])c([H])c(OC([H])([H])[H])c([H])c1[H]


 36 39  0  0  0  0  0  0  0  0999 V2000
   -9.3736   -6.1452    7.8879 C   0  0  0  0  0  0  0  0  0  0  0  0
   -9.2480   -5.1560    8.6358 O   0  0  0  0  0  0  0  0  0  0  0  0
  -10.4127   -7.0860    7.8784 N   0  0  0  0  0  0  0  0  0  0  0  0
  -10.3216   -7.8445    7.1316 H   0  0  0  0  0  0  0  0  0  0  0  0
   -6.0158   -6.9340    6.5039 C   0  0  0  0  0  0  0  0  0  0  0  0
   -6.2054   -6.6285    5.1834 C   0  0  0  0  0  0  0  0  0  0  0  0
   -7.4085   -6.1677    4.7227 N   0  0  0  0  0  0  0  0  0  0  0  0
   -8.4387   -6.0088    5.5891 C   0  0  0  0  0  0  0  0  0  0  0  0
   -9.7107   -5.5301    5.1418 N   0  0  0  0  0  0  0  0  0  0  0  0
   -8.2680   -6.3077    6.9059 C   0  0  0  0  0  0  0  0  0  0  0  0
   -7.0577   -6.7642    7.3326 N   0  0  0  0  0  0  0  0  0  0  0  0
   -9.9917   -4.5374    5.2720 H   0  0  0  0  0  0  0  0  0  0  0  0
  -10.3538   -6.1821    4.6852 H   0  0  0  0  0  0  0  0  0  0  0  0
   -2.3117   -8.3012    8.1277 C   0  0  0  0  0  0  0  0  0  0  0  0
   -2.8433   -8.9219    7.0244 C   0  0  0  0  0  0  0  0  0  0  0  0
   -4.0358   -8.4679    6.5172 C   0  0  0  0  0  0  0  0  0  0  0  0
   -4.7580   -7.4221    7.0314 C   0  0  0  0  0  0  0  0  0  0  0  0
   -4.1890   -6.8092    8.1573 C   0  0  0  0  0  0  0  0  0  0  0  0
   -2.9922   -7.2364    8.6968 C   0  0  0  0  0  0  0  0  0  0  0  0
   -1.0632   -9.2916    9.9374 C   0  0  0  0  0  0  0  0  0  0  0  0
   -1.1141   -8.7544    8.6399 O   0  0  0  0  0  0  0  0  0  0  0  0
  -11.5573   -7.1452    8.6997 C   0  0  0  0  0  0  0  0  0  0  0  0
  -11.5250   -6.8846   10.0364 C   0  0  0  0  0  0  0  0  0  0  0  0
  -12.6379   -6.9030   10.7910 N   0  0  0  0  0  0  0  0  0  0  0  0
  -13.8382   -7.1785   10.2681 C   0  0  0  0  0  0  0  0  0  0  0  0
  -13.9343   -7.4500    8.9270 C   0  0  0  0  0  0  0  0  0  0  0  0
  -12.7912   -7.4365    8.1289 C   0  0  0  0  0  0  0  0  0  0  0  0
  -12.8995   -7.7572    6.7561 N   0  0  0  0  0  0  0  0  0  0  0  0
  -12.5665   -9.0300    6.1826 C   0  0  0  0  0  0  0  0  0  0  0  0
  -13.6945   -9.5023    5.2946 C   0  0  0  0  0  0  0  0  0  0  0  0
  -14.9169   -8.6672    5.5055 C   0  0  0  0  0  0  0  0  0  0  0  0
  -15.9604   -9.0527    4.5454 N   0  0  0  0  0  0  0  0  0  0  0  0
  -14.7092   -7.1908    5.3037 C   0  0  0  0  0  0  0  0  0  0  0  0
  -13.3883   -6.7302    5.8463 C   0  0  0  0  0  0  0  0  0  0  0  0
  -16.6947   -8.3383    4.5251 H   0  0  0  0  0  0  0  0  0  0  0  0
  -16.2917  -10.0224    4.7196 H   0  0  0  0  0  0  0  0  0  0  0  0
 20 21  1  0  0  0
 21 14  1  0  0  0
 14 15  2  0  0  0
 15 16  1  0  0  0
 16 17  2  0  0  0
 17  5  1  0  0  0
  5  6  2  0  0  0
  6  7  1  0  0  0
  7  8  2  0  0  0
  8  9  1  0  0  0
  8 10  1  0  0  0
 10  1  1  0  0  0
  1  2  2  0  0  0
  1  3  1  0  0  0
  3 22  1  0  0  0
 22 23  2  0  0  0
 23 24  1  0  0  0
 24 25  2  0  0  0
 25 26  1  0  0  0
 26 27  2  0  0  0
 27 28  1  0  0  0
 28 29  1  0  0  0
 29 30  1  0  0  0
 30 31  1  0  0  0
 31 32  1  0  0  0
 31 33  1  0  0  0
 33 34  1  0  0  0
 10 11  2  0  0  0
 17 18  1  0  0  0
 18 19  2  0  0  0
 19 14  1  0  0  0
 11  5  1  0  0  0
 27 22  1  0  0  0
 34 28  1  0  0  0
  9 12  1  0  0  0
  9 13  1  0  0  0
  3  4  1  0  0  0
 32 35  1  0  0  0
 32 36  1  0  0  0
M  END
> <minimizedAffinity>
-1.05062

> <CNNscore>
0.2564798594

> <CNNaffinity>
7.0397477150

> <CNN_VS>
1.8055535555

> <CNNaffinity_variance>
0.2556982338

$$$$
[H]c1nc(N([H])[H])c(C(=O)N([H])c2c([H])nc([H])c([H])c2N2C([H])([H])C([H])([H])C([H])(N([H])[H])C([H])([H])C2([H])[H])nc1-c1c([H])c([H])c(OC([H])([H])[H])c([H])c1[H]


 36 39  0  0  0  0  0  0  0  0999 V2000
  -13.7682   -6.3126    7.2532 C   0  0  0  0  0  0  0  0  0  0  0  0
  -14.4546   -5.6906    8.0872 O   0  0  0  0  0  0  0  0  0  0  0  0
  -13.8762   -6.2760    5.8561 N   0  0  0  0  0  0  0  0  0  0  0  0
  -13.1645   -6.8806    5.3371 H   0  0  0  0  0  0  0  0  0  0  0  0
  -10.4448   -7.8388    7.9152 C   0  0  0  0  0  0  0  0  0  0  0  0
  -10.7662   -8.7346    8.8986 C   0  0  0  0  0  0  0  0  0  0  0  0
  -12.0483   -8.8592    9.3597 N   0  0  0  0  0  0  0  0  0  0  0  0
  -13.0254   -8.0804    8.8346 C   0  0  0  0  0  0  0  0  0  0  0  0
  -14.3766   -8.1834    9.2936 N   0  0  0  0  0  0  0  0  0  0  0  0
  -12.7237   -7.1840    7.8558 C   0  0  0  0  0  0  0  0  0  0  0  0
  -11.4375   -7.0845    7.4186 N   0  0  0  0  0  0  0  0  0  0  0  0
  -15.0902   -8.7194    8.7598 H   0  0  0  0  0  0  0  0  0  0  0  0
  -14.6415   -7.7180   10.1656 H   0  0  0  0  0  0  0  0  0  0  0  0
   -6.4698   -7.4619    6.4039 C   0  0  0  0  0  0  0  0  0  0  0  0
   -7.2589   -6.3459    6.5335 C   0  0  0  0  0  0  0  0  0  0  0  0
   -8.5347   -6.4876    7.0210 C   0  0  0  0  0  0  0  0  0  0  0  0
   -9.1010   -7.6778    7.3985 C   0  0  0  0  0  0  0  0  0  0  0  0
   -8.2702   -8.7985    7.2544 C   0  0  0  0  0  0  0  0  0  0  0  0
   -6.9822   -8.6971    6.7681 C   0  0  0  0  0  0  0  0  0  0  0  0
   -4.5806   -6.0565    5.8835 C   0  0  0  0  0  0  0  0  0  0  0  0
   -5.1878   -7.3235    5.9147 O   0  0  0  0  0  0  0  0  0  0  0  0
  -14.7743   -5.5366    5.0593 C   0  0  0  0  0  0  0  0  0  0  0  0
  -14.6757   -4.1889    4.8867 C   0  0  0  0  0  0  0  0  0  0  0  0
  -15.5171   -3.5118    4.0855 N   0  0  0  0  0  0  0  0  0  0  0  0
  -16.4973   -4.1268    3.4140 C   0  0  0  0  0  0  0  0  0  0  0  0
  -16.6472   -5.4836    3.5480 C   0  0  0  0  0  0  0  0  0  0  0  0
  -15.7850   -6.2024    4.3750 C   0  0  0  0  0  0  0  0  0  0  0  0
  -15.9761   -7.5942    4.5345 N   0  0  0  0  0  0  0  0  0  0  0  0
  -15.4647   -8.5992    3.6467 C   0  0  0  0  0  0  0  0  0  0  0  0
  -14.7644   -9.6767    4.4420 C   0  0  0  0  0  0  0  0  0  0  0  0
  -14.5573   -9.2377    5.8566 C   0  0  0  0  0  0  0  0  0  0  0  0
  -13.9956  -10.3412    6.6478 N   0  0  0  0  0  0  0  0  0  0  0  0
  -15.8136   -8.8257    6.5747 C   0  0  0  0  0  0  0  0  0  0  0  0
  -16.7432   -8.0560    5.6832 C   0  0  0  0  0  0  0  0  0  0  0  0
  -14.0761  -10.1283    7.6468 H   0  0  0  0  0  0  0  0  0  0  0  0
  -13.0390  -10.5871    6.3238 H   0  0  0  0  0  0  0  0  0  0  0  0
 20 21  1  0  0  0
 21 14  1  0  0  0
 14 15  2  0  0  0
 15 16  1  0  0  0
 16 17  2  0  0  0
 17  5  1  0  0  0
  5  6  2  0  0  0
  6  7  1  0  0  0
  7  8  2  0  0  0
  8  9  1  0  0  0
  8 10  1  0  0  0
 10  1  1  0  0  0
  1  2  2  0  0  0
  1  3  1  0  0  0
  3 22  1  0  0  0
 22 23  2  0  0  0
 23 24  1  0  0  0
 24 25  2  0  0  0
 25 26  1  0  0  0
 26 27  2  0  0  0
 27 28  1  0  0  0
 28 29  1  0  0  0
 29 30  1  0  0  0
 30 31  1  0  0  0
 31 32  1  0  0  0
 31 33  1  0  0  0
 33 34  1  0  0  0
 10 11  2  0  0  0
 17 18  1  0  0  0
 18 19  2  0  0  0
 19 14  1  0  0  0
 11  5  1  0  0  0
 27 22  1  0  0  0
 34 28  1  0  0  0
  9 12  1  0  0  0
  9 13  1  0  0  0
  3  4  1  0  0  0
 32 35  1  0  0  0
 32 36  1  0  0  0
M  END
> <minimizedAffinity>
-3.11250

> <CNNscore>
0.2487845272

> <CNNaffinity>
7.1771836281

> <CNN_VS>
1.7855722904

> <CNNaffinity_variance>
0.2062976062

$$$$
[H]c1nc(N([H])[H])c(C(=O)N([H])c2c([H])nc([H])c([H])c2N2C([H])([H])C([H])([H])C([H])(N([H])[H])C([H])([H])C2([H])[H])nc1-c1c([H])c([H])c(OC([H])([H])[H])c([H])c1[H]


 36 39  0  0  0  0  0  0  0  0999 V2000
   -9.2604   -6.6245    7.9412 C   0  0  0  0  0  0  0  0  0  0  0  0
   -9.3051   -5.4532    7.5175 O   0  0  0  0  0  0  0  0  0  0  0  0
  -10.1239   -7.2371    8.8599 N   0  0  0  0  0  0  0  0  0  0  0  0
   -9.9051   -8.2629    9.0631 H   0  0  0  0  0  0  0  0  0  0  0  0
   -5.9128   -7.4849    6.5751 C   0  0  0  0  0  0  0  0  0  0  0  0
   -6.0650   -8.8266    6.3519 C   0  0  0  0  0  0  0  0  0  0  0  0
   -7.2390   -9.4691    6.6361 N   0  0  0  0  0  0  0  0  0  0  0  0
   -8.2773   -8.7661    7.1506 C   0  0  0  0  0  0  0  0  0  0  0  0
   -9.5191   -9.4058    7.4605 N   0  0  0  0  0  0  0  0  0  0  0  0
   -8.1437   -7.4310    7.3792 C   0  0  0  0  0  0  0  0  0  0  0  0
   -6.9618   -6.8211    7.0852 N   0  0  0  0  0  0  0  0  0  0  0  0
  -10.3348   -9.3440    6.8186 H   0  0  0  0  0  0  0  0  0  0  0  0
   -9.6012   -9.9336    8.3334 H   0  0  0  0  0  0  0  0  0  0  0  0
   -2.2512   -5.4450    5.7644 C   0  0  0  0  0  0  0  0  0  0  0  0
   -3.4468   -4.8605    5.4271 C   0  0  0  0  0  0  0  0  0  0  0  0
   -4.6137   -5.5325    5.6955 C   0  0  0  0  0  0  0  0  0  0  0  0
   -4.6880   -6.7676    6.2861 C   0  0  0  0  0  0  0  0  0  0  0  0
   -3.4506   -7.3380    6.6186 C   0  0  0  0  0  0  0  0  0  0  0  0
   -2.2560   -6.6941    6.3650 C   0  0  0  0  0  0  0  0  0  0  0  0
   -1.1130   -3.4226    5.1092 C   0  0  0  0  0  0  0  0  0  0  0  0
   -1.0771   -4.7730    5.4965 O   0  0  0  0  0  0  0  0  0  0  0  0
  -11.2413   -6.6885    9.5222 C   0  0  0  0  0  0  0  0  0  0  0  0
  -11.1319   -5.8376   10.5805 C   0  0  0  0  0  0  0  0  0  0  0  0
  -12.2113   -5.2912   11.1674 N   0  0  0  0  0  0  0  0  0  0  0  0
  -13.4523   -5.5546   10.7424 C   0  0  0  0  0  0  0  0  0  0  0  0
  -13.6265   -6.4051    9.6804 C   0  0  0  0  0  0  0  0  0  0  0  0
  -12.5192   -6.9818    9.0597 C   0  0  0  0  0  0  0  0  0  0  0  0
  -12.7157   -7.8874    7.9919 N   0  0  0  0  0  0  0  0  0  0  0  0
  -13.0162   -9.2825    8.1446 C   0  0  0  0  0  0  0  0  0  0  0  0
  -14.1969   -9.6500    7.2758 C   0  0  0  0  0  0  0  0  0  0  0  0
  -14.8719   -8.4210    6.7557 C   0  0  0  0  0  0  0  0  0  0  0  0
  -15.9340   -8.7930    5.8107 N   0  0  0  0  0  0  0  0  0  0  0  0
  -13.9700   -7.4836    5.9996 C   0  0  0  0  0  0  0  0  0  0  0  0
  -12.6129   -7.3789    6.6309 C   0  0  0  0  0  0  0  0  0  0  0  0
  -16.2310   -7.9684    5.2800 H   0  0  0  0  0  0  0  0  0  0  0  0
  -16.6984   -9.3101    6.2890 H   0  0  0  0  0  0  0  0  0  0  0  0
 20 21  1  0  0  0
 21 14  1  0  0  0
 14 15  2  0  0  0
 15 16  1  0  0  0
 16 17  2  0  0  0
 17  5  1  0  0  0
  5  6  2  0  0  0
  6  7  1  0  0  0
  7  8  2  0  0  0
  8  9  1  0  0  0
  8 10  1  0  0  0
 10  1  1  0  0  0
  1  2  2  0  0  0
  1  3  1  0  0  0
  3 22  1  0  0  0
 22 23  2  0  0  0
 23 24  1  0  0  0
 24 25  2  0  0  0
 25 26  1  0  0  0
 26 27  2  0  0  0
 27 28  1  0  0  0
 28 29  1  0  0  0
 29 30  1  0  0  0
 30 31  1  0  0  0
 31 32  1  0  0  0
 31 33  1  0  0  0
 33 34  1  0  0  0
 10 11  2  0  0  0
 17 18  1  0  0  0
 18 19  2  0  0  0
 19 14  1  0  0  0
 11  5  1  0  0  0
 27 22  1  0  0  0
 34 28  1  0  0  0
  9 12  1  0  0  0
  9 13  1  0  0  0
  3  4  1  0  0  0
 32 35  1  0  0  0
 32 36  1  0  0  0
M  END
> <minimizedAffinity>
-6.60097

> <CNNscore>
0.2391337901

> <CNNaffinity>
6.9363861084

> <CNN_VS>
1.6587243080

> <CNNaffinity_variance>
0.1380698979

$$$$
[H]c1c([H])c(N([H])C(=O)N([H])[C@]([H])(C(=O)N([H])[C@]([H])(C(=O)N([H])[H])C([H])([H])C([H])([H])C([H])([H])[H])C([H])([H])C([H])(C([H])([H])[H])C([H])([H])[H])c([H])c([H])c1Br


 31 31  0  0  0  0  0  0  0  0999 V2000
   -7.7952  -11.0545    3.4047 C   0  0  0  0  0  0  0  0  0  0  0  0
   -9.2172  -10.9141    3.6942 N   0  0  0  0  0  0  0  0  0  0  0  0
   -9.6273  -10.4864    4.9784 C   0  0  0  0  0  0  0  0  0  0  0  0
   -8.7615  -10.2258    5.8765 O   0  0  0  0  0  0  0  0  0  0  0  0
  -10.9839  -10.3435    5.2807 N   0  0  0  0  0  0  0  0  0  0  0  0
   -9.8982  -11.1249    2.9708 H   0  0  0  0  0  0  0  0  0  0  0  0
  -11.6463  -10.5891    4.4733 H   0  0  0  0  0  0  0  0  0  0  0  0
  -11.5762   -9.9195    6.4910 C   0  0  0  0  0  0  0  0  0  0  0  0
  -12.7280  -10.4138    7.0388 C   0  0  0  0  0  0  0  0  0  0  0  0
  -13.2581   -9.9147    8.2426 C   0  0  0  0  0  0  0  0  0  0  0  0
  -12.6382   -8.9012    8.9281 C   0  0  0  0  0  0  0  0  0  0  0  0
  -13.3602   -8.2239   10.5641 Br  0  0  0  0  0  0  0  0  0  0  0  0
  -11.4821   -8.3958    8.3913 C   0  0  0  0  0  0  0  0  0  0  0  0
  -10.9640   -8.8823    7.2159 C   0  0  0  0  0  0  0  0  0  0  0  0
   -6.8100   -9.3205    4.9243 N   0  0  0  0  0  0  0  0  0  0  0  0
   -7.1929   -9.7364    3.6053 C   0  0  0  0  0  0  0  0  0  0  0  0
   -7.0138   -8.9483    2.6185 O   0  0  0  0  0  0  0  0  0  0  0  0
   -6.9606   -9.9917    5.7020 H   0  0  0  0  0  0  0  0  0  0  0  0
   -6.2361   -8.0145    5.1605 C   0  0  0  0  0  0  0  0  0  0  0  0
   -5.1345   -8.1315    6.1465 C   0  0  0  0  0  0  0  0  0  0  0  0
   -5.2645   -9.0696    7.2271 N   0  0  0  0  0  0  0  0  0  0  0  0
   -4.0902   -7.4661    6.1053 O   0  0  0  0  0  0  0  0  0  0  0  0
   -6.2209   -9.3069    7.5386 H   0  0  0  0  0  0  0  0  0  0  0  0
   -4.4316   -9.5034    7.6897 H   0  0  0  0  0  0  0  0  0  0  0  0
   -7.2712   -7.0744    5.7007 C   0  0  0  0  0  0  0  0  0  0  0  0
   -7.1509   -6.3391    8.1279 C   0  0  0  0  0  0  0  0  0  0  0  0
   -7.7133   -7.2363    7.0929 C   0  0  0  0  0  0  0  0  0  0  0  0
   -7.5652  -11.7567    2.1317 C   0  0  0  0  0  0  0  0  0  0  0  0
   -8.0560  -13.1184    1.9151 C   0  0  0  0  0  0  0  0  0  0  0  0
   -6.8856  -13.9641    1.3242 C   0  0  0  0  0  0  0  0  0  0  0  0
   -9.1439  -13.2833    0.8910 C   0  0  0  0  0  0  0  0  0  0  0  0
 26 27  1  0  0  0
 27 25  1  0  0  0
 25 19  1  0  0  0
 19 15  1  0  0  0
 15 16  1  0  0  0
 16 17  2  0  0  0
 16  1  1  0  0  0
  1 28  1  0  0  0
 28 29  1  0  0  0
 29 30  1  0  0  0
 29 31  1  0  0  0
  1  2  1  0  0  0
  2  3  1  0  0  0
  3  4  2  0  0  0
  3  5  1  0  0  0
  5  8  1  0  0  0
  8  9  2  0  0  0
  9 10  1  0  0  0
 10 11  2  0  0  0
 11 12  1  0  0  0
 11 13  1  0  0  0
 13 14  2  0  0  0
 19 20  1  0  0  0
 20 21  1  0  0  0
 20 22  2  0  0  0
 14  8  1  0  0  0
 15 18  1  0  0  0
  2  6  1  0  0  0
  5  7  1  0  0  0
 21 23  1  0  0  0
 21 24  1  0  0  0
M  END
> <minimizedAffinity>
10.48239

> <CNNscore>
0.6650606990

> <CNNaffinity>
6.0489034653

> <CNN_VS>
4.0228881836

> <CNNaffinity_variance>
0.4488203526

$$$$
[H]c1c([H])c(N([H])C(=O)N([H])[C@]([H])(C(=O)N([H])[C@]([H])(C(=O)N([H])[H])C([H])([H])C([H])([H])C([H])([H])[H])C([H])([H])C([H])(C([H])([H])[H])C([H])([H])[H])c([H])c([H])c1Br


 31 31  0  0  0  0  0  0  0  0999 V2000
  -12.6846   -6.5728    6.8775 C   0  0  0  0  0  0  0  0  0  0  0  0
  -11.4416   -7.2877    6.6135 N   0  0  0  0  0  0  0  0  0  0  0  0
  -10.2265   -6.7879    7.1370 C   0  0  0  0  0  0  0  0  0  0  0  0
  -10.2169   -5.7210    7.8338 O   0  0  0  0  0  0  0  0  0  0  0  0
   -9.0221   -7.4546    6.8987 N   0  0  0  0  0  0  0  0  0  0  0  0
  -11.4614   -8.1368    6.0565 H   0  0  0  0  0  0  0  0  0  0  0  0
   -9.1160   -8.3390    6.2986 H   0  0  0  0  0  0  0  0  0  0  0  0
   -7.7254   -7.1168    7.3461 C   0  0  0  0  0  0  0  0  0  0  0  0
   -6.8152   -6.3524    6.6691 C   0  0  0  0  0  0  0  0  0  0  0  0
   -5.5339   -6.0835    7.1840 C   0  0  0  0  0  0  0  0  0  0  0  0
   -5.1357   -6.5795    8.3993 C   0  0  0  0  0  0  0  0  0  0  0  0
   -3.3937   -6.2133    9.0975 Br  0  0  0  0  0  0  0  0  0  0  0  0
   -6.0379   -7.3474    9.0897 C   0  0  0  0  0  0  0  0  0  0  0  0
   -7.2890   -7.6106    8.5876 C   0  0  0  0  0  0  0  0  0  0  0  0
  -14.1143   -8.6282    7.0112 N   0  0  0  0  0  0  0  0  0  0  0  0
  -13.5358   -7.4795    7.6479 C   0  0  0  0  0  0  0  0  0  0  0  0
  -13.7770   -7.2528    8.8798 O   0  0  0  0  0  0  0  0  0  0  0  0
  -13.8879   -8.7873    6.0105 H   0  0  0  0  0  0  0  0  0  0  0  0
  -14.9808   -9.5297    7.7373 C   0  0  0  0  0  0  0  0  0  0  0  0
  -15.8574   -8.7482    8.6428 C   0  0  0  0  0  0  0  0  0  0  0  0
  -16.9687   -8.0281    8.0850 N   0  0  0  0  0  0  0  0  0  0  0  0
  -15.6980   -8.6695    9.8689 O   0  0  0  0  0  0  0  0  0  0  0  0
  -16.8910   -7.7208    7.1014 H   0  0  0  0  0  0  0  0  0  0  0  0
  -17.8296   -7.8162    8.6418 H   0  0  0  0  0  0  0  0  0  0  0  0
  -14.1731  -10.4909    8.5563 C   0  0  0  0  0  0  0  0  0  0  0  0
  -11.9149  -10.4969    7.3956 C   0  0  0  0  0  0  0  0  0  0  0  0
  -12.7166  -10.3076    8.6261 C   0  0  0  0  0  0  0  0  0  0  0  0
  -13.2256   -5.9520    5.6574 C   0  0  0  0  0  0  0  0  0  0  0  0
  -14.6582   -5.6929    5.5072 C   0  0  0  0  0  0  0  0  0  0  0  0
  -15.2681   -6.8424    4.6466 C   0  0  0  0  0  0  0  0  0  0  0  0
  -15.0385   -4.4571    4.7405 C   0  0  0  0  0  0  0  0  0  0  0  0
 26 27  1  0  0  0
 27 25  1  0  0  0
 25 19  1  0  0  0
 19 15  1  0  0  0
 15 16  1  0  0  0
 16 17  2  0  0  0
 16  1  1  0  0  0
  1 28  1  0  0  0
 28 29  1  0  0  0
 29 30  1  0  0  0
 29 31  1  0  0  0
  1  2  1  0  0  0
  2  3  1  0  0  0
  3  4  2  0  0  0
  3  5  1  0  0  0
  5  8  1  0  0  0
  8  9  2  0  0  0
  9 10  1  0  0  0
 10 11  2  0  0  0
 11 12  1  0  0  0
 11 13  1  0  0  0
 13 14  2  0  0  0
 19 20  1  0  0  0
 20 21  1  0  0  0
 20 22  2  0  0  0
 14  8  1  0  0  0
 15 18  1  0  0  0
  2  6  1  0  0  0
  5  7  1  0  0  0
 21 23  1  0  0  0
 21 24  1  0  0  0
M  END
> <minimizedAffinity>
1.68386

> <CNNscore>
0.5502716303

> <CNNaffinity>
6.7429046631

> <CNN_VS>
3.7104291916

> <CNNaffinity_variance>
1.9394872189

$$$$
[H]c1c([H])c(N([H])C(=O)N([H])[C@]([H])(C(=O)N([H])[C@]([H])(C(=O)N([H])[H])C([H])([H])C([H])([H])C([H])([H])[H])C([H])([H])C([H])(C([H])([H])[H])C([H])([H])[H])c([H])c([H])c1Br


 31 31  0  0  0  0  0  0  0  0999 V2000
  -12.6297   -6.3898    6.6502 C   0  0  0  0  0  0  0  0  0  0  0  0
  -11.4585   -7.2354    6.8477 N   0  0  0  0  0  0  0  0  0  0  0  0
  -10.1670   -6.6634    6.7760 C   0  0  0  0  0  0  0  0  0  0  0  0
  -10.0269   -5.4188    6.5405 O   0  0  0  0  0  0  0  0  0  0  0  0
   -9.0288   -7.4520    6.9620 N   0  0  0  0  0  0  0  0  0  0  0  0
  -11.5823   -8.2260    7.0344 H   0  0  0  0  0  0  0  0  0  0  0  0
   -9.2332   -8.4886    7.1484 H   0  0  0  0  0  0  0  0  0  0  0  0
   -7.6722   -7.0587    6.9404 C   0  0  0  0  0  0  0  0  0  0  0  0
   -6.9011   -6.8925    5.8229 C   0  0  0  0  0  0  0  0  0  0  0  0
   -5.5472   -6.5175    5.8972 C   0  0  0  0  0  0  0  0  0  0  0  0
   -4.9335   -6.2990    7.1044 C   0  0  0  0  0  0  0  0  0  0  0  0
   -3.0931   -5.7895    7.2035 Br  0  0  0  0  0  0  0  0  0  0  0  0
   -5.6942   -6.4615    8.2335 C   0  0  0  0  0  0  0  0  0  0  0  0
   -7.0161   -6.8278    8.1619 C   0  0  0  0  0  0  0  0  0  0  0  0
  -13.7172   -8.5588    7.2821 N   0  0  0  0  0  0  0  0  0  0  0  0
  -13.7760   -7.1285    7.1799 C   0  0  0  0  0  0  0  0  0  0  0  0
  -14.8326   -6.5131    7.5431 O   0  0  0  0  0  0  0  0  0  0  0  0
  -12.8377   -9.0254    6.9873 H   0  0  0  0  0  0  0  0  0  0  0  0
  -14.8419   -9.3210    7.7770 C   0  0  0  0  0  0  0  0  0  0  0  0
  -15.4495   -8.6113    8.9287 C   0  0  0  0  0  0  0  0  0  0  0  0
  -14.5906   -8.0839    9.9528 N   0  0  0  0  0  0  0  0  0  0  0  0
  -16.6673   -8.4368    9.0747 O   0  0  0  0  0  0  0  0  0  0  0  0
  -13.6799   -8.5507   10.0969 H   0  0  0  0  0  0  0  0  0  0  0  0
  -14.8640   -7.2596   10.5374 H   0  0  0  0  0  0  0  0  0  0  0  0
  -14.3997  -10.6813    8.2254 C   0  0  0  0  0  0  0  0  0  0  0  0
  -12.0155  -10.0248    7.6499 C   0  0  0  0  0  0  0  0  0  0  0  0
  -12.9967  -11.0692    8.0232 C   0  0  0  0  0  0  0  0  0  0  0  0
  -12.6950   -5.8615    5.2779 C   0  0  0  0  0  0  0  0  0  0  0  0
  -13.9779   -5.5862    4.6294 C   0  0  0  0  0  0  0  0  0  0  0  0
  -13.6874   -4.8989    3.2593 C   0  0  0  0  0  0  0  0  0  0  0  0
  -14.8791   -4.6003    5.3189 C   0  0  0  0  0  0  0  0  0  0  0  0
 26 27  1  0  0  0
 27 25  1  0  0  0
 25 19  1  0  0  0
 19 15  1  0  0  0
 15 16  1  0  0  0
 16 17  2  0  0  0
 16  1  1  0  0  0
  1 28  1  0  0  0
 28 29  1  0  0  0
 29 30  1  0  0  0
 29 31  1  0  0  0
  1  2  1  0  0  0
  2  3  1  0  0  0
  3  4  2  0  0  0
  3  5  1  0  0  0
  5  8  1  0  0  0
  8  9  2  0  0  0
  9 10  1  0  0  0
 10 11  2  0  0  0
 11 12  1  0  0  0
 11 13  1  0  0  0
 13 14  2  0  0  0
 19 20  1  0  0  0
 20 21  1  0  0  0
 20 22  2  0  0  0
 14  8  1  0  0  0
 15 18  1  0  0  0
  2  6  1  0  0  0
  5  7  1  0  0  0
 21 23  1  0  0  0
 21 24  1  0  0  0
M  END
> <minimizedAffinity>
7.46962

> <CNNscore>
0.5153618455

> <CNNaffinity>
6.5781784058

> <CNN_VS>
3.3901422024

> <CNNaffinity_variance>
2.1233389378

$$$$
[H]c1c([H])c(N([H])C(=O)N([H])[C@]([H])(C(=O)N([H])[C@]([H])(C(=O)N([H])[H])C([H])([H])C([H])([H])C([H])([H])[H])C([H])([H])C([H])(C([H])([H])[H])C([H])([H])[H])c([H])c([H])c1Br


 31 31  0  0  0  0  0  0  0  0999 V2000
  -13.4217   -8.2504    9.2912 C   0  0  0  0  0  0  0  0  0  0  0  0
  -13.5454   -7.4512    8.0780 N   0  0  0  0  0  0  0  0  0  0  0  0
  -14.5516   -7.7673    7.1358 C   0  0  0  0  0  0  0  0  0  0  0  0
  -15.3444   -8.7431    7.3443 O   0  0  0  0  0  0  0  0  0  0  0  0
  -14.6911   -7.0166    5.9658 N   0  0  0  0  0  0  0  0  0  0  0  0
  -12.9078   -6.6762    7.9224 H   0  0  0  0  0  0  0  0  0  0  0  0
  -13.9812   -6.2188    5.8635 H   0  0  0  0  0  0  0  0  0  0  0  0
  -15.6354   -7.1731    4.9268 C   0  0  0  0  0  0  0  0  0  0  0  0
  -15.4570   -7.8988    3.7811 C   0  0  0  0  0  0  0  0  0  0  0  0
  -16.4485   -7.9823    2.7864 C   0  0  0  0  0  0  0  0  0  0  0  0
  -17.6500   -7.3346    2.9219 C   0  0  0  0  0  0  0  0  0  0  0  0
  -18.9965   -7.4490    1.5690 Br  0  0  0  0  0  0  0  0  0  0  0  0
  -17.8433   -6.6034    4.0657 C   0  0  0  0  0  0  0  0  0  0  0  0
  -16.8758   -6.5212    5.0371 C   0  0  0  0  0  0  0  0  0  0  0  0
  -12.8304   -5.9419   10.0705 N   0  0  0  0  0  0  0  0  0  0  0  0
  -13.0310   -7.3328   10.3615 C   0  0  0  0  0  0  0  0  0  0  0  0
  -12.8570   -7.7599   11.5507 O   0  0  0  0  0  0  0  0  0  0  0  0
  -12.9913   -5.6276    9.0941 H   0  0  0  0  0  0  0  0  0  0  0  0
  -12.4191   -5.0133   11.0997 C   0  0  0  0  0  0  0  0  0  0  0  0
  -12.0805   -3.7093   10.4800 C   0  0  0  0  0  0  0  0  0  0  0  0
  -13.0150   -2.6233   10.5895 N   0  0  0  0  0  0  0  0  0  0  0  0
  -11.0301   -3.4840    9.8629 O   0  0  0  0  0  0  0  0  0  0  0  0
  -14.0143   -2.8645   10.6956 H   0  0  0  0  0  0  0  0  0  0  0  0
  -12.7093   -1.6223   10.5643 H   0  0  0  0  0  0  0  0  0  0  0  0
  -11.2142   -5.5316   11.8255 C   0  0  0  0  0  0  0  0  0  0  0  0
   -9.8649   -5.7110   13.9688 C   0  0  0  0  0  0  0  0  0  0  0  0
  -11.0880   -5.2625   13.2648 C   0  0  0  0  0  0  0  0  0  0  0  0
  -12.6197   -9.4637    9.0648 C   0  0  0  0  0  0  0  0  0  0  0  0
  -11.4321   -9.4415    8.2096 C   0  0  0  0  0  0  0  0  0  0  0  0
  -10.9296   -7.9672    8.1213 C   0  0  0  0  0  0  0  0  0  0  0  0
  -11.6374   -9.8165    6.7685 C   0  0  0  0  0  0  0  0  0  0  0  0
 26 27  1  0  0  0
 27 25  1  0  0  0
 25 19  1  0  0  0
 19 15  1  0  0  0
 15 16  1  0  0  0
 16 17  2  0  0  0
 16  1  1  0  0  0
  1 28  1  0  0  0
 28 29  1  0  0  0
 29 30  1  0  0  0
 29 31  1  0  0  0
  1  2  1  0  0  0
  2  3  1  0  0  0
  3  4  2  0  0  0
  3  5  1  0  0  0
  5  8  1  0  0  0
  8  9  2  0  0  0
  9 10  1  0  0  0
 10 11  2  0  0  0
 11 12  1  0  0  0
 11 13  1  0  0  0
 13 14  2  0  0  0
 19 20  1  0  0  0
 20 21  1  0  0  0
 20 22  2  0  0  0
 14  8  1  0  0  0
 15 18  1  0  0  0
  2  6  1  0  0  0
  5  7  1  0  0  0
 21 23  1  0  0  0
 21 24  1  0  0  0
M  END
> <minimizedAffinity>
5.04775

> <CNNscore>
0.5041239858

> <CNNaffinity>
6.5344915390

> <CNN_VS>
3.2941939831

> <CNNaffinity_variance>
0.5792146325

$$$$
[H]c1c([H])c(N([H])C(=O)N([H])[C@]([H])(C(=O)N([H])[C@]([H])(C(=O)N([H])[H])C([H])([H])C([H])([H])C([H])([H])[H])C([H])([H])C([H])(C([H])([H])[H])C([H])([H])[H])c([H])c([H])c1Br


 31 31  0  0  0  0  0  0  0  0999 V2000
  -12.4977   -8.1626    7.7542 C   0  0  0  0  0  0  0  0  0  0  0  0
  -11.4239   -7.1792    7.8292 N   0  0  0  0  0  0  0  0  0  0  0  0
  -10.0908   -7.5844    7.5865 C   0  0  0  0  0  0  0  0  0  0  0  0
   -9.8290   -8.7994    7.3047 O   0  0  0  0  0  0  0  0  0  0  0  0
   -9.0440   -6.6613    7.6517 N   0  0  0  0  0  0  0  0  0  0  0  0
  -11.6444   -6.2138    8.0549 H   0  0  0  0  0  0  0  0  0  0  0  0
   -9.3480   -5.6631    7.9010 H   0  0  0  0  0  0  0  0  0  0  0  0
   -7.6657   -6.8762    7.4290 C   0  0  0  0  0  0  0  0  0  0  0  0
   -6.7502   -7.2624    8.3691 C   0  0  0  0  0  0  0  0  0  0  0  0
   -5.3880   -7.4326    8.0611 C   0  0  0  0  0  0  0  0  0  0  0  0
   -4.9120   -7.2177    6.7927 C   0  0  0  0  0  0  0  0  0  0  0  0
   -3.0602   -7.4493    6.3759 Br  0  0  0  0  0  0  0  0  0  0  0  0
   -5.8184   -6.8304    5.8395 C   0  0  0  0  0  0  0  0  0  0  0  0
   -7.1484   -6.6638    6.1394 C   0  0  0  0  0  0  0  0  0  0  0  0
  -14.3139   -8.1824    6.0258 N   0  0  0  0  0  0  0  0  0  0  0  0
  -13.6224   -7.5072    7.0867 C   0  0  0  0  0  0  0  0  0  0  0  0
  -13.9885   -6.3353    7.4327 O   0  0  0  0  0  0  0  0  0  0  0  0
  -13.9956   -9.1391    5.7779 H   0  0  0  0  0  0  0  0  0  0  0  0
  -15.4127   -7.5526    5.3282 C   0  0  0  0  0  0  0  0  0  0  0  0
  -16.1401   -8.5713    4.5330 C   0  0  0  0  0  0  0  0  0  0  0  0
  -17.4908   -8.9022    4.8947 N   0  0  0  0  0  0  0  0  0  0  0  0
  -15.6583   -9.1694    3.5608 O   0  0  0  0  0  0  0  0  0  0  0  0
  -17.7637   -8.7733    5.8831 H   0  0  0  0  0  0  0  0  0  0  0  0
  -18.1817   -9.2606    4.1947 H   0  0  0  0  0  0  0  0  0  0  0  0
  -14.9075   -6.4868    4.4031 C   0  0  0  0  0  0  0  0  0  0  0  0
  -16.9112   -4.9780    4.0095 C   0  0  0  0  0  0  0  0  0  0  0  0
  -15.5141   -5.1498    4.4691 C   0  0  0  0  0  0  0  0  0  0  0  0
  -12.7244   -8.8214    9.0508 C   0  0  0  0  0  0  0  0  0  0  0  0
  -13.0713   -8.0500   10.2453 C   0  0  0  0  0  0  0  0  0  0  0  0
  -14.6153   -7.8266   10.2429 C   0  0  0  0  0  0  0  0  0  0  0  0
  -12.5265   -6.6511   10.3208 C   0  0  0  0  0  0  0  0  0  0  0  0
 26 27  1  0  0  0
 27 25  1  0  0  0
 25 19  1  0  0  0
 19 15  1  0  0  0
 15 16  1  0  0  0
 16 17  2  0  0  0
 16  1  1  0  0  0
  1 28  1  0  0  0
 28 29  1  0  0  0
 29 30  1  0  0  0
 29 31  1  0  0  0
  1  2  1  0  0  0
  2  3  1  0  0  0
  3  4  2  0  0  0
  3  5  1  0  0  0
  5  8  1  0  0  0
  8  9  2  0  0  0
  9 10  1  0  0  0
 10 11  2  0  0  0
 11 12  1  0  0  0
 11 13  1  0  0  0
 13 14  2  0  0  0
 19 20  1  0  0  0
 20 21  1  0  0  0
 20 22  2  0  0  0
 14  8  1  0  0  0
 15 18  1  0  0  0
  2  6  1  0  0  0
  5  7  1  0  0  0
 21 23  1  0  0  0
 21 24  1  0  0  0
M  END
> <minimizedAffinity>
-7.75785

> <CNNscore>
0.4223441184

> <CNNaffinity>
6.6786370277

> <CNN_VS>
2.8206830025

> <CNNaffinity_variance>
0.0194504149

$$$$
[H]c1c([H])c(N([H])C(=O)N([H])[C@]([H])(C(=O)N([H])[C@]([H])(C(=O)N([H])[H])C([H])([H])C([H])([H])C([H])([H])[H])C([H])([H])C([H])(C([H])([H])[H])C([H])([H])[H])c([H])c([H])c1Br


 31 31  0  0  0  0  0  0  0  0999 V2000
  -11.5308   -7.2766    8.7500 C   0  0  0  0  0  0  0  0  0  0  0  0
  -12.8555   -7.8477    8.5381 N   0  0  0  0  0  0  0  0  0  0  0  0
  -13.5698   -7.5305    7.3594 C   0  0  0  0  0  0  0  0  0  0  0  0
  -13.0608   -6.7515    6.4887 O   0  0  0  0  0  0  0  0  0  0  0  0
  -14.8406   -8.0652    7.1326 N   0  0  0  0  0  0  0  0  0  0  0  0
  -13.2512   -8.4670    9.2391 H   0  0  0  0  0  0  0  0  0  0  0  0
  -15.1988   -8.7047    7.9160 H   0  0  0  0  0  0  0  0  0  0  0  0
  -15.6900   -7.8748    6.0200 C   0  0  0  0  0  0  0  0  0  0  0  0
  -16.8351   -7.1270    6.0015 C   0  0  0  0  0  0  0  0  0  0  0  0
  -17.6338   -7.0101    4.8492 C   0  0  0  0  0  0  0  0  0  0  0  0
  -17.2969   -7.6457    3.6813 C   0  0  0  0  0  0  0  0  0  0  0  0
  -18.3836   -7.4859    2.1161 Br  0  0  0  0  0  0  0  0  0  0  0  0
  -16.1511   -8.3988    3.6846 C   0  0  0  0  0  0  0  0  0  0  0  0
  -15.3710   -8.5138    4.8093 C   0  0  0  0  0  0  0  0  0  0  0  0
   -9.2802   -7.7222    7.7388 N   0  0  0  0  0  0  0  0  0  0  0  0
  -10.5726   -8.1991    8.1407 C   0  0  0  0  0  0  0  0  0  0  0  0
  -10.8794   -9.4230    7.9540 O   0  0  0  0  0  0  0  0  0  0  0  0
   -9.0608   -6.7228    7.9157 H   0  0  0  0  0  0  0  0  0  0  0  0
   -8.3197   -8.6016    7.1104 C   0  0  0  0  0  0  0  0  0  0  0  0
   -7.6277   -9.3997    8.1513 C   0  0  0  0  0  0  0  0  0  0  0  0
   -6.9993   -8.7170    9.2484 N   0  0  0  0  0  0  0  0  0  0  0  0
   -7.5506  -10.6362    8.1434 O   0  0  0  0  0  0  0  0  0  0  0  0
   -6.6744   -7.7498    9.0835 H   0  0  0  0  0  0  0  0  0  0  0  0
   -6.8693   -9.1695   10.1834 H   0  0  0  0  0  0  0  0  0  0  0  0
   -7.2993   -7.8095    6.3499 C   0  0  0  0  0  0  0  0  0  0  0  0
   -5.5253   -6.1731    7.1385 C   0  0  0  0  0  0  0  0  0  0  0  0
   -6.9441   -6.4680    6.8335 C   0  0  0  0  0  0  0  0  0  0  0  0
  -11.3326   -6.8649   10.1492 C   0  0  0  0  0  0  0  0  0  0  0  0
  -11.7784   -5.5552   10.6268 C   0  0  0  0  0  0  0  0  0  0  0  0
  -11.6408   -5.5367   12.1808 C   0  0  0  0  0  0  0  0  0  0  0  0
  -13.2281   -5.2215   10.4109 C   0  0  0  0  0  0  0  0  0  0  0  0
 26 27  1  0  0  0
 27 25  1  0  0  0
 25 19  1  0  0  0
 19 15  1  0  0  0
 15 16  1  0  0  0
 16 17  2  0  0  0
 16  1  1  0  0  0
  1 28  1  0  0  0
 28 29  1  0  0  0
 29 30  1  0  0  0
 29 31  1  0  0  0
  1  2  1  0  0  0
  2  3  1  0  0  0
  3  4  2  0  0  0
  3  5  1  0  0  0
  5  8  1  0  0  0
  8  9  2  0  0  0
  9 10  1  0  0  0
 10 11  2  0  0  0
 11 12  1  0  0  0
 11 13  1  0  0  0
 13 14  2  0  0  0
 19 20  1  0  0  0
 20 21  1  0  0  0
 20 22  2  0  0  0
 14  8  1  0  0  0
 15 18  1  0  0  0
  2  6  1  0  0  0
  5  7  1  0  0  0
 21 23  1  0  0  0
 21 24  1  0  0  0
M  END
> <minimizedAffinity>
-4.31306

> <CNNscore>
0.4076679945

> <CNNaffinity>
6.5006165504

> <CNN_VS>
2.6500933170

> <CNNaffinity_variance>
0.2829969823

$$$$
[H]c1c([H])c(N([H])C(=O)N([H])[C@]([H])(C(=O)N([H])[C@]([H])(C(=O)N([H])[H])C([H])([H])C([H])([H])C([H])([H])[H])C([H])([H])C([H])(C([H])([H])[H])C([H])([H])[H])c([H])c([H])c1Br


 31 31  0  0  0  0  0  0  0  0999 V2000
   -8.0644   -6.6933    5.9646 C   0  0  0  0  0  0  0  0  0  0  0  0
   -8.7496   -6.0163    7.0591 N   0  0  0  0  0  0  0  0  0  0  0  0
   -9.8730   -6.6286    7.6618 C   0  0  0  0  0  0  0  0  0  0  0  0
  -10.2842   -7.7631    7.2521 O   0  0  0  0  0  0  0  0  0  0  0  0
  -10.5467   -6.0007    8.7125 N   0  0  0  0  0  0  0  0  0  0  0  0
   -8.4132   -5.1123    7.3769 H   0  0  0  0  0  0  0  0  0  0  0  0
  -10.1418   -5.0473    8.9918 H   0  0  0  0  0  0  0  0  0  0  0  0
  -11.6676   -6.4603    9.4391 C   0  0  0  0  0  0  0  0  0  0  0  0
  -11.7609   -6.5506   10.8008 C   0  0  0  0  0  0  0  0  0  0  0  0
  -12.9134   -7.0420   11.4407 C   0  0  0  0  0  0  0  0  0  0  0  0
  -14.0058   -7.4560   10.7218 C   0  0  0  0  0  0  0  0  0  0  0  0
  -15.5714   -8.1239   11.5931 Br  0  0  0  0  0  0  0  0  0  0  0  0
  -13.9269   -7.3710    9.3556 C   0  0  0  0  0  0  0  0  0  0  0  0
  -12.8020   -6.8916    8.7300 C   0  0  0  0  0  0  0  0  0  0  0  0
   -5.9643   -7.9502    6.5091 N   0  0  0  0  0  0  0  0  0  0  0  0
   -7.3961   -7.8588    6.5436 C   0  0  0  0  0  0  0  0  0  0  0  0
   -8.0757   -8.8007    7.0708 O   0  0  0  0  0  0  0  0  0  0  0  0
   -5.4430   -7.1603    6.0818 H   0  0  0  0  0  0  0  0  0  0  0  0
   -5.2741   -9.1002    7.0491 C   0  0  0  0  0  0  0  0  0  0  0  0
   -6.0617   -9.6651    8.1716 C   0  0  0  0  0  0  0  0  0  0  0  0
   -6.1460  -11.0925    8.3135 N   0  0  0  0  0  0  0  0  0  0  0  0
   -6.6639   -8.9825    9.0120 O   0  0  0  0  0  0  0  0  0  0  0  0
   -6.0448  -11.6624    7.4573 H   0  0  0  0  0  0  0  0  0  0  0  0
   -6.3033  -11.5505    9.2416 H   0  0  0  0  0  0  0  0  0  0  0  0
   -3.9187   -8.7104    7.5570 C   0  0  0  0  0  0  0  0  0  0  0  0
   -1.5839   -9.2411    6.7124 C   0  0  0  0  0  0  0  0  0  0  0  0
   -2.8122   -9.6679    7.4208 C   0  0  0  0  0  0  0  0  0  0  0  0
   -7.2782   -5.7530    5.1496 C   0  0  0  0  0  0  0  0  0  0  0  0
   -7.3498   -5.7699    3.6879 C   0  0  0  0  0  0  0  0  0  0  0  0
   -8.8129   -5.4218    3.2731 C   0  0  0  0  0  0  0  0  0  0  0  0
   -7.1149   -7.0964    3.0210 C   0  0  0  0  0  0  0  0  0  0  0  0
 26 27  1  0  0  0
 27 25  1  0  0  0
 25 19  1  0  0  0
 19 15  1  0  0  0
 15 16  1  0  0  0
 16 17  2  0  0  0
 16  1  1  0  0  0
  1 28  1  0  0  0
 28 29  1  0  0  0
 29 30  1  0  0  0
 29 31  1  0  0  0
  1  2  1  0  0  0
  2  3  1  0  0  0
  3  4  2  0  0  0
  3  5  1  0  0  0
  5  8  1  0  0  0
  8  9  2  0  0  0
  9 10  1  0  0  0
 10 11  2  0  0  0
 11 12  1  0  0  0
 11 13  1  0  0  0
 13 14  2  0  0  0
 19 20  1  0  0  0
 20 21  1  0  0  0
 20 22  2  0  0  0
 14  8  1  0  0  0
 15 18  1  0  0  0
  2  6  1  0  0  0
  5  7  1  0  0  0
 21 23  1  0  0  0
 21 24  1  0  0  0
M  END
> <minimizedAffinity>
13.31616

> <CNNscore>
0.4062440693

> <CNNaffinity>
5.5896139145

> <CNN_VS>
2.2707474232

> <CNNaffinity_variance>
0.9605714679

$$$$
[H]c1c([H])c(N([H])C(=O)N([H])[C@]([H])(C(=O)N([H])[C@]([H])(C(=O)N([H])[H])C([H])([H])C([H])([H])C([H])([H])[H])C([H])([H])C([H])(C([H])([H])[H])C([H])([H])[H])c([H])c([H])c1Br


 31 31  0  0  0  0  0  0  0  0999 V2000
   -8.1680   -6.7840    7.2428 C   0  0  0  0  0  0  0  0  0  0  0  0
   -9.3147   -6.6338    8.1307 N   0  0  0  0  0  0  0  0  0  0  0  0
  -10.5922   -7.0564    7.6952 C   0  0  0  0  0  0  0  0  0  0  0  0
  -10.7412   -7.5644    6.5360 O   0  0  0  0  0  0  0  0  0  0  0  0
  -11.7068   -6.9237    8.5272 N   0  0  0  0  0  0  0  0  0  0  0  0
   -9.1841   -6.2272    9.0522 H   0  0  0  0  0  0  0  0  0  0  0  0
  -11.4973   -6.4812    9.4819 H   0  0  0  0  0  0  0  0  0  0  0  0
  -13.0450   -7.2979    8.2725 C   0  0  0  0  0  0  0  0  0  0  0  0
  -13.5730   -7.6123    7.0505 C   0  0  0  0  0  0  0  0  0  0  0  0
  -14.9278   -7.9546    6.8866 C   0  0  0  0  0  0  0  0  0  0  0  0
  -15.7881   -7.9896    7.9544 C   0  0  0  0  0  0  0  0  0  0  0  0
  -17.6291   -8.4548    7.7298 Br  0  0  0  0  0  0  0  0  0  0  0  0
  -15.2728   -7.6770    9.1860 C   0  0  0  0  0  0  0  0  0  0  0  0
  -13.9503   -7.3425    9.3469 C   0  0  0  0  0  0  0  0  0  0  0  0
   -5.9279   -7.4305    8.1650 N   0  0  0  0  0  0  0  0  0  0  0  0
   -6.9794   -6.4628    8.0329 C   0  0  0  0  0  0  0  0  0  0  0  0
   -6.8731   -5.3326    8.6146 O   0  0  0  0  0  0  0  0  0  0  0  0
   -6.0433   -8.3356    7.6692 H   0  0  0  0  0  0  0  0  0  0  0  0
   -4.7519   -7.1547    8.9596 C   0  0  0  0  0  0  0  0  0  0  0  0
   -5.0698   -6.1113    9.9644 C   0  0  0  0  0  0  0  0  0  0  0  0
   -4.4398   -4.8245    9.8547 N   0  0  0  0  0  0  0  0  0  0  0  0
   -5.8542   -6.2718   10.9098 O   0  0  0  0  0  0  0  0  0  0  0  0
   -3.5178   -4.7845    9.3895 H   0  0  0  0  0  0  0  0  0  0  0  0
   -4.8859   -3.9537   10.2268 H   0  0  0  0  0  0  0  0  0  0  0  0
   -3.6325   -6.6650    8.0911 C   0  0  0  0  0  0  0  0  0  0  0  0
   -1.1210   -6.4638    7.7772 C   0  0  0  0  0  0  0  0  0  0  0  0
   -2.2935   -6.5225    8.6798 C   0  0  0  0  0  0  0  0  0  0  0  0
   -8.3785   -6.0940    5.9597 C   0  0  0  0  0  0  0  0  0  0  0  0
   -7.7580   -6.5777    4.7256 C   0  0  0  0  0  0  0  0  0  0  0  0
   -7.0656   -7.9408    5.0366 C   0  0  0  0  0  0  0  0  0  0  0  0
   -6.6356   -5.7465    4.1698 C   0  0  0  0  0  0  0  0  0  0  0  0
 26 27  1  0  0  0
 27 25  1  0  0  0
 25 19  1  0  0  0
 19 15  1  0  0  0
 15 16  1  0  0  0
 16 17  2  0  0  0
 16  1  1  0  0  0
  1 28  1  0  0  0
 28 29  1  0  0  0
 29 30  1  0  0  0
 29 31  1  0  0  0
  1  2  1  0  0  0
  2  3  1  0  0  0
  3  4  2  0  0  0
  3  5  1  0  0  0
  5  8  1  0  0  0
  8  9  2  0  0  0
  9 10  1  0  0  0
 10 11  2  0  0  0
 11 12  1  0  0  0
 11 13  1  0  0  0
 13 14  2  0  0  0
 19 20  1  0  0  0
 20 21  1  0  0  0
 20 22  2  0  0  0
 14  8  1  0  0  0
 15 18  1  0  0  0
  2  6  1  0  0  0
  5  7  1  0  0  0
 21 23  1  0  0  0
 21 24  1  0  0  0
M  END
> <minimizedAffinity>
3.07201

> <CNNscore>
0.3839290440

> <CNNaffinity>
5.9068651199

> <CNN_VS>
2.2678170204

> <CNNaffinity_variance>
1.8918349743

$$$$
[H]c1c([H])c(N([H])C(=O)N([H])[C@]([H])(C(=O)N([H])[C@]([H])(C(=O)N([H])[H])C([H])([H])C([H])([H])C([H])([H])[H])C([H])([H])C([H])(C([H])([H])[H])C([H])([H])[H])c([H])c([H])c1Br


 31 31  0  0  0  0  0  0  0  0999 V2000
   -6.5977   -6.8161    6.4341 C   0  0  0  0  0  0  0  0  0  0  0  0
   -5.9173   -7.1193    7.6875 N   0  0  0  0  0  0  0  0  0  0  0  0
   -5.4373   -6.0605    8.4928 C   0  0  0  0  0  0  0  0  0  0  0  0
   -5.5975   -4.8503    8.1267 O   0  0  0  0  0  0  0  0  0  0  0  0
   -4.7824   -6.3246    9.6984 N   0  0  0  0  0  0  0  0  0  0  0  0
   -5.7950   -8.0875    7.9688 H   0  0  0  0  0  0  0  0  0  0  0  0
   -4.6827   -7.3675    9.9296 H   0  0  0  0  0  0  0  0  0  0  0  0
   -4.2521   -5.4063   10.6317 C   0  0  0  0  0  0  0  0  0  0  0  0
   -4.3323   -5.5074   11.9934 C   0  0  0  0  0  0  0  0  0  0  0  0
   -3.7913   -4.5306   12.8493 C   0  0  0  0  0  0  0  0  0  0  0  0
   -3.1525   -3.4230   12.3527 C   0  0  0  0  0  0  0  0  0  0  0  0
   -2.4179   -2.0962   13.5174 Br  0  0  0  0  0  0  0  0  0  0  0  0
   -3.0640   -3.3082   10.9892 C   0  0  0  0  0  0  0  0  0  0  0  0
   -3.5921   -4.2613   10.1529 C   0  0  0  0  0  0  0  0  0  0  0  0
   -4.3567   -5.7392    6.1110 N   0  0  0  0  0  0  0  0  0  0  0  0
   -5.6134   -6.1685    5.5670 C   0  0  0  0  0  0  0  0  0  0  0  0
   -5.8661   -5.9727    4.3322 O   0  0  0  0  0  0  0  0  0  0  0  0
   -4.1808   -5.9244    7.1174 H   0  0  0  0  0  0  0  0  0  0  0  0
   -3.3727   -5.0730    5.2873 C   0  0  0  0  0  0  0  0  0  0  0  0
   -2.1020   -5.8368    5.3228 C   0  0  0  0  0  0  0  0  0  0  0  0
   -1.1822   -5.7088    4.2262 N   0  0  0  0  0  0  0  0  0  0  0  0
   -1.7695   -6.5918    6.2471 O   0  0  0  0  0  0  0  0  0  0  0  0
   -1.5749   -5.4641    3.3021 H   0  0  0  0  0  0  0  0  0  0  0  0
   -0.1524   -5.8548    4.3447 H   0  0  0  0  0  0  0  0  0  0  0  0
   -3.1170   -3.6846    5.7912 C   0  0  0  0  0  0  0  0  0  0  0  0
   -1.1035   -3.0767    7.2135 C   0  0  0  0  0  0  0  0  0  0  0  0
   -2.5144   -3.5167    7.1210 C   0  0  0  0  0  0  0  0  0  0  0  0
   -7.8914   -6.1524    6.6634 C   0  0  0  0  0  0  0  0  0  0  0  0
   -9.0873   -6.9189    7.0160 C   0  0  0  0  0  0  0  0  0  0  0  0
   -9.4818   -6.5500    8.4797 C   0  0  0  0  0  0  0  0  0  0  0  0
   -8.9325   -8.4131    7.0730 C   0  0  0  0  0  0  0  0  0  0  0  0
 26 27  1  0  0  0
 27 25  1  0  0  0
 25 19  1  0  0  0
 19 15  1  0  0  0
 15 16  1  0  0  0
 16 17  2  0  0  0
 16  1  1  0  0  0
  1 28  1  0  0  0
 28 29  1  0  0  0
 29 30  1  0  0  0
 29 31  1  0  0  0
  1  2  1  0  0  0
  2  3  1  0  0  0
  3  4  2  0  0  0
  3  5  1  0  0  0
  5  8  1  0  0  0
  8  9  2  0  0  0
  9 10  1  0  0  0
 10 11  2  0  0  0
 11 12  1  0  0  0
 11 13  1  0  0  0
 13 14  2  0  0  0
 19 20  1  0  0  0
 20 21  1  0  0  0
 20 22  2  0  0  0
 14  8  1  0  0  0
 15 18  1  0  0  0
  2  6  1  0  0  0
  5  7  1  0  0  0
 21 23  1  0  0  0
 21 24  1  0  0  0
M  END
> <minimizedAffinity>
-0.85218

> <CNNscore>
0.3786684275

> <CNNaffinity>
5.2704133987

> <CNN_VS>
1.9957391024

> <CNNaffinity_variance>
1.2671867609

$$$$
[H]OC(C([H])([H])[H])(C([H])([H])[H])C([H])([H])C(=O)N([H])C([H])([H])C([H])([H])c1c([H])c([H])c2nc([H])nc(N([H])c3c([H])c([H])c(Oc4c([H])c([H])c([H])c(C(F)(F)F)c4[H])c(Cl)c3[H])c2c1[H]


 42 45  0  0  0  0  0  0  0  0999 V2000
   -4.2901   -5.7035    8.8551 C   0  0  0  0  0  0  0  0  0  0  0  0
   -3.4138   -6.1249    7.8955 C   0  0  0  0  0  0  0  0  0  0  0  0
   -3.8124   -6.9788    6.9142 C   0  0  0  0  0  0  0  0  0  0  0  0
   -5.1157   -7.4533    6.8560 C   0  0  0  0  0  0  0  0  0  0  0  0
   -5.4313   -8.3081    5.8622 N   0  0  0  0  0  0  0  0  0  0  0  0
   -6.6802   -8.7916    5.8029 C   0  0  0  0  0  0  0  0  0  0  0  0
   -7.5289   -8.3899    6.7412 N   0  0  0  0  0  0  0  0  0  0  0  0
   -7.2994   -7.5572    7.7442 C   0  0  0  0  0  0  0  0  0  0  0  0
   -6.0026   -7.0350    7.8245 C   0  0  0  0  0  0  0  0  0  0  0  0
   -5.6198   -6.1803    8.8061 C   0  0  0  0  0  0  0  0  0  0  0  0
   -8.2564   -7.2513    8.7285 N   0  0  0  0  0  0  0  0  0  0  0  0
   -7.9931   -6.9516    9.7020 H   0  0  0  0  0  0  0  0  0  0  0  0
   -9.6543   -7.3303    8.4929 C   0  0  0  0  0  0  0  0  0  0  0  0
  -10.2592   -8.2253    7.6663 C   0  0  0  0  0  0  0  0  0  0  0  0
  -11.6497   -8.3242    7.5621 C   0  0  0  0  0  0  0  0  0  0  0  0
  -12.4726   -7.4781    8.3264 C   0  0  0  0  0  0  0  0  0  0  0  0
  -11.8791   -6.5627    9.1647 C   0  0  0  0  0  0  0  0  0  0  0  0
  -12.8502   -5.4451   10.1426 Cl  0  0  0  0  0  0  0  0  0  0  0  0
  -10.5050   -6.5102    9.2294 C   0  0  0  0  0  0  0  0  0  0  0  0
  -13.7994   -7.6300    8.1855 O   0  0  0  0  0  0  0  0  0  0  0  0
  -14.7511   -7.2732    7.3069 C   0  0  0  0  0  0  0  0  0  0  0  0
  -15.9917   -7.9298    7.3635 C   0  0  0  0  0  0  0  0  0  0  0  0
  -16.9753   -7.5819    6.4816 C   0  0  0  0  0  0  0  0  0  0  0  0
  -16.7397   -6.5951    5.5494 C   0  0  0  0  0  0  0  0  0  0  0  0
  -15.5354   -5.9342    5.4659 C   0  0  0  0  0  0  0  0  0  0  0  0
  -14.5446   -6.2750    6.3465 C   0  0  0  0  0  0  0  0  0  0  0  0
  -15.3566   -4.8979    4.4144 C   0  0  0  0  0  0  0  0  0  0  0  0
  -15.1215   -3.6480    5.0196 F   0  0  0  0  0  0  0  0  0  0  0  0
  -14.2079   -5.2051    3.7147 F   0  0  0  0  0  0  0  0  0  0  0  0
  -16.4134   -4.8481    3.5506 F   0  0  0  0  0  0  0  0  0  0  0  0
   -3.8945   -4.8378    9.9417 C   0  0  0  0  0  0  0  0  0  0  0  0
   -2.5760   -5.1449   10.6223 C   0  0  0  0  0  0  0  0  0  0  0  0
   -2.7635   -5.3280   13.3602 C   0  0  0  0  0  0  0  0  0  0  0  0
   -1.9345   -4.9260   14.2002 O   0  0  0  0  0  0  0  0  0  0  0  0
   -2.6713   -5.2372   11.9920 N   0  0  0  0  0  0  0  0  0  0  0  0
   -1.5402   -4.4807   12.1249 H   0  0  0  0  0  0  0  0  0  0  0  0
   -3.9863   -5.9800   13.9627 C   0  0  0  0  0  0  0  0  0  0  0  0
   -5.3984   -5.1033   15.7765 C   0  0  0  0  0  0  0  0  0  0  0  0
   -5.0910   -5.0758   14.3119 C   0  0  0  0  0  0  0  0  0  0  0  0
   -6.3269   -5.2475   13.4444 C   0  0  0  0  0  0  0  0  0  0  0  0
   -4.6035   -3.7488   14.0351 O   0  0  0  0  0  0  0  0  0  0  0  0
   -4.0791   -3.8323   13.1936 H   0  0  0  0  0  0  0  0  0  0  0  0
 38 39  1  0  0  0
 39 40  1  0  0  0
 39 41  1  0  0  0
 39 37  1  0  0  0
 37 33  1  0  0  0
 33 34  2  0  0  0
 33 35  1  0  0  0
 35 32  1  0  0  0
 32 31  1  0  0  0
 31  1  1  0  0  0
  1  2  2  0  0  0
  2  3  1  0  0  0
  3  4  2  0  0  0
  4  5  1  0  0  0
  5  6  2  0  0  0
  6  7  1  0  0  0
  7  8  2  0  0  0
  8 11  1  0  0  0
 11 13  1  0  0  0
 13 14  2  0  0  0
 14 15  1  0  0  0
 15 16  2  0  0  0
 16 20  1  0  0  0
 20 21  1  0  0  0
 21 22  2  0  0  0
 22 23  1  0  0  0
 23 24  2  0  0  0
 24 25  1  0  0  0
 25 27  1  0  0  0
 27 28  1  0  0  0
 27 29  1  0  0  0
 27 30  1  0  0  0
 25 26  2  0  0  0
 16 17  1  0  0  0
 17 18  1  0  0  0
 17 19  2  0  0  0
  8  9  1  0  0  0
  9 10  2  0  0  0
 10  1  1  0  0  0
  9  4  1  0  0  0
 19 13  1  0  0  0
 26 21  1  0  0  0
 41 42  1  0  0  0
 35 36  1  0  0  0
 11 12  1  0  0  0
M  END
> <minimizedAffinity>
-9.60986

> <CNNscore>
0.5979064107

> <CNNaffinity>
7.7268629074

> <CNN_VS>
4.6199407578

> <CNNaffinity_variance>
0.0186038837

$$$$
[H]OC(C([H])([H])[H])(C([H])([H])[H])C([H])([H])C(=O)N([H])C([H])([H])C([H])([H])c1c([H])c([H])c2nc([H])nc(N([H])c3c([H])c([H])c(Oc4c([H])c([H])c([H])c(C(F)(F)F)c4[H])c(Cl)c3[H])c2c1[H]


 42 45  0  0  0  0  0  0  0  0999 V2000
   -3.2177   -4.1091    4.4441 C   0  0  0  0  0  0  0  0  0  0  0  0
   -2.1856   -4.5601    3.6709 C   0  0  0  0  0  0  0  0  0  0  0  0
   -1.5903   -5.7554    3.9313 C   0  0  0  0  0  0  0  0  0  0  0  0
   -2.0052   -6.5530    4.9891 C   0  0  0  0  0  0  0  0  0  0  0  0
   -1.3563   -7.7173    5.1926 N   0  0  0  0  0  0  0  0  0  0  0  0
   -1.7311   -8.4904    6.2218 C   0  0  0  0  0  0  0  0  0  0  0  0
   -2.7274   -8.0474    6.9789 N   0  0  0  0  0  0  0  0  0  0  0  0
   -3.4130   -6.9229    6.8463 C   0  0  0  0  0  0  0  0  0  0  0  0
   -3.0430   -6.1006    5.7750 C   0  0  0  0  0  0  0  0  0  0  0  0
   -3.6487   -4.9128    5.5240 C   0  0  0  0  0  0  0  0  0  0  0  0
   -4.4094   -6.5146    7.7512 N   0  0  0  0  0  0  0  0  0  0  0  0
   -4.2051   -5.9006    8.5808 H   0  0  0  0  0  0  0  0  0  0  0  0
   -5.7690   -6.9040    7.6254 C   0  0  0  0  0  0  0  0  0  0  0  0
   -6.7574   -6.1344    7.0954 C   0  0  0  0  0  0  0  0  0  0  0  0
   -8.0545   -6.6167    6.8978 C   0  0  0  0  0  0  0  0  0  0  0  0
   -8.3733   -7.9392    7.2536 C   0  0  0  0  0  0  0  0  0  0  0  0
   -7.3879   -8.7316    7.7960 C   0  0  0  0  0  0  0  0  0  0  0  0
   -7.7193  -10.4026    8.2919 Cl  0  0  0  0  0  0  0  0  0  0  0  0
   -6.1272   -8.2055    7.9664 C   0  0  0  0  0  0  0  0  0  0  0  0
   -9.6346   -8.3423    7.0303 O   0  0  0  0  0  0  0  0  0  0  0  0
  -10.7833   -8.4356    7.7209 C   0  0  0  0  0  0  0  0  0  0  0  0
  -11.5807   -9.5776    7.5386 C   0  0  0  0  0  0  0  0  0  0  0  0
  -12.7518   -9.6953    8.2321 C   0  0  0  0  0  0  0  0  0  0  0  0
  -13.1364   -8.6957    9.0988 C   0  0  0  0  0  0  0  0  0  0  0  0
  -12.3795   -7.5637    9.2986 C   0  0  0  0  0  0  0  0  0  0  0  0
  -11.2039   -7.4379    8.6092 C   0  0  0  0  0  0  0  0  0  0  0  0
  -12.8795   -6.5219   10.2346 C   0  0  0  0  0  0  0  0  0  0  0  0
  -13.1854   -5.3500    9.5158 F   0  0  0  0  0  0  0  0  0  0  0  0
  -14.0738   -6.9697   10.7605 F   0  0  0  0  0  0  0  0  0  0  0  0
  -12.0016   -6.2741   11.2513 F   0  0  0  0  0  0  0  0  0  0  0  0
   -3.8431   -2.8244    4.2319 C   0  0  0  0  0  0  0  0  0  0  0  0
   -2.9273   -1.6501    3.9522 C   0  0  0  0  0  0  0  0  0  0  0  0
   -2.9428   -0.8401    1.3237 C   0  0  0  0  0  0  0  0  0  0  0  0
   -1.9684   -0.4524    0.6496 O   0  0  0  0  0  0  0  0  0  0  0  0
   -2.9367   -1.2452    2.6370 N   0  0  0  0  0  0  0  0  0  0  0  0
   -1.5719   -1.1642    2.6489 H   0  0  0  0  0  0  0  0  0  0  0  0
   -4.2521   -0.8463    0.5694 C   0  0  0  0  0  0  0  0  0  0  0  0
   -5.6707   -1.7308   -1.2357 C   0  0  0  0  0  0  0  0  0  0  0  0
   -4.3783   -1.8560   -0.4912 C   0  0  0  0  0  0  0  0  0  0  0  0
   -4.0972   -3.2759   -0.0281 C   0  0  0  0  0  0  0  0  0  0  0  0
   -3.3422   -1.5454   -1.4426 O   0  0  0  0  0  0  0  0  0  0  0  0
   -2.5551   -1.2789   -0.8955 H   0  0  0  0  0  0  0  0  0  0  0  0
 38 39  1  0  0  0
 39 40  1  0  0  0
 39 41  1  0  0  0
 39 37  1  0  0  0
 37 33  1  0  0  0
 33 34  2  0  0  0
 33 35  1  0  0  0
 35 32  1  0  0  0
 32 31  1  0  0  0
 31  1  1  0  0  0
  1  2  2  0  0  0
  2  3  1  0  0  0
  3  4  2  0  0  0
  4  5  1  0  0  0
  5  6  2  0  0  0
  6  7  1  0  0  0
  7  8  2  0  0  0
  8 11  1  0  0  0
 11 13  1  0  0  0
 13 14  2  0  0  0
 14 15  1  0  0  0
 15 16  2  0  0  0
 16 20  1  0  0  0
 20 21  1  0  0  0
 21 22  2  0  0  0
 22 23  1  0  0  0
 23 24  2  0  0  0
 24 25  1  0  0  0
 25 27  1  0  0  0
 27 28  1  0  0  0
 27 29  1  0  0  0
 27 30  1  0  0  0
 25 26  2  0  0  0
 16 17  1  0  0  0
 17 18  1  0  0  0
 17 19  2  0  0  0
  8  9  1  0  0  0
  9 10  2  0  0  0
 10  1  1  0  0  0
  9  4  1  0  0  0
 19 13  1  0  0  0
 26 21  1  0  0  0
 41 42  1  0  0  0
 35 36  1  0  0  0
 11 12  1  0  0  0
M  END
> <minimizedAffinity>
-7.74286

> <CNNscore>
0.3443094194

> <CNNaffinity>
6.8203306198

> <CNN_VS>
2.3483040333

> <CNNaffinity_variance>
0.0332685933

$$$$
[H]OC(C([H])([H])[H])(C([H])([H])[H])C([H])([H])C(=O)N([H])C([H])([H])C([H])([H])c1c([H])c([H])c2nc([H])nc(N([H])c3c([H])c([H])c(Oc4c([H])c([H])c([H])c(C(F)(F)F)c4[H])c(Cl)c3[H])c2c1[H]


 42 45  0  0  0  0  0  0  0  0999 V2000
  -10.2440  -10.0010    6.2906 C   0  0  0  0  0  0  0  0  0  0  0  0
  -11.6061   -9.9460    6.2004 C   0  0  0  0  0  0  0  0  0  0  0  0
  -12.3173   -9.0464    6.9325 C   0  0  0  0  0  0  0  0  0  0  0  0
  -11.6879   -8.1602    7.7960 C   0  0  0  0  0  0  0  0  0  0  0  0
  -12.4617   -7.3084    8.4986 N   0  0  0  0  0  0  0  0  0  0  0  0
  -11.8717   -6.4593    9.3519 C   0  0  0  0  0  0  0  0  0  0  0  0
  -10.5491   -6.5196    9.4468 N   0  0  0  0  0  0  0  0  0  0  0  0
   -9.7217   -7.3214    8.7952 C   0  0  0  0  0  0  0  0  0  0  0  0
  -10.3143   -8.2146    7.8942 C   0  0  0  0  0  0  0  0  0  0  0  0
   -9.5923   -9.1035    7.1667 C   0  0  0  0  0  0  0  0  0  0  0  0
   -8.3342   -7.3503    9.0237 N   0  0  0  0  0  0  0  0  0  0  0  0
   -7.9171   -7.6320    9.9477 H   0  0  0  0  0  0  0  0  0  0  0  0
   -7.3836   -6.9937    8.0311 C   0  0  0  0  0  0  0  0  0  0  0  0
   -7.6863   -6.5494    6.7817 C   0  0  0  0  0  0  0  0  0  0  0  0
   -6.7058   -6.1088    5.8879 C   0  0  0  0  0  0  0  0  0  0  0  0
   -5.3526   -6.1183    6.2701 C   0  0  0  0  0  0  0  0  0  0  0  0
   -5.0263   -6.5691    7.5284 C   0  0  0  0  0  0  0  0  0  0  0  0
   -3.3392   -6.6336    8.0742 Cl  0  0  0  0  0  0  0  0  0  0  0  0
   -6.0327   -6.9894    8.3683 C   0  0  0  0  0  0  0  0  0  0  0  0
   -4.4623   -5.6748    5.3679 O   0  0  0  0  0  0  0  0  0  0  0  0
   -3.8089   -4.5325    5.0976 C   0  0  0  0  0  0  0  0  0  0  0  0
   -3.7862   -3.5282    6.0796 C   0  0  0  0  0  0  0  0  0  0  0  0
   -3.1258   -2.3592    5.8280 C   0  0  0  0  0  0  0  0  0  0  0  0
   -2.4924   -2.1788    4.6178 C   0  0  0  0  0  0  0  0  0  0  0  0
   -2.4975   -3.1413    3.6341 C   0  0  0  0  0  0  0  0  0  0  0  0
   -3.1553   -4.3165    3.8780 C   0  0  0  0  0  0  0  0  0  0  0  0
   -1.8088   -2.8562    2.3472 C   0  0  0  0  0  0  0  0  0  0  0  0
   -1.5218   -4.0671    1.6877 F   0  0  0  0  0  0  0  0  0  0  0  0
   -2.6985   -2.1818    1.5366 F   0  0  0  0  0  0  0  0  0  0  0  0
   -0.6860   -2.0972    2.5171 F   0  0  0  0  0  0  0  0  0  0  0  0
   -9.4566  -10.9735    5.5688 C   0  0  0  0  0  0  0  0  0  0  0  0
   -8.1204  -10.5108    5.0243 C   0  0  0  0  0  0  0  0  0  0  0  0
   -7.8110  -10.9606    2.3286 C   0  0  0  0  0  0  0  0  0  0  0  0
   -6.9610  -10.4502    1.5728 O   0  0  0  0  0  0  0  0  0  0  0  0
   -7.9669  -10.7370    3.6756 N   0  0  0  0  0  0  0  0  0  0  0  0
   -6.8219   -9.9896    3.6774 H   0  0  0  0  0  0  0  0  0  0  0  0
   -8.7505  -11.9234    1.6402 C   0  0  0  0  0  0  0  0  0  0  0  0
   -7.8698  -14.0946    2.3905 C   0  0  0  0  0  0  0  0  0  0  0  0
   -8.1654  -13.2055    1.2232 C   0  0  0  0  0  0  0  0  0  0  0  0
   -6.9882  -13.0664    0.2722 C   0  0  0  0  0  0  0  0  0  0  0  0
   -9.1968  -13.8717    0.4699 O   0  0  0  0  0  0  0  0  0  0  0  0
   -9.6331  -13.1564   -0.0667 H   0  0  0  0  0  0  0  0  0  0  0  0
 38 39  1  0  0  0
 39 40  1  0  0  0
 39 41  1  0  0  0
 39 37  1  0  0  0
 37 33  1  0  0  0
 33 34  2  0  0  0
 33 35  1  0  0  0
 35 32  1  0  0  0
 32 31  1  0  0  0
 31  1  1  0  0  0
  1  2  2  0  0  0
  2  3  1  0  0  0
  3  4  2  0  0  0
  4  5  1  0  0  0
  5  6  2  0  0  0
  6  7  1  0  0  0
  7  8  2  0  0  0
  8 11  1  0  0  0
 11 13  1  0  0  0
 13 14  2  0  0  0
 14 15  1  0  0  0
 15 16  2  0  0  0
 16 20  1  0  0  0
 20 21  1  0  0  0
 21 22  2  0  0  0
 22 23  1  0  0  0
 23 24  2  0  0  0
 24 25  1  0  0  0
 25 27  1  0  0  0
 27 28  1  0  0  0
 27 29  1  0  0  0
 27 30  1  0  0  0
 25 26  2  0  0  0
 16 17  1  0  0  0
 17 18  1  0  0  0
 17 19  2  0  0  0
  8  9  1  0  0  0
  9 10  2  0  0  0
 10  1  1  0  0  0
  9  4  1  0  0  0
 19 13  1  0  0  0
 26 21  1  0  0  0
 41 42  1  0  0  0
 35 36  1  0  0  0
 11 12  1  0  0  0
M  END
> <minimizedAffinity>
0.37670

> <CNNscore>
0.2864266038

> <CNNaffinity>
6.9883604050

> <CNN_VS>
2.0016522408

> <CNNaffinity_variance>
0.4568010271

$$$$
[H]OC(C([H])([H])[H])(C([H])([H])[H])C([H])([H])C(=O)N([H])C([H])([H])C([H])([H])c1c([H])c([H])c2nc([H])nc(N([H])c3c([H])c([H])c(Oc4c([H])c([H])c([H])c(C(F)(F)F)c4[H])c(Cl)c3[H])c2c1[H]


 42 45  0  0  0  0  0  0  0  0999 V2000
  -12.9539   -8.2684   10.9983 C   0  0  0  0  0  0  0  0  0  0  0  0
  -13.1021   -9.5787   11.3557 C   0  0  0  0  0  0  0  0  0  0  0  0
  -12.8299  -10.5771   10.4725 C   0  0  0  0  0  0  0  0  0  0  0  0
  -12.3986  -10.3013    9.1821 C   0  0  0  0  0  0  0  0  0  0  0  0
  -12.1633  -11.3439    8.3601 N   0  0  0  0  0  0  0  0  0  0  0  0
  -11.7653  -11.0950    7.1044 C   0  0  0  0  0  0  0  0  0  0  0  0
  -11.6309   -9.8217    6.7542 N   0  0  0  0  0  0  0  0  0  0  0  0
  -11.8400   -8.7465    7.4974 C   0  0  0  0  0  0  0  0  0  0  0  0
  -12.2519   -8.9811    8.8150 C   0  0  0  0  0  0  0  0  0  0  0  0
  -12.5154   -7.9756    9.6869 C   0  0  0  0  0  0  0  0  0  0  0  0
  -11.7342   -7.4338    7.0034 N   0  0  0  0  0  0  0  0  0  0  0  0
  -10.9283   -6.8010    7.2424 H   0  0  0  0  0  0  0  0  0  0  0  0
  -12.7088   -6.8520    6.1505 C   0  0  0  0  0  0  0  0  0  0  0  0
  -13.2192   -7.4359    5.0330 C   0  0  0  0  0  0  0  0  0  0  0  0
  -14.2578   -6.8585    4.2967 C   0  0  0  0  0  0  0  0  0  0  0  0
  -14.8085   -5.6305    4.7043 C   0  0  0  0  0  0  0  0  0  0  0  0
  -14.3020   -5.0220    5.8295 C   0  0  0  0  0  0  0  0  0  0  0  0
  -14.9285   -3.4604    6.3925 Cl  0  0  0  0  0  0  0  0  0  0  0  0
  -13.2802   -5.6365    6.5175 C   0  0  0  0  0  0  0  0  0  0  0  0
  -15.8086   -5.1345    3.9579 O   0  0  0  0  0  0  0  0  0  0  0  0
  -17.1483   -5.2234    3.9088 C   0  0  0  0  0  0  0  0  0  0  0  0
  -17.7210   -6.4139    3.4313 C   0  0  0  0  0  0  0  0  0  0  0  0
  -19.0812   -6.5280    3.3747 C   0  0  0  0  0  0  0  0  0  0  0  0
  -19.8728   -5.4775    3.7845 C   0  0  0  0  0  0  0  0  0  0  0  0
  -19.3436   -4.2974    4.2552 C   0  0  0  0  0  0  0  0  0  0  0  0
  -17.9819   -4.1747    4.3169 C   0  0  0  0  0  0  0  0  0  0  0  0
  -20.2695   -3.2045    4.6550 C   0  0  0  0  0  0  0  0  0  0  0  0
  -21.1709   -2.9425    3.6050 F   0  0  0  0  0  0  0  0  0  0  0  0
  -21.0332   -3.6665    5.7071 F   0  0  0  0  0  0  0  0  0  0  0  0
  -19.6036   -2.0758    5.0401 F   0  0  0  0  0  0  0  0  0  0  0  0
  -13.2797   -7.1789   11.8891 C   0  0  0  0  0  0  0  0  0  0  0  0
  -12.9818   -7.3800   13.3612 C   0  0  0  0  0  0  0  0  0  0  0  0
  -13.9101   -9.7705   14.3557 C   0  0  0  0  0  0  0  0  0  0  0  0
  -15.0619  -10.0204   14.7621 O   0  0  0  0  0  0  0  0  0  0  0  0
  -13.4447   -8.5767   13.8585 N   0  0  0  0  0  0  0  0  0  0  0  0
  -14.7148   -8.0721   13.8992 H   0  0  0  0  0  0  0  0  0  0  0  0
  -12.9579  -10.9407   14.4406 C   0  0  0  0  0  0  0  0  0  0  0  0
  -12.2194  -10.0977   16.6308 C   0  0  0  0  0  0  0  0  0  0  0  0
  -11.8219  -10.7801   15.3593 C   0  0  0  0  0  0  0  0  0  0  0  0
  -10.5907  -10.1633   14.7164 C   0  0  0  0  0  0  0  0  0  0  0  0
  -11.4369  -12.1173   15.7317 O   0  0  0  0  0  0  0  0  0  0  0  0
  -11.5231  -12.6564   14.8999 H   0  0  0  0  0  0  0  0  0  0  0  0
 38 39  1  0  0  0
 39 40  1  0  0  0
 39 41  1  0  0  0
 39 37  1  0  0  0
 37 33  1  0  0  0
 33 34  2  0  0  0
 33 35  1  0  0  0
 35 32  1  0  0  0
 32 31  1  0  0  0
 31  1  1  0  0  0
  1  2  2  0  0  0
  2  3  1  0  0  0
  3  4  2  0  0  0
  4  5  1  0  0  0
  5  6  2  0  0  0
  6  7  1  0  0  0
  7  8  2  0  0  0
  8 11  1  0  0  0
 11 13  1  0  0  0
 13 14  2  0  0  0
 14 15  1  0  0  0
 15 16  2  0  0  0
 16 20  1  0  0  0
 20 21  1  0  0  0
 21 22  2  0  0  0
 22 23  1  0  0  0
 23 24  2  0  0  0
 24 25  1  0  0  0
 25 27  1  0  0  0
 27 28  1  0  0  0
 27 29  1  0  0  0
 27 30  1  0  0  0
 25 26  2  0  0  0
 16 17  1  0  0  0
 17 18  1  0  0  0
 17 19  2  0  0  0
  8  9  1  0  0  0
  9 10  2  0  0  0
 10  1  1  0  0  0
  9  4  1  0  0  0
 19 13  1  0  0  0
 26 21  1  0  0  0
 41 42  1  0  0  0
 35 36  1  0  0  0
 11 12  1  0  0  0
M  END
> <minimizedAffinity>
48.12590

> <CNNscore>
0.2696509659

> <CNNaffinity>
6.5631570816

> <CNN_VS>
1.7697616816

> <CNNaffinity_variance>
0.6899288297

$$$$
[H]OC(C([H])([H])[H])(C([H])([H])[H])C([H])([H])C(=O)N([H])C([H])([H])C([H])([H])c1c([H])c([H])c2nc([H])nc(N([H])c3c([H])c([H])c(Oc4c([H])c([H])c([H])c(C(F)(F)F)c4[H])c(Cl)c3[H])c2c1[H]


 42 45  0  0  0  0  0  0  0  0999 V2000
   -3.6005   -3.6039    5.0938 C   0  0  0  0  0  0  0  0  0  0  0  0
   -2.4516   -3.4328    5.8130 C   0  0  0  0  0  0  0  0  0  0  0  0
   -2.0261   -4.3872    6.6842 C   0  0  0  0  0  0  0  0  0  0  0  0
   -2.7429   -5.5605    6.8758 C   0  0  0  0  0  0  0  0  0  0  0  0
   -2.2651   -6.4523    7.7672 N   0  0  0  0  0  0  0  0  0  0  0  0
   -2.9554   -7.5818    7.9791 C   0  0  0  0  0  0  0  0  0  0  0  0
   -4.0769   -7.7434    7.2876 N   0  0  0  0  0  0  0  0  0  0  0  0
   -4.6108   -6.9211    6.3983 C   0  0  0  0  0  0  0  0  0  0  0  0
   -3.9051   -5.7361    6.1562 C   0  0  0  0  0  0  0  0  0  0  0  0
   -4.3387   -4.7947    5.2807 C   0  0  0  0  0  0  0  0  0  0  0  0
   -5.8467   -7.1591    5.7706 N   0  0  0  0  0  0  0  0  0  0  0  0
   -5.9538   -7.1972    4.7246 H   0  0  0  0  0  0  0  0  0  0  0  0
   -7.0515   -7.3584    6.4950 C   0  0  0  0  0  0  0  0  0  0  0  0
   -7.7876   -6.3728    7.0754 C   0  0  0  0  0  0  0  0  0  0  0  0
   -9.0233   -6.6212    7.6801 C   0  0  0  0  0  0  0  0  0  0  0  0
   -9.5429   -7.9277    7.7039 C   0  0  0  0  0  0  0  0  0  0  0  0
   -8.8103   -8.9390    7.1263 C   0  0  0  0  0  0  0  0  0  0  0  0
   -9.3883  -10.6165    7.1377 Cl  0  0  0  0  0  0  0  0  0  0  0  0
   -7.6005   -8.6371    6.5430 C   0  0  0  0  0  0  0  0  0  0  0  0
  -10.7378   -8.0967    8.2929 O   0  0  0  0  0  0  0  0  0  0  0  0
  -11.9967   -8.3809    7.9193 C   0  0  0  0  0  0  0  0  0  0  0  0
  -12.5350   -9.6269    8.2810 C   0  0  0  0  0  0  0  0  0  0  0  0
  -13.8139   -9.9368    7.9143 C   0  0  0  0  0  0  0  0  0  0  0  0
  -14.5583   -9.0270    7.1956 C   0  0  0  0  0  0  0  0  0  0  0  0
  -14.0602   -7.7991    6.8236 C   0  0  0  0  0  0  0  0  0  0  0  0
  -12.7803   -7.4794    7.1881 C   0  0  0  0  0  0  0  0  0  0  0  0
  -14.9228   -6.8856    6.0280 C   0  0  0  0  0  0  0  0  0  0  0  0
  -14.8662   -7.2489    4.6684 F   0  0  0  0  0  0  0  0  0  0  0  0
  -16.2282   -7.0917    6.4240 F   0  0  0  0  0  0  0  0  0  0  0  0
  -14.5956   -5.5724    6.2121 F   0  0  0  0  0  0  0  0  0  0  0  0
   -4.1126   -2.5942    4.1966 C   0  0  0  0  0  0  0  0  0  0  0  0
   -3.2062   -1.4184    3.8932 C   0  0  0  0  0  0  0  0  0  0  0  0
   -3.8169   -0.1395    1.5360 C   0  0  0  0  0  0  0  0  0  0  0  0
   -4.9460    0.2102    1.1398 O   0  0  0  0  0  0  0  0  0  0  0  0
   -3.5101   -0.7785    2.7134 N   0  0  0  0  0  0  0  0  0  0  0  0
   -4.8079   -0.6382    3.1202 H   0  0  0  0  0  0  0  0  0  0  0  0
   -2.6956    0.1977    0.5808 C   0  0  0  0  0  0  0  0  0  0  0  0
   -1.6742    2.0568   -0.6655 C   0  0  0  0  0  0  0  0  0  0  0  0
   -2.1761    1.5704    0.6580 C   0  0  0  0  0  0  0  0  0  0  0  0
   -1.1816    1.7913    1.7857 C   0  0  0  0  0  0  0  0  0  0  0  0
   -3.3139    2.3944    0.9766 O   0  0  0  0  0  0  0  0  0  0  0  0
   -3.8442    1.8670    1.6329 H   0  0  0  0  0  0  0  0  0  0  0  0
 38 39  1  0  0  0
 39 40  1  0  0  0
 39 41  1  0  0  0
 39 37  1  0  0  0
 37 33  1  0  0  0
 33 34  2  0  0  0
 33 35  1  0  0  0
 35 32  1  0  0  0
 32 31  1  0  0  0
 31  1  1  0  0  0
  1  2  2  0  0  0
  2  3  1  0  0  0
  3  4  2  0  0  0
  4  5  1  0  0  0
  5  6  2  0  0  0
  6  7  1  0  0  0
  7  8  2  0  0  0
  8 11  1  0  0  0
 11 13  1  0  0  0
 13 14  2  0  0  0
 14 15  1  0  0  0
 15 16  2  0  0  0
 16 20  1  0  0  0
 20 21  1  0  0  0
 21 22  2  0  0  0
 22 23  1  0  0  0
 23 24  2  0  0  0
 24 25  1  0  0  0
 25 27  1  0  0  0
 27 28  1  0  0  0
 27 29  1  0  0  0
 27 30  1  0  0  0
 25 26  2  0  0  0
 16 17  1  0  0  0
 17 18  1  0  0  0
 17 19  2  0  0  0
  8  9  1  0  0  0
  9 10  2  0  0  0
 10  1  1  0  0  0
  9  4  1  0  0  0
 19 13  1  0  0  0
 26 21  1  0  0  0
 41 42  1  0  0  0
 35 36  1  0  0  0
 11 12  1  0  0  0
M  END
> <minimizedAffinity>
-7.36274

> <CNNscore>
0.2415415794

> <CNNaffinity>
6.7104454041

> <CNN_VS>
1.6208516359

> <CNNaffinity_variance>
0.0160233807

$$$$
[H]OC(C([H])([H])[H])(C([H])([H])[H])C([H])([H])C(=O)N([H])C([H])([H])C([H])([H])c1c([H])c([H])c2nc([H])nc(N([H])c3c([H])c([H])c(Oc4c([H])c([H])c([H])c(C(F)(F)F)c4[H])c(Cl)c3[H])c2c1[H]


 42 45  0  0  0  0  0  0  0  0999 V2000
   -1.9462   -4.5527    4.8572 C   0  0  0  0  0  0  0  0  0  0  0  0
   -1.0956   -5.0860    3.9306 C   0  0  0  0  0  0  0  0  0  0  0  0
   -0.8674   -6.4264    3.8840 C   0  0  0  0  0  0  0  0  0  0  0  0
   -1.4837   -7.2948    4.7746 C   0  0  0  0  0  0  0  0  0  0  0  0
   -1.1959   -8.6083    4.6752 N   0  0  0  0  0  0  0  0  0  0  0  0
   -1.7671   -9.4585    5.5401 C   0  0  0  0  0  0  0  0  0  0  0  0
   -2.5857   -8.9390    6.4468 N   0  0  0  0  0  0  0  0  0  0  0  0
   -2.9196   -7.6685    6.6095 C   0  0  0  0  0  0  0  0  0  0  0  0
   -2.3392   -6.7614    5.7144 C   0  0  0  0  0  0  0  0  0  0  0  0
   -2.5794   -5.4273    5.7693 C   0  0  0  0  0  0  0  0  0  0  0  0
   -3.7469   -7.2148    7.6526 N   0  0  0  0  0  0  0  0  0  0  0  0
   -3.3639   -6.8165    8.5480 H   0  0  0  0  0  0  0  0  0  0  0  0
   -5.1643   -7.2650    7.5874 C   0  0  0  0  0  0  0  0  0  0  0  0
   -5.9687   -6.2258    7.2368 C   0  0  0  0  0  0  0  0  0  0  0  0
   -7.3508   -6.3698    7.0841 C   0  0  0  0  0  0  0  0  0  0  0  0
   -7.9537   -7.6222    7.2973 C   0  0  0  0  0  0  0  0  0  0  0  0
   -7.1570   -8.6844    7.6576 C   0  0  0  0  0  0  0  0  0  0  0  0
   -7.8472  -10.2894    7.9672 Cl  0  0  0  0  0  0  0  0  0  0  0  0
   -5.8013   -8.4862    7.7917 C   0  0  0  0  0  0  0  0  0  0  0  0
   -9.2837   -7.6943    7.1263 O   0  0  0  0  0  0  0  0  0  0  0  0
  -10.3812   -7.7584    7.8985 C   0  0  0  0  0  0  0  0  0  0  0  0
  -11.1903   -8.9037    7.8146 C   0  0  0  0  0  0  0  0  0  0  0  0
  -12.3100   -8.9920    8.5922 C   0  0  0  0  0  0  0  0  0  0  0  0
  -12.6322   -7.9600    9.4462 C   0  0  0  0  0  0  0  0  0  0  0  0
  -11.8624   -6.8239    9.5507 C   0  0  0  0  0  0  0  0  0  0  0  0
  -10.7378   -6.7274    8.7766 C   0  0  0  0  0  0  0  0  0  0  0  0
  -12.2948   -5.7467   10.4804 C   0  0  0  0  0  0  0  0  0  0  0  0
  -11.6994   -5.9452   11.7413 F   0  0  0  0  0  0  0  0  0  0  0  0
  -11.7903   -4.5545   10.0036 F   0  0  0  0  0  0  0  0  0  0  0  0
  -13.6546   -5.6579   10.5743 F   0  0  0  0  0  0  0  0  0  0  0  0
   -2.1770   -3.1314    4.9722 C   0  0  0  0  0  0  0  0  0  0  0  0
   -2.7220   -2.4208    3.7498 C   0  0  0  0  0  0  0  0  0  0  0  0
   -3.9714   -0.0386    4.3234 C   0  0  0  0  0  0  0  0  0  0  0  0
   -4.9745    0.4405    3.7590 O   0  0  0  0  0  0  0  0  0  0  0  0
   -3.3460   -1.2286    4.0381 N   0  0  0  0  0  0  0  0  0  0  0  0
   -4.3446   -1.5344    3.1556 H   0  0  0  0  0  0  0  0  0  0  0  0
   -3.4191    0.8219    5.4361 C   0  0  0  0  0  0  0  0  0  0  0  0
   -3.8200    1.7932    7.6607 C   0  0  0  0  0  0  0  0  0  0  0  0
   -4.0059    0.6074    6.7664 C   0  0  0  0  0  0  0  0  0  0  0  0
   -3.5891   -0.6991    7.4215 C   0  0  0  0  0  0  0  0  0  0  0  0
   -5.4253    0.4963    6.5469 O   0  0  0  0  0  0  0  0  0  0  0  0
   -5.5205   -0.0288    5.7071 H   0  0  0  0  0  0  0  0  0  0  0  0
 38 39  1  0  0  0
 39 40  1  0  0  0
 39 41  1  0  0  0
 39 37  1  0  0  0
 37 33  1  0  0  0
 33 34  2  0  0  0
 33 35  1  0  0  0
 35 32  1  0  0  0
 32 31  1  0  0  0
 31  1  1  0  0  0
  1  2  2  0  0  0
  2  3  1  0  0  0
  3  4  2  0  0  0
  4  5  1  0  0  0
  5  6  2  0  0  0
  6  7  1  0  0  0
  7  8  2  0  0  0
  8 11  1  0  0  0
 11 13  1  0  0  0
 13 14  2  0  0  0
 14 15  1  0  0  0
 15 16  2  0  0  0
 16 20  1  0  0  0
 20 21  1  0  0  0
 21 22  2  0  0  0
 22 23  1  0  0  0
 23 24  2  0  0  0
 24 25  1  0  0  0
 25 27  1  0  0  0
 27 28  1  0  0  0
 27 29  1  0  0  0
 27 30  1  0  0  0
 25 26  2  0  0  0
 16 17  1  0  0  0
 17 18  1  0  0  0
 17 19  2  0  0  0
  8  9  1  0  0  0
  9 10  2  0  0  0
 10  1  1  0  0  0
  9  4  1  0  0  0
 19 13  1  0  0  0
 26 21  1  0  0  0
 41 42  1  0  0  0
 35 36  1  0  0  0
 11 12  1  0  0  0
M  END
> <minimizedAffinity>
-8.08463

> <CNNscore>
0.2366771251

> <CNNaffinity>
6.8303084373

> <CNN_VS>
1.6165777445

> <CNNaffinity_variance>
0.0753500834

$$$$
[H]OC(C([H])([H])[H])(C([H])([H])[H])C([H])([H])C(=O)N([H])C([H])([H])C([H])([H])c1c([H])c([H])c2nc([H])nc(N([H])c3c([H])c([H])c(Oc4c([H])c([H])c([H])c(C(F)(F)F)c4[H])c(Cl)c3[H])c2c1[H]


 42 45  0  0  0  0  0  0  0  0999 V2000
   -9.7429  -10.4353    6.5860 C   0  0  0  0  0  0  0  0  0  0  0  0
  -11.1015  -10.4190    6.4428 C   0  0  0  0  0  0  0  0  0  0  0  0
  -11.8461   -9.4112    6.9728 C   0  0  0  0  0  0  0  0  0  0  0  0
  -11.2555   -8.3716    7.6782 C   0  0  0  0  0  0  0  0  0  0  0  0
  -12.0611   -7.4172    8.1861 N   0  0  0  0  0  0  0  0  0  0  0  0
  -11.5092   -6.4165    8.8870 C   0  0  0  0  0  0  0  0  0  0  0  0
  -10.1902   -6.4378    9.0346 N   0  0  0  0  0  0  0  0  0  0  0  0
   -9.3332   -7.3330    8.5694 C   0  0  0  0  0  0  0  0  0  0  0  0
   -9.8857   -8.3857    7.8296 C   0  0  0  0  0  0  0  0  0  0  0  0
   -9.1305   -9.3820    7.3025 C   0  0  0  0  0  0  0  0  0  0  0  0
   -7.9543   -7.2978    8.8444 N   0  0  0  0  0  0  0  0  0  0  0  0
   -7.5598   -7.5156    9.7952 H   0  0  0  0  0  0  0  0  0  0  0  0
   -6.9833   -6.9574    7.8661 C   0  0  0  0  0  0  0  0  0  0  0  0
   -7.2455   -6.7211    6.5526 C   0  0  0  0  0  0  0  0  0  0  0  0
   -6.2617   -6.2815    5.6620 C   0  0  0  0  0  0  0  0  0  0  0  0
   -4.9475   -6.0714    6.1160 C   0  0  0  0  0  0  0  0  0  0  0  0
   -4.6616   -6.3100    7.4405 C   0  0  0  0  0  0  0  0  0  0  0  0
   -3.0220   -6.0908    8.0823 Cl  0  0  0  0  0  0  0  0  0  0  0  0
   -5.6697   -6.7399    8.2736 C   0  0  0  0  0  0  0  0  0  0  0  0
   -4.0527   -5.6413    5.2117 O   0  0  0  0  0  0  0  0  0  0  0  0
   -3.4365   -4.4900    4.8958 C   0  0  0  0  0  0  0  0  0  0  0  0
   -2.2543   -4.5515    4.1394 C   0  0  0  0  0  0  0  0  0  0  0  0
   -1.6118   -3.3935    3.8042 C   0  0  0  0  0  0  0  0  0  0  0  0
   -2.1284   -2.1828    4.2111 C   0  0  0  0  0  0  0  0  0  0  0  0
   -3.2827   -2.0879    4.9545 C   0  0  0  0  0  0  0  0  0  0  0  0
   -3.9341   -3.2429    5.2936 C   0  0  0  0  0  0  0  0  0  0  0  0
   -3.7588   -0.7425    5.3726 C   0  0  0  0  0  0  0  0  0  0  0  0
   -5.0283   -0.8569    5.9719 F   0  0  0  0  0  0  0  0  0  0  0  0
   -2.9103   -0.2862    6.3602 F   0  0  0  0  0  0  0  0  0  0  0  0
   -3.7694    0.1484    4.3374 F   0  0  0  0  0  0  0  0  0  0  0  0
   -8.9219  -11.5117    6.0821 C   0  0  0  0  0  0  0  0  0  0  0  0
   -9.5680  -12.8779    5.9726 C   0  0  0  0  0  0  0  0  0  0  0  0
   -8.3299  -14.5396    4.1641 C   0  0  0  0  0  0  0  0  0  0  0  0
   -7.3518  -15.2840    4.3727 O   0  0  0  0  0  0  0  0  0  0  0  0
   -8.9497  -13.7089    5.0666 N   0  0  0  0  0  0  0  0  0  0  0  0
   -8.1708  -14.2236    6.0655 H   0  0  0  0  0  0  0  0  0  0  0  0
   -8.8545  -14.5916    2.7480 C   0  0  0  0  0  0  0  0  0  0  0  0
   -7.8273  -12.4150    2.2380 C   0  0  0  0  0  0  0  0  0  0  0  0
   -8.1082  -13.8041    1.7565 C   0  0  0  0  0  0  0  0  0  0  0  0
   -8.7112  -13.8365    0.3619 C   0  0  0  0  0  0  0  0  0  0  0  0
   -6.8255  -14.4492    1.6401 O   0  0  0  0  0  0  0  0  0  0  0  0
   -7.0182  -15.4247    1.6771 H   0  0  0  0  0  0  0  0  0  0  0  0
 38 39  1  0  0  0
 39 40  1  0  0  0
 39 41  1  0  0  0
 39 37  1  0  0  0
 37 33  1  0  0  0
 33 34  2  0  0  0
 33 35  1  0  0  0
 35 32  1  0  0  0
 32 31  1  0  0  0
 31  1  1  0  0  0
  1  2  2  0  0  0
  2  3  1  0  0  0
  3  4  2  0  0  0
  4  5  1  0  0  0
  5  6  2  0  0  0
  6  7  1  0  0  0
  7  8  2  0  0  0
  8 11  1  0  0  0
 11 13  1  0  0  0
 13 14  2  0  0  0
 14 15  1  0  0  0
 15 16  2  0  0  0
 16 20  1  0  0  0
 20 21  1  0  0  0
 21 22  2  0  0  0
 22 23  1  0  0  0
 23 24  2  0  0  0
 24 25  1  0  0  0
 25 27  1  0  0  0
 27 28  1  0  0  0
 27 29  1  0  0  0
 27 30  1  0  0  0
 25 26  2  0  0  0
 16 17  1  0  0  0
 17 18  1  0  0  0
 17 19  2  0  0  0
  8  9  1  0  0  0
  9 10  2  0  0  0
 10  1  1  0  0  0
  9  4  1  0  0  0
 19 13  1  0  0  0
 26 21  1  0  0  0
 41 42  1  0  0  0
 35 36  1  0  0  0
 11 12  1  0  0  0
M  END
> <minimizedAffinity>
-1.00771

> <CNNscore>
0.2251724005

> <CNNaffinity>
6.9794869423

> <CNN_VS>
1.5715878010

> <CNNaffinity_variance>
0.2324951589

$$$$
[H]OC(C([H])([H])[H])(C([H])([H])[H])C([H])([H])C(=O)N([H])C([H])([H])C([H])([H])c1c([H])c([H])c2nc([H])nc(N([H])c3c([H])c([H])c(Oc4c([H])c([H])c([H])c(C(F)(F)F)c4[H])c(Cl)c3[H])c2c1[H]


 42 45  0  0  0  0  0  0  0  0999 V2000
  -18.2117   -7.4096    5.1593 C   0  0  0  0  0  0  0  0  0  0  0  0
  -18.4770   -6.7236    4.0080 C   0  0  0  0  0  0  0  0  0  0  0  0
  -17.5937   -5.8101    3.5217 C   0  0  0  0  0  0  0  0  0  0  0  0
  -16.3999   -5.5407    4.1771 C   0  0  0  0  0  0  0  0  0  0  0  0
  -15.5828   -4.6116    3.6413 N   0  0  0  0  0  0  0  0  0  0  0  0
  -14.4351   -4.3249    4.2720 C   0  0  0  0  0  0  0  0  0  0  0  0
  -14.1821   -4.9843    5.3959 N   0  0  0  0  0  0  0  0  0  0  0  0
  -14.9274   -5.9065    5.9843 C   0  0  0  0  0  0  0  0  0  0  0  0
  -16.1295   -6.2267    5.3415 C   0  0  0  0  0  0  0  0  0  0  0  0
  -16.9992   -7.1435    5.8353 C   0  0  0  0  0  0  0  0  0  0  0  0
  -14.5962   -6.4957    7.2177 N   0  0  0  0  0  0  0  0  0  0  0  0
  -15.2553   -6.5035    8.0378 H   0  0  0  0  0  0  0  0  0  0  0  0
  -13.3442   -7.1196    7.4606 C   0  0  0  0  0  0  0  0  0  0  0  0
  -12.8187   -8.1333    6.7215 C   0  0  0  0  0  0  0  0  0  0  0  0
  -11.5313   -8.6305    6.9444 C   0  0  0  0  0  0  0  0  0  0  0  0
  -10.7337   -8.0812    7.9640 C   0  0  0  0  0  0  0  0  0  0  0  0
  -11.2499   -7.0583    8.7257 C   0  0  0  0  0  0  0  0  0  0  0  0
  -10.3136   -6.3305   10.0456 Cl  0  0  0  0  0  0  0  0  0  0  0  0
  -12.5230   -6.6064    8.4611 C   0  0  0  0  0  0  0  0  0  0  0  0
   -9.5044   -8.5985    8.1204 O   0  0  0  0  0  0  0  0  0  0  0  0
   -8.2823   -8.4306    7.5882 C   0  0  0  0  0  0  0  0  0  0  0  0
   -7.9161   -9.2297    6.4924 C   0  0  0  0  0  0  0  0  0  0  0  0
   -6.6794   -9.0748    5.9332 C   0  0  0  0  0  0  0  0  0  0  0  0
   -5.8082   -8.1404    6.4491 C   0  0  0  0  0  0  0  0  0  0  0  0
   -6.1350   -7.3436    7.5226 C   0  0  0  0  0  0  0  0  0  0  0  0
   -7.3726   -7.4907    8.0883 C   0  0  0  0  0  0  0  0  0  0  0  0
   -5.1267   -6.3763    8.0319 C   0  0  0  0  0  0  0  0  0  0  0  0
   -4.0696   -7.0764    8.6451 F   0  0  0  0  0  0  0  0  0  0  0  0
   -4.5768   -5.7322    6.9428 F   0  0  0  0  0  0  0  0  0  0  0  0
   -5.6746   -5.4523    8.8754 F   0  0  0  0  0  0  0  0  0  0  0  0
  -19.1445   -8.3503    5.7352 C   0  0  0  0  0  0  0  0  0  0  0  0
  -18.8710   -9.8223    5.5017 C   0  0  0  0  0  0  0  0  0  0  0  0
  -21.0141  -11.4453    6.0834 C   0  0  0  0  0  0  0  0  0  0  0  0
  -22.0464  -11.6022    5.4022 O   0  0  0  0  0  0  0  0  0  0  0  0
  -19.9425  -10.6349    5.7941 N   0  0  0  0  0  0  0  0  0  0  0  0
  -20.4869  -10.3629    4.5698 H   0  0  0  0  0  0  0  0  0  0  0  0
  -20.9862  -12.2563    7.3581 C   0  0  0  0  0  0  0  0  0  0  0  0
  -21.8498  -11.8516    9.6260 C   0  0  0  0  0  0  0  0  0  0  0  0
  -20.8183  -11.4926    8.6025 C   0  0  0  0  0  0  0  0  0  0  0  0
  -20.6888   -9.9929    8.3936 C   0  0  0  0  0  0  0  0  0  0  0  0
  -19.5551  -11.9193    9.1477 O   0  0  0  0  0  0  0  0  0  0  0  0
  -18.9504  -12.0167    8.3635 H   0  0  0  0  0  0  0  0  0  0  0  0
 38 39  1  0  0  0
 39 40  1  0  0  0
 39 41  1  0  0  0
 39 37  1  0  0  0
 37 33  1  0  0  0
 33 34  2  0  0  0
 33 35  1  0  0  0
 35 32  1  0  0  0
 32 31  1  0  0  0
 31  1  1  0  0  0
  1  2  2  0  0  0
  2  3  1  0  0  0
  3  4  2  0  0  0
  4  5  1  0  0  0
  5  6  2  0  0  0
  6  7  1  0  0  0
  7  8  2  0  0  0
  8 11  1  0  0  0
 11 13  1  0  0  0
 13 14  2  0  0  0
 14 15  1  0  0  0
 15 16  2  0  0  0
 16 20  1  0  0  0
 20 21  1  0  0  0
 21 22  2  0  0  0
 22 23  1  0  0  0
 23 24  2  0  0  0
 24 25  1  0  0  0
 25 27  1  0  0  0
 27 28  1  0  0  0
 27 29  1  0  0  0
 27 30  1  0  0  0
 25 26  2  0  0  0
 16 17  1  0  0  0
 17 18  1  0  0  0
 17 19  2  0  0  0
  8  9  1  0  0  0
  9 10  2  0  0  0
 10  1  1  0  0  0
  9  4  1  0  0  0
 19 13  1  0  0  0
 26 21  1  0  0  0
 41 42  1  0  0  0
 35 36  1  0  0  0
 11 12  1  0  0  0
M  END
> <minimizedAffinity>
-1.24581

> <CNNscore>
0.2246990502

> <CNNaffinity>
7.3880319595

> <CNN_VS>
1.6600837708

> <CNNaffinity_variance>
0.3750498891

$$$$
[H]OC(C([H])([H])[H])(C([H])([H])[H])C([H])([H])C(=O)N([H])C([H])([H])C([H])([H])c1c([H])c([H])c2nc([H])nc(N([H])c3c([H])c([H])c(Oc4c([H])c([H])c([H])c(C(F)(F)F)c4[H])c(Cl)c3[H])c2c1[H]


 42 45  0  0  0  0  0  0  0  0999 V2000
   -3.0866   -4.2591    4.8540 C   0  0  0  0  0  0  0  0  0  0  0  0
   -1.8942   -4.8125    4.4819 C   0  0  0  0  0  0  0  0  0  0  0  0
   -1.5546   -6.0686    4.8792 C   0  0  0  0  0  0  0  0  0  0  0  0
   -2.4011   -6.8269    5.6764 C   0  0  0  0  0  0  0  0  0  0  0  0
   -1.9883   -8.0575    6.0415 N   0  0  0  0  0  0  0  0  0  0  0  0
   -2.7848   -8.7955    6.8276 C   0  0  0  0  0  0  0  0  0  0  0  0
   -3.9389   -8.2539    7.1973 N   0  0  0  0  0  0  0  0  0  0  0  0
   -4.4155   -7.0596    6.8832 C   0  0  0  0  0  0  0  0  0  0  0  0
   -3.6032   -6.2716    6.0585 C   0  0  0  0  0  0  0  0  0  0  0  0
   -3.9566   -5.0219    5.6659 C   0  0  0  0  0  0  0  0  0  0  0  0
   -5.6267   -6.5540    7.3888 N   0  0  0  0  0  0  0  0  0  0  0  0
   -5.7020   -5.6055    7.8380 H   0  0  0  0  0  0  0  0  0  0  0  0
   -6.8437   -7.2839    7.3431 C   0  0  0  0  0  0  0  0  0  0  0  0
   -6.9726   -8.5631    6.8991 C   0  0  0  0  0  0  0  0  0  0  0  0
   -8.1788   -9.2646    6.9829 C   0  0  0  0  0  0  0  0  0  0  0  0
   -9.3128   -8.6467    7.5394 C   0  0  0  0  0  0  0  0  0  0  0  0
   -9.2033   -7.3511    7.9894 C   0  0  0  0  0  0  0  0  0  0  0  0
  -10.5956   -6.4964    8.6817 Cl  0  0  0  0  0  0  0  0  0  0  0  0
   -7.9904   -6.7086    7.8841 C   0  0  0  0  0  0  0  0  0  0  0  0
  -10.4375   -9.3782    7.5977 O   0  0  0  0  0  0  0  0  0  0  0  0
  -11.7630   -9.1601    7.6139 C   0  0  0  0  0  0  0  0  0  0  0  0
  -12.4319   -9.2063    8.8484 C   0  0  0  0  0  0  0  0  0  0  0  0
  -13.7793   -8.9852    8.8896 C   0  0  0  0  0  0  0  0  0  0  0  0
  -14.4646   -8.7211    7.7239 C   0  0  0  0  0  0  0  0  0  0  0  0
  -13.8400   -8.6709    6.4985 C   0  0  0  0  0  0  0  0  0  0  0  0
  -12.4899   -8.8896    6.4478 C   0  0  0  0  0  0  0  0  0  0  0  0
  -14.6583   -8.4029    5.2861 C   0  0  0  0  0  0  0  0  0  0  0  0
  -16.0255   -8.5105    5.6069 F   0  0  0  0  0  0  0  0  0  0  0  0
  -14.4536   -7.0871    4.9251 F   0  0  0  0  0  0  0  0  0  0  0  0
  -14.3207   -9.2166    4.2424 F   0  0  0  0  0  0  0  0  0  0  0  0
   -3.4627   -2.9114    4.4953 C   0  0  0  0  0  0  0  0  0  0  0  0
   -3.7059   -2.6319    3.0260 C   0  0  0  0  0  0  0  0  0  0  0  0
   -4.2098    0.0153    2.4754 C   0  0  0  0  0  0  0  0  0  0  0  0
   -5.1914    0.4840    1.8662 O   0  0  0  0  0  0  0  0  0  0  0  0
   -3.9566   -1.3070    2.7513 N   0  0  0  0  0  0  0  0  0  0  0  0
   -5.1883   -1.6388    2.2591 H   0  0  0  0  0  0  0  0  0  0  0  0
   -3.2173    1.0557    2.9402 C   0  0  0  0  0  0  0  0  0  0  0  0
   -1.8836    0.4973    4.9307 C   0  0  0  0  0  0  0  0  0  0  0  0
   -3.0845    1.2126    4.3955 C   0  0  0  0  0  0  0  0  0  0  0  0
   -4.3543    0.8978    5.1687 C   0  0  0  0  0  0  0  0  0  0  0  0
   -2.8371    2.6155    4.6096 O   0  0  0  0  0  0  0  0  0  0  0  0
   -3.4251    3.0876    3.9605 H   0  0  0  0  0  0  0  0  0  0  0  0
 38 39  1  0  0  0
 39 40  1  0  0  0
 39 41  1  0  0  0
 39 37  1  0  0  0
 37 33  1  0  0  0
 33 34  2  0  0  0
 33 35  1  0  0  0
 35 32  1  0  0  0
 32 31  1  0  0  0
 31  1  1  0  0  0
  1  2  2  0  0  0
  2  3  1  0  0  0
  3  4  2  0  0  0
  4  5  1  0  0  0
  5  6  2  0  0  0
  6  7  1  0  0  0
  7  8  2  0  0  0
  8 11  1  0  0  0
 11 13  1  0  0  0
 13 14  2  0  0  0
 14 15  1  0  0  0
 15 16  2  0  0  0
 16 20  1  0  0  0
 20 21  1  0  0  0
 21 22  2  0  0  0
 22 23  1  0  0  0
 23 24  2  0  0  0
 24 25  1  0  0  0
 25 27  1  0  0  0
 27 28  1  0  0  0
 27 29  1  0  0  0
 27 30  1  0  0  0
 25 26  2  0  0  0
 16 17  1  0  0  0
 17 18  1  0  0  0
 17 19  2  0  0  0
  8  9  1  0  0  0
  9 10  2  0  0  0
 10  1  1  0  0  0
  9  4  1  0  0  0
 19 13  1  0  0  0
 26 21  1  0  0  0
 41 42  1  0  0  0
 35 36  1  0  0  0
 11 12  1  0  0  0
M  END
> <minimizedAffinity>
-7.83260

> <CNNscore>
0.2188763171

> <CNNaffinity>
6.8548483849

> <CNN_VS>
1.5003639460

> <CNNaffinity_variance>
0.0213191546

$$$$
[H]OC(=O)c1c([H])c([H])c(C([H])([H])N([H])C(=O)c2c([H])c([H])c(C(C([H])([H])[H])(C([H])([H])[H])C([H])([H])[H])c([H])c2[H])c([H])c1F


 26 27  0  0  0  0  0  0  0  0999 V2000
   -8.3918   -8.9034    7.2755 C   0  0  0  0  0  0  0  0  0  0  0  0
   -7.9836  -10.0651    7.5710 O   0  0  0  0  0  0  0  0  0  0  0  0
   -7.7326   -8.1854    6.2704 N   0  0  0  0  0  0  0  0  0  0  0  0
   -8.1086   -7.2155    6.0363 H   0  0  0  0  0  0  0  0  0  0  0  0
  -11.7701   -7.1922    9.2453 C   0  0  0  0  0  0  0  0  0  0  0  0
  -10.6452   -6.4425    8.9580 C   0  0  0  0  0  0  0  0  0  0  0  0
   -9.5451   -6.9868    8.3301 C   0  0  0  0  0  0  0  0  0  0  0  0
   -9.5307   -8.3156    7.9647 C   0  0  0  0  0  0  0  0  0  0  0  0
  -10.6235   -9.0920    8.2323 C   0  0  0  0  0  0  0  0  0  0  0  0
  -11.7221   -8.5106    8.8684 C   0  0  0  0  0  0  0  0  0  0  0  0
  -13.8859   -7.7560   10.2977 C   0  0  0  0  0  0  0  0  0  0  0  0
  -12.9690   -6.6080    9.9257 C   0  0  0  0  0  0  0  0  0  0  0  0
  -13.7221   -5.7302    8.9538 C   0  0  0  0  0  0  0  0  0  0  0  0
  -12.5800   -5.7893   11.1398 C   0  0  0  0  0  0  0  0  0  0  0  0
   -6.6080   -8.6104    5.4914 C   0  0  0  0  0  0  0  0  0  0  0  0
   -6.9963   -9.4285    4.3173 C   0  0  0  0  0  0  0  0  0  0  0  0
   -6.4417   -9.0827    3.0678 C   0  0  0  0  0  0  0  0  0  0  0  0
   -6.7296   -9.8110    1.9431 C   0  0  0  0  0  0  0  0  0  0  0  0
   -7.5733  -10.9200    1.9592 C   0  0  0  0  0  0  0  0  0  0  0  0
   -8.1220  -11.2646    3.1776 C   0  0  0  0  0  0  0  0  0  0  0  0
   -8.9464  -12.3404    3.2504 F   0  0  0  0  0  0  0  0  0  0  0  0
   -7.8237  -10.5163    4.3225 C   0  0  0  0  0  0  0  0  0  0  0  0
   -7.8246  -11.6576    0.7367 C   0  0  0  0  0  0  0  0  0  0  0  0
   -9.0230  -11.7729    0.3563 O   0  0  0  0  0  0  0  0  0  0  0  0
   -6.8027  -12.2100    0.0148 O   0  0  0  0  0  0  0  0  0  0  0  0
   -6.2657  -11.7282   -0.7145 H   0  0  0  0  0  0  0  0  0  0  0  0
 11 12  1  0  0  0
 12 13  1  0  0  0
 12 14  1  0  0  0
 12  5  1  0  0  0
  5  6  2  0  0  0
  6  7  1  0  0  0
  7  8  2  0  0  0
  8  1  1  0  0  0
  1  2  2  0  0  0
  1  3  1  0  0  0
  3 15  1  0  0  0
 15 16  1  0  0  0
 16 17  2  0  0  0
 17 18  1  0  0  0
 18 19  2  0  0  0
 19 23  1  0  0  0
 23 24  2  0  0  0
 23 25  1  0  0  0
 19 20  1  0  0  0
 20 21  1  0  0  0
 20 22  2  0  0  0
  8  9  1  0  0  0
  9 10  2  0  0  0
 10  5  1  0  0  0
 22 16  1  0  0  0
  3  4  1  0  0  0
 25 26  1  0  0  0
M  END
> <minimizedAffinity>
3.93859

> <CNNscore>
0.5451880097

> <CNNaffinity>
5.2456212044

> <CNN_VS>
2.8598496914

> <CNNaffinity_variance>
0.4914847314

$$$$
[H]OC(=O)c1c([H])c([H])c(C([H])([H])N([H])C(=O)c2c([H])c([H])c(C(C([H])([H])[H])(C([H])([H])[H])C([H])([H])[H])c([H])c2[H])c([H])c1F


 26 27  0  0  0  0  0  0  0  0999 V2000
   -9.3587   -9.0803    7.0274 C   0  0  0  0  0  0  0  0  0  0  0  0
   -9.4122  -10.3410    7.1327 O   0  0  0  0  0  0  0  0  0  0  0  0
  -10.5328   -8.3702    6.7488 N   0  0  0  0  0  0  0  0  0  0  0  0
  -10.4568   -7.3089    6.6791 H   0  0  0  0  0  0  0  0  0  0  0  0
   -5.6716   -7.0019    7.5802 C   0  0  0  0  0  0  0  0  0  0  0  0
   -6.7309   -6.4263    6.9046 C   0  0  0  0  0  0  0  0  0  0  0  0
   -7.9231   -7.0914    6.7127 C   0  0  0  0  0  0  0  0  0  0  0  0
   -8.0992   -8.3709    7.1938 C   0  0  0  0  0  0  0  0  0  0  0  0
   -7.0748   -8.9765    7.8666 C   0  0  0  0  0  0  0  0  0  0  0  0
   -5.8804   -8.2757    8.0453 C   0  0  0  0  0  0  0  0  0  0  0  0
   -4.4489   -5.6018    9.1444 C   0  0  0  0  0  0  0  0  0  0  0  0
   -4.3743   -6.2855    7.7938 C   0  0  0  0  0  0  0  0  0  0  0  0
   -4.2191   -5.2028    6.7518 C   0  0  0  0  0  0  0  0  0  0  0  0
   -3.1929   -7.2305    7.7119 C   0  0  0  0  0  0  0  0  0  0  0  0
  -11.8495   -8.9031    6.5626 C   0  0  0  0  0  0  0  0  0  0  0  0
  -12.6902   -8.7999    7.7796 C   0  0  0  0  0  0  0  0  0  0  0  0
  -12.0810   -9.0791    9.0202 C   0  0  0  0  0  0  0  0  0  0  0  0
  -12.7859   -8.9750   10.1909 C   0  0  0  0  0  0  0  0  0  0  0  0
  -14.1257   -8.5939   10.2322 C   0  0  0  0  0  0  0  0  0  0  0  0
  -14.7306   -8.3204    9.0223 C   0  0  0  0  0  0  0  0  0  0  0  0
  -16.0331   -7.9390    9.0062 F   0  0  0  0  0  0  0  0  0  0  0  0
  -14.0046   -8.4288    7.8303 C   0  0  0  0  0  0  0  0  0  0  0  0
  -14.8103   -8.4873   11.5056 C   0  0  0  0  0  0  0  0  0  0  0  0
  -14.1197   -8.6083   12.5556 O   0  0  0  0  0  0  0  0  0  0  0  0
  -16.1576   -8.2615   11.5737 O   0  0  0  0  0  0  0  0  0  0  0  0
  -16.6034   -7.3376   11.5718 H   0  0  0  0  0  0  0  0  0  0  0  0
 11 12  1  0  0  0
 12 13  1  0  0  0
 12 14  1  0  0  0
 12  5  1  0  0  0
  5  6  2  0  0  0
  6  7  1  0  0  0
  7  8  2  0  0  0
  8  1  1  0  0  0
  1  2  2  0  0  0
  1  3  1  0  0  0
  3 15  1  0  0  0
 15 16  1  0  0  0
 16 17  2  0  0  0
 17 18  1  0  0  0
 18 19  2  0  0  0
 19 23  1  0  0  0
 23 24  2  0  0  0
 23 25  1  0  0  0
 19 20  1  0  0  0
 20 21  1  0  0  0
 20 22  2  0  0  0
  8  9  1  0  0  0
  9 10  2  0  0  0
 10  5  1  0  0  0
 22 16  1  0  0  0
  3  4  1  0  0  0
 25 26  1  0  0  0
M  END
> <minimizedAffinity>
-0.01954

> <CNNscore>
0.4479830861

> <CNNaffinity>
5.7472906113

> <CNN_VS>
2.5746889114

> <CNNaffinity_variance>
1.4510381222

$$$$
[H]OC(=O)c1c([H])c([H])c(C([H])([H])N([H])C(=O)c2c([H])c([H])c(C(C([H])([H])[H])(C([H])([H])[H])C([H])([H])[H])c([H])c2[H])c([H])c1F


 26 27  0  0  0  0  0  0  0  0999 V2000
  -15.1817   -6.6971    7.0308 C   0  0  0  0  0  0  0  0  0  0  0  0
  -15.4833   -5.8449    6.1441 O   0  0  0  0  0  0  0  0  0  0  0  0
  -16.0569   -7.7618    7.2772 N   0  0  0  0  0  0  0  0  0  0  0  0
  -15.7682   -8.4693    8.0209 H   0  0  0  0  0  0  0  0  0  0  0  0
  -11.5444   -6.4191    9.2475 C   0  0  0  0  0  0  0  0  0  0  0  0
  -12.7452   -5.9797    9.7719 C   0  0  0  0  0  0  0  0  0  0  0  0
  -13.9244   -6.0566    9.0618 C   0  0  0  0  0  0  0  0  0  0  0  0
  -13.9440   -6.5802    7.7870 C   0  0  0  0  0  0  0  0  0  0  0  0
  -12.7768   -7.0248    7.2314 C   0  0  0  0  0  0  0  0  0  0  0  0
  -11.5997   -6.9341    7.9770 C   0  0  0  0  0  0  0  0  0  0  0  0
   -9.3423   -5.3933    9.2660 C   0  0  0  0  0  0  0  0  0  0  0  0
  -10.2601   -6.3402   10.0130 C   0  0  0  0  0  0  0  0  0  0  0  0
   -9.5942   -7.6961   10.0211 C   0  0  0  0  0  0  0  0  0  0  0  0
  -10.4866   -5.8865   11.4408 C   0  0  0  0  0  0  0  0  0  0  0  0
  -17.3045   -8.0320    6.6269 C   0  0  0  0  0  0  0  0  0  0  0  0
  -17.4937   -7.2364    5.3901 C   0  0  0  0  0  0  0  0  0  0  0  0
  -17.1477   -7.8418    4.1645 C   0  0  0  0  0  0  0  0  0  0  0  0
  -17.3234   -7.1802    2.9771 C   0  0  0  0  0  0  0  0  0  0  0  0
  -17.8455   -5.8903    2.9036 C   0  0  0  0  0  0  0  0  0  0  0  0
  -18.1853   -5.2894    4.0986 C   0  0  0  0  0  0  0  0  0  0  0  0
  -18.7038   -4.0351    4.0833 F   0  0  0  0  0  0  0  0  0  0  0  0
  -18.0031   -5.9708    5.3077 C   0  0  0  0  0  0  0  0  0  0  0  0
  -18.0212   -5.2516    1.6141 C   0  0  0  0  0  0  0  0  0  0  0  0
  -18.1073   -3.9923    1.5894 O   0  0  0  0  0  0  0  0  0  0  0  0
  -18.0899   -5.9827    0.4601 O   0  0  0  0  0  0  0  0  0  0  0  0
  -17.2845   -6.2736   -0.1047 H   0  0  0  0  0  0  0  0  0  0  0  0
 11 12  1  0  0  0
 12 13  1  0  0  0
 12 14  1  0  0  0
 12  5  1  0  0  0
  5  6  2  0  0  0
  6  7  1  0  0  0
  7  8  2  0  0  0
  8  1  1  0  0  0
  1  2  2  0  0  0
  1  3  1  0  0  0
  3 15  1  0  0  0
 15 16  1  0  0  0
 16 17  2  0  0  0
 17 18  1  0  0  0
 18 19  2  0  0  0
 19 23  1  0  0  0
 23 24  2  0  0  0
 23 25  1  0  0  0
 19 20  1  0  0  0
 20 21  1  0  0  0
 20 22  2  0  0  0
  8  9  1  0  0  0
  9 10  2  0  0  0
 10  5  1  0  0  0
 22 16  1  0  0  0
  3  4  1  0  0  0
 25 26  1  0  0  0
M  END
> <minimizedAffinity>
12.11860

> <CNNscore>
0.4014917314

> <CNNaffinity>
5.9723010063

> <CNN_VS>
2.3978295326

> <CNNaffinity_variance>
1.3894848824

$$$$
[H]OC(=O)c1c([H])c([H])c(C([H])([H])N([H])C(=O)c2c([H])c([H])c(C(C([H])([H])[H])(C([H])([H])[H])C([H])([H])[H])c([H])c2[H])c([H])c1F


 26 27  0  0  0  0  0  0  0  0999 V2000
  -11.6703   -8.2904    8.2265 C   0  0  0  0  0  0  0  0  0  0  0  0
  -12.1613   -7.8199    9.2946 O   0  0  0  0  0  0  0  0  0  0  0  0
  -12.4936   -9.0256    7.3649 N   0  0  0  0  0  0  0  0  0  0  0  0
  -12.0534   -9.3973    6.4677 H   0  0  0  0  0  0  0  0  0  0  0  0
   -7.5847   -7.6181    7.1889 C   0  0  0  0  0  0  0  0  0  0  0  0
   -8.1262   -8.8895    7.2041 C   0  0  0  0  0  0  0  0  0  0  0  0
   -9.4419   -9.1193    7.5460 C   0  0  0  0  0  0  0  0  0  0  0  0
  -10.2712   -8.0737    7.8901 C   0  0  0  0  0  0  0  0  0  0  0  0
   -9.7737   -6.8004    7.8888 C   0  0  0  0  0  0  0  0  0  0  0  0
   -8.4373   -6.6009    7.5367 C   0  0  0  0  0  0  0  0  0  0  0  0
   -6.1596   -6.4656    5.5943 C   0  0  0  0  0  0  0  0  0  0  0  0
   -6.1573   -7.3605    6.8175 C   0  0  0  0  0  0  0  0  0  0  0  0
   -5.4976   -8.6601    6.4203 C   0  0  0  0  0  0  0  0  0  0  0  0
   -5.3847   -6.7378    7.9624 C   0  0  0  0  0  0  0  0  0  0  0  0
  -13.8836   -9.3272    7.5354 C   0  0  0  0  0  0  0  0  0  0  0  0
  -14.7433   -8.6780    6.5166 C   0  0  0  0  0  0  0  0  0  0  0  0
  -15.8797   -7.9776    6.9710 C   0  0  0  0  0  0  0  0  0  0  0  0
  -16.7046   -7.3263    6.0914 C   0  0  0  0  0  0  0  0  0  0  0  0
  -16.4795   -7.3133    4.7162 C   0  0  0  0  0  0  0  0  0  0  0  0
  -15.3704   -7.9978    4.2624 C   0  0  0  0  0  0  0  0  0  0  0  0
  -15.1015   -8.0121    2.9321 F   0  0  0  0  0  0  0  0  0  0  0  0
  -14.5322   -8.6609    5.1664 C   0  0  0  0  0  0  0  0  0  0  0  0
  -17.3818   -6.5916    3.8406 C   0  0  0  0  0  0  0  0  0  0  0  0
  -18.4171   -7.1927    3.4398 O   0  0  0  0  0  0  0  0  0  0  0  0
  -17.1267   -5.3028    3.4601 O   0  0  0  0  0  0  0  0  0  0  0  0
  -17.4076   -4.4654    3.9817 H   0  0  0  0  0  0  0  0  0  0  0  0
 11 12  1  0  0  0
 12 13  1  0  0  0
 12 14  1  0  0  0
 12  5  1  0  0  0
  5  6  2  0  0  0
  6  7  1  0  0  0
  7  8  2  0  0  0
  8  1  1  0  0  0
  1  2  2  0  0  0
  1  3  1  0  0  0
  3 15  1  0  0  0
 15 16  1  0  0  0
 16 17  2  0  0  0
 17 18  1  0  0  0
 18 19  2  0  0  0
 19 23  1  0  0  0
 23 24  2  0  0  0
 23 25  1  0  0  0
 19 20  1  0  0  0
 20 21  1  0  0  0
 20 22  2  0  0  0
  8  9  1  0  0  0
  9 10  2  0  0  0
 10  5  1  0  0  0
 22 16  1  0  0  0
  3  4  1  0  0  0
 25 26  1  0  0  0
M  END
> <minimizedAffinity>
-9.10712

> <CNNscore>
0.3409046829

> <CNNaffinity>
5.9724593163

> <CNN_VS>
2.0360393524

> <CNNaffinity_variance>
0.1066905111

$$$$
[H]OC(=O)c1c([H])c([H])c(C([H])([H])N([H])C(=O)c2c([H])c([H])c(C(C([H])([H])[H])(C([H])([H])[H])C([H])([H])[H])c([H])c2[H])c([H])c1F


 26 27  0  0  0  0  0  0  0  0999 V2000
  -12.6400   -9.0942    6.9600 C   0  0  0  0  0  0  0  0  0  0  0  0
  -12.9221  -10.2268    7.4509 O   0  0  0  0  0  0  0  0  0  0  0  0
  -11.3298   -8.6127    7.0683 N   0  0  0  0  0  0  0  0  0  0  0  0
  -11.1214   -7.6616    6.6335 H   0  0  0  0  0  0  0  0  0  0  0  0
  -15.6582   -6.7591    5.0474 C   0  0  0  0  0  0  0  0  0  0  0  0
  -15.3124   -8.0136    4.5819 C   0  0  0  0  0  0  0  0  0  0  0  0
  -14.3332   -8.7729    5.1865 C   0  0  0  0  0  0  0  0  0  0  0  0
  -13.6568   -8.2980    6.2894 C   0  0  0  0  0  0  0  0  0  0  0  0
  -13.9682   -7.0607    6.7802 C   0  0  0  0  0  0  0  0  0  0  0  0
  -14.9654   -6.3171    6.1460 C   0  0  0  0  0  0  0  0  0  0  0  0
  -17.8295   -5.7321    5.4121 C   0  0  0  0  0  0  0  0  0  0  0  0
  -16.7213   -5.9293    4.3971 C   0  0  0  0  0  0  0  0  0  0  0  0
  -17.3111   -6.6887    3.2320 C   0  0  0  0  0  0  0  0  0  0  0  0
  -16.1745   -4.6049    3.9044 C   0  0  0  0  0  0  0  0  0  0  0  0
  -10.2115   -9.2620    7.6849 C   0  0  0  0  0  0  0  0  0  0  0  0
   -8.9371   -8.5321    7.4811 C   0  0  0  0  0  0  0  0  0  0  0  0
   -8.9930   -7.1244    7.4194 C   0  0  0  0  0  0  0  0  0  0  0  0
   -7.8530   -6.3799    7.2637 C   0  0  0  0  0  0  0  0  0  0  0  0
   -6.5873   -6.9534    7.1580 C   0  0  0  0  0  0  0  0  0  0  0  0
   -6.5233   -8.3307    7.2156 C   0  0  0  0  0  0  0  0  0  0  0  0
   -5.3142   -8.9403    7.1234 F   0  0  0  0  0  0  0  0  0  0  0  0
   -7.6918   -9.0851    7.3747 C   0  0  0  0  0  0  0  0  0  0  0  0
   -5.4184   -6.1085    7.0108 C   0  0  0  0  0  0  0  0  0  0  0  0
   -4.6289   -6.0221    7.9922 O   0  0  0  0  0  0  0  0  0  0  0  0
   -5.1729   -5.4276    5.8502 O   0  0  0  0  0  0  0  0  0  0  0  0
   -4.6620   -5.8003    5.0424 H   0  0  0  0  0  0  0  0  0  0  0  0
 11 12  1  0  0  0
 12 13  1  0  0  0
 12 14  1  0  0  0
 12  5  1  0  0  0
  5  6  2  0  0  0
  6  7  1  0  0  0
  7  8  2  0  0  0
  8  1  1  0  0  0
  1  2  2  0  0  0
  1  3  1  0  0  0
  3 15  1  0  0  0
 15 16  1  0  0  0
 16 17  2  0  0  0
 17 18  1  0  0  0
 18 19  2  0  0  0
 19 23  1  0  0  0
 23 24  2  0  0  0
 23 25  1  0  0  0
 19 20  1  0  0  0
 20 21  1  0  0  0
 20 22  2  0  0  0
  8  9  1  0  0  0
  9 10  2  0  0  0
 10  5  1  0  0  0
 22 16  1  0  0  0
  3  4  1  0  0  0
 25 26  1  0  0  0
M  END
> <minimizedAffinity>
-8.88471

> <CNNscore>
0.2577759922

> <CNNaffinity>
5.6992249489

> <CNN_VS>
1.4691233635

> <CNNaffinity_variance>
0.1048039347

$$$$
[H]OC(=O)c1c([H])c([H])c(C([H])([H])N([H])C(=O)c2c([H])c([H])c(C(C([H])([H])[H])(C([H])([H])[H])C([H])([H])[H])c([H])c2[H])c([H])c1F


 26 27  0  0  0  0  0  0  0  0999 V2000
   -8.1928   -8.7955    7.4638 C   0  0  0  0  0  0  0  0  0  0  0  0
   -7.7130   -9.8732    7.9240 O   0  0  0  0  0  0  0  0  0  0  0  0
   -7.4431   -8.0560    6.5411 N   0  0  0  0  0  0  0  0  0  0  0  0
   -7.8802   -7.1601    6.1628 H   0  0  0  0  0  0  0  0  0  0  0  0
  -12.0211   -7.4136    8.7502 C   0  0  0  0  0  0  0  0  0  0  0  0
  -11.8639   -8.6464    8.1457 C   0  0  0  0  0  0  0  0  0  0  0  0
  -10.6338   -9.0992    7.7185 C   0  0  0  0  0  0  0  0  0  0  0  0
   -9.5051   -8.3253    7.8813 C   0  0  0  0  0  0  0  0  0  0  0  0
   -9.6182   -7.0985    8.4737 C   0  0  0  0  0  0  0  0  0  0  0  0
  -10.8779   -6.6693    8.8963 C   0  0  0  0  0  0  0  0  0  0  0  0
  -14.1873   -6.6215    7.9870 C   0  0  0  0  0  0  0  0  0  0  0  0
  -13.3534   -6.9157    9.2179 C   0  0  0  0  0  0  0  0  0  0  0  0
  -13.1723   -5.6114    9.9583 C   0  0  0  0  0  0  0  0  0  0  0  0
  -14.0367   -7.9159   10.1281 C   0  0  0  0  0  0  0  0  0  0  0  0
   -6.1468   -8.3722    6.0195 C   0  0  0  0  0  0  0  0  0  0  0  0
   -5.0475   -7.7313    6.7804 C   0  0  0  0  0  0  0  0  0  0  0  0
   -5.3344   -6.5252    7.4523 C   0  0  0  0  0  0  0  0  0  0  0  0
   -4.3779   -5.8905    8.2010 C   0  0  0  0  0  0  0  0  0  0  0  0
   -3.0832   -6.3853    8.3452 C   0  0  0  0  0  0  0  0  0  0  0  0
   -2.7929   -7.5645    7.6896 C   0  0  0  0  0  0  0  0  0  0  0  0
   -1.5479   -8.0933    7.8014 F   0  0  0  0  0  0  0  0  0  0  0  0
   -3.7747   -8.2074    6.9265 C   0  0  0  0  0  0  0  0  0  0  0  0
   -2.1222   -5.6738    9.1649 C   0  0  0  0  0  0  0  0  0  0  0  0
   -2.2859   -5.6981   10.4165 O   0  0  0  0  0  0  0  0  0  0  0  0
   -1.0709   -4.9994    8.6074 O   0  0  0  0  0  0  0  0  0  0  0  0
   -0.1579   -5.4091    8.3821 H   0  0  0  0  0  0  0  0  0  0  0  0
 11 12  1  0  0  0
 12 13  1  0  0  0
 12 14  1  0  0  0
 12  5  1  0  0  0
  5  6  2  0  0  0
  6  7  1  0  0  0
  7  8  2  0  0  0
  8  1  1  0  0  0
  1  2  2  0  0  0
  1  3  1  0  0  0
  3 15  1  0  0  0
 15 16  1  0  0  0
 16 17  2  0  0  0
 17 18  1  0  0  0
 18 19  2  0  0  0
 19 23  1  0  0  0
 23 24  2  0  0  0
 23 25  1  0  0  0
 19 20  1  0  0  0
 20 21  1  0  0  0
 20 22  2  0  0  0
  8  9  1  0  0  0
  9 10  2  0  0  0
 10  5  1  0  0  0
 22 16  1  0  0  0
  3  4  1  0  0  0
 25 26  1  0  0  0
M  END
> <minimizedAffinity>
-8.17440

> <CNNscore>
0.2414221764

> <CNNaffinity>
5.1444697380

> <CNN_VS>
1.2419891357

> <CNNaffinity_variance>
0.2237360477

$$$$
[H]OC(=O)c1c([H])c([H])c(C([H])([H])N([H])C(=O)c2c([H])c([H])c(C(C([H])([H])[H])(C([H])([H])[H])C([H])([H])[H])c([H])c2[H])c([H])c1F


 26 27  0  0  0  0  0  0  0  0999 V2000
  -13.4964   -8.4612    7.5783 C   0  0  0  0  0  0  0  0  0  0  0  0
  -13.5647   -8.4846    8.8425 O   0  0  0  0  0  0  0  0  0  0  0  0
  -12.4139   -9.0822    6.9436 N   0  0  0  0  0  0  0  0  0  0  0  0
  -12.3920   -9.0560    5.8779 H   0  0  0  0  0  0  0  0  0  0  0  0
  -16.4903   -6.4687    5.2789 C   0  0  0  0  0  0  0  0  0  0  0  0
  -16.8230   -7.3144    6.3201 C   0  0  0  0  0  0  0  0  0  0  0  0
  -15.8648   -7.9698    7.0638 C   0  0  0  0  0  0  0  0  0  0  0  0
  -14.5250   -7.8017    6.7880 C   0  0  0  0  0  0  0  0  0  0  0  0
  -14.1540   -6.9744    5.7649 C   0  0  0  0  0  0  0  0  0  0  0  0
  -15.1485   -6.3244    5.0314 C   0  0  0  0  0  0  0  0  0  0  0  0
  -18.4653   -6.7986    3.9032 C   0  0  0  0  0  0  0  0  0  0  0  0
  -17.5250   -5.7525    4.4677 C   0  0  0  0  0  0  0  0  0  0  0  0
  -16.8616   -5.0676    3.2961 C   0  0  0  0  0  0  0  0  0  0  0  0
  -18.2685   -4.7220    5.2930 C   0  0  0  0  0  0  0  0  0  0  0  0
  -11.3242   -9.7774    7.5613 C   0  0  0  0  0  0  0  0  0  0  0  0
  -10.0674   -8.9908    7.5658 C   0  0  0  0  0  0  0  0  0  0  0  0
   -8.8509   -9.7031    7.6012 C   0  0  0  0  0  0  0  0  0  0  0  0
   -7.6484   -9.0460    7.5768 C   0  0  0  0  0  0  0  0  0  0  0  0
   -7.5499   -7.6573    7.5165 C   0  0  0  0  0  0  0  0  0  0  0  0
   -8.7356   -6.9519    7.4833 C   0  0  0  0  0  0  0  0  0  0  0  0
   -8.6965   -5.5968    7.4185 F   0  0  0  0  0  0  0  0  0  0  0  0
   -9.9603   -7.6295    7.5087 C   0  0  0  0  0  0  0  0  0  0  0  0
   -6.2465   -7.0239    7.4772 C   0  0  0  0  0  0  0  0  0  0  0  0
   -5.5471   -7.1835    6.4383 O   0  0  0  0  0  0  0  0  0  0  0  0
   -5.7856   -6.2760    8.5256 O   0  0  0  0  0  0  0  0  0  0  0  0
   -5.9607   -5.2741    8.6596 H   0  0  0  0  0  0  0  0  0  0  0  0
 11 12  1  0  0  0
 12 13  1  0  0  0
 12 14  1  0  0  0
 12  5  1  0  0  0
  5  6  2  0  0  0
  6  7  1  0  0  0
  7  8  2  0  0  0
  8  1  1  0  0  0
  1  2  2  0  0  0
  1  3  1  0  0  0
  3 15  1  0  0  0
 15 16  1  0  0  0
 16 17  2  0  0  0
 17 18  1  0  0  0
 18 19  2  0  0  0
 19 23  1  0  0  0
 23 24  2  0  0  0
 23 25  1  0  0  0
 19 20  1  0  0  0
 20 21  1  0  0  0
 20 22  2  0  0  0
  8  9  1  0  0  0
  9 10  2  0  0  0
 10  5  1  0  0  0
 22 16  1  0  0  0
  3  4  1  0  0  0
 25 26  1  0  0  0
M  END
> <minimizedAffinity>
-9.08298

> <CNNscore>
0.2135629803

> <CNNaffinity>
5.8129272461

> <CNN_VS>
1.2414261103

> <CNNaffinity_variance>
0.1590004861

$$$$
[H]OC(=O)c1c([H])c([H])c(C([H])([H])N([H])C(=O)c2c([H])c([H])c(C(C([H])([H])[H])(C([H])([H])[H])C([H])([H])[H])c([H])c2[H])c([H])c1F


 26 27  0  0  0  0  0  0  0  0999 V2000
  -13.4642   -8.2300    7.7841 C   0  0  0  0  0  0  0  0  0  0  0  0
  -13.6556   -8.3811    9.0266 O   0  0  0  0  0  0  0  0  0  0  0  0
  -12.2629   -8.6775    7.2210 N   0  0  0  0  0  0  0  0  0  0  0  0
  -12.1377   -8.5472    6.1702 H   0  0  0  0  0  0  0  0  0  0  0  0
  -16.4447   -6.4481    5.3017 C   0  0  0  0  0  0  0  0  0  0  0  0
  -15.1012   -6.1770    5.1251 C   0  0  0  0  0  0  0  0  0  0  0  0
  -14.1306   -6.7399    5.9263 C   0  0  0  0  0  0  0  0  0  0  0  0
  -14.4740   -7.6024    6.9450 C   0  0  0  0  0  0  0  0  0  0  0  0
  -15.7928   -7.8955    7.1537 C   0  0  0  0  0  0  0  0  0  0  0  0
  -16.7513   -7.3099    6.3243 C   0  0  0  0  0  0  0  0  0  0  0  0
  -16.8064   -5.1331    3.2912 C   0  0  0  0  0  0  0  0  0  0  0  0
  -17.5042   -5.8417    4.4349 C   0  0  0  0  0  0  0  0  0  0  0  0
  -18.2573   -4.7927    5.2187 C   0  0  0  0  0  0  0  0  0  0  0  0
  -18.4804   -6.8853    3.9312 C   0  0  0  0  0  0  0  0  0  0  0  0
  -11.1716   -9.3178    7.8928 C   0  0  0  0  0  0  0  0  0  0  0  0
   -9.8693   -8.6574    7.6356 C   0  0  0  0  0  0  0  0  0  0  0  0
   -9.8423   -7.2476    7.6263 C   0  0  0  0  0  0  0  0  0  0  0  0
   -8.6700   -6.5664    7.4260 C   0  0  0  0  0  0  0  0  0  0  0  0
   -7.4506   -7.2093    7.2221 C   0  0  0  0  0  0  0  0  0  0  0  0
   -7.4680   -8.5892    7.2279 C   0  0  0  0  0  0  0  0  0  0  0  0
   -6.3062   -9.2653    7.0398 F   0  0  0  0  0  0  0  0  0  0  0  0
   -8.6689   -9.2786    7.4330 C   0  0  0  0  0  0  0  0  0  0  0  0
   -6.2430   -6.4300    7.0320 C   0  0  0  0  0  0  0  0  0  0  0  0
   -5.4990   -6.2456    8.0352 O   0  0  0  0  0  0  0  0  0  0  0  0
   -5.9144   -5.9116    5.8096 O   0  0  0  0  0  0  0  0  0  0  0  0
   -5.3805   -6.4015    5.0835 H   0  0  0  0  0  0  0  0  0  0  0  0
 11 12  1  0  0  0
 12 13  1  0  0  0
 12 14  1  0  0  0
 12  5  1  0  0  0
  5  6  2  0  0  0
  6  7  1  0  0  0
  7  8  2  0  0  0
  8  1  1  0  0  0
  1  2  2  0  0  0
  1  3  1  0  0  0
  3 15  1  0  0  0
 15 16  1  0  0  0
 16 17  2  0  0  0
 17 18  1  0  0  0
 18 19  2  0  0  0
 19 23  1  0  0  0
 23 24  2  0  0  0
 23 25  1  0  0  0
 19 20  1  0  0  0
 20 21  1  0  0  0
 20 22  2  0  0  0
  8  9  1  0  0  0
  9 10  2  0  0  0
 10  5  1  0  0  0
 22 16  1  0  0  0
  3  4  1  0  0  0
 25 26  1  0  0  0
M  END
> <minimizedAffinity>
-9.32742

> <CNNscore>
0.2099503428

> <CNNaffinity>
5.7247018814

> <CNN_VS>
1.2019031048

> <CNNaffinity_variance>
0.1273961663

$$$$
[H]OC(=O)c1c([H])c([H])c(C([H])([H])N([H])C(=O)c2c([H])c([H])c(C(C([H])([H])[H])(C([H])([H])[H])C([H])([H])[H])c([H])c2[H])c([H])c1F


 26 27  0  0  0  0  0  0  0  0999 V2000
   -8.2147   -9.0106    7.5493 C   0  0  0  0  0  0  0  0  0  0  0  0
   -7.7379  -10.0657    8.0618 O   0  0  0  0  0  0  0  0  0  0  0  0
   -7.3675   -8.1621    6.8264 N   0  0  0  0  0  0  0  0  0  0  0  0
   -7.8021   -7.2884    6.3965 H   0  0  0  0  0  0  0  0  0  0  0  0
  -12.3523   -8.0348    7.9350 C   0  0  0  0  0  0  0  0  0  0  0  0
  -11.3637   -7.1793    8.3830 C   0  0  0  0  0  0  0  0  0  0  0  0
  -10.0246   -7.4880    8.2715 C   0  0  0  0  0  0  0  0  0  0  0  0
   -9.6229   -8.6774    7.7029 C   0  0  0  0  0  0  0  0  0  0  0  0
  -10.5701   -9.5520    7.2483 C   0  0  0  0  0  0  0  0  0  0  0  0
  -11.9178   -9.2095    7.3749 C   0  0  0  0  0  0  0  0  0  0  0  0
  -14.0374   -7.1379    9.4377 C   0  0  0  0  0  0  0  0  0  0  0  0
  -13.8083   -7.7060    8.0514 C   0  0  0  0  0  0  0  0  0  0  0  0
  -14.6214   -8.9749    7.9475 C   0  0  0  0  0  0  0  0  0  0  0  0
  -14.2518   -6.7390    6.9725 C   0  0  0  0  0  0  0  0  0  0  0  0
   -5.9685   -8.3379    6.5729 C   0  0  0  0  0  0  0  0  0  0  0  0
   -5.1438   -7.2211    7.0933 C   0  0  0  0  0  0  0  0  0  0  0  0
   -4.1620   -6.6801    6.2378 C   0  0  0  0  0  0  0  0  0  0  0  0
   -3.3821   -5.6264    6.6374 C   0  0  0  0  0  0  0  0  0  0  0  0
   -3.5050   -5.0312    7.8914 C   0  0  0  0  0  0  0  0  0  0  0  0
   -4.4622   -5.5554    8.7359 C   0  0  0  0  0  0  0  0  0  0  0  0
   -4.6275   -5.0089    9.9673 F   0  0  0  0  0  0  0  0  0  0  0  0
   -5.2554   -6.6318    8.3214 C   0  0  0  0  0  0  0  0  0  0  0  0
   -2.6596   -3.9084    8.2471 C   0  0  0  0  0  0  0  0  0  0  0  0
   -1.5967   -4.1521    8.8834 O   0  0  0  0  0  0  0  0  0  0  0  0
   -2.9955   -2.6272    7.9059 O   0  0  0  0  0  0  0  0  0  0  0  0
   -2.7566   -2.1690    7.0198 H   0  0  0  0  0  0  0  0  0  0  0  0
 11 12  1  0  0  0
 12 13  1  0  0  0
 12 14  1  0  0  0
 12  5  1  0  0  0
  5  6  2  0  0  0
  6  7  1  0  0  0
  7  8  2  0  0  0
  8  1  1  0  0  0
  1  2  2  0  0  0
  1  3  1  0  0  0
  3 15  1  0  0  0
 15 16  1  0  0  0
 16 17  2  0  0  0
 17 18  1  0  0  0
 18 19  2  0  0  0
 19 23  1  0  0  0
 23 24  2  0  0  0
 23 25  1  0  0  0
 19 20  1  0  0  0
 20 21  1  0  0  0
 20 22  2  0  0  0
  8  9  1  0  0  0
  9 10  2  0  0  0
 10  5  1  0  0  0
 22 16  1  0  0  0
  3  4  1  0  0  0
 25 26  1  0  0  0
M  END
> <minimizedAffinity>
-7.90754

> <CNNscore>
0.2095630914

> <CNNaffinity>
5.1874413490

> <CNN_VS>
1.0870962143

> <CNNaffinity_variance>
0.0917368904

$$$$
[H]Oc1c([H])c(O[H])c([H])c([C@@]([H])(O[H])C([H])([H])N([H])[C@@]([H])(C([H])([H])[H])C([H])([H])c2c([H])c([H])c(OC([H])([H])[H])c([H])c2[H])c1[H]


 27 28  0  0  0  0  0  0  0  0999 V2000
  -14.0345   -7.1730    7.6837 C   0  0  0  0  0  0  0  0  0  0  0  0
  -15.3817   -7.6284    7.2446 C   0  0  0  0  0  0  0  0  0  0  0  0
  -15.2729   -8.9881    6.7706 O   0  0  0  0  0  0  0  0  0  0  0  0
  -15.7886   -9.5233    7.3951 H   0  0  0  0  0  0  0  0  0  0  0  0
  -15.9306   -6.9027    6.0553 C   0  0  0  0  0  0  0  0  0  0  0  0
  -17.0881   -7.2481    5.4229 C   0  0  0  0  0  0  0  0  0  0  0  0
  -17.5675   -6.5405    4.3150 C   0  0  0  0  0  0  0  0  0  0  0  0
  -18.7404   -6.8784    3.6619 O   0  0  0  0  0  0  0  0  0  0  0  0
  -16.8396   -5.4690    3.8637 C   0  0  0  0  0  0  0  0  0  0  0  0
  -15.6683   -5.0741    4.4590 C   0  0  0  0  0  0  0  0  0  0  0  0
  -14.9594   -3.9834    3.9735 O   0  0  0  0  0  0  0  0  0  0  0  0
  -15.2345   -5.8009    5.5472 C   0  0  0  0  0  0  0  0  0  0  0  0
  -19.5898   -6.4199    4.0282 H   0  0  0  0  0  0  0  0  0  0  0  0
  -15.2253   -3.0798    4.3935 H   0  0  0  0  0  0  0  0  0  0  0  0
  -12.8915   -7.8289    7.2404 N   0  0  0  0  0  0  0  0  0  0  0  0
  -12.9078   -8.1373    6.2358 H   0  0  0  0  0  0  0  0  0  0  0  0
  -11.9892   -8.4820    8.0662 C   0  0  0  0  0  0  0  0  0  0  0  0
  -12.6294   -9.0967    9.2777 C   0  0  0  0  0  0  0  0  0  0  0  0
  -11.0260   -9.4292    7.4044 C   0  0  0  0  0  0  0  0  0  0  0  0
   -7.0560   -7.7516    7.6266 C   0  0  0  0  0  0  0  0  0  0  0  0
   -7.2608   -9.1133    7.5508 C   0  0  0  0  0  0  0  0  0  0  0  0
   -8.5348   -9.6520    7.4764 C   0  0  0  0  0  0  0  0  0  0  0  0
   -9.6594   -8.8464    7.4749 C   0  0  0  0  0  0  0  0  0  0  0  0
   -9.4558   -7.4828    7.5507 C   0  0  0  0  0  0  0  0  0  0  0  0
   -8.1796   -6.9523    7.6248 C   0  0  0  0  0  0  0  0  0  0  0  0
   -4.6597   -7.7786    7.0938 C   0  0  0  0  0  0  0  0  0  0  0  0
   -5.7848   -7.1854    7.7021 O   0  0  0  0  0  0  0  0  0  0  0  0
 26 27  1  0  0  0
 27 20  1  0  0  0
 20 21  2  0  0  0
 21 22  1  0  0  0
 22 23  2  0  0  0
 23 19  1  0  0  0
 19 17  1  0  0  0
 17 18  1  0  0  0
 17 15  1  0  0  0
 15  1  1  0  0  0
  1  2  1  0  0  0
  2  3  1  0  0  0
  2  5  1  0  0  0
  5  6  2  0  0  0
  6  7  1  0  0  0
  7  8  1  0  0  0
  7  9  2  0  0  0
  9 10  1  0  0  0
 10 11  1  0  0  0
 10 12  2  0  0  0
 23 24  1  0  0  0
 24 25  2  0  0  0
 25 20  1  0  0  0
 12  5  1  0  0  0
 15 16  1  0  0  0
  3  4  1  0  0  0
  8 13  1  0  0  0
 11 14  1  0  0  0
M  END
> <minimizedAffinity>
-8.37091

> <CNNscore>
0.6182542443

> <CNNaffinity>
6.3211760521

> <CNN_VS>
3.9080939293

> <CNNaffinity_variance>
0.4276773930

$$$$
[H]Oc1c([H])c(O[H])c([H])c([C@@]([H])(O[H])C([H])([H])N([H])[C@@]([H])(C([H])([H])[H])C([H])([H])c2c([H])c([H])c(OC([H])([H])[H])c([H])c2[H])c1[H]


 27 28  0  0  0  0  0  0  0  0999 V2000
  -14.6178   -8.8237    7.0117 C   0  0  0  0  0  0  0  0  0  0  0  0
  -15.4850   -7.6523    7.3134 C   0  0  0  0  0  0  0  0  0  0  0  0
  -16.7438   -8.1361    7.8298 O   0  0  0  0  0  0  0  0  0  0  0  0
  -16.7803   -7.8336    8.7515 H   0  0  0  0  0  0  0  0  0  0  0  0
  -15.8994   -6.8554    6.1153 C   0  0  0  0  0  0  0  0  0  0  0  0
  -15.1843   -5.8072    5.6163 C   0  0  0  0  0  0  0  0  0  0  0  0
  -15.6063   -5.0901    4.4913 C   0  0  0  0  0  0  0  0  0  0  0  0
  -14.8921   -4.0238    3.9726 O   0  0  0  0  0  0  0  0  0  0  0  0
  -16.7771   -5.4657    3.8830 C   0  0  0  0  0  0  0  0  0  0  0  0
  -17.5387   -6.5116    4.3390 C   0  0  0  0  0  0  0  0  0  0  0  0
  -18.7183   -6.8624    3.6959 O   0  0  0  0  0  0  0  0  0  0  0  0
  -17.0840   -7.1890    5.4503 C   0  0  0  0  0  0  0  0  0  0  0  0
  -14.1904   -4.2764    3.2587 H   0  0  0  0  0  0  0  0  0  0  0  0
  -18.6036   -7.5569    2.9422 H   0  0  0  0  0  0  0  0  0  0  0  0
  -13.2714   -8.6439    6.7148 N   0  0  0  0  0  0  0  0  0  0  0  0
  -13.0323   -8.6258    5.6916 H   0  0  0  0  0  0  0  0  0  0  0  0
  -12.2292   -8.9356    7.5816 C   0  0  0  0  0  0  0  0  0  0  0  0
  -12.6918   -9.4168    8.9269 C   0  0  0  0  0  0  0  0  0  0  0  0
  -11.1134   -9.7864    7.0393 C   0  0  0  0  0  0  0  0  0  0  0  0
   -7.3476   -7.9592    8.0903 C   0  0  0  0  0  0  0  0  0  0  0  0
   -8.4971   -7.2112    7.9456 C   0  0  0  0  0  0  0  0  0  0  0  0
   -9.7067   -7.7977    7.6113 C   0  0  0  0  0  0  0  0  0  0  0  0
   -9.8148   -9.1617    7.4075 C   0  0  0  0  0  0  0  0  0  0  0  0
   -8.6646   -9.9118    7.5520 C   0  0  0  0  0  0  0  0  0  0  0  0
   -7.4598   -9.3184    7.8863 C   0  0  0  0  0  0  0  0  0  0  0  0
   -5.5878   -6.2847    7.7354 C   0  0  0  0  0  0  0  0  0  0  0  0
   -6.1192   -7.3930    8.4261 O   0  0  0  0  0  0  0  0  0  0  0  0
 26 27  1  0  0  0
 27 20  1  0  0  0
 20 21  2  0  0  0
 21 22  1  0  0  0
 22 23  2  0  0  0
 23 19  1  0  0  0
 19 17  1  0  0  0
 17 18  1  0  0  0
 17 15  1  0  0  0
 15  1  1  0  0  0
  1  2  1  0  0  0
  2  3  1  0  0  0
  2  5  1  0  0  0
  5  6  2  0  0  0
  6  7  1  0  0  0
  7  8  1  0  0  0
  7  9  2  0  0  0
  9 10  1  0  0  0
 10 11  1  0  0  0
 10 12  2  0  0  0
 23 24  1  0  0  0
 24 25  2  0  0  0
 25 20  1  0  0  0
 12  5  1  0  0  0
 15 16  1  0  0  0
  3  4  1  0  0  0
  8 13  1  0  0  0
 11 14  1  0  0  0
M  END
> <minimizedAffinity>
-8.49078

> <CNNscore>
0.5844943523

> <CNNaffinity>
6.2410745621

> <CNN_VS>
3.6478729248

> <CNNaffinity_variance>
0.3216449618

$$$$
[H]Oc1c([H])c(O[H])c([H])c([C@@]([H])(O[H])C([H])([H])N([H])[C@@]([H])(C([H])([H])[H])C([H])([H])c2c([H])c([H])c(OC([H])([H])[H])c([H])c2[H])c1[H]


 27 28  0  0  0  0  0  0  0  0999 V2000
  -14.1109   -8.9391    5.3038 C   0  0  0  0  0  0  0  0  0  0  0  0
  -15.3772   -8.7018    4.5586 C   0  0  0  0  0  0  0  0  0  0  0  0
  -15.1642   -9.0481    3.1730 O   0  0  0  0  0  0  0  0  0  0  0  0
  -15.7344   -9.8158    3.0062 H   0  0  0  0  0  0  0  0  0  0  0  0
  -15.7995   -7.2671    4.4835 C   0  0  0  0  0  0  0  0  0  0  0  0
  -14.9301   -6.2173    4.5127 C   0  0  0  0  0  0  0  0  0  0  0  0
  -15.3671   -4.8901    4.4370 C   0  0  0  0  0  0  0  0  0  0  0  0
  -14.4974   -3.8135    4.4655 O   0  0  0  0  0  0  0  0  0  0  0  0
  -16.7142   -4.6547    4.3300 C   0  0  0  0  0  0  0  0  0  0  0  0
  -17.6364   -5.6698    4.2955 C   0  0  0  0  0  0  0  0  0  0  0  0
  -18.9924   -5.3917    4.1859 O   0  0  0  0  0  0  0  0  0  0  0  0
  -17.1601   -6.9612    4.3731 C   0  0  0  0  0  0  0  0  0  0  0  0
  -14.1536   -3.5074    3.5414 H   0  0  0  0  0  0  0  0  0  0  0  0
  -19.3397   -5.3343    3.2166 H   0  0  0  0  0  0  0  0  0  0  0  0
  -14.1416   -9.4344    6.6026 N   0  0  0  0  0  0  0  0  0  0  0  0
  -14.6108  -10.3675    6.7200 H   0  0  0  0  0  0  0  0  0  0  0  0
  -14.0360   -8.6548    7.7443 C   0  0  0  0  0  0  0  0  0  0  0  0
  -15.3638   -8.3241    8.3632 C   0  0  0  0  0  0  0  0  0  0  0  0
  -13.0347   -9.0954    8.7769 C   0  0  0  0  0  0  0  0  0  0  0  0
   -9.2366   -7.2588    7.8683 C   0  0  0  0  0  0  0  0  0  0  0  0
  -10.1889   -6.6101    8.6259 C   0  0  0  0  0  0  0  0  0  0  0  0
  -11.4070   -7.2004    8.9204 C   0  0  0  0  0  0  0  0  0  0  0  0
  -11.7221   -8.4687    8.4666 C   0  0  0  0  0  0  0  0  0  0  0  0
  -10.7694   -9.1194    7.7079 C   0  0  0  0  0  0  0  0  0  0  0  0
   -9.5547   -8.5228    7.4180 C   0  0  0  0  0  0  0  0  0  0  0  0
   -7.2808   -7.0390    6.4009 C   0  0  0  0  0  0  0  0  0  0  0  0
   -8.0042   -6.6866    7.5586 O   0  0  0  0  0  0  0  0  0  0  0  0
 26 27  1  0  0  0
 27 20  1  0  0  0
 20 21  2  0  0  0
 21 22  1  0  0  0
 22 23  2  0  0  0
 23 19  1  0  0  0
 19 17  1  0  0  0
 17 18  1  0  0  0
 17 15  1  0  0  0
 15  1  1  0  0  0
  1  2  1  0  0  0
  2  3  1  0  0  0
  2  5  1  0  0  0
  5  6  2  0  0  0
  6  7  1  0  0  0
  7  8  1  0  0  0
  7  9  2  0  0  0
  9 10  1  0  0  0
 10 11  1  0  0  0
 10 12  2  0  0  0
 23 24  1  0  0  0
 24 25  2  0  0  0
 25 20  1  0  0  0
 12  5  1  0  0  0
 15 16  1  0  0  0
  3  4  1  0  0  0
  8 13  1  0  0  0
 11 14  1  0  0  0
M  END
> <minimizedAffinity>
-8.36337

> <CNNscore>
0.4768875837

> <CNNaffinity>
6.4276528358

> <CNN_VS>
3.0652678013

> <CNNaffinity_variance>
0.2167693377

$$$$
[H]Oc1c([H])c(O[H])c([H])c([C@@]([H])(O[H])C([H])([H])N([H])[C@@]([H])(C([H])([H])[H])C([H])([H])c2c([H])c([H])c(OC([H])([H])[H])c([H])c2[H])c1[H]


 27 28  0  0  0  0  0  0  0  0999 V2000
  -14.0806   -8.8647    5.3566 C   0  0  0  0  0  0  0  0  0  0  0  0
  -15.2182   -8.6931    4.4124 C   0  0  0  0  0  0  0  0  0  0  0  0
  -14.7248   -8.8632    3.0660 O   0  0  0  0  0  0  0  0  0  0  0  0
  -15.1526   -9.6680    2.7319 H   0  0  0  0  0  0  0  0  0  0  0  0
  -15.8040   -7.3154    4.3822 C   0  0  0  0  0  0  0  0  0  0  0  0
  -17.1394   -7.0603    4.2799 C   0  0  0  0  0  0  0  0  0  0  0  0
  -17.6458   -5.7560    4.2580 C   0  0  0  0  0  0  0  0  0  0  0  0
  -18.9984   -5.4804    4.1543 O   0  0  0  0  0  0  0  0  0  0  0  0
  -16.7588   -4.7131    4.3433 C   0  0  0  0  0  0  0  0  0  0  0  0
  -15.4049   -4.9076    4.4482 C   0  0  0  0  0  0  0  0  0  0  0  0
  -14.5382   -3.8261    4.5330 O   0  0  0  0  0  0  0  0  0  0  0  0
  -14.9515   -6.2094    4.4658 C   0  0  0  0  0  0  0  0  0  0  0  0
  -19.4981   -5.4093    5.0550 H   0  0  0  0  0  0  0  0  0  0  0  0
  -14.3484   -3.5052    5.4946 H   0  0  0  0  0  0  0  0  0  0  0  0
  -14.2991   -9.3541    6.6395 N   0  0  0  0  0  0  0  0  0  0  0  0
  -14.9489  -10.1776    6.7049 H   0  0  0  0  0  0  0  0  0  0  0  0
  -14.1240   -8.6192    7.8021 C   0  0  0  0  0  0  0  0  0  0  0  0
  -15.4156   -8.2638    8.4810 C   0  0  0  0  0  0  0  0  0  0  0  0
  -13.1028   -9.1307    8.7811 C   0  0  0  0  0  0  0  0  0  0  0  0
   -9.3135   -7.2609    7.9038 C   0  0  0  0  0  0  0  0  0  0  0  0
  -10.2730   -6.6253    8.6635 C   0  0  0  0  0  0  0  0  0  0  0  0
  -11.4882   -7.2263    8.9479 C   0  0  0  0  0  0  0  0  0  0  0  0
  -11.7931   -8.4925    8.4815 C   0  0  0  0  0  0  0  0  0  0  0  0
  -10.8332   -9.1301    7.7208 C   0  0  0  0  0  0  0  0  0  0  0  0
   -9.6214   -8.5228    7.4410 C   0  0  0  0  0  0  0  0  0  0  0  0
   -7.3616   -7.0024    6.4375 C   0  0  0  0  0  0  0  0  0  0  0  0
   -8.0837   -6.6778    7.6041 O   0  0  0  0  0  0  0  0  0  0  0  0
 26 27  1  0  0  0
 27 20  1  0  0  0
 20 21  2  0  0  0
 21 22  1  0  0  0
 22 23  2  0  0  0
 23 19  1  0  0  0
 19 17  1  0  0  0
 17 18  1  0  0  0
 17 15  1  0  0  0
 15  1  1  0  0  0
  1  2  1  0  0  0
  2  3  1  0  0  0
  2  5  1  0  0  0
  5  6  2  0  0  0
  6  7  1  0  0  0
  7  8  1  0  0  0
  7  9  2  0  0  0
  9 10  1  0  0  0
 10 11  1  0  0  0
 10 12  2  0  0  0
 23 24  1  0  0  0
 24 25  2  0  0  0
 25 20  1  0  0  0
 12  5  1  0  0  0
 15 16  1  0  0  0
  3  4  1  0  0  0
  8 13  1  0  0  0
 11 14  1  0  0  0
M  END
> <minimizedAffinity>
-8.43353

> <CNNscore>
0.4694741368

> <CNNaffinity>
6.4371986389

> <CNN_VS>
3.0220983028

> <CNNaffinity_variance>
0.1900327057

$$$$
[H]Oc1c([H])c(O[H])c([H])c([C@@]([H])(O[H])C([H])([H])N([H])[C@@]([H])(C([H])([H])[H])C([H])([H])c2c([H])c([H])c(OC([H])([H])[H])c([H])c2[H])c1[H]


 27 28  0  0  0  0  0  0  0  0999 V2000
  -14.4444   -7.1093    8.3002 C   0  0  0  0  0  0  0  0  0  0  0  0
  -15.4806   -8.0264    7.7519 C   0  0  0  0  0  0  0  0  0  0  0  0
  -14.9184   -9.3539    7.6686 O   0  0  0  0  0  0  0  0  0  0  0  0
  -15.4211   -9.8896    8.3032 H   0  0  0  0  0  0  0  0  0  0  0  0
  -15.8810   -7.7436    6.3370 C   0  0  0  0  0  0  0  0  0  0  0  0
  -16.9197   -6.9314    5.9899 C   0  0  0  0  0  0  0  0  0  0  0  0
  -17.2590   -6.6913    4.6538 C   0  0  0  0  0  0  0  0  0  0  0  0
  -18.3105   -5.8699    4.2850 O   0  0  0  0  0  0  0  0  0  0  0  0
  -16.5141   -7.2986    3.6751 C   0  0  0  0  0  0  0  0  0  0  0  0
  -15.4579   -8.1254    3.9630 C   0  0  0  0  0  0  0  0  0  0  0  0
  -14.7268   -8.7219    2.9443 O   0  0  0  0  0  0  0  0  0  0  0  0
  -15.1603   -8.3329    5.2930 C   0  0  0  0  0  0  0  0  0  0  0  0
  -18.0616   -4.8762    4.1564 H   0  0  0  0  0  0  0  0  0  0  0  0
  -13.9227   -8.1670    2.6142 H   0  0  0  0  0  0  0  0  0  0  0  0
  -13.1727   -7.0697    7.7395 N   0  0  0  0  0  0  0  0  0  0  0  0
  -13.1170   -7.3392    6.7251 H   0  0  0  0  0  0  0  0  0  0  0  0
  -11.9920   -7.1561    8.4611 C   0  0  0  0  0  0  0  0  0  0  0  0
  -12.1339   -6.7121    9.8888 C   0  0  0  0  0  0  0  0  0  0  0  0
  -11.2228   -8.4443    8.3526 C   0  0  0  0  0  0  0  0  0  0  0  0
   -7.3276   -7.6117    6.6917 C   0  0  0  0  0  0  0  0  0  0  0  0
   -7.7389   -8.9013    6.9555 C   0  0  0  0  0  0  0  0  0  0  0  0
   -8.9902   -9.1692    7.4857 C   0  0  0  0  0  0  0  0  0  0  0  0
   -9.8837   -8.1533    7.7744 C   0  0  0  0  0  0  0  0  0  0  0  0
   -9.4731   -6.8615    7.5108 C   0  0  0  0  0  0  0  0  0  0  0  0
   -8.2212   -6.6021    6.9809 C   0  0  0  0  0  0  0  0  0  0  0  0
   -4.8865   -7.8718    6.6764 C   0  0  0  0  0  0  0  0  0  0  0  0
   -6.0743   -7.3163    6.1584 O   0  0  0  0  0  0  0  0  0  0  0  0
 26 27  1  0  0  0
 27 20  1  0  0  0
 20 21  2  0  0  0
 21 22  1  0  0  0
 22 23  2  0  0  0
 23 19  1  0  0  0
 19 17  1  0  0  0
 17 18  1  0  0  0
 17 15  1  0  0  0
 15  1  1  0  0  0
  1  2  1  0  0  0
  2  3  1  0  0  0
  2  5  1  0  0  0
  5  6  2  0  0  0
  6  7  1  0  0  0
  7  8  1  0  0  0
  7  9  2  0  0  0
  9 10  1  0  0  0
 10 11  1  0  0  0
 10 12  2  0  0  0
 23 24  1  0  0  0
 24 25  2  0  0  0
 25 20  1  0  0  0
 12  5  1  0  0  0
 15 16  1  0  0  0
  3  4  1  0  0  0
  8 13  1  0  0  0
 11 14  1  0  0  0
M  END
> <minimizedAffinity>
-8.12280

> <CNNscore>
0.4450969994

> <CNNaffinity>
6.2774105072

> <CNN_VS>
2.7940566540

> <CNNaffinity_variance>
0.2185408622

$$$$
[H]Oc1c([H])c(O[H])c([H])c([C@@]([H])(O[H])C([H])([H])N([H])[C@@]([H])(C([H])([H])[H])C([H])([H])c2c([H])c([H])c(OC([H])([H])[H])c([H])c2[H])c1[H]


 27 28  0  0  0  0  0  0  0  0999 V2000
  -13.4495   -7.5254    6.4349 C   0  0  0  0  0  0  0  0  0  0  0  0
  -14.7007   -6.8844    6.9236 C   0  0  0  0  0  0  0  0  0  0  0  0
  -15.1652   -7.6118    8.0813 O   0  0  0  0  0  0  0  0  0  0  0  0
  -15.0884   -6.9930    8.8253 H   0  0  0  0  0  0  0  0  0  0  0  0
  -15.8611   -6.9786    5.9818 C   0  0  0  0  0  0  0  0  0  0  0  0
  -16.7361   -8.0239    5.9575 C   0  0  0  0  0  0  0  0  0  0  0  0
  -17.8103   -8.0712    5.0620 C   0  0  0  0  0  0  0  0  0  0  0  0
  -18.7071   -9.1251    5.0246 O   0  0  0  0  0  0  0  0  0  0  0  0
  -17.9746   -7.0263    4.1886 C   0  0  0  0  0  0  0  0  0  0  0  0
  -17.1271   -5.9478    4.1665 C   0  0  0  0  0  0  0  0  0  0  0  0
  -17.3263   -4.9084    3.2676 O   0  0  0  0  0  0  0  0  0  0  0  0
  -16.0828   -5.9443    5.0665 C   0  0  0  0  0  0  0  0  0  0  0  0
  -19.5288   -9.0191    5.6406 H   0  0  0  0  0  0  0  0  0  0  0  0
  -17.9324   -4.1510    3.6178 H   0  0  0  0  0  0  0  0  0  0  0  0
  -13.0238   -8.7356    6.9709 N   0  0  0  0  0  0  0  0  0  0  0  0
  -13.7309   -9.5129    6.9509 H   0  0  0  0  0  0  0  0  0  0  0  0
  -11.9924   -8.8703    7.8877 C   0  0  0  0  0  0  0  0  0  0  0  0
  -12.4605   -9.2882    9.2521 C   0  0  0  0  0  0  0  0  0  0  0  0
  -10.7902   -9.6593    7.4458 C   0  0  0  0  0  0  0  0  0  0  0  0
   -7.3483   -7.0559    7.4222 C   0  0  0  0  0  0  0  0  0  0  0  0
   -7.2160   -8.4275    7.3671 C   0  0  0  0  0  0  0  0  0  0  0  0
   -8.3206   -9.2634    7.3715 C   0  0  0  0  0  0  0  0  0  0  0  0
   -9.6070   -8.7581    7.4316 C   0  0  0  0  0  0  0  0  0  0  0  0
   -9.7409   -7.3849    7.4868 C   0  0  0  0  0  0  0  0  0  0  0  0
   -8.6322   -6.5565    7.4819 C   0  0  0  0  0  0  0  0  0  0  0  0
   -5.1636   -6.3587    8.2983 C   0  0  0  0  0  0  0  0  0  0  0  0
   -6.2531   -6.1941    7.4188 O   0  0  0  0  0  0  0  0  0  0  0  0
 26 27  1  0  0  0
 27 20  1  0  0  0
 20 21  2  0  0  0
 21 22  1  0  0  0
 22 23  2  0  0  0
 23 19  1  0  0  0
 19 17  1  0  0  0
 17 18  1  0  0  0
 17 15  1  0  0  0
 15  1  1  0  0  0
  1  2  1  0  0  0
  2  3  1  0  0  0
  2  5  1  0  0  0
  5  6  2  0  0  0
  6  7  1  0  0  0
  7  8  1  0  0  0
  7  9  2  0  0  0
  9 10  1  0  0  0
 10 11  1  0  0  0
 10 12  2  0  0  0
 23 24  1  0  0  0
 24 25  2  0  0  0
 25 20  1  0  0  0
 12  5  1  0  0  0
 15 16  1  0  0  0
  3  4  1  0  0  0
  8 13  1  0  0  0
 11 14  1  0  0  0
M  END
> <minimizedAffinity>
-7.83357

> <CNNscore>
0.4350593984

> <CNNaffinity>
6.2509884834

> <CNN_VS>
2.7195513248

> <CNNaffinity_variance>
0.3043415546

$$$$
[H]Oc1c([H])c(O[H])c([H])c([C@@]([H])(O[H])C([H])([H])N([H])[C@@]([H])(C([H])([H])[H])C([H])([H])c2c([H])c([H])c(OC([H])([H])[H])c([H])c2[H])c1[H]


 27 28  0  0  0  0  0  0  0  0999 V2000
   -8.9002   -6.6272    7.2117 C   0  0  0  0  0  0  0  0  0  0  0  0
   -9.4886   -7.6438    8.1257 C   0  0  0  0  0  0  0  0  0  0  0  0
   -9.6372   -8.8819    7.3975 O   0  0  0  0  0  0  0  0  0  0  0  0
   -9.0274   -9.5075    7.8209 H   0  0  0  0  0  0  0  0  0  0  0  0
  -10.8870   -7.3488    8.5725 C   0  0  0  0  0  0  0  0  0  0  0  0
  -11.2227   -6.2961    9.3712 C   0  0  0  0  0  0  0  0  0  0  0  0
  -12.5439   -6.0545    9.7636 C   0  0  0  0  0  0  0  0  0  0  0  0
  -12.9010   -4.9905   10.5739 O   0  0  0  0  0  0  0  0  0  0  0  0
  -13.5197   -6.9119    9.3227 C   0  0  0  0  0  0  0  0  0  0  0  0
  -13.2428   -7.9875    8.5174 C   0  0  0  0  0  0  0  0  0  0  0  0
  -14.2582   -8.8331    8.0908 O   0  0  0  0  0  0  0  0  0  0  0  0
  -11.9273   -8.1863    8.1563 C   0  0  0  0  0  0  0  0  0  0  0  0
  -13.1381   -4.1209   10.0706 H   0  0  0  0  0  0  0  0  0  0  0  0
  -14.6998   -8.5555    7.2011 H   0  0  0  0  0  0  0  0  0  0  0  0
   -7.5485   -6.3106    7.2889 N   0  0  0  0  0  0  0  0  0  0  0  0
   -7.2704   -5.4019    6.8399 H   0  0  0  0  0  0  0  0  0  0  0  0
   -6.5334   -7.2362    7.4765 C   0  0  0  0  0  0  0  0  0  0  0  0
   -6.2556   -8.0690    6.2580 C   0  0  0  0  0  0  0  0  0  0  0  0
   -5.2642   -6.7330    8.1081 C   0  0  0  0  0  0  0  0  0  0  0  0
   -2.4861   -5.7173    4.9656 C   0  0  0  0  0  0  0  0  0  0  0  0
   -3.5941   -4.9394    5.2285 C   0  0  0  0  0  0  0  0  0  0  0  0
   -4.4844   -5.2634    6.2390 C   0  0  0  0  0  0  0  0  0  0  0  0
   -4.3009   -6.3833    7.0302 C   0  0  0  0  0  0  0  0  0  0  0  0
   -3.1919   -7.1630    6.7680 C   0  0  0  0  0  0  0  0  0  0  0  0
   -2.3070   -6.8326    5.7565 C   0  0  0  0  0  0  0  0  0  0  0  0
   -1.1408   -6.3737    3.0198 C   0  0  0  0  0  0  0  0  0  0  0  0
   -1.5760   -5.4127    3.9551 O   0  0  0  0  0  0  0  0  0  0  0  0
 26 27  1  0  0  0
 27 20  1  0  0  0
 20 21  2  0  0  0
 21 22  1  0  0  0
 22 23  2  0  0  0
 23 19  1  0  0  0
 19 17  1  0  0  0
 17 18  1  0  0  0
 17 15  1  0  0  0
 15  1  1  0  0  0
  1  2  1  0  0  0
  2  3  1  0  0  0
  2  5  1  0  0  0
  5  6  2  0  0  0
  6  7  1  0  0  0
  7  8  1  0  0  0
  7  9  2  0  0  0
  9 10  1  0  0  0
 10 11  1  0  0  0
 10 12  2  0  0  0
 23 24  1  0  0  0
 24 25  2  0  0  0
 25 20  1  0  0  0
 12  5  1  0  0  0
 15 16  1  0  0  0
  3  4  1  0  0  0
  8 13  1  0  0  0
 11 14  1  0  0  0
M  END
> <minimizedAffinity>
-6.85540

> <CNNscore>
0.4041116536

> <CNNaffinity>
5.1868886948

> <CNN_VS>
2.0960822105

> <CNNaffinity_variance>
0.0153714688

$$$$
[H]Oc1c([H])c(O[H])c([H])c([C@@]([H])(O[H])C([H])([H])N([H])[C@@]([H])(C([H])([H])[H])C([H])([H])c2c([H])c([H])c(OC([H])([H])[H])c([H])c2[H])c1[H]


 27 28  0  0  0  0  0  0  0  0999 V2000
  -13.7535   -7.6186    8.6898 C   0  0  0  0  0  0  0  0  0  0  0  0
  -15.0769   -8.1002    8.2083 C   0  0  0  0  0  0  0  0  0  0  0  0
  -14.9637   -9.5034    7.8870 O   0  0  0  0  0  0  0  0  0  0  0  0
  -15.5309   -9.9633    8.5267 H   0  0  0  0  0  0  0  0  0  0  0  0
  -15.5297   -7.4966    6.9149 C   0  0  0  0  0  0  0  0  0  0  0  0
  -16.6867   -7.8401    6.2807 C   0  0  0  0  0  0  0  0  0  0  0  0
  -17.0745   -7.2487    5.0733 C   0  0  0  0  0  0  0  0  0  0  0  0
  -18.2456   -7.5865    4.4170 O   0  0  0  0  0  0  0  0  0  0  0  0
  -16.2550   -6.2957    4.5239 C   0  0  0  0  0  0  0  0  0  0  0  0
  -15.0793   -5.9088    5.1158 C   0  0  0  0  0  0  0  0  0  0  0  0
  -14.2762   -4.9398    4.5292 O   0  0  0  0  0  0  0  0  0  0  0  0
  -14.7378   -6.5186    6.3041 C   0  0  0  0  0  0  0  0  0  0  0  0
  -19.0714   -7.0282    4.6858 H   0  0  0  0  0  0  0  0  0  0  0  0
  -14.4896   -3.9740    4.8212 H   0  0  0  0  0  0  0  0  0  0  0  0
  -12.7296   -8.5218    8.9526 N   0  0  0  0  0  0  0  0  0  0  0  0
  -12.7412   -8.9523    9.9114 H   0  0  0  0  0  0  0  0  0  0  0  0
  -11.5155   -8.5510    8.2836 C   0  0  0  0  0  0  0  0  0  0  0  0
  -11.5631   -9.3273    6.9989 C   0  0  0  0  0  0  0  0  0  0  0  0
  -10.8022   -7.2374    8.1142 C   0  0  0  0  0  0  0  0  0  0  0  0
   -6.7465   -8.0134    6.8597 C   0  0  0  0  0  0  0  0  0  0  0  0
   -7.4112   -6.8653    6.4830 C   0  0  0  0  0  0  0  0  0  0  0  0
   -8.7119   -6.6144    6.8879 C   0  0  0  0  0  0  0  0  0  0  0  0
   -9.4024   -7.5059    7.6893 C   0  0  0  0  0  0  0  0  0  0  0  0
   -8.7380   -8.6559    8.0673 C   0  0  0  0  0  0  0  0  0  0  0  0
   -7.4383   -8.8993    7.6585 C   0  0  0  0  0  0  0  0  0  0  0  0
   -4.3211   -7.7863    7.1638 C   0  0  0  0  0  0  0  0  0  0  0  0
   -5.4383   -8.2886    6.4658 O   0  0  0  0  0  0  0  0  0  0  0  0
 26 27  1  0  0  0
 27 20  1  0  0  0
 20 21  2  0  0  0
 21 22  1  0  0  0
 22 23  2  0  0  0
 23 19  1  0  0  0
 19 17  1  0  0  0
 17 18  1  0  0  0
 17 15  1  0  0  0
 15  1  1  0  0  0
  1  2  1  0  0  0
  2  3  1  0  0  0
  2  5  1  0  0  0
  5  6  2  0  0  0
  6  7  1  0  0  0
  7  8  1  0  0  0
  7  9  2  0  0  0
  9 10  1  0  0  0
 10 11  1  0  0  0
 10 12  2  0  0  0
 23 24  1  0  0  0
 24 25  2  0  0  0
 25 20  1  0  0  0
 12  5  1  0  0  0
 15 16  1  0  0  0
  3  4  1  0  0  0
  8 13  1  0  0  0
 11 14  1  0  0  0
M  END
> <minimizedAffinity>
-7.88217

> <CNNscore>
0.3825362623

> <CNNaffinity>
6.2286157608

> <CNN_VS>
2.3826713562

> <CNNaffinity_variance>
0.2497355044

$$$$
[H]Oc1c([H])c(O[H])c([H])c([C@@]([H])(O[H])C([H])([H])N([H])[C@@]([H])(C([H])([H])[H])C([H])([H])c2c([H])c([H])c(OC([H])([H])[H])c([H])c2[H])c1[H]


 27 28  0  0  0  0  0  0  0  0999 V2000
  -14.1587   -7.8157    7.2152 C   0  0  0  0  0  0  0  0  0  0  0  0
  -15.4250   -7.9765    6.4499 C   0  0  0  0  0  0  0  0  0  0  0  0
  -15.2319   -9.0077    5.4576 O   0  0  0  0  0  0  0  0  0  0  0  0
  -15.8218   -9.7332    5.7182 H   0  0  0  0  0  0  0  0  0  0  0  0
  -15.8132   -6.7881    5.6257 C   0  0  0  0  0  0  0  0  0  0  0  0
  -14.9282   -5.8520    5.1792 C   0  0  0  0  0  0  0  0  0  0  0  0
  -15.3329   -4.7568    4.4081 C   0  0  0  0  0  0  0  0  0  0  0  0
  -14.4471   -3.7980    3.9474 O   0  0  0  0  0  0  0  0  0  0  0  0
  -16.6642   -4.6354    4.1004 C   0  0  0  0  0  0  0  0  0  0  0  0
  -17.6008   -5.5452    4.5209 C   0  0  0  0  0  0  0  0  0  0  0  0
  -18.9399   -5.3887    4.1886 O   0  0  0  0  0  0  0  0  0  0  0  0
  -17.1562   -6.6080    5.2781 C   0  0  0  0  0  0  0  0  0  0  0  0
  -14.0321   -3.9975    3.0234 H   0  0  0  0  0  0  0  0  0  0  0  0
  -19.2156   -5.8390    3.3027 H   0  0  0  0  0  0  0  0  0  0  0  0
  -14.0557   -6.8489    8.2091 N   0  0  0  0  0  0  0  0  0  0  0  0
  -14.7208   -6.0397    8.1237 H   0  0  0  0  0  0  0  0  0  0  0  0
  -12.9247   -6.6324    8.9815 C   0  0  0  0  0  0  0  0  0  0  0  0
  -13.1706   -5.7288   10.1555 C   0  0  0  0  0  0  0  0  0  0  0  0
  -12.1261   -7.8463    9.3708 C   0  0  0  0  0  0  0  0  0  0  0  0
   -8.4519   -7.8969    7.1076 C   0  0  0  0  0  0  0  0  0  0  0  0
   -9.2299   -9.0271    7.2457 C   0  0  0  0  0  0  0  0  0  0  0  0
  -10.4109   -9.0106    7.9695 C   0  0  0  0  0  0  0  0  0  0  0  0
  -10.8623   -7.8577    8.5866 C   0  0  0  0  0  0  0  0  0  0  0  0
  -10.0843   -6.7254    8.4491 C   0  0  0  0  0  0  0  0  0  0  0  0
   -8.9055   -6.7500    7.7243 C   0  0  0  0  0  0  0  0  0  0  0  0
   -6.8805   -6.7987    5.5741 C   0  0  0  0  0  0  0  0  0  0  0  0
   -7.2603   -7.8879    6.3848 O   0  0  0  0  0  0  0  0  0  0  0  0
 26 27  1  0  0  0
 27 20  1  0  0  0
 20 21  2  0  0  0
 21 22  1  0  0  0
 22 23  2  0  0  0
 23 19  1  0  0  0
 19 17  1  0  0  0
 17 18  1  0  0  0
 17 15  1  0  0  0
 15  1  1  0  0  0
  1  2  1  0  0  0
  2  3  1  0  0  0
  2  5  1  0  0  0
  5  6  2  0  0  0
  6  7  1  0  0  0
  7  8  1  0  0  0
  7  9  2  0  0  0
  9 10  1  0  0  0
 10 11  1  0  0  0
 10 12  2  0  0  0
 23 24  1  0  0  0
 24 25  2  0  0  0
 25 20  1  0  0  0
 12  5  1  0  0  0
 15 16  1  0  0  0
  3  4  1  0  0  0
  8 13  1  0  0  0
 11 14  1  0  0  0
M  END
> <minimizedAffinity>
-8.46194

> <CNNscore>
0.3823932707

> <CNNaffinity>
6.1905584335

> <CNN_VS>
2.3672277927

> <CNNaffinity_variance>
0.1907306761

$$$$
[H]c1nc(N2C([H])([H])C([H])([H])C(N3C([H])([H])C([H])([H])OC([H])([H])C3([H])[H])(C([H])(C([H])([H])[H])C([H])([H])[H])C([H])([H])C2([H])[H])c([H])c2c1C(=O)c1c(n([H])c3c([H])c(C#N)c([H])c([H])c13)C2(C([H])([H])[H])C([H])([H])[H]


 38 43  0  0  0  0  0  0  0  0999 V2000
   -9.8809  -11.6201    6.0278 C   0  0  0  0  0  0  0  0  0  0  0  0
   -9.3291  -10.4279    6.4175 C   0  0  0  0  0  0  0  0  0  0  0  0
  -10.0800   -9.4605    7.0995 C   0  0  0  0  0  0  0  0  0  0  0  0
  -11.3933   -9.7507    7.3644 C   0  0  0  0  0  0  0  0  0  0  0  0
  -11.9272  -10.9624    6.9600 C   0  0  0  0  0  0  0  0  0  0  0  0
  -11.1727  -11.8609    6.3091 N   0  0  0  0  0  0  0  0  0  0  0  0
  -12.2170   -8.7828    8.0697 C   0  0  0  0  0  0  0  0  0  0  0  0
  -13.4327   -9.0422    8.3190 O   0  0  0  0  0  0  0  0  0  0  0  0
  -11.6287   -7.5226    8.4810 C   0  0  0  0  0  0  0  0  0  0  0  0
  -10.3086   -7.2784    8.1925 C   0  0  0  0  0  0  0  0  0  0  0  0
   -9.9830   -6.0447    8.6715 N   0  0  0  0  0  0  0  0  0  0  0  0
  -11.0675   -5.4914    9.2617 C   0  0  0  0  0  0  0  0  0  0  0  0
  -11.2692   -4.2765    9.8923 C   0  0  0  0  0  0  0  0  0  0  0  0
  -12.5047   -3.9783   10.4091 C   0  0  0  0  0  0  0  0  0  0  0  0
  -13.5129   -4.9108   10.2800 C   0  0  0  0  0  0  0  0  0  0  0  0
  -13.3151   -6.1204    9.6529 C   0  0  0  0  0  0  0  0  0  0  0  0
  -12.0863   -6.4145    9.1401 C   0  0  0  0  0  0  0  0  0  0  0  0
   -9.4276   -8.2105    7.4874 C   0  0  0  0  0  0  0  0  0  0  0  0
   -8.2353   -8.4837    8.4147 C   0  0  0  0  0  0  0  0  0  0  0  0
   -8.8413   -7.4577    6.2942 C   0  0  0  0  0  0  0  0  0  0  0  0
   -9.0654   -5.5668    8.6158 H   0  0  0  0  0  0  0  0  0  0  0  0
   -7.7623  -14.6229    3.5807 C   0  0  0  0  0  0  0  0  0  0  0  0
   -9.2026  -14.6942    4.1321 C   0  0  0  0  0  0  0  0  0  0  0  0
   -9.3631  -14.0344    5.4635 C   0  0  0  0  0  0  0  0  0  0  0  0
   -9.1145  -12.6120    5.3317 N   0  0  0  0  0  0  0  0  0  0  0  0
   -8.0201  -12.2613    4.4347 C   0  0  0  0  0  0  0  0  0  0  0  0
   -7.1420  -13.4936    4.3757 C   0  0  0  0  0  0  0  0  0  0  0  0
   -7.8985  -14.3493    2.2184 N   0  0  0  0  0  0  0  0  0  0  0  0
   -7.0728  -13.5401    1.4825 C   0  0  0  0  0  0  0  0  0  0  0  0
   -7.8234  -12.5841    0.5874 C   0  0  0  0  0  0  0  0  0  0  0  0
   -8.9084  -13.1427   -0.0334 O   0  0  0  0  0  0  0  0  0  0  0  0
   -9.7745  -13.7674    0.8692 C   0  0  0  0  0  0  0  0  0  0  0  0
   -8.9836  -14.8927    1.5040 C   0  0  0  0  0  0  0  0  0  0  0  0
   -7.7186  -16.7969    4.8768 C   0  0  0  0  0  0  0  0  0  0  0  0
   -7.0380  -15.9016    3.8392 C   0  0  0  0  0  0  0  0  0  0  0  0
   -6.7662  -16.7970    2.6825 C   0  0  0  0  0  0  0  0  0  0  0  0
  -12.7530   -2.7067   11.0807 C   0  0  0  0  0  0  0  0  0  0  0  0
  -12.9664   -1.7002   11.6074 N   0  0  0  0  0  0  0  0  0  0  0  0
 34 35  1  0  0  0
 35 36  1  0  0  0
 35 22  1  0  0  0
 22 28  1  0  0  0
 28 29  1  0  0  0
 29 30  1  0  0  0
 30 31  1  0  0  0
 31 32  1  0  0  0
 32 33  1  0  0  0
 22 23  1  0  0  0
 23 24  1  0  0  0
 24 25  1  0  0  0
 25  1  1  0  0  0
  1  2  2  0  0  0
  2  3  1  0  0  0
  3  4  2  0  0  0
  4  5  1  0  0  0
  5  6  2  0  0  0
  4  7  1  0  0  0
  7  8  2  0  0  0
  7  9  1  0  0  0
  9 10  2  0  0  0
 10 11  1  0  0  0
 11 12  1  0  0  0
 12 13  2  0  0  0
 13 14  1  0  0  0
 14 37  1  0  0  0
 37 38  3  0  0  0
 14 15  2  0  0  0
 15 16  1  0  0  0
 16 17  2  0  0  0
 10 18  1  0  0  0
 18 19  1  0  0  0
 18 20  1  0  0  0
 25 26  1  0  0  0
 26 27  1  0  0  0
 27 22  1  0  0  0
 33 28  1  0  0  0
  6  1  1  0  0  0
 17  9  1  0  0  0
 18  3  1  0  0  0
 17 12  1  0  0  0
 11 21  1  0  0  0
M  END
> <minimizedAffinity>
34.46332

> <CNNscore>
0.3459562659

> <CNNaffinity>
6.5960907936

> <CNN_VS>
2.2819590569

> <CNNaffinity_variance>
0.2165022194

$$$$
[H]c1nc(N2C([H])([H])C([H])([H])C(N3C([H])([H])C([H])([H])OC([H])([H])C3([H])[H])(C([H])(C([H])([H])[H])C([H])([H])[H])C([H])([H])C2([H])[H])c([H])c2c1C(=O)c1c(n([H])c3c([H])c(C#N)c([H])c([H])c13)C2(C([H])([H])[H])C([H])([H])[H]


 38 43  0  0  0  0  0  0  0  0999 V2000
  -12.1179   -7.1500    9.4599 C   0  0  0  0  0  0  0  0  0  0  0  0
  -13.3582   -6.9614    8.9085 C   0  0  0  0  0  0  0  0  0  0  0  0
  -13.7298   -7.5843    7.7090 C   0  0  0  0  0  0  0  0  0  0  0  0
  -12.8036   -8.3933    7.1034 C   0  0  0  0  0  0  0  0  0  0  0  0
  -11.5573   -8.5674    7.6807 C   0  0  0  0  0  0  0  0  0  0  0  0
  -11.2423   -7.9520    8.8305 N   0  0  0  0  0  0  0  0  0  0  0  0
  -13.1375   -9.0640    5.8579 C   0  0  0  0  0  0  0  0  0  0  0  0
  -12.2874   -9.8141    5.2904 O   0  0  0  0  0  0  0  0  0  0  0  0
  -14.4516   -8.8623    5.2784 C   0  0  0  0  0  0  0  0  0  0  0  0
  -15.3448   -8.0424    5.9229 C   0  0  0  0  0  0  0  0  0  0  0  0
  -16.4987   -8.0067    5.1984 N   0  0  0  0  0  0  0  0  0  0  0  0
  -16.3645   -8.7872    4.1014 C   0  0  0  0  0  0  0  0  0  0  0  0
  -17.2240   -9.0899    3.0602 C   0  0  0  0  0  0  0  0  0  0  0  0
  -16.8069   -9.9319    2.0604 C   0  0  0  0  0  0  0  0  0  0  0  0
  -15.5314  -10.4524    2.1298 C   0  0  0  0  0  0  0  0  0  0  0  0
  -14.6740  -10.1529    3.1645 C   0  0  0  0  0  0  0  0  0  0  0  0
  -15.0908   -9.3158    4.1570 C   0  0  0  0  0  0  0  0  0  0  0  0
  -15.0701   -7.3403    7.1774 C   0  0  0  0  0  0  0  0  0  0  0  0
  -16.1430   -7.7858    8.1807 C   0  0  0  0  0  0  0  0  0  0  0  0
  -15.3447   -5.8578    6.9310 C   0  0  0  0  0  0  0  0  0  0  0  0
  -17.3649   -7.4809    5.4144 H   0  0  0  0  0  0  0  0  0  0  0  0
  -10.6614   -5.4673   13.2730 C   0  0  0  0  0  0  0  0  0  0  0  0
  -11.3297   -6.8385   13.0355 C   0  0  0  0  0  0  0  0  0  0  0  0
  -12.3656   -6.8167   11.9584 C   0  0  0  0  0  0  0  0  0  0  0  0
  -11.7359   -6.5156   10.6875 N   0  0  0  0  0  0  0  0  0  0  0  0
  -10.6797   -5.5127   10.7490 C   0  0  0  0  0  0  0  0  0  0  0  0
  -10.9659   -4.7077   11.9993 C   0  0  0  0  0  0  0  0  0  0  0  0
   -9.3051   -5.7416   13.4591 N   0  0  0  0  0  0  0  0  0  0  0  0
   -8.4701   -5.0802   14.3214 C   0  0  0  0  0  0  0  0  0  0  0  0
   -7.1438   -4.7157   13.6998 C   0  0  0  0  0  0  0  0  0  0  0  0
   -6.6143   -5.6993   12.9081 O   0  0  0  0  0  0  0  0  0  0  0  0
   -7.5165   -6.1438   11.9368 C   0  0  0  0  0  0  0  0  0  0  0  0
   -8.6855   -6.7451   12.6896 C   0  0  0  0  0  0  0  0  0  0  0  0
  -10.2550   -4.3072   15.4859 C   0  0  0  0  0  0  0  0  0  0  0  0
  -11.2743   -4.7817   14.4480 C   0  0  0  0  0  0  0  0  0  0  0  0
  -12.1389   -3.5978   14.1938 C   0  0  0  0  0  0  0  0  0  0  0  0
  -17.6869  -10.2729    0.9473 C   0  0  0  0  0  0  0  0  0  0  0  0
  -18.3946  -10.5299    0.0703 N   0  0  0  0  0  0  0  0  0  0  0  0
 34 35  1  0  0  0
 35 36  1  0  0  0
 35 22  1  0  0  0
 22 28  1  0  0  0
 28 29  1  0  0  0
 29 30  1  0  0  0
 30 31  1  0  0  0
 31 32  1  0  0  0
 32 33  1  0  0  0
 22 23  1  0  0  0
 23 24  1  0  0  0
 24 25  1  0  0  0
 25  1  1  0  0  0
  1  2  2  0  0  0
  2  3  1  0  0  0
  3  4  2  0  0  0
  4  5  1  0  0  0
  5  6  2  0  0  0
  4  7  1  0  0  0
  7  8  2  0  0  0
  7  9  1  0  0  0
  9 10  2  0  0  0
 10 11  1  0  0  0
 11 12  1  0  0  0
 12 13  2  0  0  0
 13 14  1  0  0  0
 14 37  1  0  0  0
 37 38  3  0  0  0
 14 15  2  0  0  0
 15 16  1  0  0  0
 16 17  2  0  0  0
 10 18  1  0  0  0
 18 19  1  0  0  0
 18 20  1  0  0  0
 25 26  1  0  0  0
 26 27  1  0  0  0
 27 22  1  0  0  0
 33 28  1  0  0  0
  6  1  1  0  0  0
 17  9  1  0  0  0
 18  3  1  0  0  0
 17 12  1  0  0  0
 11 21  1  0  0  0
M  END
> <minimizedAffinity>
40.79497

> <CNNscore>
0.3299358487

> <CNNaffinity>
6.8109407425

> <CNN_VS>
2.2471735477

> <CNNaffinity_variance>
0.5243177414

$$$$
[H]c1nc(N2C([H])([H])C([H])([H])C(N3C([H])([H])C([H])([H])OC([H])([H])C3([H])[H])(C([H])(C([H])([H])[H])C([H])([H])[H])C([H])([H])C2([H])[H])c([H])c2c1C(=O)c1c(n([H])c3c([H])c(C#N)c([H])c([H])c13)C2(C([H])([H])[H])C([H])([H])[H]


 38 43  0  0  0  0  0  0  0  0999 V2000
   -8.1379   -6.5358    7.2063 C   0  0  0  0  0  0  0  0  0  0  0  0
   -9.0486   -7.0952    8.0640 C   0  0  0  0  0  0  0  0  0  0  0  0
  -10.4150   -7.1411    7.7547 C   0  0  0  0  0  0  0  0  0  0  0  0
  -10.8105   -6.6039    6.5573 C   0  0  0  0  0  0  0  0  0  0  0  0
   -9.8709   -6.0445    5.7082 C   0  0  0  0  0  0  0  0  0  0  0  0
   -8.5719   -6.0211    6.0432 N   0  0  0  0  0  0  0  0  0  0  0  0
  -12.2159   -6.6259    6.1868 C   0  0  0  0  0  0  0  0  0  0  0  0
  -12.5913   -6.1312    5.0815 O   0  0  0  0  0  0  0  0  0  0  0  0
  -13.1761   -7.2196    7.0972 C   0  0  0  0  0  0  0  0  0  0  0  0
  -12.7307   -7.7449    8.2851 C   0  0  0  0  0  0  0  0  0  0  0  0
  -13.8018   -8.2408    8.9666 N   0  0  0  0  0  0  0  0  0  0  0  0
  -14.9263   -8.0445    8.2403 C   0  0  0  0  0  0  0  0  0  0  0  0
  -16.2544   -8.3548    8.4735 C   0  0  0  0  0  0  0  0  0  0  0  0
  -17.2013   -8.0274    7.5360 C   0  0  0  0  0  0  0  0  0  0  0  0
  -16.7908   -7.3936    6.3817 C   0  0  0  0  0  0  0  0  0  0  0  0
  -15.4701   -7.0835    6.1471 C   0  0  0  0  0  0  0  0  0  0  0  0
  -14.5308   -7.4098    7.0802 C   0  0  0  0  0  0  0  0  0  0  0  0
  -11.3317   -7.7541    8.7151 C   0  0  0  0  0  0  0  0  0  0  0  0
  -10.9539   -9.2201    8.9689 C   0  0  0  0  0  0  0  0  0  0  0  0
  -11.2801   -7.0851   10.0877 C   0  0  0  0  0  0  0  0  0  0  0  0
  -13.8024   -8.7025    9.8941 H   0  0  0  0  0  0  0  0  0  0  0  0
   -3.8781   -6.0100    8.2409 C   0  0  0  0  0  0  0  0  0  0  0  0
   -4.6414   -5.4183    7.0364 C   0  0  0  0  0  0  0  0  0  0  0  0
   -5.7123   -6.3185    6.5105 C   0  0  0  0  0  0  0  0  0  0  0  0
   -6.7396   -6.4891    7.5194 N   0  0  0  0  0  0  0  0  0  0  0  0
   -6.2436   -6.6120    8.8847 C   0  0  0  0  0  0  0  0  0  0  0  0
   -4.8125   -7.0877    8.7482 C   0  0  0  0  0  0  0  0  0  0  0  0
   -3.7030   -4.9470    9.1291 N   0  0  0  0  0  0  0  0  0  0  0  0
   -3.2739   -3.6900    8.7916 C   0  0  0  0  0  0  0  0  0  0  0  0
   -2.2150   -3.1546    9.7245 C   0  0  0  0  0  0  0  0  0  0  0  0
   -2.4506   -3.4285   11.0452 O   0  0  0  0  0  0  0  0  0  0  0  0
   -2.6773   -4.7891   11.2741 C   0  0  0  0  0  0  0  0  0  0  0  0
   -3.9330   -5.1437   10.5044 C   0  0  0  0  0  0  0  0  0  0  0  0
   -2.5723   -8.1374    7.8203 C   0  0  0  0  0  0  0  0  0  0  0  0
   -2.5841   -6.6075    7.7994 C   0  0  0  0  0  0  0  0  0  0  0  0
   -2.0681   -6.2406    6.4529 C   0  0  0  0  0  0  0  0  0  0  0  0
  -18.6108   -8.3397    7.7488 C   0  0  0  0  0  0  0  0  0  0  0  0
  -19.7317   -8.5738    7.9068 N   0  0  0  0  0  0  0  0  0  0  0  0
 34 35  1  0  0  0
 35 36  1  0  0  0
 35 22  1  0  0  0
 22 28  1  0  0  0
 28 29  1  0  0  0
 29 30  1  0  0  0
 30 31  1  0  0  0
 31 32  1  0  0  0
 32 33  1  0  0  0
 22 23  1  0  0  0
 23 24  1  0  0  0
 24 25  1  0  0  0
 25  1  1  0  0  0
  1  2  2  0  0  0
  2  3  1  0  0  0
  3  4  2  0  0  0
  4  5  1  0  0  0
  5  6  2  0  0  0
  4  7  1  0  0  0
  7  8  2  0  0  0
  7  9  1  0  0  0
  9 10  2  0  0  0
 10 11  1  0  0  0
 11 12  1  0  0  0
 12 13  2  0  0  0
 13 14  1  0  0  0
 14 37  1  0  0  0
 37 38  3  0  0  0
 14 15  2  0  0  0
 15 16  1  0  0  0
 16 17  2  0  0  0
 10 18  1  0  0  0
 18 19  1  0  0  0
 18 20  1  0  0  0
 25 26  1  0  0  0
 26 27  1  0  0  0
 27 22  1  0  0  0
 33 28  1  0  0  0
  6  1  1  0  0  0
 17  9  1  0  0  0
 18  3  1  0  0  0
 17 12  1  0  0  0
 11 21  1  0  0  0
M  END
> <minimizedAffinity>
7.34796

> <CNNscore>
0.3081345260

> <CNNaffinity>
6.7971954346

> <CNN_VS>
2.0944507122

> <CNNaffinity_variance>
0.7329058647

$$$$
[H]c1nc(N2C([H])([H])C([H])([H])C(N3C([H])([H])C([H])([H])OC([H])([H])C3([H])[H])(C([H])(C([H])([H])[H])C([H])([H])[H])C([H])([H])C2([H])[H])c([H])c2c1C(=O)c1c(n([H])c3c([H])c(C#N)c([H])c([H])c13)C2(C([H])([H])[H])C([H])([H])[H]


 38 43  0  0  0  0  0  0  0  0999 V2000
   -7.8483   -6.9212    8.2429 C   0  0  0  0  0  0  0  0  0  0  0  0
   -8.8096   -7.3436    7.3623 C   0  0  0  0  0  0  0  0  0  0  0  0
  -10.1541   -7.4557    7.7426 C   0  0  0  0  0  0  0  0  0  0  0  0
  -10.4754   -7.1259    9.0337 C   0  0  0  0  0  0  0  0  0  0  0  0
   -9.4858   -6.7019    9.9041 C   0  0  0  0  0  0  0  0  0  0  0  0
   -8.2101   -6.6088    9.4989 N   0  0  0  0  0  0  0  0  0  0  0  0
  -11.8552   -7.2235    9.4802 C   0  0  0  0  0  0  0  0  0  0  0  0
  -12.1621   -6.9208   10.6725 O   0  0  0  0  0  0  0  0  0  0  0  0
  -12.8694   -7.6702    8.5446 C   0  0  0  0  0  0  0  0  0  0  0  0
  -12.4977   -7.9890    7.2617 C   0  0  0  0  0  0  0  0  0  0  0  0
  -13.6084   -8.3784    6.5745 N   0  0  0  0  0  0  0  0  0  0  0  0
  -14.6860   -8.3162    7.3902 C   0  0  0  0  0  0  0  0  0  0  0  0
  -16.0256   -8.5993    7.1906 C   0  0  0  0  0  0  0  0  0  0  0  0
  -16.9131   -8.4405    8.2248 C   0  0  0  0  0  0  0  0  0  0  0  0
  -16.4327   -7.9993    9.4403 C   0  0  0  0  0  0  0  0  0  0  0  0
  -15.1004   -7.7169    9.6418 C   0  0  0  0  0  0  0  0  0  0  0  0
  -14.2203   -7.8756    8.6124 C   0  0  0  0  0  0  0  0  0  0  0  0
  -11.1281   -7.9114    6.7516 C   0  0  0  0  0  0  0  0  0  0  0  0
  -11.1567   -6.9667    5.5421 C   0  0  0  0  0  0  0  0  0  0  0  0
  -10.7849   -9.2850    6.1774 C   0  0  0  0  0  0  0  0  0  0  0  0
  -13.6660   -8.6813    5.5854 H   0  0  0  0  0  0  0  0  0  0  0  0
   -3.5485   -6.8963    7.2413 C   0  0  0  0  0  0  0  0  0  0  0  0
   -4.1983   -6.7580    8.6349 C   0  0  0  0  0  0  0  0  0  0  0  0
   -5.5052   -6.0333    8.6125 C   0  0  0  0  0  0  0  0  0  0  0  0
   -6.4728   -6.8039    7.8560 N   0  0  0  0  0  0  0  0  0  0  0  0
   -5.9418   -7.4543    6.6642 C   0  0  0  0  0  0  0  0  0  0  0  0
   -4.7059   -6.6616    6.2941 C   0  0  0  0  0  0  0  0  0  0  0  0
   -3.0340   -8.1935    7.1977 N   0  0  0  0  0  0  0  0  0  0  0  0
   -2.2683   -8.7794    8.1716 C   0  0  0  0  0  0  0  0  0  0  0  0
   -1.0628   -9.5032    7.6228 C   0  0  0  0  0  0  0  0  0  0  0  0
   -1.3161  -10.2133    6.4798 O   0  0  0  0  0  0  0  0  0  0  0  0
   -1.9232   -9.4321    5.4918 C   0  0  0  0  0  0  0  0  0  0  0  0
   -3.2570   -8.9932    6.0602 C   0  0  0  0  0  0  0  0  0  0  0  0
   -1.9038   -5.8334    5.6372 C   0  0  0  0  0  0  0  0  0  0  0  0
   -2.4970   -5.8555    7.0475 C   0  0  0  0  0  0  0  0  0  0  0  0
   -2.8539   -4.4396    7.3332 C   0  0  0  0  0  0  0  0  0  0  0  0
  -18.3327   -8.7296    8.0498 C   0  0  0  0  0  0  0  0  0  0  0  0
  -19.4548   -8.9742    7.9187 N   0  0  0  0  0  0  0  0  0  0  0  0
 34 35  1  0  0  0
 35 36  1  0  0  0
 35 22  1  0  0  0
 22 28  1  0  0  0
 28 29  1  0  0  0
 29 30  1  0  0  0
 30 31  1  0  0  0
 31 32  1  0  0  0
 32 33  1  0  0  0
 22 23  1  0  0  0
 23 24  1  0  0  0
 24 25  1  0  0  0
 25  1  1  0  0  0
  1  2  2  0  0  0
  2  3  1  0  0  0
  3  4  2  0  0  0
  4  5  1  0  0  0
  5  6  2  0  0  0
  4  7  1  0  0  0
  7  8  2  0  0  0
  7  9  1  0  0  0
  9 10  2  0  0  0
 10 11  1  0  0  0
 11 12  1  0  0  0
 12 13  2  0  0  0
 13 14  1  0  0  0
 14 37  1  0  0  0
 37 38  3  0  0  0
 14 15  2  0  0  0
 15 16  1  0  0  0
 16 17  2  0  0  0
 10 18  1  0  0  0
 18 19  1  0  0  0
 18 20  1  0  0  0
 25 26  1  0  0  0
 26 27  1  0  0  0
 27 22  1  0  0  0
 33 28  1  0  0  0
  6  1  1  0  0  0
 17  9  1  0  0  0
 18  3  1  0  0  0
 17 12  1  0  0  0
 11 21  1  0  0  0
M  END
> <minimizedAffinity>
10.30268

> <CNNscore>
0.2756776512

> <CNNaffinity>
6.7241935730

> <CNN_VS>
1.8537099361

> <CNNaffinity_variance>
0.7277501225

$$$$
[H]c1nc(N2C([H])([H])C([H])([H])C(N3C([H])([H])C([H])([H])OC([H])([H])C3([H])[H])(C([H])(C([H])([H])[H])C([H])([H])[H])C([H])([H])C2([H])[H])c([H])c2c1C(=O)c1c(n([H])c3c([H])c(C#N)c([H])c([H])c13)C2(C([H])([H])[H])C([H])([H])[H]


 38 43  0  0  0  0  0  0  0  0999 V2000
  -14.5806   -6.8284    6.5880 C   0  0  0  0  0  0  0  0  0  0  0  0
  -13.8628   -7.8809    6.0831 C   0  0  0  0  0  0  0  0  0  0  0  0
  -12.6543   -8.2900    6.6637 C   0  0  0  0  0  0  0  0  0  0  0  0
  -12.2133   -7.5963    7.7607 C   0  0  0  0  0  0  0  0  0  0  0  0
  -12.9569   -6.5366    8.2515 C   0  0  0  0  0  0  0  0  0  0  0  0
  -14.1090   -6.1777    7.6651 N   0  0  0  0  0  0  0  0  0  0  0  0
  -10.9664   -7.9793    8.4020 C   0  0  0  0  0  0  0  0  0  0  0  0
  -10.5503   -7.3436    9.4169 O   0  0  0  0  0  0  0  0  0  0  0  0
  -10.2104   -9.0943    7.8647 C   0  0  0  0  0  0  0  0  0  0  0  0
  -10.6938   -9.7578    6.7641 C   0  0  0  0  0  0  0  0  0  0  0  0
   -9.8228  -10.7564    6.4448 N   0  0  0  0  0  0  0  0  0  0  0  0
   -8.7896  -10.7474    7.3183 C   0  0  0  0  0  0  0  0  0  0  0  0
   -7.6591  -11.5366    7.4352 C   0  0  0  0  0  0  0  0  0  0  0  0
   -6.7622  -11.2902    8.4438 C   0  0  0  0  0  0  0  0  0  0  0  0
   -7.0225  -10.2529    9.3150 C   0  0  0  0  0  0  0  0  0  0  0  0
   -8.1464   -9.4659    9.2010 C   0  0  0  0  0  0  0  0  0  0  0  0
   -9.0363   -9.7128    8.1977 C   0  0  0  0  0  0  0  0  0  0  0  0
  -11.9403   -9.4221    6.0745 C   0  0  0  0  0  0  0  0  0  0  0  0
  -12.8129  -10.6849    6.0926 C   0  0  0  0  0  0  0  0  0  0  0  0
  -11.5929   -9.1978    4.6038 C   0  0  0  0  0  0  0  0  0  0  0  0
   -9.8988  -11.4371    5.6674 H   0  0  0  0  0  0  0  0  0  0  0  0
  -18.1782   -5.3658    4.4880 C   0  0  0  0  0  0  0  0  0  0  0  0
  -17.0874   -4.5318    5.1936 C   0  0  0  0  0  0  0  0  0  0  0  0
  -16.5132   -5.2023    6.3996 C   0  0  0  0  0  0  0  0  0  0  0  0
  -15.8177   -6.4092    5.9971 N   0  0  0  0  0  0  0  0  0  0  0  0
  -16.4733   -7.1714    4.9414 C   0  0  0  0  0  0  0  0  0  0  0  0
  -17.9314   -6.7675    5.0041 C   0  0  0  0  0  0  0  0  0  0  0  0
  -17.9368   -5.2140    3.1212 N   0  0  0  0  0  0  0  0  0  0  0  0
  -18.0276   -4.0386    2.4225 C   0  0  0  0  0  0  0  0  0  0  0  0
  -18.7717   -4.1808    1.1169 C   0  0  0  0  0  0  0  0  0  0  0  0
  -18.4683   -5.3248    0.4284 O   0  0  0  0  0  0  0  0  0  0  0  0
  -18.6125   -6.4725    1.2139 C   0  0  0  0  0  0  0  0  0  0  0  0
  -17.6104   -6.3409    2.3423 C   0  0  0  0  0  0  0  0  0  0  0  0
  -19.6481   -4.5085    6.3621 C   0  0  0  0  0  0  0  0  0  0  0  0
  -19.5373   -4.8956    4.8859 C   0  0  0  0  0  0  0  0  0  0  0  0
  -20.1239   -3.7462    4.1452 C   0  0  0  0  0  0  0  0  0  0  0  0
   -5.5596  -12.1025    8.5970 C   0  0  0  0  0  0  0  0  0  0  0  0
   -4.5999  -12.7377    8.7047 N   0  0  0  0  0  0  0  0  0  0  0  0
 34 35  1  0  0  0
 35 36  1  0  0  0
 35 22  1  0  0  0
 22 28  1  0  0  0
 28 29  1  0  0  0
 29 30  1  0  0  0
 30 31  1  0  0  0
 31 32  1  0  0  0
 32 33  1  0  0  0
 22 23  1  0  0  0
 23 24  1  0  0  0
 24 25  1  0  0  0
 25  1  1  0  0  0
  1  2  2  0  0  0
  2  3  1  0  0  0
  3  4  2  0  0  0
  4  5  1  0  0  0
  5  6  2  0  0  0
  4  7  1  0  0  0
  7  8  2  0  0  0
  7  9  1  0  0  0
  9 10  2  0  0  0
 10 11  1  0  0  0
 11 12  1  0  0  0
 12 13  2  0  0  0
 13 14  1  0  0  0
 14 37  1  0  0  0
 37 38  3  0  0  0
 14 15  2  0  0  0
 15 16  1  0  0  0
 16 17  2  0  0  0
 10 18  1  0  0  0
 18 19  1  0  0  0
 18 20  1  0  0  0
 25 26  1  0  0  0
 26 27  1  0  0  0
 27 22  1  0  0  0
 33 28  1  0  0  0
  6  1  1  0  0  0
 17  9  1  0  0  0
 18  3  1  0  0  0
 17 12  1  0  0  0
 11 21  1  0  0  0
M  END
> <minimizedAffinity>
49.72499

> <CNNscore>
0.2657426298

> <CNNaffinity>
6.6918096542

> <CNN_VS>
1.7782990932

> <CNNaffinity_variance>
0.4259980321

$$$$
[H]c1nc(N2C([H])([H])C([H])([H])C(N3C([H])([H])C([H])([H])OC([H])([H])C3([H])[H])(C([H])(C([H])([H])[H])C([H])([H])[H])C([H])([H])C2([H])[H])c([H])c2c1C(=O)c1c(n([H])c3c([H])c(C#N)c([H])c([H])c13)C2(C([H])([H])[H])C([H])([H])[H]


 38 43  0  0  0  0  0  0  0  0999 V2000
  -12.4173   -7.0891    6.2265 C   0  0  0  0  0  0  0  0  0  0  0  0
  -11.5872   -7.5151    7.2302 C   0  0  0  0  0  0  0  0  0  0  0  0
  -10.2223   -7.1959    7.2380 C   0  0  0  0  0  0  0  0  0  0  0  0
   -9.7443   -6.4382    6.2005 C   0  0  0  0  0  0  0  0  0  0  0  0
  -10.6035   -6.0202    5.1985 C   0  0  0  0  0  0  0  0  0  0  0  0
  -11.9041   -6.3484    5.2295 N   0  0  0  0  0  0  0  0  0  0  0  0
   -8.3368   -6.0780    6.1600 C   0  0  0  0  0  0  0  0  0  0  0  0
   -7.8854   -5.3777    5.2044 O   0  0  0  0  0  0  0  0  0  0  0  0
   -7.4621   -6.5303    7.2248 C   0  0  0  0  0  0  0  0  0  0  0  0
   -7.9883   -7.2871    8.2425 C   0  0  0  0  0  0  0  0  0  0  0  0
   -6.9876   -7.5913    9.1164 N   0  0  0  0  0  0  0  0  0  0  0  0
   -5.8291   -7.0451    8.6803 C   0  0  0  0  0  0  0  0  0  0  0  0
   -4.5425   -7.0551    9.1892 C   0  0  0  0  0  0  0  0  0  0  0  0
   -3.5426   -6.3997    8.5161 C   0  0  0  0  0  0  0  0  0  0  0  0
   -3.8593   -5.7467    7.3431 C   0  0  0  0  0  0  0  0  0  0  0  0
   -5.1385   -5.7352    6.8343 C   0  0  0  0  0  0  0  0  0  0  0  0
   -6.1306   -6.3874    7.5050 C   0  0  0  0  0  0  0  0  0  0  0  0
   -9.3942   -7.6821    8.3408 C   0  0  0  0  0  0  0  0  0  0  0  0
   -9.9122   -7.1522    9.6852 C   0  0  0  0  0  0  0  0  0  0  0  0
   -9.4242   -9.2038    8.4730 C   0  0  0  0  0  0  0  0  0  0  0  0
   -7.0564   -8.1479    9.9876 H   0  0  0  0  0  0  0  0  0  0  0  0
  -16.7840   -7.7213    6.0706 C   0  0  0  0  0  0  0  0  0  0  0  0
  -15.9960   -6.7717    6.9982 C   0  0  0  0  0  0  0  0  0  0  0  0
  -14.6555   -7.3023    7.3925 C   0  0  0  0  0  0  0  0  0  0  0  0
  -13.8139   -7.4127    6.2170 N   0  0  0  0  0  0  0  0  0  0  0  0
  -14.4957   -7.8813    5.0166 C   0  0  0  0  0  0  0  0  0  0  0  0
  -15.7110   -8.6341    5.5160 C   0  0  0  0  0  0  0  0  0  0  0  0
  -17.3784   -6.8975    5.1127 N   0  0  0  0  0  0  0  0  0  0  0  0
  -17.9455   -7.3216    3.9394 C   0  0  0  0  0  0  0  0  0  0  0  0
  -17.5362   -6.4895    2.7483 C   0  0  0  0  0  0  0  0  0  0  0  0
  -17.4933   -5.1445    3.0009 O   0  0  0  0  0  0  0  0  0  0  0  0
  -16.7104   -4.8377    4.1180 C   0  0  0  0  0  0  0  0  0  0  0  0
  -17.3838   -5.5020    5.3013 C   0  0  0  0  0  0  0  0  0  0  0  0
  -18.3732   -7.7454    8.0408 C   0  0  0  0  0  0  0  0  0  0  0  0
  -17.7840   -8.5067    6.8514 C   0  0  0  0  0  0  0  0  0  0  0  0
  -18.9629   -9.0538    6.1271 C   0  0  0  0  0  0  0  0  0  0  0  0
   -2.1745   -6.3894    9.0238 C   0  0  0  0  0  0  0  0  0  0  0  0
   -1.0919   -6.3638    9.4282 N   0  0  0  0  0  0  0  0  0  0  0  0
 34 35  1  0  0  0
 35 36  1  0  0  0
 35 22  1  0  0  0
 22 28  1  0  0  0
 28 29  1  0  0  0
 29 30  1  0  0  0
 30 31  1  0  0  0
 31 32  1  0  0  0
 32 33  1  0  0  0
 22 23  1  0  0  0
 23 24  1  0  0  0
 24 25  1  0  0  0
 25  1  1  0  0  0
  1  2  2  0  0  0
  2  3  1  0  0  0
  3  4  2  0  0  0
  4  5  1  0  0  0
  5  6  2  0  0  0
  4  7  1  0  0  0
  7  8  2  0  0  0
  7  9  1  0  0  0
  9 10  2  0  0  0
 10 11  1  0  0  0
 11 12  1  0  0  0
 12 13  2  0  0  0
 13 14  1  0  0  0
 14 37  1  0  0  0
 37 38  3  0  0  0
 14 15  2  0  0  0
 15 16  1  0  0  0
 16 17  2  0  0  0
 10 18  1  0  0  0
 18 19  1  0  0  0
 18 20  1  0  0  0
 25 26  1  0  0  0
 26 27  1  0  0  0
 27 22  1  0  0  0
 33 28  1  0  0  0
  6  1  1  0  0  0
 17  9  1  0  0  0
 18  3  1  0  0  0
 17 12  1  0  0  0
 11 21  1  0  0  0
M  END
> <minimizedAffinity>
13.94403

> <CNNscore>
0.2464565486

> <CNNaffinity>
6.8092460632

> <CNN_VS>
1.6781833172

> <CNNaffinity_variance>
0.5354664922

$$$$
[H]c1nc(N2C([H])([H])C([H])([H])C(N3C([H])([H])C([H])([H])OC([H])([H])C3([H])[H])(C([H])(C([H])([H])[H])C([H])([H])[H])C([H])([H])C2([H])[H])c([H])c2c1C(=O)c1c(n([H])c3c([H])c(C#N)c([H])c([H])c13)C2(C([H])([H])[H])C([H])([H])[H]


 38 43  0  0  0  0  0  0  0  0999 V2000
   -8.2130   -6.4186    6.9913 C   0  0  0  0  0  0  0  0  0  0  0  0
   -9.0827   -7.0175    7.8648 C   0  0  0  0  0  0  0  0  0  0  0  0
  -10.4574   -7.0858    7.5994 C   0  0  0  0  0  0  0  0  0  0  0  0
  -10.9038   -6.5295    6.4288 C   0  0  0  0  0  0  0  0  0  0  0  0
  -10.0048   -5.9302    5.5631 C   0  0  0  0  0  0  0  0  0  0  0  0
   -8.6961   -5.8865    5.8558 N   0  0  0  0  0  0  0  0  0  0  0  0
  -12.3199   -6.5734    6.1042 C   0  0  0  0  0  0  0  0  0  0  0  0
  -12.7421   -6.0614    5.0240 O   0  0  0  0  0  0  0  0  0  0  0  0
  -13.2366   -7.2089    7.0311 C   0  0  0  0  0  0  0  0  0  0  0  0
  -12.7410   -7.7519    8.1908 C   0  0  0  0  0  0  0  0  0  0  0  0
  -13.7782   -8.2867    8.8949 N   0  0  0  0  0  0  0  0  0  0  0  0
  -14.9302   -8.0979    8.2108 C   0  0  0  0  0  0  0  0  0  0  0  0
  -16.2429   -8.4424    8.4799 C   0  0  0  0  0  0  0  0  0  0  0  0
  -17.2272   -8.1139    7.5821 C   0  0  0  0  0  0  0  0  0  0  0  0
  -16.8687   -7.4446    6.4305 C   0  0  0  0  0  0  0  0  0  0  0  0
  -15.5633   -7.1005    6.1602 C   0  0  0  0  0  0  0  0  0  0  0  0
  -14.5869   -7.4280    7.0540 C   0  0  0  0  0  0  0  0  0  0  0  0
  -11.3286   -7.7408    8.5744 C   0  0  0  0  0  0  0  0  0  0  0  0
  -10.9120   -9.2038    8.7804 C   0  0  0  0  0  0  0  0  0  0  0  0
  -11.2454   -7.1030    9.9602 C   0  0  0  0  0  0  0  0  0  0  0  0
  -13.7384   -8.7698    9.8106 H   0  0  0  0  0  0  0  0  0  0  0  0
   -3.8501   -6.5580    7.6536 C   0  0  0  0  0  0  0  0  0  0  0  0
   -4.9356   -7.4483    8.2958 C   0  0  0  0  0  0  0  0  0  0  0  0
   -6.2274   -6.7345    8.5317 C   0  0  0  0  0  0  0  0  0  0  0  0
   -6.8063   -6.3489    7.2595 N   0  0  0  0  0  0  0  0  0  0  0  0
   -5.8474   -5.8806    6.2663 C   0  0  0  0  0  0  0  0  0  0  0  0
   -4.6455   -5.4144    7.0607 C   0  0  0  0  0  0  0  0  0  0  0  0
   -3.2219   -7.3647    6.7027 N   0  0  0  0  0  0  0  0  0  0  0  0
   -3.2119   -8.7351    6.7030 C   0  0  0  0  0  0  0  0  0  0  0  0
   -1.8455   -9.3181    6.4354 C   0  0  0  0  0  0  0  0  0  0  0  0
   -1.1457   -8.6630    5.4577 O   0  0  0  0  0  0  0  0  0  0  0  0
   -1.0652   -7.2870    5.6925 C   0  0  0  0  0  0  0  0  0  0  0  0
   -2.4882   -6.7685    5.6591 C   0  0  0  0  0  0  0  0  0  0  0  0
   -3.5893   -5.3036    9.8368 C   0  0  0  0  0  0  0  0  0  0  0  0
   -2.9047   -6.0526    8.6915 C   0  0  0  0  0  0  0  0  0  0  0  0
   -2.0098   -7.0356    9.3598 C   0  0  0  0  0  0  0  0  0  0  0  0
  -18.6220   -8.4616    7.8334 C   0  0  0  0  0  0  0  0  0  0  0  0
  -19.7318   -8.7232    8.0228 N   0  0  0  0  0  0  0  0  0  0  0  0
 34 35  1  0  0  0
 35 36  1  0  0  0
 35 22  1  0  0  0
 22 28  1  0  0  0
 28 29  1  0  0  0
 29 30  1  0  0  0
 30 31  1  0  0  0
 31 32  1  0  0  0
 32 33  1  0  0  0
 22 23  1  0  0  0
 23 24  1  0  0  0
 24 25  1  0  0  0
 25  1  1  0  0  0
  1  2  2  0  0  0
  2  3  1  0  0  0
  3  4  2  0  0  0
  4  5  1  0  0  0
  5  6  2  0  0  0
  4  7  1  0  0  0
  7  8  2  0  0  0
  7  9  1  0  0  0
  9 10  2  0  0  0
 10 11  1  0  0  0
 11 12  1  0  0  0
 12 13  2  0  0  0
 13 14  1  0  0  0
 14 37  1  0  0  0
 37 38  3  0  0  0
 14 15  2  0  0  0
 15 16  1  0  0  0
 16 17  2  0  0  0
 10 18  1  0  0  0
 18 19  1  0  0  0
 18 20  1  0  0  0
 25 26  1  0  0  0
 26 27  1  0  0  0
 27 22  1  0  0  0
 33 28  1  0  0  0
  6  1  1  0  0  0
 17  9  1  0  0  0
 18  3  1  0  0  0
 17 12  1  0  0  0
 11 21  1  0  0  0
M  END
> <minimizedAffinity>
8.17461

> <CNNscore>
0.2408193648

> <CNNaffinity>
6.6271820068

> <CNN_VS>
1.5959537029

> <CNNaffinity_variance>
0.4313762784

$$$$
[H]c1nc(N2C([H])([H])C([H])([H])C(N3C([H])([H])C([H])([H])OC([H])([H])C3([H])[H])(C([H])(C([H])([H])[H])C([H])([H])[H])C([H])([H])C2([H])[H])c([H])c2c1C(=O)c1c(n([H])c3c([H])c(C#N)c([H])c([H])c13)C2(C([H])([H])[H])C([H])([H])[H]


 38 43  0  0  0  0  0  0  0  0999 V2000
  -12.7291   -8.0079    6.6462 C   0  0  0  0  0  0  0  0  0  0  0  0
  -11.7295   -7.0746    6.7338 C   0  0  0  0  0  0  0  0  0  0  0  0
  -10.3943   -7.4476    6.9413 C   0  0  0  0  0  0  0  0  0  0  0  0
  -10.1220   -8.7863    7.0541 C   0  0  0  0  0  0  0  0  0  0  0  0
  -11.1498   -9.7094    6.9622 C   0  0  0  0  0  0  0  0  0  0  0  0
  -12.4149   -9.3093    6.7630 N   0  0  0  0  0  0  0  0  0  0  0  0
   -8.7540   -9.2277    7.2693 C   0  0  0  0  0  0  0  0  0  0  0  0
   -8.4925  -10.4638    7.3751 O   0  0  0  0  0  0  0  0  0  0  0  0
   -7.6992   -8.2366    7.3605 C   0  0  0  0  0  0  0  0  0  0  0  0
   -8.0222   -6.9074    7.2411 C   0  0  0  0  0  0  0  0  0  0  0  0
   -6.8801   -6.1731    7.3590 N   0  0  0  0  0  0  0  0  0  0  0  0
   -5.8299   -7.0040    7.5521 C   0  0  0  0  0  0  0  0  0  0  0  0
   -4.4770   -6.7734    7.7279 C   0  0  0  0  0  0  0  0  0  0  0  0
   -3.6263   -7.8350    7.9061 C   0  0  0  0  0  0  0  0  0  0  0  0
   -4.1561   -9.1086    7.9033 C   0  0  0  0  0  0  0  0  0  0  0  0
   -5.5018   -9.3411    7.7287 C   0  0  0  0  0  0  0  0  0  0  0  0
   -6.3453   -8.2843    7.5519 C   0  0  0  0  0  0  0  0  0  0  0  0
   -9.3775   -6.3997    7.0233 C   0  0  0  0  0  0  0  0  0  0  0  0
   -9.3409   -5.5743    5.7296 C   0  0  0  0  0  0  0  0  0  0  0  0
   -9.6617   -5.3894    8.1336 C   0  0  0  0  0  0  0  0  0  0  0  0
   -6.7836   -5.1425    7.3144 H   0  0  0  0  0  0  0  0  0  0  0  0
  -17.0080   -7.2164    5.9001 C   0  0  0  0  0  0  0  0  0  0  0  0
  -15.9338   -7.6572    4.8827 C   0  0  0  0  0  0  0  0  0  0  0  0
  -14.5772   -7.1002    5.1713 C   0  0  0  0  0  0  0  0  0  0  0  0
  -14.0952   -7.6293    6.4323 N   0  0  0  0  0  0  0  0  0  0  0  0
  -15.1076   -7.7477    7.4745 C   0  0  0  0  0  0  0  0  0  0  0  0
  -16.1918   -6.7624    7.0916 C   0  0  0  0  0  0  0  0  0  0  0  0
  -17.7804   -8.3542    6.1421 N   0  0  0  0  0  0  0  0  0  0  0  0
  -18.3135   -9.1735    5.1816 C   0  0  0  0  0  0  0  0  0  0  0  0
  -19.7572   -9.5298    5.4410 C   0  0  0  0  0  0  0  0  0  0  0  0
  -20.0331   -9.8021    6.7542 O   0  0  0  0  0  0  0  0  0  0  0  0
  -19.6084   -8.7810    7.6098 C   0  0  0  0  0  0  0  0  0  0  0  0
  -18.1021   -8.7086    7.4664 C   0  0  0  0  0  0  0  0  0  0  0  0
  -17.0303   -4.7722    5.2417 C   0  0  0  0  0  0  0  0  0  0  0  0
  -17.8116   -6.0829    5.3562 C   0  0  0  0  0  0  0  0  0  0  0  0
  -18.4581   -6.2586    4.0277 C   0  0  0  0  0  0  0  0  0  0  0  0
   -2.1939   -7.6287    8.0942 C   0  0  0  0  0  0  0  0  0  0  0  0
   -1.0603   -7.4507    8.2334 N   0  0  0  0  0  0  0  0  0  0  0  0
 34 35  1  0  0  0
 35 36  1  0  0  0
 35 22  1  0  0  0
 22 28  1  0  0  0
 28 29  1  0  0  0
 29 30  1  0  0  0
 30 31  1  0  0  0
 31 32  1  0  0  0
 32 33  1  0  0  0
 22 23  1  0  0  0
 23 24  1  0  0  0
 24 25  1  0  0  0
 25  1  1  0  0  0
  1  2  2  0  0  0
  2  3  1  0  0  0
  3  4  2  0  0  0
  4  5  1  0  0  0
  5  6  2  0  0  0
  4  7  1  0  0  0
  7  8  2  0  0  0
  7  9  1  0  0  0
  9 10  2  0  0  0
 10 11  1  0  0  0
 11 12  1  0  0  0
 12 13  2  0  0  0
 13 14  1  0  0  0
 14 37  1  0  0  0
 37 38  3  0  0  0
 14 15  2  0  0  0
 15 16  1  0  0  0
 16 17  2  0  0  0
 10 18  1  0  0  0
 18 19  1  0  0  0
 18 20  1  0  0  0
 25 26  1  0  0  0
 26 27  1  0  0  0
 27 22  1  0  0  0
 33 28  1  0  0  0
  6  1  1  0  0  0
 17  9  1  0  0  0
 18  3  1  0  0  0
 17 12  1  0  0  0
 11 21  1  0  0  0
M  END
> <minimizedAffinity>
3.91916

> <CNNscore>
0.2193663269

> <CNNaffinity>
7.0628304482

> <CNN_VS>
1.5493471622

> <CNNaffinity_variance>
0.2039875984

$$$$
[H]c1nc(N2C([H])([H])C([H])([H])C(N3C([H])([H])C([H])([H])OC([H])([H])C3([H])[H])(C([H])(C([H])([H])[H])C([H])([H])[H])C([H])([H])C2([H])[H])c([H])c2c1C(=O)c1c(n([H])c3c([H])c(C#N)c([H])c([H])c13)C2(C([H])([H])[H])C([H])([H])[H]


 38 43  0  0  0  0  0  0  0  0999 V2000
   -6.2176   -7.7179    7.4251 C   0  0  0  0  0  0  0  0  0  0  0  0
   -7.2191   -8.6122    7.1509 C   0  0  0  0  0  0  0  0  0  0  0  0
   -8.5654   -8.2997    7.3850 C   0  0  0  0  0  0  0  0  0  0  0  0
   -8.8466   -7.0611    7.9006 C   0  0  0  0  0  0  0  0  0  0  0  0
   -7.8166   -6.1757    8.1691 C   0  0  0  0  0  0  0  0  0  0  0  0
   -6.5408   -6.5152    7.9301 N   0  0  0  0  0  0  0  0  0  0  0  0
  -10.2262   -6.6856    8.1618 C   0  0  0  0  0  0  0  0  0  0  0  0
  -10.4960   -5.5423    8.6388 O   0  0  0  0  0  0  0  0  0  0  0  0
  -11.2830   -7.6348    7.8694 C   0  0  0  0  0  0  0  0  0  0  0  0
  -10.9508   -8.8632    7.3535 C   0  0  0  0  0  0  0  0  0  0  0  0
  -12.0968   -9.5757    7.1628 N   0  0  0  0  0  0  0  0  0  0  0  0
  -13.1586   -8.8297    7.5459 C   0  0  0  0  0  0  0  0  0  0  0  0
  -14.5195   -9.0792    7.5572 C   0  0  0  0  0  0  0  0  0  0  0  0
  -15.3816   -8.1134    8.0116 C   0  0  0  0  0  0  0  0  0  0  0  0
  -14.8548   -6.9147    8.4457 C   0  0  0  0  0  0  0  0  0  0  0  0
  -13.5011   -6.6637    8.4357 C   0  0  0  0  0  0  0  0  0  0  0  0
  -12.6464   -7.6252    7.9837 C   0  0  0  0  0  0  0  0  0  0  0  0
   -9.5835   -9.3005    7.0681 C   0  0  0  0  0  0  0  0  0  0  0  0
   -9.5369   -9.6721    5.5795 C   0  0  0  0  0  0  0  0  0  0  0  0
   -9.3684  -10.6159    7.8149 C   0  0  0  0  0  0  0  0  0  0  0  0
  -12.1886  -10.5370    6.7873 H   0  0  0  0  0  0  0  0  0  0  0  0
   -1.9743   -8.4063    6.4185 C   0  0  0  0  0  0  0  0  0  0  0  0
   -3.2097   -8.6246    5.5188 C   0  0  0  0  0  0  0  0  0  0  0  0
   -4.4199   -9.0776    6.2699 C   0  0  0  0  0  0  0  0  0  0  0  0
   -4.8400   -8.0343    7.1849 N   0  0  0  0  0  0  0  0  0  0  0  0
   -3.7522   -7.3264    7.8488 C   0  0  0  0  0  0  0  0  0  0  0  0
   -2.5724   -8.2746    7.8031 C   0  0  0  0  0  0  0  0  0  0  0  0
   -1.3725   -7.2379    5.9472 N   0  0  0  0  0  0  0  0  0  0  0  0
   -1.0702   -6.1367    6.7049 C   0  0  0  0  0  0  0  0  0  0  0  0
   -1.4739   -4.8378    6.0505 C   0  0  0  0  0  0  0  0  0  0  0  0
   -1.2183   -4.7922    4.7061 O   0  0  0  0  0  0  0  0  0  0  0  0
   -1.7608   -5.8856    4.0241 C   0  0  0  0  0  0  0  0  0  0  0  0
   -1.0691   -7.1144    4.5777 C   0  0  0  0  0  0  0  0  0  0  0  0
   -1.0952  -10.4590    7.6108 C   0  0  0  0  0  0  0  0  0  0  0  0
   -1.0636   -9.5866    6.3542 C   0  0  0  0  0  0  0  0  0  0  0  0
   -1.2333  -10.5395    5.2241 C   0  0  0  0  0  0  0  0  0  0  0  0
  -16.8226   -8.3422    8.0374 C   0  0  0  0  0  0  0  0  0  0  0  0
  -17.9661   -8.5106    8.0462 N   0  0  0  0  0  0  0  0  0  0  0  0
 34 35  1  0  0  0
 35 36  1  0  0  0
 35 22  1  0  0  0
 22 28  1  0  0  0
 28 29  1  0  0  0
 29 30  1  0  0  0
 30 31  1  0  0  0
 31 32  1  0  0  0
 32 33  1  0  0  0
 22 23  1  0  0  0
 23 24  1  0  0  0
 24 25  1  0  0  0
 25  1  1  0  0  0
  1  2  2  0  0  0
  2  3  1  0  0  0
  3  4  2  0  0  0
  4  5  1  0  0  0
  5  6  2  0  0  0
  4  7  1  0  0  0
  7  8  2  0  0  0
  7  9  1  0  0  0
  9 10  2  0  0  0
 10 11  1  0  0  0
 11 12  1  0  0  0
 12 13  2  0  0  0
 13 14  1  0  0  0
 14 37  1  0  0  0
 37 38  3  0  0  0
 14 15  2  0  0  0
 15 16  1  0  0  0
 16 17  2  0  0  0
 10 18  1  0  0  0
 18 19  1  0  0  0
 18 20  1  0  0  0
 25 26  1  0  0  0
 26 27  1  0  0  0
 27 22  1  0  0  0
 33 28  1  0  0  0
  6  1  1  0  0  0
 17  9  1  0  0  0
 18  3  1  0  0  0
 17 12  1  0  0  0
 11 21  1  0  0  0
M  END
> <minimizedAffinity>
-1.68712

> <CNNscore>
0.2150453776

> <CNNaffinity>
6.7076811790

> <CNN_VS>
1.4424558878

> <CNNaffinity_variance>
0.1929149628

$$$$
[H]OC(=O)c1c([H])c([H])nc([H])c1N([H])C([H])([H])C1([H])c2c([H])c([H])c(Sc3sc([H])c([H])c3[H])c([H])c2OC([H])([H])C1([H])[H]


 29 32  0  0  0  0  0  0  0  0999 V2000
  -13.5140   -7.7279    8.4700 C   0  0  0  0  0  0  0  0  0  0  0  0
  -13.4497   -7.0907    9.8490 C   0  0  0  0  0  0  0  0  0  0  0  0
  -12.5124   -5.9229    9.8326 C   0  0  0  0  0  0  0  0  0  0  0  0
  -11.2807   -6.2650    9.2722 O   0  0  0  0  0  0  0  0  0  0  0  0
  -11.0717   -7.4466    8.5610 C   0  0  0  0  0  0  0  0  0  0  0  0
   -9.7682   -7.8682    8.2689 C   0  0  0  0  0  0  0  0  0  0  0  0
   -9.5320   -9.0341    7.5661 C   0  0  0  0  0  0  0  0  0  0  0  0
  -10.6296   -9.7666    7.1635 C   0  0  0  0  0  0  0  0  0  0  0  0
  -11.9343   -9.3512    7.4520 C   0  0  0  0  0  0  0  0  0  0  0  0
  -12.1350   -8.1957    8.1474 C   0  0  0  0  0  0  0  0  0  0  0  0
  -13.9704   -6.6691    7.5038 C   0  0  0  0  0  0  0  0  0  0  0  0
  -14.6442   -7.2171    6.3292 N   0  0  0  0  0  0  0  0  0  0  0  0
  -14.4901   -8.2143    6.0966 H   0  0  0  0  0  0  0  0  0  0  0  0
  -16.7512   -6.7935    5.1288 C   0  0  0  0  0  0  0  0  0  0  0  0
  -17.4406   -5.9443    4.2335 C   0  0  0  0  0  0  0  0  0  0  0  0
  -16.8809   -4.8059    3.7343 C   0  0  0  0  0  0  0  0  0  0  0  0
  -15.6436   -4.4800    4.0998 N   0  0  0  0  0  0  0  0  0  0  0  0
  -14.9449   -5.2476    4.9435 C   0  0  0  0  0  0  0  0  0  0  0  0
  -15.4748   -6.4278    5.4847 C   0  0  0  0  0  0  0  0  0  0  0  0
  -18.0297   -8.8036    4.9987 O   0  0  0  0  0  0  0  0  0  0  0  0
  -17.4168   -7.9575    5.6422 C   0  0  0  0  0  0  0  0  0  0  0  0
  -17.3801   -8.1801    7.0352 O   0  0  0  0  0  0  0  0  0  0  0  0
  -18.2047   -8.1098    7.6076 H   0  0  0  0  0  0  0  0  0  0  0  0
   -7.8548   -9.4978    7.2372 S   0  0  0  0  0  0  0  0  0  0  0  0
   -6.8231   -8.0442    6.9500 C   0  0  0  0  0  0  0  0  0  0  0  0
   -6.6331   -7.3836    5.7618 C   0  0  0  0  0  0  0  0  0  0  0  0
   -5.8135   -6.3153    5.7833 C   0  0  0  0  0  0  0  0  0  0  0  0
   -5.2446   -5.9851    6.9864 C   0  0  0  0  0  0  0  0  0  0  0  0
   -5.8648   -7.1647    8.0427 S   0  0  0  0  0  0  0  0  0  0  0  0
 20 21  2  0  0  0
 21 22  1  0  0  0
 21 14  1  0  0  0
 14 15  2  0  0  0
 15 16  1  0  0  0
 16 17  2  0  0  0
 17 18  1  0  0  0
 18 19  2  0  0  0
 19 12  1  0  0  0
 12 11  1  0  0  0
 11  1  1  0  0  0
  1  2  1  0  0  0
  2  3  1  0  0  0
  3  4  1  0  0  0
  4  5  1  0  0  0
  5  6  2  0  0  0
  6  7  1  0  0  0
  7 24  1  0  0  0
 24 25  1  0  0  0
 25 26  2  0  0  0
 26 27  1  0  0  0
 27 28  2  0  0  0
 28 29  1  0  0  0
  7  8  2  0  0  0
  8  9  1  0  0  0
  9 10  2  0  0  0
 19 14  1  0  0  0
 10  1  1  0  0  0
 10  5  1  0  0  0
 29 25  1  0  0  0
 22 23  1  0  0  0
 12 13  1  0  0  0
M  END
> <minimizedAffinity>
-9.42741

> <CNNscore>
0.6300406456

> <CNNaffinity>
7.4368758202

> <CNN_VS>
4.6855340004

> <CNNaffinity_variance>
0.2200477123

$$$$
[H]OC(=O)c1c([H])c([H])nc([H])c1N([H])C([H])([H])C1([H])c2c([H])c([H])c(Sc3sc([H])c([H])c3[H])c([H])c2OC([H])([H])C1([H])[H]


 29 32  0  0  0  0  0  0  0  0999 V2000
   -9.2742   -7.8730    8.0400 C   0  0  0  0  0  0  0  0  0  0  0  0
   -7.8330   -7.4890    8.3353 C   0  0  0  0  0  0  0  0  0  0  0  0
   -7.0953   -7.2382    7.0565 C   0  0  0  0  0  0  0  0  0  0  0  0
   -7.2627   -8.2912    6.1557 O   0  0  0  0  0  0  0  0  0  0  0  0
   -8.2249   -9.2873    6.3220 C   0  0  0  0  0  0  0  0  0  0  0  0
   -8.1637  -10.4570    5.5537 C   0  0  0  0  0  0  0  0  0  0  0  0
   -9.1033  -11.4596    5.6975 C   0  0  0  0  0  0  0  0  0  0  0  0
  -10.1040  -11.2639    6.6268 C   0  0  0  0  0  0  0  0  0  0  0  0
  -10.1711  -10.0978    7.3976 C   0  0  0  0  0  0  0  0  0  0  0  0
   -9.2289   -9.1264    7.2326 C   0  0  0  0  0  0  0  0  0  0  0  0
   -9.8919   -6.7445    7.2604 C   0  0  0  0  0  0  0  0  0  0  0  0
  -10.8553   -5.9699    8.0389 N   0  0  0  0  0  0  0  0  0  0  0  0
  -10.7763   -4.9375    8.0288 H   0  0  0  0  0  0  0  0  0  0  0  0
  -12.9295   -7.2723    8.2858 C   0  0  0  0  0  0  0  0  0  0  0  0
  -13.8992   -7.7746    9.1833 C   0  0  0  0  0  0  0  0  0  0  0  0
  -13.8060   -7.5923   10.5311 C   0  0  0  0  0  0  0  0  0  0  0  0
  -12.7686   -6.9188   11.0220 N   0  0  0  0  0  0  0  0  0  0  0  0
  -11.8222   -6.4208   10.2186 C   0  0  0  0  0  0  0  0  0  0  0  0
  -11.8716   -6.5808    8.8263 C   0  0  0  0  0  0  0  0  0  0  0  0
  -12.8781   -8.5979    6.3028 O   0  0  0  0  0  0  0  0  0  0  0  0
  -13.0739   -7.5337    6.8814 C   0  0  0  0  0  0  0  0  0  0  0  0
  -13.4841   -6.4703    6.0492 O   0  0  0  0  0  0  0  0  0  0  0  0
  -12.8683   -6.0594    5.3677 H   0  0  0  0  0  0  0  0  0  0  0  0
   -8.9557  -12.9075    4.6886 S   0  0  0  0  0  0  0  0  0  0  0  0
   -8.3971  -12.4856    3.0242 C   0  0  0  0  0  0  0  0  0  0  0  0
   -8.2424  -11.2284    2.4951 C   0  0  0  0  0  0  0  0  0  0  0  0
   -7.8101  -11.1526    1.2220 C   0  0  0  0  0  0  0  0  0  0  0  0
   -7.5644  -12.3342    0.5714 C   0  0  0  0  0  0  0  0  0  0  0  0
   -7.9405  -13.5060    1.7451 S   0  0  0  0  0  0  0  0  0  0  0  0
 20 21  2  0  0  0
 21 22  1  0  0  0
 21 14  1  0  0  0
 14 15  2  0  0  0
 15 16  1  0  0  0
 16 17  2  0  0  0
 17 18  1  0  0  0
 18 19  2  0  0  0
 19 12  1  0  0  0
 12 11  1  0  0  0
 11  1  1  0  0  0
  1  2  1  0  0  0
  2  3  1  0  0  0
  3  4  1  0  0  0
  4  5  1  0  0  0
  5  6  2  0  0  0
  6  7  1  0  0  0
  7 24  1  0  0  0
 24 25  1  0  0  0
 25 26  2  0  0  0
 26 27  1  0  0  0
 27 28  2  0  0  0
 28 29  1  0  0  0
  7  8  2  0  0  0
  8  9  1  0  0  0
  9 10  2  0  0  0
 19 14  1  0  0  0
 10  1  1  0  0  0
 10  5  1  0  0  0
 29 25  1  0  0  0
 22 23  1  0  0  0
 12 13  1  0  0  0
M  END
> <minimizedAffinity>
6.07131

> <CNNscore>
0.4710332155

> <CNNaffinity>
6.1924476624

> <CNN_VS>
2.9168484211

> <CNNaffinity_variance>
0.3266332150

$$$$
[H]OC(=O)c1c([H])c([H])nc([H])c1N([H])C([H])([H])C1([H])c2c([H])c([H])c(Sc3sc([H])c([H])c3[H])c([H])c2OC([H])([H])C1([H])[H]


 29 32  0  0  0  0  0  0  0  0999 V2000
  -13.1889   -7.5188    8.7784 C   0  0  0  0  0  0  0  0  0  0  0  0
  -13.0288   -6.8687   10.1436 C   0  0  0  0  0  0  0  0  0  0  0  0
  -12.1203   -5.6823   10.0448 C   0  0  0  0  0  0  0  0  0  0  0  0
  -10.9301   -6.0041    9.3906 O   0  0  0  0  0  0  0  0  0  0  0  0
  -10.7534   -7.1872    8.6732 C   0  0  0  0  0  0  0  0  0  0  0  0
   -9.4687   -7.5848    8.2814 C   0  0  0  0  0  0  0  0  0  0  0  0
   -9.2646   -8.7515    7.5701 C   0  0  0  0  0  0  0  0  0  0  0  0
  -10.3751   -9.5096    7.2609 C   0  0  0  0  0  0  0  0  0  0  0  0
  -11.6613   -9.1182    7.6493 C   0  0  0  0  0  0  0  0  0  0  0  0
  -11.8303   -7.9613    8.3505 C   0  0  0  0  0  0  0  0  0  0  0  0
  -13.7425   -6.4777    7.8443 C   0  0  0  0  0  0  0  0  0  0  0  0
  -13.7183   -6.8931    6.4439 N   0  0  0  0  0  0  0  0  0  0  0  0
  -12.9030   -7.4358    6.1079 H   0  0  0  0  0  0  0  0  0  0  0  0
  -15.2890   -7.4527    4.6331 C   0  0  0  0  0  0  0  0  0  0  0  0
  -16.2689   -6.9657    3.7382 C   0  0  0  0  0  0  0  0  0  0  0  0
  -16.6795   -5.6658    3.7467 C   0  0  0  0  0  0  0  0  0  0  0  0
  -16.1416   -4.8239    4.6257 N   0  0  0  0  0  0  0  0  0  0  0  0
  -15.2099   -5.2306    5.4949 C   0  0  0  0  0  0  0  0  0  0  0  0
  -14.7536   -6.5562    5.5270 C   0  0  0  0  0  0  0  0  0  0  0  0
  -13.9428   -9.3680    5.0925 O   0  0  0  0  0  0  0  0  0  0  0  0
  -14.9315   -8.8426    4.5906 C   0  0  0  0  0  0  0  0  0  0  0  0
  -15.7912   -9.7262    3.9038 O   0  0  0  0  0  0  0  0  0  0  0  0
  -15.5173  -10.1770    3.0469 H   0  0  0  0  0  0  0  0  0  0  0  0
   -7.6095   -9.1839    7.1122 S   0  0  0  0  0  0  0  0  0  0  0  0
   -6.5014   -7.7667    7.2662 C   0  0  0  0  0  0  0  0  0  0  0  0
   -5.9389   -7.2750    8.4177 C   0  0  0  0  0  0  0  0  0  0  0  0
   -5.1376   -6.1999    8.2930 C   0  0  0  0  0  0  0  0  0  0  0  0
   -4.9567   -5.6952    7.0311 C   0  0  0  0  0  0  0  0  0  0  0  0
   -5.9018   -6.7266    6.0643 S   0  0  0  0  0  0  0  0  0  0  0  0
 20 21  2  0  0  0
 21 22  1  0  0  0
 21 14  1  0  0  0
 14 15  2  0  0  0
 15 16  1  0  0  0
 16 17  2  0  0  0
 17 18  1  0  0  0
 18 19  2  0  0  0
 19 12  1  0  0  0
 12 11  1  0  0  0
 11  1  1  0  0  0
  1  2  1  0  0  0
  2  3  1  0  0  0
  3  4  1  0  0  0
  4  5  1  0  0  0
  5  6  2  0  0  0
  6  7  1  0  0  0
  7 24  1  0  0  0
 24 25  1  0  0  0
 25 26  2  0  0  0
 26 27  1  0  0  0
 27 28  2  0  0  0
 28 29  1  0  0  0
  7  8  2  0  0  0
  8  9  1  0  0  0
  9 10  2  0  0  0
 19 14  1  0  0  0
 10  1  1  0  0  0
 10  5  1  0  0  0
 29 25  1  0  0  0
 22 23  1  0  0  0
 12 13  1  0  0  0
M  END
> <minimizedAffinity>
-8.84628

> <CNNscore>
0.4522434473

> <CNNaffinity>
7.1145830154

> <CNN_VS>
3.2175235748

> <CNNaffinity_variance>
0.0909289867

$$$$
[H]OC(=O)c1c([H])c([H])nc([H])c1N([H])C([H])([H])C1([H])c2c([H])c([H])c(Sc3sc([H])c([H])c3[H])c([H])c2OC([H])([H])C1([H])[H]


 29 32  0  0  0  0  0  0  0  0999 V2000
   -8.2733   -7.5094    8.4301 C   0  0  0  0  0  0  0  0  0  0  0  0
   -7.6370   -8.8765    8.6255 C   0  0  0  0  0  0  0  0  0  0  0  0
   -7.8744   -9.7313    7.4191 C   0  0  0  0  0  0  0  0  0  0  0  0
   -9.2230   -9.7436    7.0597 O   0  0  0  0  0  0  0  0  0  0  0  0
  -10.1556   -8.8451    7.5783 C   0  0  0  0  0  0  0  0  0  0  0  0
  -11.5258   -9.0779    7.4043 C   0  0  0  0  0  0  0  0  0  0  0  0
  -12.4712   -8.2049    7.9071 C   0  0  0  0  0  0  0  0  0  0  0  0
  -12.0133   -7.0953    8.5871 C   0  0  0  0  0  0  0  0  0  0  0  0
  -10.6459   -6.8567    8.7646 C   0  0  0  0  0  0  0  0  0  0  0  0
   -9.7372   -7.7370    8.2564 C   0  0  0  0  0  0  0  0  0  0  0  0
   -7.6661   -6.9006    7.1958 C   0  0  0  0  0  0  0  0  0  0  0  0
   -6.4571   -6.1287    7.4728 N   0  0  0  0  0  0  0  0  0  0  0  0
   -6.5561   -5.1169    7.6693 H   0  0  0  0  0  0  0  0  0  0  0  0
   -4.1300   -6.2804    8.2607 C   0  0  0  0  0  0  0  0  0  0  0  0
   -2.8732   -6.9053    8.0927 C   0  0  0  0  0  0  0  0  0  0  0  0
   -2.6691   -7.8930    7.1756 C   0  0  0  0  0  0  0  0  0  0  0  0
   -3.6851   -8.2845    6.4104 N   0  0  0  0  0  0  0  0  0  0  0  0
   -4.8954   -7.7271    6.5263 C   0  0  0  0  0  0  0  0  0  0  0  0
   -5.1572   -6.7082    7.4536 C   0  0  0  0  0  0  0  0  0  0  0  0
   -3.6920   -4.1975    9.3384 O   0  0  0  0  0  0  0  0  0  0  0  0
   -4.2806   -5.2721    9.2716 C   0  0  0  0  0  0  0  0  0  0  0  0
   -5.1981   -5.5142   10.3161 O   0  0  0  0  0  0  0  0  0  0  0  0
   -4.8977   -5.6655   11.2644 H   0  0  0  0  0  0  0  0  0  0  0  0
  -14.1840   -8.5706    7.6447 S   0  0  0  0  0  0  0  0  0  0  0  0
  -14.8484   -7.6149    6.2644 C   0  0  0  0  0  0  0  0  0  0  0  0
  -14.5946   -6.2987    5.9687 C   0  0  0  0  0  0  0  0  0  0  0  0
  -15.2051   -5.7902    4.8814 C   0  0  0  0  0  0  0  0  0  0  0  0
  -16.0225   -6.6305    4.1703 C   0  0  0  0  0  0  0  0  0  0  0  0
  -15.9160   -8.0926    5.0323 S   0  0  0  0  0  0  0  0  0  0  0  0
 20 21  2  0  0  0
 21 22  1  0  0  0
 21 14  1  0  0  0
 14 15  2  0  0  0
 15 16  1  0  0  0
 16 17  2  0  0  0
 17 18  1  0  0  0
 18 19  2  0  0  0
 19 12  1  0  0  0
 12 11  1  0  0  0
 11  1  1  0  0  0
  1  2  1  0  0  0
  2  3  1  0  0  0
  3  4  1  0  0  0
  4  5  1  0  0  0
  5  6  2  0  0  0
  6  7  1  0  0  0
  7 24  1  0  0  0
 24 25  1  0  0  0
 25 26  2  0  0  0
 26 27  1  0  0  0
 27 28  2  0  0  0
 28 29  1  0  0  0
  7  8  2  0  0  0
  8  9  1  0  0  0
  9 10  2  0  0  0
 19 14  1  0  0  0
 10  1  1  0  0  0
 10  5  1  0  0  0
 29 25  1  0  0  0
 22 23  1  0  0  0
 12 13  1  0  0  0
M  END
> <minimizedAffinity>
-8.30774

> <CNNscore>
0.4393964708

> <CNNaffinity>
6.5126190186

> <CNN_VS>
2.8616218567

> <CNNaffinity_variance>
0.3847123384

$$$$
[H]OC(=O)c1c([H])c([H])nc([H])c1N([H])C([H])([H])C1([H])c2c([H])c([H])c(Sc3sc([H])c([H])c3[H])c([H])c2OC([H])([H])C1([H])[H]


 29 32  0  0  0  0  0  0  0  0999 V2000
  -15.8992   -3.9986    4.5026 C   0  0  0  0  0  0  0  0  0  0  0  0
  -14.6436   -3.3491    3.9426 C   0  0  0  0  0  0  0  0  0  0  0  0
  -13.8222   -4.3647    3.2102 C   0  0  0  0  0  0  0  0  0  0  0  0
  -13.6121   -5.5063    3.9854 O   0  0  0  0  0  0  0  0  0  0  0  0
  -14.3232   -5.7712    5.1558 C   0  0  0  0  0  0  0  0  0  0  0  0
  -13.8830   -6.7707    6.0330 C   0  0  0  0  0  0  0  0  0  0  0  0
  -14.5678   -7.0542    7.1990 C   0  0  0  0  0  0  0  0  0  0  0  0
  -15.7016   -6.3147    7.4657 C   0  0  0  0  0  0  0  0  0  0  0  0
  -16.1467   -5.3148    6.5938 C   0  0  0  0  0  0  0  0  0  0  0  0
  -15.4493   -5.0585    5.4507 C   0  0  0  0  0  0  0  0  0  0  0  0
  -16.6574   -4.5888    3.3451 C   0  0  0  0  0  0  0  0  0  0  0  0
  -16.1290   -5.8802    2.9125 N   0  0  0  0  0  0  0  0  0  0  0  0
  -15.3525   -5.8873    2.2274 H   0  0  0  0  0  0  0  0  0  0  0  0
  -17.9550   -7.2682    3.8062 C   0  0  0  0  0  0  0  0  0  0  0  0
  -18.3294   -8.5402    4.2962 C   0  0  0  0  0  0  0  0  0  0  0  0
  -17.4567   -9.5863    4.3449 C   0  0  0  0  0  0  0  0  0  0  0  0
  -16.2091   -9.4077    3.9178 N   0  0  0  0  0  0  0  0  0  0  0  0
  -15.8006   -8.2250    3.4451 C   0  0  0  0  0  0  0  0  0  0  0  0
  -16.6587   -7.1181    3.3741 C   0  0  0  0  0  0  0  0  0  0  0  0
  -19.5477   -5.8322    2.7607 O   0  0  0  0  0  0  0  0  0  0  0  0
  -18.9373   -6.2226    3.7510 C   0  0  0  0  0  0  0  0  0  0  0  0
  -19.2572   -5.5513    4.9504 O   0  0  0  0  0  0  0  0  0  0  0  0
  -19.0136   -4.5869    5.1021 H   0  0  0  0  0  0  0  0  0  0  0  0
  -13.9462   -8.3329    8.2548 S   0  0  0  0  0  0  0  0  0  0  0  0
  -12.3020   -8.8652    7.7319 C   0  0  0  0  0  0  0  0  0  0  0  0
  -11.7440  -10.1094    7.8895 C   0  0  0  0  0  0  0  0  0  0  0  0
  -10.4941  -10.2802    7.4184 C   0  0  0  0  0  0  0  0  0  0  0  0
   -9.8937   -9.1993    6.8259 C   0  0  0  0  0  0  0  0  0  0  0  0
  -11.0807   -7.9871    6.9426 S   0  0  0  0  0  0  0  0  0  0  0  0
 20 21  2  0  0  0
 21 22  1  0  0  0
 21 14  1  0  0  0
 14 15  2  0  0  0
 15 16  1  0  0  0
 16 17  2  0  0  0
 17 18  1  0  0  0
 18 19  2  0  0  0
 19 12  1  0  0  0
 12 11  1  0  0  0
 11  1  1  0  0  0
  1  2  1  0  0  0
  2  3  1  0  0  0
  3  4  1  0  0  0
  4  5  1  0  0  0
  5  6  2  0  0  0
  6  7  1  0  0  0
  7 24  1  0  0  0
 24 25  1  0  0  0
 25 26  2  0  0  0
 26 27  1  0  0  0
 27 28  2  0  0  0
 28 29  1  0  0  0
  7  8  2  0  0  0
  8  9  1  0  0  0
  9 10  2  0  0  0
 19 14  1  0  0  0
 10  1  1  0  0  0
 10  5  1  0  0  0
 29 25  1  0  0  0
 22 23  1  0  0  0
 12 13  1  0  0  0
M  END
> <minimizedAffinity>
8.64652

> <CNNscore>
0.4080908895

> <CNNaffinity>
6.9412536621

> <CNN_VS>
2.8326623440

> <CNNaffinity_variance>
1.1654968262

$$$$
[H]OC(=O)c1c([H])c([H])nc([H])c1N([H])C([H])([H])C1([H])c2c([H])c([H])c(Sc3sc([H])c([H])c3[H])c([H])c2OC([H])([H])C1([H])[H]


 29 32  0  0  0  0  0  0  0  0999 V2000
   -7.9471   -7.4276    8.1353 C   0  0  0  0  0  0  0  0  0  0  0  0
   -7.3675   -8.7781    8.5251 C   0  0  0  0  0  0  0  0  0  0  0  0
   -7.8131   -9.8283    7.5551 C   0  0  0  0  0  0  0  0  0  0  0  0
   -9.1965   -9.7998    7.3720 O   0  0  0  0  0  0  0  0  0  0  0  0
   -9.9988   -8.7449    7.8069 C   0  0  0  0  0  0  0  0  0  0  0  0
  -11.3908   -8.8943    7.8513 C   0  0  0  0  0  0  0  0  0  0  0  0
  -12.2094   -7.8661    8.2776 C   0  0  0  0  0  0  0  0  0  0  0  0
  -11.6025   -6.6869    8.6578 C   0  0  0  0  0  0  0  0  0  0  0  0
  -10.2125   -6.5310    8.6158 C   0  0  0  0  0  0  0  0  0  0  0  0
   -9.4314   -7.5642    8.1903 C   0  0  0  0  0  0  0  0  0  0  0  0
   -7.4793   -7.1211    6.7388 C   0  0  0  0  0  0  0  0  0  0  0  0
   -6.3443   -6.2021    6.7032 N   0  0  0  0  0  0  0  0  0  0  0  0
   -6.5321   -5.1879    6.7948 H   0  0  0  0  0  0  0  0  0  0  0  0
   -3.9935   -5.8271    6.0766 C   0  0  0  0  0  0  0  0  0  0  0  0
   -2.7237   -6.4163    5.8806 C   0  0  0  0  0  0  0  0  0  0  0  0
   -2.4913   -7.7386    6.1170 C   0  0  0  0  0  0  0  0  0  0  0  0
   -3.4917   -8.5039    6.5465 N   0  0  0  0  0  0  0  0  0  0  0  0
   -4.7138   -7.9990    6.7480 C   0  0  0  0  0  0  0  0  0  0  0  0
   -5.0045   -6.6462    6.5199 C   0  0  0  0  0  0  0  0  0  0  0  0
   -3.7251   -3.5003    6.5303 O   0  0  0  0  0  0  0  0  0  0  0  0
   -4.1559   -4.4200    5.8417 C   0  0  0  0  0  0  0  0  0  0  0  0
   -4.8864   -4.0193    4.7027 O   0  0  0  0  0  0  0  0  0  0  0  0
   -5.7836   -3.5698    4.7764 H   0  0  0  0  0  0  0  0  0  0  0  0
  -13.9596   -8.1348    8.3046 S   0  0  0  0  0  0  0  0  0  0  0  0
  -14.7499   -7.4158    6.8491 C   0  0  0  0  0  0  0  0  0  0  0  0
  -14.2033   -6.5163    5.9679 C   0  0  0  0  0  0  0  0  0  0  0  0
  -14.9833   -6.1138    4.9465 C   0  0  0  0  0  0  0  0  0  0  0  0
  -16.2488   -6.6371    4.8794 C   0  0  0  0  0  0  0  0  0  0  0  0
  -16.3125   -7.6664    6.2317 S   0  0  0  0  0  0  0  0  0  0  0  0
 20 21  2  0  0  0
 21 22  1  0  0  0
 21 14  1  0  0  0
 14 15  2  0  0  0
 15 16  1  0  0  0
 16 17  2  0  0  0
 17 18  1  0  0  0
 18 19  2  0  0  0
 19 12  1  0  0  0
 12 11  1  0  0  0
 11  1  1  0  0  0
  1  2  1  0  0  0
  2  3  1  0  0  0
  3  4  1  0  0  0
  4  5  1  0  0  0
  5  6  2  0  0  0
  6  7  1  0  0  0
  7 24  1  0  0  0
 24 25  1  0  0  0
 25 26  2  0  0  0
 26 27  1  0  0  0
 27 28  2  0  0  0
 28 29  1  0  0  0
  7  8  2  0  0  0
  8  9  1  0  0  0
  9 10  2  0  0  0
 19 14  1  0  0  0
 10  1  1  0  0  0
 10  5  1  0  0  0
 29 25  1  0  0  0
 22 23  1  0  0  0
 12 13  1  0  0  0
M  END
> <minimizedAffinity>
-8.33740

> <CNNscore>
0.4025031626

> <CNNaffinity>
6.4666543007

> <CNN_VS>
2.6028487682

> <CNNaffinity_variance>
0.3206335902

$$$$
[H]OC(=O)c1c([H])c([H])nc([H])c1N([H])C([H])([H])C1([H])c2c([H])c([H])c(Sc3sc([H])c([H])c3[H])c([H])c2OC([H])([H])C1([H])[H]


 29 32  0  0  0  0  0  0  0  0999 V2000
  -10.3159  -10.3055    7.7903 C   0  0  0  0  0  0  0  0  0  0  0  0
   -9.2824   -9.1910    7.8329 C   0  0  0  0  0  0  0  0  0  0  0  0
   -9.1914   -8.5229    6.4958 C   0  0  0  0  0  0  0  0  0  0  0  0
   -9.0264   -9.4547    5.4698 O   0  0  0  0  0  0  0  0  0  0  0  0
   -9.2214  -10.8242    5.6490 C   0  0  0  0  0  0  0  0  0  0  0  0
   -8.7741  -11.7294    4.6780 C   0  0  0  0  0  0  0  0  0  0  0  0
   -8.9540  -13.0908    4.8295 C   0  0  0  0  0  0  0  0  0  0  0  0
   -9.5912  -13.5240    5.9739 C   0  0  0  0  0  0  0  0  0  0  0  0
  -10.0406  -12.6252    6.9478 C   0  0  0  0  0  0  0  0  0  0  0  0
   -9.8482  -11.2873    6.7695 C   0  0  0  0  0  0  0  0  0  0  0  0
  -11.6291   -9.6891    7.3924 C   0  0  0  0  0  0  0  0  0  0  0  0
  -11.5943   -8.2288    7.3725 N   0  0  0  0  0  0  0  0  0  0  0  0
  -10.6788   -7.7589    7.4878 H   0  0  0  0  0  0  0  0  0  0  0  0
  -13.4590   -6.9149    8.2979 C   0  0  0  0  0  0  0  0  0  0  0  0
  -14.6436   -6.1983    8.0131 C   0  0  0  0  0  0  0  0  0  0  0  0
  -15.0973   -6.0200    6.7400 C   0  0  0  0  0  0  0  0  0  0  0  0
  -14.4043   -6.5371    5.7286 N   0  0  0  0  0  0  0  0  0  0  0  0
  -13.2769   -7.2251    5.9404 C   0  0  0  0  0  0  0  0  0  0  0  0
  -12.7681   -7.4364    7.2300 C   0  0  0  0  0  0  0  0  0  0  0  0
  -11.8712   -6.9531   10.0782 O   0  0  0  0  0  0  0  0  0  0  0  0
  -13.0223   -7.0320    9.6606 C   0  0  0  0  0  0  0  0  0  0  0  0
  -14.0004   -7.2637   10.6512 O   0  0  0  0  0  0  0  0  0  0  0  0
  -14.0550   -8.1346   11.1522 H   0  0  0  0  0  0  0  0  0  0  0  0
   -8.3594  -14.1689    3.5565 S   0  0  0  0  0  0  0  0  0  0  0  0
   -7.9043  -13.2387    2.0774 C   0  0  0  0  0  0  0  0  0  0  0  0
   -7.2428  -13.7113    0.9714 C   0  0  0  0  0  0  0  0  0  0  0  0
   -7.0082  -12.8309   -0.0202 C   0  0  0  0  0  0  0  0  0  0  0  0
   -7.4499  -11.5460    0.1641 C   0  0  0  0  0  0  0  0  0  0  0  0
   -8.1731  -11.6039    1.7022 S   0  0  0  0  0  0  0  0  0  0  0  0
 20 21  2  0  0  0
 21 22  1  0  0  0
 21 14  1  0  0  0
 14 15  2  0  0  0
 15 16  1  0  0  0
 16 17  2  0  0  0
 17 18  1  0  0  0
 18 19  2  0  0  0
 19 12  1  0  0  0
 12 11  1  0  0  0
 11  1  1  0  0  0
  1  2  1  0  0  0
  2  3  1  0  0  0
  3  4  1  0  0  0
  4  5  1  0  0  0
  5  6  2  0  0  0
  6  7  1  0  0  0
  7 24  1  0  0  0
 24 25  1  0  0  0
 25 26  2  0  0  0
 26 27  1  0  0  0
 27 28  2  0  0  0
 28 29  1  0  0  0
  7  8  2  0  0  0
  8  9  1  0  0  0
  9 10  2  0  0  0
 19 14  1  0  0  0
 10  1  1  0  0  0
 10  5  1  0  0  0
 29 25  1  0  0  0
 22 23  1  0  0  0
 12 13  1  0  0  0
M  END
> <minimizedAffinity>
16.57287

> <CNNscore>
0.3896071613

> <CNNaffinity>
5.9970192909

> <CNN_VS>
2.3364815712

> <CNNaffinity_variance>
0.7801980376

$$$$
[H]OC(=O)c1c([H])c([H])nc([H])c1N([H])C([H])([H])C1([H])c2c([H])c([H])c(Sc3sc([H])c([H])c3[H])c([H])c2OC([H])([H])C1([H])[H]


 29 32  0  0  0  0  0  0  0  0999 V2000
   -8.9997   -7.3908    8.4625 C   0  0  0  0  0  0  0  0  0  0  0  0
   -8.4546   -8.8052    8.5812 C   0  0  0  0  0  0  0  0  0  0  0  0
   -8.8177   -9.6000    7.3650 C   0  0  0  0  0  0  0  0  0  0  0  0
  -10.1810   -9.5046    7.0813 O   0  0  0  0  0  0  0  0  0  0  0  0
  -11.0168   -8.5605    7.6778 C   0  0  0  0  0  0  0  0  0  0  0  0
  -12.4077   -8.6897    7.5738 C   0  0  0  0  0  0  0  0  0  0  0  0
  -13.2590   -7.7694    8.1545 C   0  0  0  0  0  0  0  0  0  0  0  0
  -12.6860   -6.7186    8.8406 C   0  0  0  0  0  0  0  0  0  0  0  0
  -11.2973   -6.5835    8.9483 C   0  0  0  0  0  0  0  0  0  0  0  0
  -10.4834   -7.5082    8.3642 C   0  0  0  0  0  0  0  0  0  0  0  0
   -8.4170   -6.7851    7.2149 C   0  0  0  0  0  0  0  0  0  0  0  0
   -7.1173   -6.1559    7.4362 N   0  0  0  0  0  0  0  0  0  0  0  0
   -7.0972   -5.1629    7.7290 H   0  0  0  0  0  0  0  0  0  0  0  0
   -4.7525   -6.5869    7.9669 C   0  0  0  0  0  0  0  0  0  0  0  0
   -3.5849   -7.3047    7.6212 C   0  0  0  0  0  0  0  0  0  0  0  0
   -3.5665   -8.2202    6.6113 C   0  0  0  0  0  0  0  0  0  0  0  0
   -4.6836   -8.4482    5.9252 N   0  0  0  0  0  0  0  0  0  0  0  0
   -5.8169   -7.7967    6.2089 C   0  0  0  0  0  0  0  0  0  0  0  0
   -5.8884   -6.8461    7.2374 C   0  0  0  0  0  0  0  0  0  0  0  0
   -4.0845   -4.6082    9.1204 O   0  0  0  0  0  0  0  0  0  0  0  0
   -4.7071   -5.6642    9.0659 C   0  0  0  0  0  0  0  0  0  0  0  0
   -5.4490   -5.9782   10.2246 O   0  0  0  0  0  0  0  0  0  0  0  0
   -5.0026   -6.2128   11.0954 H   0  0  0  0  0  0  0  0  0  0  0  0
  -15.0054   -8.0040    7.9774 S   0  0  0  0  0  0  0  0  0  0  0  0
  -15.5709   -7.4689    6.3483 C   0  0  0  0  0  0  0  0  0  0  0  0
  -16.4446   -8.1246    5.5170 C   0  0  0  0  0  0  0  0  0  0  0  0
  -16.7246   -7.5337    4.3398 C   0  0  0  0  0  0  0  0  0  0  0  0
  -16.1136   -6.3343    4.0787 C   0  0  0  0  0  0  0  0  0  0  0  0
  -15.1746   -6.0688    5.4715 S   0  0  0  0  0  0  0  0  0  0  0  0
 20 21  2  0  0  0
 21 22  1  0  0  0
 21 14  1  0  0  0
 14 15  2  0  0  0
 15 16  1  0  0  0
 16 17  2  0  0  0
 17 18  1  0  0  0
 18 19  2  0  0  0
 19 12  1  0  0  0
 12 11  1  0  0  0
 11  1  1  0  0  0
  1  2  1  0  0  0
  2  3  1  0  0  0
  3  4  1  0  0  0
  4  5  1  0  0  0
  5  6  2  0  0  0
  6  7  1  0  0  0
  7 24  1  0  0  0
 24 25  1  0  0  0
 25 26  2  0  0  0
 26 27  1  0  0  0
 27 28  2  0  0  0
 28 29  1  0  0  0
  7  8  2  0  0  0
  8  9  1  0  0  0
  9 10  2  0  0  0
 19 14  1  0  0  0
 10  1  1  0  0  0
 10  5  1  0  0  0
 29 25  1  0  0  0
 22 23  1  0  0  0
 12 13  1  0  0  0
M  END
> <minimizedAffinity>
-7.63304

> <CNNscore>
0.3616007864

> <CNNaffinity>
6.6435828209

> <CNN_VS>
2.4023246765

> <CNNaffinity_variance>
0.3639137149

$$$$
[H]OC(=O)c1c([H])c([H])nc([H])c1N([H])C([H])([H])C1([H])c2c([H])c([H])c(Sc3sc([H])c([H])c3[H])c([H])c2OC([H])([H])C1([H])[H]


 29 32  0  0  0  0  0  0  0  0999 V2000
  -13.9495   -7.8808    7.9723 C   0  0  0  0  0  0  0  0  0  0  0  0
  -14.0698   -7.3146    9.3783 C   0  0  0  0  0  0  0  0  0  0  0  0
  -13.1258   -6.1653    9.5523 C   0  0  0  0  0  0  0  0  0  0  0  0
  -11.8323   -6.5019    9.1501 O   0  0  0  0  0  0  0  0  0  0  0  0
  -11.5403   -7.6502    8.4140 C   0  0  0  0  0  0  0  0  0  0  0  0
  -10.2139   -8.0810    8.2829 C   0  0  0  0  0  0  0  0  0  0  0  0
   -9.8960   -9.2144    7.5597 C   0  0  0  0  0  0  0  0  0  0  0  0
  -10.9355   -9.9052    6.9718 C   0  0  0  0  0  0  0  0  0  0  0  0
  -12.2628   -9.4804    7.0988 C   0  0  0  0  0  0  0  0  0  0  0  0
  -12.5445   -8.3576    7.8191 C   0  0  0  0  0  0  0  0  0  0  0  0
  -14.2551   -6.7666    7.0088 C   0  0  0  0  0  0  0  0  0  0  0  0
  -14.4731   -7.2343    5.6422 N   0  0  0  0  0  0  0  0  0  0  0  0
  -13.6557   -7.5719    5.1035 H   0  0  0  0  0  0  0  0  0  0  0  0
  -16.2621   -6.1126    4.3769 C   0  0  0  0  0  0  0  0  0  0  0  0
  -17.5733   -6.2145    3.8587 C   0  0  0  0  0  0  0  0  0  0  0  0
  -18.3174   -7.3500    3.9815 C   0  0  0  0  0  0  0  0  0  0  0  0
  -17.7952   -8.4001    4.6103 N   0  0  0  0  0  0  0  0  0  0  0  0
  -16.5596   -8.3587    5.1208 C   0  0  0  0  0  0  0  0  0  0  0  0
  -15.7538   -7.2153    5.0212 C   0  0  0  0  0  0  0  0  0  0  0  0
  -15.9723   -3.7556    4.1475 O   0  0  0  0  0  0  0  0  0  0  0  0
  -15.5237   -4.8973    4.1787 C   0  0  0  0  0  0  0  0  0  0  0  0
  -14.1276   -4.9935    3.9966 O   0  0  0  0  0  0  0  0  0  0  0  0
  -13.6892   -4.7774    3.1171 H   0  0  0  0  0  0  0  0  0  0  0  0
   -8.1949   -9.6925    7.4417 S   0  0  0  0  0  0  0  0  0  0  0  0
   -7.1410   -8.2659    7.1041 C   0  0  0  0  0  0  0  0  0  0  0  0
   -6.8125   -7.7497    5.8753 C   0  0  0  0  0  0  0  0  0  0  0  0
   -6.0048   -6.6722    5.8636 C   0  0  0  0  0  0  0  0  0  0  0  0
   -5.5848   -6.1897    7.0764 C   0  0  0  0  0  0  0  0  0  0  0  0
   -6.3229   -7.2446    8.1874 S   0  0  0  0  0  0  0  0  0  0  0  0
 20 21  2  0  0  0
 21 22  1  0  0  0
 21 14  1  0  0  0
 14 15  2  0  0  0
 15 16  1  0  0  0
 16 17  2  0  0  0
 17 18  1  0  0  0
 18 19  2  0  0  0
 19 12  1  0  0  0
 12 11  1  0  0  0
 11  1  1  0  0  0
  1  2  1  0  0  0
  2  3  1  0  0  0
  3  4  1  0  0  0
  4  5  1  0  0  0
  5  6  2  0  0  0
  6  7  1  0  0  0
  7 24  1  0  0  0
 24 25  1  0  0  0
 25 26  2  0  0  0
 26 27  1  0  0  0
 27 28  2  0  0  0
 28 29  1  0  0  0
  7  8  2  0  0  0
  8  9  1  0  0  0
  9 10  2  0  0  0
 19 14  1  0  0  0
 10  1  1  0  0  0
 10  5  1  0  0  0
 29 25  1  0  0  0
 22 23  1  0  0  0
 12 13  1  0  0  0
M  END
> <minimizedAffinity>
-8.85550

> <CNNscore>
0.3498418033

> <CNNaffinity>
7.0272383690

> <CNN_VS>
2.4584217072

> <CNNaffinity_variance>
0.1255930513

$$$$
[H]N=c1c(C(=O)N([H])C([H])([H])c2oc([H])c([H])c2[H])c([H])c2c(=O)n3c([H])c([H])c([H])c([H])c3nc2n1C([H])([H])c1c([H])c([H])c(C([H])([H])[H])c([H])c1[H]


 35 39  0  0  0  0  0  0  0  0999 V2000
  -11.8642   -9.1588    7.6407 N   0  0  0  0  0  0  0  0  0  0  0  0
  -10.7890   -9.6622    6.9767 C   0  0  0  0  0  0  0  0  0  0  0  0
  -10.9451  -10.7816    6.4376 N   0  0  0  0  0  0  0  0  0  0  0  0
   -9.5637   -9.0501    6.9255 C   0  0  0  0  0  0  0  0  0  0  0  0
   -9.4390   -7.8373    7.6115 C   0  0  0  0  0  0  0  0  0  0  0  0
  -10.4881   -7.3056    8.2865 C   0  0  0  0  0  0  0  0  0  0  0  0
  -10.3390   -6.1227    8.9658 C   0  0  0  0  0  0  0  0  0  0  0  0
   -9.2493   -5.4999    8.9682 O   0  0  0  0  0  0  0  0  0  0  0  0
  -11.3717   -5.6037    9.6492 N   0  0  0  0  0  0  0  0  0  0  0  0
  -11.2404   -4.4422   10.3214 C   0  0  0  0  0  0  0  0  0  0  0  0
  -12.2565   -3.8753   11.0286 C   0  0  0  0  0  0  0  0  0  0  0  0
  -13.4911   -4.5160   11.0658 C   0  0  0  0  0  0  0  0  0  0  0  0
  -13.5903   -5.6973   10.3699 C   0  0  0  0  0  0  0  0  0  0  0  0
  -12.5506   -6.2564    9.6593 C   0  0  0  0  0  0  0  0  0  0  0  0
  -12.6764   -7.4109    8.9884 N   0  0  0  0  0  0  0  0  0  0  0  0
  -11.6890   -7.9924    8.2810 C   0  0  0  0  0  0  0  0  0  0  0  0
  -10.3641  -11.3818    5.9059 H   0  0  0  0  0  0  0  0  0  0  0  0
   -8.4094   -9.4592    6.1683 C   0  0  0  0  0  0  0  0  0  0  0  0
   -7.6484  -10.3225    6.7680 O   0  0  0  0  0  0  0  0  0  0  0  0
   -8.0231   -9.0308    4.8860 N   0  0  0  0  0  0  0  0  0  0  0  0
   -8.5760   -8.3187    4.3903 H   0  0  0  0  0  0  0  0  0  0  0  0
   -6.8240   -9.5413    4.2314 C   0  0  0  0  0  0  0  0  0  0  0  0
   -7.1355  -10.2769    2.9979 C   0  0  0  0  0  0  0  0  0  0  0  0
   -6.6563  -10.0276    1.7406 C   0  0  0  0  0  0  0  0  0  0  0  0
   -7.2209  -10.9771    0.8762 C   0  0  0  0  0  0  0  0  0  0  0  0
   -8.0166  -11.7491    1.6847 C   0  0  0  0  0  0  0  0  0  0  0  0
   -7.9379  -11.3092    2.9040 O   0  0  0  0  0  0  0  0  0  0  0  0
  -13.1136   -9.8613    7.6920 C   0  0  0  0  0  0  0  0  0  0  0  0
  -17.6207   -7.4880    4.9122 C   0  0  0  0  0  0  0  0  0  0  0  0
  -16.4905   -8.0729    5.6863 C   0  0  0  0  0  0  0  0  0  0  0  0
  -16.4433   -8.1154    7.0403 C   0  0  0  0  0  0  0  0  0  0  0  0
  -15.3450   -8.6856    7.7110 C   0  0  0  0  0  0  0  0  0  0  0  0
  -14.2756   -9.2231    7.0492 C   0  0  0  0  0  0  0  0  0  0  0  0
  -14.3574   -9.1631    5.6515 C   0  0  0  0  0  0  0  0  0  0  0  0
  -15.4382   -8.6013    4.9845 C   0  0  0  0  0  0  0  0  0  0  0  0
 29 30  1  0  0  0
 30 31  2  0  0  0
 31 32  1  0  0  0
 32 33  2  0  0  0
 33 28  1  0  0  0
 28  1  1  0  0  0
  1  2  1  0  0  0
  2  3  2  0  0  0
  2  4  1  0  0  0
  4 18  1  0  0  0
 18 19  2  0  0  0
 18 20  1  0  0  0
 20 22  1  0  0  0
 22 23  1  0  0  0
 23 24  2  0  0  0
 24 25  1  0  0  0
 25 26  2  0  0  0
 26 27  1  0  0  0
  4  5  2  0  0  0
  5  6  1  0  0  0
  6  7  1  0  0  0
  7  8  2  0  0  0
  7  9  1  0  0  0
  9 10  1  0  0  0
 10 11  2  0  0  0
 11 12  1  0  0  0
 12 13  2  0  0  0
 13 14  1  0  0  0
 14 15  2  0  0  0
 15 16  1  0  0  0
 33 34  1  0  0  0
 34 35  2  0  0  0
 35 30  1  0  0  0
 16  1  1  0  0  0
 27 23  1  0  0  0
 16  6  2  0  0  0
 14  9  1  0  0  0
  3 17  1  0  0  0
 20 21  1  0  0  0
M  END
> <minimizedAffinity>
5.63066

> <CNNscore>
0.4992781281

> <CNNaffinity>
6.9831380844

> <CNN_VS>
3.4865281582

> <CNNaffinity_variance>
0.8551381826

$$$$
[H]N=c1c(C(=O)N([H])C([H])([H])c2oc([H])c([H])c2[H])c([H])c2c(=O)n3c([H])c([H])c([H])c([H])c3nc2n1C([H])([H])c1c([H])c([H])c(C([H])([H])[H])c([H])c1[H]


 35 39  0  0  0  0  0  0  0  0999 V2000
  -12.6451   -6.3349    7.9671 N   0  0  0  0  0  0  0  0  0  0  0  0
  -13.9219   -6.4620    7.5151 C   0  0  0  0  0  0  0  0  0  0  0  0
  -14.6997   -5.5169    7.7793 N   0  0  0  0  0  0  0  0  0  0  0  0
  -14.3971   -7.5683    6.8603 C   0  0  0  0  0  0  0  0  0  0  0  0
  -13.4930   -8.6174    6.6633 C   0  0  0  0  0  0  0  0  0  0  0  0
  -12.2130   -8.5280    7.1018 C   0  0  0  0  0  0  0  0  0  0  0  0
  -11.3472   -9.5755    6.9119 C   0  0  0  0  0  0  0  0  0  0  0  0
  -11.7047  -10.6238    6.3214 O   0  0  0  0  0  0  0  0  0  0  0  0
  -10.0844   -9.4956    7.3610 N   0  0  0  0  0  0  0  0  0  0  0  0
   -9.2223  -10.5168    7.1818 C   0  0  0  0  0  0  0  0  0  0  0  0
   -7.9328  -10.4846    7.6181 C   0  0  0  0  0  0  0  0  0  0  0  0
   -7.4739   -9.3503    8.2805 C   0  0  0  0  0  0  0  0  0  0  0  0
   -8.3783   -8.3285    8.4461 C   0  0  0  0  0  0  0  0  0  0  0  0
   -9.6801   -8.3788    7.9976 C   0  0  0  0  0  0  0  0  0  0  0  0
  -10.5412   -7.3655    8.1726 N   0  0  0  0  0  0  0  0  0  0  0  0
  -11.8200   -7.3710    7.7508 C   0  0  0  0  0  0  0  0  0  0  0  0
  -15.6542   -5.3316    7.5914 H   0  0  0  0  0  0  0  0  0  0  0  0
  -15.6956   -7.7444    6.2637 C   0  0  0  0  0  0  0  0  0  0  0  0
  -16.2180   -6.6606    5.7776 O   0  0  0  0  0  0  0  0  0  0  0  0
  -16.4432   -8.9308    6.1597 N   0  0  0  0  0  0  0  0  0  0  0  0
  -16.0843   -9.8054    6.5657 H   0  0  0  0  0  0  0  0  0  0  0  0
  -17.7513   -8.9638    5.5159 C   0  0  0  0  0  0  0  0  0  0  0  0
  -17.7982   -8.1245    4.3106 C   0  0  0  0  0  0  0  0  0  0  0  0
  -17.0632   -8.2755    3.1662 C   0  0  0  0  0  0  0  0  0  0  0  0
  -17.4360   -7.2498    2.2850 C   0  0  0  0  0  0  0  0  0  0  0  0
  -18.3877   -6.5366    2.9692 C   0  0  0  0  0  0  0  0  0  0  0  0
  -18.5664   -7.0767    4.1365 O   0  0  0  0  0  0  0  0  0  0  0  0
  -12.2117   -5.1681    8.6798 C   0  0  0  0  0  0  0  0  0  0  0  0
  -10.7040   -5.9212   14.2326 C   0  0  0  0  0  0  0  0  0  0  0  0
  -11.0233   -5.7363   12.7894 C   0  0  0  0  0  0  0  0  0  0  0  0
  -10.1346   -5.9394   11.7863 C   0  0  0  0  0  0  0  0  0  0  0  0
  -10.5021   -5.7489   10.4410 C   0  0  0  0  0  0  0  0  0  0  0  0
  -11.7575   -5.3537   10.0690 C   0  0  0  0  0  0  0  0  0  0  0  0
  -12.6505   -5.1536   11.1303 C   0  0  0  0  0  0  0  0  0  0  0  0
  -12.2933   -5.3396   12.4595 C   0  0  0  0  0  0  0  0  0  0  0  0
 29 30  1  0  0  0
 30 31  2  0  0  0
 31 32  1  0  0  0
 32 33  2  0  0  0
 33 28  1  0  0  0
 28  1  1  0  0  0
  1  2  1  0  0  0
  2  3  2  0  0  0
  2  4  1  0  0  0
  4 18  1  0  0  0
 18 19  2  0  0  0
 18 20  1  0  0  0
 20 22  1  0  0  0
 22 23  1  0  0  0
 23 24  2  0  0  0
 24 25  1  0  0  0
 25 26  2  0  0  0
 26 27  1  0  0  0
  4  5  2  0  0  0
  5  6  1  0  0  0
  6  7  1  0  0  0
  7  8  2  0  0  0
  7  9  1  0  0  0
  9 10  1  0  0  0
 10 11  2  0  0  0
 11 12  1  0  0  0
 12 13  2  0  0  0
 13 14  1  0  0  0
 14 15  2  0  0  0
 15 16  1  0  0  0
 33 34  1  0  0  0
 34 35  2  0  0  0
 35 30  1  0  0  0
 16  1  1  0  0  0
 27 23  1  0  0  0
 16  6  2  0  0  0
 14  9  1  0  0  0
  3 17  1  0  0  0
 20 21  1  0  0  0
M  END
> <minimizedAffinity>
5.11398

> <CNNscore>
0.4914753735

> <CNNaffinity>
7.1535363197

> <CNN_VS>
3.5157868862

> <CNNaffinity_variance>
0.8024517298

$$$$
[H]N=c1c(C(=O)N([H])C([H])([H])c2oc([H])c([H])c2[H])c([H])c2c(=O)n3c([H])c([H])c([H])c([H])c3nc2n1C([H])([H])c1c([H])c([H])c(C([H])([H])[H])c([H])c1[H]


 35 39  0  0  0  0  0  0  0  0999 V2000
   -9.2512   -9.9851    7.0668 N   0  0  0  0  0  0  0  0  0  0  0  0
   -8.0221   -9.4540    7.3072 C   0  0  0  0  0  0  0  0  0  0  0  0
   -7.0417  -10.1947    7.0662 N   0  0  0  0  0  0  0  0  0  0  0  0
   -7.8159   -8.2093    7.8429 C   0  0  0  0  0  0  0  0  0  0  0  0
   -8.9576   -7.4642    8.1565 C   0  0  0  0  0  0  0  0  0  0  0  0
  -10.1992   -7.9614    7.9333 C   0  0  0  0  0  0  0  0  0  0  0  0
  -11.3055   -7.2196    8.2632 C   0  0  0  0  0  0  0  0  0  0  0  0
  -11.2018   -6.0708    8.7580 O   0  0  0  0  0  0  0  0  0  0  0  0
  -12.5357   -7.7174    8.0591 N   0  0  0  0  0  0  0  0  0  0  0  0
  -13.6321   -7.0003    8.3783 C   0  0  0  0  0  0  0  0  0  0  0  0
  -14.8999   -7.4602    8.1908 C   0  0  0  0  0  0  0  0  0  0  0  0
  -15.0834   -8.7271    7.6456 C   0  0  0  0  0  0  0  0  0  0  0  0
  -13.9450   -9.4307    7.3318 C   0  0  0  0  0  0  0  0  0  0  0  0
  -12.6692   -8.9490    7.5286 C   0  0  0  0  0  0  0  0  0  0  0  0
  -11.5756   -9.6580    7.2120 N   0  0  0  0  0  0  0  0  0  0  0  0
  -10.3116   -9.2270    7.3860 C   0  0  0  0  0  0  0  0  0  0  0  0
   -6.0597  -10.0909    7.1409 H   0  0  0  0  0  0  0  0  0  0  0  0
   -6.5588   -7.5342    8.0354 C   0  0  0  0  0  0  0  0  0  0  0  0
   -6.3240   -7.1683    9.2581 O   0  0  0  0  0  0  0  0  0  0  0  0
   -5.5864   -7.2295    7.0666 N   0  0  0  0  0  0  0  0  0  0  0  0
   -5.7487   -7.4665    6.0787 H   0  0  0  0  0  0  0  0  0  0  0  0
   -4.3454   -6.5443    7.4088 C   0  0  0  0  0  0  0  0  0  0  0  0
   -3.1730   -7.4203    7.2766 C   0  0  0  0  0  0  0  0  0  0  0  0
   -2.2408   -7.7084    8.2362 C   0  0  0  0  0  0  0  0  0  0  0  0
   -1.3049   -8.5850    7.6679 C   0  0  0  0  0  0  0  0  0  0  0  0
   -1.7433   -8.7701    6.3809 C   0  0  0  0  0  0  0  0  0  0  0  0
   -2.8265   -8.0780    6.1969 O   0  0  0  0  0  0  0  0  0  0  0  0
   -9.4086  -11.3092    6.5385 C   0  0  0  0  0  0  0  0  0  0  0  0
   -7.7191  -11.9170    1.0203 C   0  0  0  0  0  0  0  0  0  0  0  0
   -8.1730  -11.8286    2.4362 C   0  0  0  0  0  0  0  0  0  0  0  0
   -8.5649  -12.8968    3.1728 C   0  0  0  0  0  0  0  0  0  0  0  0
   -8.9807  -12.7444    4.5089 C   0  0  0  0  0  0  0  0  0  0  0  0
   -9.0145  -11.5294    5.1360 C   0  0  0  0  0  0  0  0  0  0  0  0
   -8.6025  -10.4475    4.3463 C   0  0  0  0  0  0  0  0  0  0  0  0
   -8.1917  -10.5919    3.0275 C   0  0  0  0  0  0  0  0  0  0  0  0
 29 30  1  0  0  0
 30 31  2  0  0  0
 31 32  1  0  0  0
 32 33  2  0  0  0
 33 28  1  0  0  0
 28  1  1  0  0  0
  1  2  1  0  0  0
  2  3  2  0  0  0
  2  4  1  0  0  0
  4 18  1  0  0  0
 18 19  2  0  0  0
 18 20  1  0  0  0
 20 22  1  0  0  0
 22 23  1  0  0  0
 23 24  2  0  0  0
 24 25  1  0  0  0
 25 26  2  0  0  0
 26 27  1  0  0  0
  4  5  2  0  0  0
  5  6  1  0  0  0
  6  7  1  0  0  0
  7  8  2  0  0  0
  7  9  1  0  0  0
  9 10  1  0  0  0
 10 11  2  0  0  0
 11 12  1  0  0  0
 12 13  2  0  0  0
 13 14  1  0  0  0
 14 15  2  0  0  0
 15 16  1  0  0  0
 33 34  1  0  0  0
 34 35  2  0  0  0
 35 30  1  0  0  0
 16  1  1  0  0  0
 27 23  1  0  0  0
 16  6  2  0  0  0
 14  9  1  0  0  0
  3 17  1  0  0  0
 20 21  1  0  0  0
M  END
> <minimizedAffinity>
5.07908

> <CNNscore>
0.4712082446

> <CNNaffinity>
6.6258745193

> <CNN_VS>
3.1221666336

> <CNNaffinity_variance>
0.5225688219

$$$$
[H]N=c1c(C(=O)N([H])C([H])([H])c2oc([H])c([H])c2[H])c([H])c2c(=O)n3c([H])c([H])c([H])c([H])c3nc2n1C([H])([H])c1c([H])c([H])c(C([H])([H])[H])c([H])c1[H]


 35 39  0  0  0  0  0  0  0  0999 V2000
  -11.2629   -8.1157    8.9955 N   0  0  0  0  0  0  0  0  0  0  0  0
  -12.3682   -8.6048    8.3715 C   0  0  0  0  0  0  0  0  0  0  0  0
  -13.4459   -8.5156    9.0028 N   0  0  0  0  0  0  0  0  0  0  0  0
  -12.3473   -9.2273    7.1505 C   0  0  0  0  0  0  0  0  0  0  0  0
  -11.0983   -9.3580    6.5342 C   0  0  0  0  0  0  0  0  0  0  0  0
   -9.9741   -8.8850    7.1268 C   0  0  0  0  0  0  0  0  0  0  0  0
   -8.7572   -9.0381    6.5115 C   0  0  0  0  0  0  0  0  0  0  0  0
   -8.6530   -9.5969    5.3924 O   0  0  0  0  0  0  0  0  0  0  0  0
   -7.6408   -8.5860    7.1049 N   0  0  0  0  0  0  0  0  0  0  0  0
   -6.4379   -8.7293    6.5127 C   0  0  0  0  0  0  0  0  0  0  0  0
   -5.2778   -8.2883    7.0728 C   0  0  0  0  0  0  0  0  0  0  0  0
   -5.3249   -7.6598    8.3132 C   0  0  0  0  0  0  0  0  0  0  0  0
   -6.5665   -7.5302    8.8887 C   0  0  0  0  0  0  0  0  0  0  0  0
   -7.7305   -7.9828    8.3066 C   0  0  0  0  0  0  0  0  0  0  0  0
   -8.9294   -7.8420    8.8912 N   0  0  0  0  0  0  0  0  0  0  0  0
  -10.0910   -8.2676    8.3593 C   0  0  0  0  0  0  0  0  0  0  0  0
  -14.3827   -8.7762    8.8152 H   0  0  0  0  0  0  0  0  0  0  0  0
  -13.4742   -9.6813    6.3777 C   0  0  0  0  0  0  0  0  0  0  0  0
  -14.0200  -10.7761    6.8106 O   0  0  0  0  0  0  0  0  0  0  0  0
  -14.0287   -9.0869    5.2304 N   0  0  0  0  0  0  0  0  0  0  0  0
  -13.6039   -8.2396    4.8303 H   0  0  0  0  0  0  0  0  0  0  0  0
  -15.1861   -9.6564    4.5499 C   0  0  0  0  0  0  0  0  0  0  0  0
  -16.2061   -8.6428    4.2471 C   0  0  0  0  0  0  0  0  0  0  0  0
  -17.5312   -8.6726    4.5876 C   0  0  0  0  0  0  0  0  0  0  0  0
  -18.1220   -7.5005    4.0931 C   0  0  0  0  0  0  0  0  0  0  0  0
  -17.0953   -6.8305    3.4768 C   0  0  0  0  0  0  0  0  0  0  0  0
  -16.0050   -7.5269    3.5894 O   0  0  0  0  0  0  0  0  0  0  0  0
  -11.3382   -7.5059   10.2915 C   0  0  0  0  0  0  0  0  0  0  0  0
  -13.1586   -1.9965   10.3699 C   0  0  0  0  0  0  0  0  0  0  0  0
  -12.7489   -3.4285   10.3866 C   0  0  0  0  0  0  0  0  0  0  0  0
  -13.5374   -4.4355   10.8353 C   0  0  0  0  0  0  0  0  0  0  0  0
  -13.0896   -5.7698   10.8211 C   0  0  0  0  0  0  0  0  0  0  0  0
  -11.8519   -6.1268   10.3615 C   0  0  0  0  0  0  0  0  0  0  0  0
  -11.0637   -5.0619    9.9049 C   0  0  0  0  0  0  0  0  0  0  0  0
  -11.5001   -3.7435    9.9169 C   0  0  0  0  0  0  0  0  0  0  0  0
 29 30  1  0  0  0
 30 31  2  0  0  0
 31 32  1  0  0  0
 32 33  2  0  0  0
 33 28  1  0  0  0
 28  1  1  0  0  0
  1  2  1  0  0  0
  2  3  2  0  0  0
  2  4  1  0  0  0
  4 18  1  0  0  0
 18 19  2  0  0  0
 18 20  1  0  0  0
 20 22  1  0  0  0
 22 23  1  0  0  0
 23 24  2  0  0  0
 24 25  1  0  0  0
 25 26  2  0  0  0
 26 27  1  0  0  0
  4  5  2  0  0  0
  5  6  1  0  0  0
  6  7  1  0  0  0
  7  8  2  0  0  0
  7  9  1  0  0  0
  9 10  1  0  0  0
 10 11  2  0  0  0
 11 12  1  0  0  0
 12 13  2  0  0  0
 13 14  1  0  0  0
 14 15  2  0  0  0
 15 16  1  0  0  0
 33 34  1  0  0  0
 34 35  2  0  0  0
 35 30  1  0  0  0
 16  1  1  0  0  0
 27 23  1  0  0  0
 16  6  2  0  0  0
 14  9  1  0  0  0
  3 17  1  0  0  0
 20 21  1  0  0  0
M  END
> <minimizedAffinity>
1.29045

> <CNNscore>
0.4461059868

> <CNNaffinity>
7.0289435387

> <CNN_VS>
3.1356537342

> <CNNaffinity_variance>
0.6619012952

$$$$
[H]N=c1c(C(=O)N([H])C([H])([H])c2oc([H])c([H])c2[H])c([H])c2c(=O)n3c([H])c([H])c([H])c([H])c3nc2n1C([H])([H])c1c([H])c([H])c(C([H])([H])[H])c([H])c1[H]


 35 39  0  0  0  0  0  0  0  0999 V2000
   -8.6411   -9.2756    7.2142 N   0  0  0  0  0  0  0  0  0  0  0  0
   -7.3806   -8.8268    7.4595 C   0  0  0  0  0  0  0  0  0  0  0  0
   -6.4454   -9.5796    7.1038 N   0  0  0  0  0  0  0  0  0  0  0  0
   -7.0971   -7.6560    8.1135 C   0  0  0  0  0  0  0  0  0  0  0  0
   -8.1905   -6.8996    8.5483 C   0  0  0  0  0  0  0  0  0  0  0  0
   -9.4614   -7.3160    8.3240 C   0  0  0  0  0  0  0  0  0  0  0  0
  -10.5191   -6.5660    8.7733 C   0  0  0  0  0  0  0  0  0  0  0  0
  -10.3439   -5.4817    9.3807 O   0  0  0  0  0  0  0  0  0  0  0  0
  -11.7778   -6.9856    8.5675 N   0  0  0  0  0  0  0  0  0  0  0  0
  -12.8272   -6.2595    9.0032 C   0  0  0  0  0  0  0  0  0  0  0  0
  -14.1212   -6.6414    8.8194 C   0  0  0  0  0  0  0  0  0  0  0  0
  -14.3834   -7.8343    8.1529 C   0  0  0  0  0  0  0  0  0  0  0  0
  -13.2913   -8.5494    7.7223 C   0  0  0  0  0  0  0  0  0  0  0  0
  -11.9880   -8.1470    7.9173 C   0  0  0  0  0  0  0  0  0  0  0  0
  -10.9409   -8.8652    7.4852 N   0  0  0  0  0  0  0  0  0  0  0  0
   -9.6527   -8.5104    7.6526 C   0  0  0  0  0  0  0  0  0  0  0  0
   -5.4576   -9.5270    7.1497 H   0  0  0  0  0  0  0  0  0  0  0  0
   -5.8035   -7.0603    8.3251 C   0  0  0  0  0  0  0  0  0  0  0  0
   -4.8355   -7.6244    7.6704 O   0  0  0  0  0  0  0  0  0  0  0  0
   -5.4820   -5.9667    9.1484 N   0  0  0  0  0  0  0  0  0  0  0  0
   -6.2117   -5.5139    9.7150 H   0  0  0  0  0  0  0  0  0  0  0  0
   -4.1190   -5.4602    9.2600 C   0  0  0  0  0  0  0  0  0  0  0  0
   -3.8050   -4.4763    8.2147 C   0  0  0  0  0  0  0  0  0  0  0  0
   -3.3465   -3.1988    8.3894 C   0  0  0  0  0  0  0  0  0  0  0  0
   -3.1869   -2.6285    7.1179 C   0  0  0  0  0  0  0  0  0  0  0  0
   -3.5666   -3.6179    6.2462 C   0  0  0  0  0  0  0  0  0  0  0  0
   -3.9168   -4.6694    6.9229 O   0  0  0  0  0  0  0  0  0  0  0  0
   -8.8794  -10.5282    6.5574 C   0  0  0  0  0  0  0  0  0  0  0  0
   -7.1572  -10.7735    1.0213 C   0  0  0  0  0  0  0  0  0  0  0  0
   -7.6491  -10.7581    2.4272 C   0  0  0  0  0  0  0  0  0  0  0  0
   -8.5728  -11.6220    2.9147 C   0  0  0  0  0  0  0  0  0  0  0  0
   -8.9932  -11.5549    4.2563 C   0  0  0  0  0  0  0  0  0  0  0  0
   -8.5039  -10.6293    5.1363 C   0  0  0  0  0  0  0  0  0  0  0  0
   -7.5509   -9.7529    4.5998 C   0  0  0  0  0  0  0  0  0  0  0  0
   -7.1328   -9.8143    3.2769 C   0  0  0  0  0  0  0  0  0  0  0  0
 29 30  1  0  0  0
 30 31  2  0  0  0
 31 32  1  0  0  0
 32 33  2  0  0  0
 33 28  1  0  0  0
 28  1  1  0  0  0
  1  2  1  0  0  0
  2  3  2  0  0  0
  2  4  1  0  0  0
  4 18  1  0  0  0
 18 19  2  0  0  0
 18 20  1  0  0  0
 20 22  1  0  0  0
 22 23  1  0  0  0
 23 24  2  0  0  0
 24 25  1  0  0  0
 25 26  2  0  0  0
 26 27  1  0  0  0
  4  5  2  0  0  0
  5  6  1  0  0  0
  6  7  1  0  0  0
  7  8  2  0  0  0
  7  9  1  0  0  0
  9 10  1  0  0  0
 10 11  2  0  0  0
 11 12  1  0  0  0
 12 13  2  0  0  0
 13 14  1  0  0  0
 14 15  2  0  0  0
 15 16  1  0  0  0
 33 34  1  0  0  0
 34 35  2  0  0  0
 35 30  1  0  0  0
 16  1  1  0  0  0
 27 23  1  0  0  0
 16  6  2  0  0  0
 14  9  1  0  0  0
  3 17  1  0  0  0
 20 21  1  0  0  0
M  END
> <minimizedAffinity>
4.17477

> <CNNscore>
0.4331198633

> <CNNaffinity>
6.7259931564

> <CNN_VS>
2.9131612778

> <CNNaffinity_variance>
1.0739685297

$$$$
[H]N=c1c(C(=O)N([H])C([H])([H])c2oc([H])c([H])c2[H])c([H])c2c(=O)n3c([H])c([H])c([H])c([H])c3nc2n1C([H])([H])c1c([H])c([H])c(C([H])([H])[H])c([H])c1[H]


 35 39  0  0  0  0  0  0  0  0999 V2000
  -11.5502   -8.6251    7.7676 N   0  0  0  0  0  0  0  0  0  0  0  0
  -12.4416   -8.8279    6.7602 C   0  0  0  0  0  0  0  0  0  0  0  0
  -12.0886   -9.6236    5.8600 N   0  0  0  0  0  0  0  0  0  0  0  0
  -13.6423   -8.1753    6.6556 C   0  0  0  0  0  0  0  0  0  0  0  0
  -13.9405   -7.2456    7.6574 C   0  0  0  0  0  0  0  0  0  0  0  0
  -13.0756   -7.0149    8.6760 C   0  0  0  0  0  0  0  0  0  0  0  0
  -13.3814   -6.0869    9.6395 C   0  0  0  0  0  0  0  0  0  0  0  0
  -14.4608   -5.4468    9.6155 O   0  0  0  0  0  0  0  0  0  0  0  0
  -12.5184   -5.8445   10.6392 N   0  0  0  0  0  0  0  0  0  0  0  0
  -12.8049   -4.9356   11.5931 C   0  0  0  0  0  0  0  0  0  0  0  0
  -11.9639   -4.6540   12.6263 C   0  0  0  0  0  0  0  0  0  0  0  0
  -10.7505   -5.3296   12.7106 C   0  0  0  0  0  0  0  0  0  0  0  0
  -10.4902   -6.2490   11.7224 C   0  0  0  0  0  0  0  0  0  0  0  0
  -11.3538   -6.5210   10.6838 C   0  0  0  0  0  0  0  0  0  0  0  0
  -11.0737   -7.4246    9.7330 N   0  0  0  0  0  0  0  0  0  0  0  0
  -11.8872   -7.7227    8.7021 C   0  0  0  0  0  0  0  0  0  0  0  0
  -12.5077   -9.9586    5.0277 H   0  0  0  0  0  0  0  0  0  0  0  0
  -14.6818   -8.4006    5.6851 C   0  0  0  0  0  0  0  0  0  0  0  0
  -15.8746   -8.5041    6.1856 O   0  0  0  0  0  0  0  0  0  0  0  0
  -14.5477   -8.5250    4.2910 N   0  0  0  0  0  0  0  0  0  0  0  0
  -13.6162   -8.4881    3.8557 H   0  0  0  0  0  0  0  0  0  0  0  0
  -15.6985   -8.7440    3.4223 C   0  0  0  0  0  0  0  0  0  0  0  0
  -16.7159   -7.6945    3.5736 C   0  0  0  0  0  0  0  0  0  0  0  0
  -18.0670   -7.8633    3.7109 C   0  0  0  0  0  0  0  0  0  0  0  0
  -18.6435   -6.5896    3.8241 C   0  0  0  0  0  0  0  0  0  0  0  0
  -17.5826   -5.7229    3.7463 C   0  0  0  0  0  0  0  0  0  0  0  0
  -16.4867   -6.4042    3.6014 O   0  0  0  0  0  0  0  0  0  0  0  0
  -10.2905   -9.3097    7.8070 C   0  0  0  0  0  0  0  0  0  0  0  0
   -5.4713   -6.5855    6.0669 C   0  0  0  0  0  0  0  0  0  0  0  0
   -6.7384   -7.2217    6.5235 C   0  0  0  0  0  0  0  0  0  0  0  0
   -7.8885   -6.5405    6.7482 C   0  0  0  0  0  0  0  0  0  0  0  0
   -9.0535   -7.2038    7.1769 C   0  0  0  0  0  0  0  0  0  0  0  0
   -9.0965   -8.5542    7.3898 C   0  0  0  0  0  0  0  0  0  0  0  0
   -7.8913   -9.2271    7.1475 C   0  0  0  0  0  0  0  0  0  0  0  0
   -6.7387   -8.5777    6.7248 C   0  0  0  0  0  0  0  0  0  0  0  0
 29 30  1  0  0  0
 30 31  2  0  0  0
 31 32  1  0  0  0
 32 33  2  0  0  0
 33 28  1  0  0  0
 28  1  1  0  0  0
  1  2  1  0  0  0
  2  3  2  0  0  0
  2  4  1  0  0  0
  4 18  1  0  0  0
 18 19  2  0  0  0
 18 20  1  0  0  0
 20 22  1  0  0  0
 22 23  1  0  0  0
 23 24  2  0  0  0
 24 25  1  0  0  0
 25 26  2  0  0  0
 26 27  1  0  0  0
  4  5  2  0  0  0
  5  6  1  0  0  0
  6  7  1  0  0  0
  7  8  2  0  0  0
  7  9  1  0  0  0
  9 10  1  0  0  0
 10 11  2  0  0  0
 11 12  1  0  0  0
 12 13  2  0  0  0
 13 14  1  0  0  0
 14 15  2  0  0  0
 15 16  1  0  0  0
 33 34  1  0  0  0
 34 35  2  0  0  0
 35 30  1  0  0  0
 16  1  1  0  0  0
 27 23  1  0  0  0
 16  6  2  0  0  0
 14  9  1  0  0  0
  3 17  1  0  0  0
 20 21  1  0  0  0
M  END
> <minimizedAffinity>
-1.88919

> <CNNscore>
0.4186558127

> <CNNaffinity>
7.3149271011

> <CNN_VS>
3.0624368191

> <CNNaffinity_variance>
0.3263368905

$$$$
[H]N=c1c(C(=O)N([H])C([H])([H])c2oc([H])c([H])c2[H])c([H])c2c(=O)n3c([H])c([H])c([H])c([H])c3nc2n1C([H])([H])c1c([H])c([H])c(C([H])([H])[H])c([H])c1[H]


 35 39  0  0  0  0  0  0  0  0999 V2000
   -8.5871   -9.1259    7.1378 N   0  0  0  0  0  0  0  0  0  0  0  0
   -7.4064   -8.4682    7.2923 C   0  0  0  0  0  0  0  0  0  0  0  0
   -6.3762   -9.0907    6.9472 N   0  0  0  0  0  0  0  0  0  0  0  0
   -7.2904   -7.2209    7.8485 C   0  0  0  0  0  0  0  0  0  0  0  0
   -8.4745   -6.6135    8.2795 C   0  0  0  0  0  0  0  0  0  0  0  0
   -9.6699   -7.2393    8.1443 C   0  0  0  0  0  0  0  0  0  0  0  0
  -10.8172   -6.6315    8.5884 C   0  0  0  0  0  0  0  0  0  0  0  0
  -10.7959   -5.4899    9.1094 O   0  0  0  0  0  0  0  0  0  0  0  0
  -11.9995   -7.2572    8.4713 N   0  0  0  0  0  0  0  0  0  0  0  0
  -13.1353   -6.6727    8.9031 C   0  0  0  0  0  0  0  0  0  0  0  0
  -14.3575   -7.2651    8.8070 C   0  0  0  0  0  0  0  0  0  0  0  0
  -14.4495   -8.5318    8.2387 C   0  0  0  0  0  0  0  0  0  0  0  0
  -13.2730   -9.0984    7.8092 C   0  0  0  0  0  0  0  0  0  0  0  0
  -12.0445   -8.4836    7.9146 C   0  0  0  0  0  0  0  0  0  0  0  0
  -10.9120   -9.0604    7.4859 N   0  0  0  0  0  0  0  0  0  0  0  0
   -9.6917   -8.4968    7.5680 C   0  0  0  0  0  0  0  0  0  0  0  0
   -5.4084   -8.8811    6.9434 H   0  0  0  0  0  0  0  0  0  0  0  0
   -6.1016   -6.4159    7.9575 C   0  0  0  0  0  0  0  0  0  0  0  0
   -5.5637   -6.0907    6.8222 O   0  0  0  0  0  0  0  0  0  0  0  0
   -5.4722   -5.9617    9.1299 N   0  0  0  0  0  0  0  0  0  0  0  0
   -5.8425   -6.2282   10.0521 H   0  0  0  0  0  0  0  0  0  0  0  0
   -4.2687   -5.1390    9.0897 C   0  0  0  0  0  0  0  0  0  0  0  0
   -3.5990   -5.0708   10.3960 C   0  0  0  0  0  0  0  0  0  0  0  0
   -2.2803   -5.3178   10.6655 C   0  0  0  0  0  0  0  0  0  0  0  0
   -2.0875   -5.1327   12.0424 C   0  0  0  0  0  0  0  0  0  0  0  0
   -3.3248   -4.7801   12.5193 C   0  0  0  0  0  0  0  0  0  0  0  0
   -4.1697   -4.7566   11.5335 O   0  0  0  0  0  0  0  0  0  0  0  0
   -8.6455  -10.4470    6.5824 C   0  0  0  0  0  0  0  0  0  0  0  0
   -7.3161  -10.8442    0.9478 C   0  0  0  0  0  0  0  0  0  0  0  0
   -7.7073  -10.7911    2.3841 C   0  0  0  0  0  0  0  0  0  0  0  0
   -8.5771  -11.6543    2.9633 C   0  0  0  0  0  0  0  0  0  0  0  0
   -8.9024  -11.5504    4.3289 C   0  0  0  0  0  0  0  0  0  0  0  0
   -8.3699  -10.5882    5.1420 C   0  0  0  0  0  0  0  0  0  0  0  0
   -7.4746   -9.7138    4.5113 C   0  0  0  0  0  0  0  0  0  0  0  0
   -7.1503   -9.8113    3.1645 C   0  0  0  0  0  0  0  0  0  0  0  0
 29 30  1  0  0  0
 30 31  2  0  0  0
 31 32  1  0  0  0
 32 33  2  0  0  0
 33 28  1  0  0  0
 28  1  1  0  0  0
  1  2  1  0  0  0
  2  3  2  0  0  0
  2  4  1  0  0  0
  4 18  1  0  0  0
 18 19  2  0  0  0
 18 20  1  0  0  0
 20 22  1  0  0  0
 22 23  1  0  0  0
 23 24  2  0  0  0
 24 25  1  0  0  0
 25 26  2  0  0  0
 26 27  1  0  0  0
  4  5  2  0  0  0
  5  6  1  0  0  0
  6  7  1  0  0  0
  7  8  2  0  0  0
  7  9  1  0  0  0
  9 10  1  0  0  0
 10 11  2  0  0  0
 11 12  1  0  0  0
 12 13  2  0  0  0
 13 14  1  0  0  0
 14 15  2  0  0  0
 15 16  1  0  0  0
 33 34  1  0  0  0
 34 35  2  0  0  0
 35 30  1  0  0  0
 16  1  1  0  0  0
 27 23  1  0  0  0
 16  6  2  0  0  0
 14  9  1  0  0  0
  3 17  1  0  0  0
 20 21  1  0  0  0
M  END
> <minimizedAffinity>
3.44443

> <CNNscore>
0.4172315001

> <CNNaffinity>
6.5908231735

> <CNN_VS>
2.7498991489

> <CNNaffinity_variance>
0.9975379109

$$$$
[H]N=c1c(C(=O)N([H])C([H])([H])c2oc([H])c([H])c2[H])c([H])c2c(=O)n3c([H])c([H])c([H])c([H])c3nc2n1C([H])([H])c1c([H])c([H])c(C([H])([H])[H])c([H])c1[H]


 35 39  0  0  0  0  0  0  0  0999 V2000
  -11.6697   -6.9323    8.3530 N   0  0  0  0  0  0  0  0  0  0  0  0
  -12.9804   -6.5919    8.2243 C   0  0  0  0  0  0  0  0  0  0  0  0
  -13.3338   -5.5277    8.7814 N   0  0  0  0  0  0  0  0  0  0  0  0
  -13.9149   -7.3666    7.5876 C   0  0  0  0  0  0  0  0  0  0  0  0
  -13.4657   -8.5781    7.0515 C   0  0  0  0  0  0  0  0  0  0  0  0
  -12.1670   -8.9521    7.1623 C   0  0  0  0  0  0  0  0  0  0  0  0
  -11.7514  -10.1522    6.6428 C   0  0  0  0  0  0  0  0  0  0  0  0
  -12.5452  -10.9189    6.0450 O   0  0  0  0  0  0  0  0  0  0  0  0
  -10.4696  -10.5321    6.7669 N   0  0  0  0  0  0  0  0  0  0  0  0
  -10.0464  -11.7085    6.2617 C   0  0  0  0  0  0  0  0  0  0  0  0
   -8.7583  -12.1384    6.3613 C   0  0  0  0  0  0  0  0  0  0  0  0
   -7.8281  -11.3344    7.0126 C   0  0  0  0  0  0  0  0  0  0  0  0
   -8.2928  -10.1424    7.5155 C   0  0  0  0  0  0  0  0  0  0  0  0
   -9.6008   -9.7234    7.4051 C   0  0  0  0  0  0  0  0  0  0  0  0
  -10.0264   -8.5540    7.9051 N   0  0  0  0  0  0  0  0  0  0  0  0
  -11.2930   -8.1048    7.8197 C   0  0  0  0  0  0  0  0  0  0  0  0
  -14.1912   -5.0387    8.8613 H   0  0  0  0  0  0  0  0  0  0  0  0
  -15.2911   -7.0386    7.3196 C   0  0  0  0  0  0  0  0  0  0  0  0
  -15.4760   -5.8593    6.8109 O   0  0  0  0  0  0  0  0  0  0  0  0
  -16.4276   -7.8337    7.5501 N   0  0  0  0  0  0  0  0  0  0  0  0
  -16.3308   -8.7598    7.9876 H   0  0  0  0  0  0  0  0  0  0  0  0
  -17.7710   -7.3729    7.2185 C   0  0  0  0  0  0  0  0  0  0  0  0
  -17.9506   -7.1801    5.7728 C   0  0  0  0  0  0  0  0  0  0  0  0
  -18.0190   -8.1494    4.8093 C   0  0  0  0  0  0  0  0  0  0  0  0
  -18.1945   -7.5076    3.5745 C   0  0  0  0  0  0  0  0  0  0  0  0
  -18.2206   -6.1706    3.8817 C   0  0  0  0  0  0  0  0  0  0  0  0
  -18.0760   -6.0259    5.1640 O   0  0  0  0  0  0  0  0  0  0  0  0
  -10.7422   -6.0997    9.0628 C   0  0  0  0  0  0  0  0  0  0  0  0
   -5.0904   -6.9294    8.0415 C   0  0  0  0  0  0  0  0  0  0  0  0
   -6.5449   -6.6797    8.2435 C   0  0  0  0  0  0  0  0  0  0  0  0
   -7.3520   -6.1158    7.3119 C   0  0  0  0  0  0  0  0  0  0  0  0
   -8.7210   -5.9098    7.5660 C   0  0  0  0  0  0  0  0  0  0  0  0
   -9.3117   -6.2599    8.7488 C   0  0  0  0  0  0  0  0  0  0  0  0
   -8.4492   -6.8404    9.6885 C   0  0  0  0  0  0  0  0  0  0  0  0
   -7.0977   -7.0457    9.4434 C   0  0  0  0  0  0  0  0  0  0  0  0
 29 30  1  0  0  0
 30 31  2  0  0  0
 31 32  1  0  0  0
 32 33  2  0  0  0
 33 28  1  0  0  0
 28  1  1  0  0  0
  1  2  1  0  0  0
  2  3  2  0  0  0
  2  4  1  0  0  0
  4 18  1  0  0  0
 18 19  2  0  0  0
 18 20  1  0  0  0
 20 22  1  0  0  0
 22 23  1  0  0  0
 23 24  2  0  0  0
 24 25  1  0  0  0
 25 26  2  0  0  0
 26 27  1  0  0  0
  4  5  2  0  0  0
  5  6  1  0  0  0
  6  7  1  0  0  0
  7  8  2  0  0  0
  7  9  1  0  0  0
  9 10  1  0  0  0
 10 11  2  0  0  0
 11 12  1  0  0  0
 12 13  2  0  0  0
 13 14  1  0  0  0
 14 15  2  0  0  0
 15 16  1  0  0  0
 33 34  1  0  0  0
 34 35  2  0  0  0
 35 30  1  0  0  0
 16  1  1  0  0  0
 27 23  1  0  0  0
 16  6  2  0  0  0
 14  9  1  0  0  0
  3 17  1  0  0  0
 20 21  1  0  0  0
M  END
> <minimizedAffinity>
5.99208

> <CNNscore>
0.4041311443

> <CNNaffinity>
7.0049843788

> <CNN_VS>
2.8309323788

> <CNNaffinity_variance>
0.8946870565

$$$$
[H]N=c1c(C(=O)N([H])C([H])([H])c2oc([H])c([H])c2[H])c([H])c2c(=O)n3c([H])c([H])c([H])c([H])c3nc2n1C([H])([H])c1c([H])c([H])c(C([H])([H])[H])c([H])c1[H]


 35 39  0  0  0  0  0  0  0  0999 V2000
  -15.5185   -7.6528    6.0778 N   0  0  0  0  0  0  0  0  0  0  0  0
  -16.7992   -8.0068    6.3695 C   0  0  0  0  0  0  0  0  0  0  0  0
  -17.5984   -8.0384    5.4062 N   0  0  0  0  0  0  0  0  0  0  0  0
  -17.2548   -8.2608    7.6371 C   0  0  0  0  0  0  0  0  0  0  0  0
  -16.3252   -8.1355    8.6749 C   0  0  0  0  0  0  0  0  0  0  0  0
  -15.0405   -7.7823    8.4229 C   0  0  0  0  0  0  0  0  0  0  0  0
  -14.1492   -7.6499    9.4578 C   0  0  0  0  0  0  0  0  0  0  0  0
  -14.4877   -7.8646   10.6472 O   0  0  0  0  0  0  0  0  0  0  0  0
  -12.8812   -7.2831    9.2119 N   0  0  0  0  0  0  0  0  0  0  0  0
  -11.9941   -7.1488   10.2185 C   0  0  0  0  0  0  0  0  0  0  0  0
  -10.6983   -6.7797   10.0212 C   0  0  0  0  0  0  0  0  0  0  0  0
  -10.2596   -6.5270    8.7252 C   0  0  0  0  0  0  0  0  0  0  0  0
  -11.1893   -6.6733    7.7233 C   0  0  0  0  0  0  0  0  0  0  0  0
  -12.4971   -7.0479    7.9418 C   0  0  0  0  0  0  0  0  0  0  0  0
  -13.3830   -7.1836    6.9440 N   0  0  0  0  0  0  0  0  0  0  0  0
  -14.6686   -7.5479    7.1111 C   0  0  0  0  0  0  0  0  0  0  0  0
  -18.5609   -8.2507    5.3108 H   0  0  0  0  0  0  0  0  0  0  0  0
  -18.5585   -8.7355    8.0221 C   0  0  0  0  0  0  0  0  0  0  0  0
  -19.4475   -7.8037    8.1804 O   0  0  0  0  0  0  0  0  0  0  0  0
  -18.9608  -10.0640    8.2466 N   0  0  0  0  0  0  0  0  0  0  0  0
  -18.2790  -10.8307    8.1701 H   0  0  0  0  0  0  0  0  0  0  0  0
  -20.3278  -10.4019    8.6260 C   0  0  0  0  0  0  0  0  0  0  0  0
  -20.8873  -11.4730    7.7899 C   0  0  0  0  0  0  0  0  0  0  0  0
  -21.1654  -11.4200    6.4510 C   0  0  0  0  0  0  0  0  0  0  0  0
  -21.6847  -12.6680    6.0766 C   0  0  0  0  0  0  0  0  0  0  0  0
  -21.6848  -13.4030    7.2353 C   0  0  0  0  0  0  0  0  0  0  0  0
  -21.2159  -12.6733    8.2017 O   0  0  0  0  0  0  0  0  0  0  0  0
  -15.1053   -7.3623    4.7354 C   0  0  0  0  0  0  0  0  0  0  0  0
  -15.6067   -1.9224    2.7784 C   0  0  0  0  0  0  0  0  0  0  0  0
  -15.5481   -3.3250    3.2763 C   0  0  0  0  0  0  0  0  0  0  0  0
  -16.6114   -4.1655    3.2961 C   0  0  0  0  0  0  0  0  0  0  0  0
  -16.4874   -5.4821    3.7780 C   0  0  0  0  0  0  0  0  0  0  0  0
  -15.3063   -5.9864    4.2484 C   0  0  0  0  0  0  0  0  0  0  0  0
  -14.2283   -5.0916    4.2129 C   0  0  0  0  0  0  0  0  0  0  0  0
  -14.3449   -3.7914    3.7389 C   0  0  0  0  0  0  0  0  0  0  0  0
 29 30  1  0  0  0
 30 31  2  0  0  0
 31 32  1  0  0  0
 32 33  2  0  0  0
 33 28  1  0  0  0
 28  1  1  0  0  0
  1  2  1  0  0  0
  2  3  2  0  0  0
  2  4  1  0  0  0
  4 18  1  0  0  0
 18 19  2  0  0  0
 18 20  1  0  0  0
 20 22  1  0  0  0
 22 23  1  0  0  0
 23 24  2  0  0  0
 24 25  1  0  0  0
 25 26  2  0  0  0
 26 27  1  0  0  0
  4  5  2  0  0  0
  5  6  1  0  0  0
  6  7  1  0  0  0
  7  8  2  0  0  0
  7  9  1  0  0  0
  9 10  1  0  0  0
 10 11  2  0  0  0
 11 12  1  0  0  0
 12 13  2  0  0  0
 13 14  1  0  0  0
 14 15  2  0  0  0
 15 16  1  0  0  0
 33 34  1  0  0  0
 34 35  2  0  0  0
 35 30  1  0  0  0
 16  1  1  0  0  0
 27 23  1  0  0  0
 16  6  2  0  0  0
 14  9  1  0  0  0
  3 17  1  0  0  0
 20 21  1  0  0  0
M  END
> <minimizedAffinity>
4.33628

> <CNNscore>
0.3890182376

> <CNNaffinity>
6.8534951210

> <CNN_VS>
2.6661345959

> <CNNaffinity_variance>
0.4691413045

$$$$
[H]/C(=C(\[H])C([H])([H])C([H])([H])N([H])C(=O)/C([H])=C([H])/C([H])=C([H])/C([H])=C(\[H])c1sc([H])c([H])c1[H])C([H])([H])OC(=O)C([H])([H])C([H])(C([H])([H])[H])C([H])([H])[H]


 27 27  0  0  0  0  0  0  0  0999 V2000
   -9.4843   -5.6262   12.9452 N   0  0  0  0  0  0  0  0  0  0  0  0
  -10.8806   -5.6045   12.7729 C   0  0  0  0  0  0  0  0  0  0  0  0
  -11.6110   -5.4262   13.7794 O   0  0  0  0  0  0  0  0  0  0  0  0
   -8.8691   -5.7725   12.1096 H   0  0  0  0  0  0  0  0  0  0  0  0
  -11.4855   -5.7809   11.4756 C   0  0  0  0  0  0  0  0  0  0  0  0
  -12.7184   -5.4825   11.1823 C   0  0  0  0  0  0  0  0  0  0  0  0
  -13.2775   -5.6852    9.8411 C   0  0  0  0  0  0  0  0  0  0  0  0
  -13.2260   -6.8209    9.2068 C   0  0  0  0  0  0  0  0  0  0  0  0
  -13.7972   -6.9974    7.8571 C   0  0  0  0  0  0  0  0  0  0  0  0
  -14.4334   -8.0996    7.5336 C   0  0  0  0  0  0  0  0  0  0  0  0
  -15.0030   -8.2654    6.1745 C   0  0  0  0  0  0  0  0  0  0  0  0
  -14.3628   -8.7019    5.0463 C   0  0  0  0  0  0  0  0  0  0  0  0
  -15.0845   -8.7733    3.9162 C   0  0  0  0  0  0  0  0  0  0  0  0
  -16.4007   -8.4029    3.9903 C   0  0  0  0  0  0  0  0  0  0  0  0
  -16.5888   -7.9689    5.6250 S   0  0  0  0  0  0  0  0  0  0  0  0
   -8.8340   -5.4567   14.2216 C   0  0  0  0  0  0  0  0  0  0  0  0
   -7.3443   -5.1926   14.1084 C   0  0  0  0  0  0  0  0  0  0  0  0
   -5.5532   -5.6438   12.4649 C   0  0  0  0  0  0  0  0  0  0  0  0
   -6.7915   -5.7623   12.8659 C   0  0  0  0  0  0  0  0  0  0  0  0
   -4.5466   -4.9065   13.2317 C   0  0  0  0  0  0  0  0  0  0  0  0
   -3.2930   -5.5409   13.1100 O   0  0  0  0  0  0  0  0  0  0  0  0
   -2.7267   -6.1816   14.1851 C   0  0  0  0  0  0  0  0  0  0  0  0
   -1.5565   -5.9108   14.5246 O   0  0  0  0  0  0  0  0  0  0  0  0
   -3.4652   -7.2082   14.9805 C   0  0  0  0  0  0  0  0  0  0  0  0
   -2.9182   -8.4337   17.0923 C   0  0  0  0  0  0  0  0  0  0  0  0
   -2.4788   -8.1004   15.7023 C   0  0  0  0  0  0  0  0  0  0  0  0
   -2.2012   -9.3659   14.9461 C   0  0  0  0  0  0  0  0  0  0  0  0
 25 26  1  0  0  0
 26 27  1  0  0  0
 26 24  1  0  0  0
 24 22  1  0  0  0
 22 23  2  0  0  0
 22 21  1  0  0  0
 21 20  1  0  0  0
 20 18  1  0  0  0
 18 19  2  0  0  0
 19 17  1  0  0  0
 17 16  1  0  0  0
 16  1  1  0  0  0
  1  2  1  0  0  0
  2  3  2  0  0  0
  2  5  1  0  0  0
  5  6  2  0  0  0
  6  7  1  0  0  0
  7  8  2  0  0  0
  8  9  1  0  0  0
  9 10  2  0  0  0
 10 11  1  0  0  0
 11 12  2  0  0  0
 12 13  1  0  0  0
 13 14  2  0  0  0
 14 15  1  0  0  0
 15 11  1  0  0  0
  1  4  1  0  0  0
M  END
> <minimizedAffinity>
-2.51174

> <CNNscore>
0.6470282078

> <CNNaffinity>
5.8117451668

> <CNN_VS>
3.7603631020

> <CNNaffinity_variance>
1.0224612951

$$$$
[H]/C(=C(\[H])C([H])([H])C([H])([H])N([H])C(=O)/C([H])=C([H])/C([H])=C([H])/C([H])=C(\[H])c1sc([H])c([H])c1[H])C([H])([H])OC(=O)C([H])([H])C([H])(C([H])([H])[H])C([H])([H])[H]


 27 27  0  0  0  0  0  0  0  0999 V2000
   -9.5755   -5.6813   13.1474 N   0  0  0  0  0  0  0  0  0  0  0  0
  -10.9471   -5.3916   13.2681 C   0  0  0  0  0  0  0  0  0  0  0  0
  -11.3558   -4.8269   14.3132 O   0  0  0  0  0  0  0  0  0  0  0  0
   -9.2276   -6.1505   12.2774 H   0  0  0  0  0  0  0  0  0  0  0  0
  -11.8856   -5.7264   12.2254 C   0  0  0  0  0  0  0  0  0  0  0  0
  -11.6195   -5.7101   10.9510 C   0  0  0  0  0  0  0  0  0  0  0  0
  -12.6186   -6.0619    9.9359 C   0  0  0  0  0  0  0  0  0  0  0  0
  -13.3937   -7.1042   10.0235 C   0  0  0  0  0  0  0  0  0  0  0  0
  -14.3912   -7.4350    8.9868 C   0  0  0  0  0  0  0  0  0  0  0  0
  -14.0927   -7.3445    7.7113 C   0  0  0  0  0  0  0  0  0  0  0  0
  -15.1031   -7.6797    6.6789 C   0  0  0  0  0  0  0  0  0  0  0  0
  -16.4654   -7.5983    6.7837 C   0  0  0  0  0  0  0  0  0  0  0  0
  -17.1890   -7.9570    5.7109 C   0  0  0  0  0  0  0  0  0  0  0  0
  -16.5004   -8.3736    4.6031 C   0  0  0  0  0  0  0  0  0  0  0  0
  -14.8744   -8.2527    5.0903 S   0  0  0  0  0  0  0  0  0  0  0  0
   -8.6003   -5.3680   14.1631 C   0  0  0  0  0  0  0  0  0  0  0  0
   -7.1757   -5.3391   13.6420 C   0  0  0  0  0  0  0  0  0  0  0  0
   -5.0171   -4.3598   14.3448 C   0  0  0  0  0  0  0  0  0  0  0  0
   -6.2963   -4.5548   14.5283 C   0  0  0  0  0  0  0  0  0  0  0  0
   -4.2937   -4.9190   13.2008 C   0  0  0  0  0  0  0  0  0  0  0  0
   -3.2293   -4.0654   12.8440 O   0  0  0  0  0  0  0  0  0  0  0  0
   -3.1216   -3.5802   11.5633 C   0  0  0  0  0  0  0  0  0  0  0  0
   -2.1933   -2.7989   11.2704 O   0  0  0  0  0  0  0  0  0  0  0  0
   -4.0862   -3.9545   10.4856 C   0  0  0  0  0  0  0  0  0  0  0  0
   -2.9638   -4.1644    8.2592 C   0  0  0  0  0  0  0  0  0  0  0  0
   -3.4108   -4.8779    9.4951 C   0  0  0  0  0  0  0  0  0  0  0  0
   -2.2492   -5.6075   10.1020 C   0  0  0  0  0  0  0  0  0  0  0  0
 25 26  1  0  0  0
 26 27  1  0  0  0
 26 24  1  0  0  0
 24 22  1  0  0  0
 22 23  2  0  0  0
 22 21  1  0  0  0
 21 20  1  0  0  0
 20 18  1  0  0  0
 18 19  2  0  0  0
 19 17  1  0  0  0
 17 16  1  0  0  0
 16  1  1  0  0  0
  1  2  1  0  0  0
  2  3  2  0  0  0
  2  5  1  0  0  0
  5  6  2  0  0  0
  6  7  1  0  0  0
  7  8  2  0  0  0
  8  9  1  0  0  0
  9 10  2  0  0  0
 10 11  1  0  0  0
 11 12  2  0  0  0
 12 13  1  0  0  0
 13 14  2  0  0  0
 14 15  1  0  0  0
 15 11  1  0  0  0
  1  4  1  0  0  0
M  END
> <minimizedAffinity>
-2.70803

> <CNNscore>
0.6371828318

> <CNNaffinity>
5.9020147324

> <CNN_VS>
3.7606625557

> <CNNaffinity_variance>
0.5564523339

$$$$
[H]/C(=C(\[H])C([H])([H])C([H])([H])N([H])C(=O)/C([H])=C([H])/C([H])=C([H])/C([H])=C(\[H])c1sc([H])c([H])c1[H])C([H])([H])OC(=O)C([H])([H])C([H])(C([H])([H])[H])C([H])([H])[H]


 27 27  0  0  0  0  0  0  0  0999 V2000
   -9.4632   -5.6980   13.1418 N   0  0  0  0  0  0  0  0  0  0  0  0
  -10.8547   -5.4893   13.1442 C   0  0  0  0  0  0  0  0  0  0  0  0
  -11.4050   -5.0972   14.2032 O   0  0  0  0  0  0  0  0  0  0  0  0
   -8.9974   -6.0232   12.2612 H   0  0  0  0  0  0  0  0  0  0  0  0
  -11.6554   -5.7139   11.9659 C   0  0  0  0  0  0  0  0  0  0  0  0
  -11.1847   -5.8357   10.7581 C   0  0  0  0  0  0  0  0  0  0  0  0
  -12.0518   -6.0639    9.5969 C   0  0  0  0  0  0  0  0  0  0  0  0
  -13.2128   -6.6480    9.6725 C   0  0  0  0  0  0  0  0  0  0  0  0
  -14.0656   -6.8648    8.4873 C   0  0  0  0  0  0  0  0  0  0  0  0
  -13.8260   -7.8532    7.6565 C   0  0  0  0  0  0  0  0  0  0  0  0
  -14.6898   -8.0611    6.4692 C   0  0  0  0  0  0  0  0  0  0  0  0
  -14.3252   -8.5515    5.2445 C   0  0  0  0  0  0  0  0  0  0  0  0
  -15.2845   -8.6537    4.3106 C   0  0  0  0  0  0  0  0  0  0  0  0
  -16.5467   -8.2581    4.6647 C   0  0  0  0  0  0  0  0  0  0  0  0
  -16.3564   -7.7586    6.2804 S   0  0  0  0  0  0  0  0  0  0  0  0
   -8.6219   -5.4892   14.2947 C   0  0  0  0  0  0  0  0  0  0  0  0
   -7.3058   -4.8102   13.9651 C   0  0  0  0  0  0  0  0  0  0  0  0
   -5.1282   -5.7203   13.2283 C   0  0  0  0  0  0  0  0  0  0  0  0
   -6.4334   -5.6906   13.1664 C   0  0  0  0  0  0  0  0  0  0  0  0
   -4.3648   -4.8522   14.1274 C   0  0  0  0  0  0  0  0  0  0  0  0
   -3.5781   -3.9564   13.3740 O   0  0  0  0  0  0  0  0  0  0  0  0
   -3.0865   -2.8078   13.9450 C   0  0  0  0  0  0  0  0  0  0  0  0
   -2.5408   -1.9423   13.2300 O   0  0  0  0  0  0  0  0  0  0  0  0
   -3.1784   -2.5449   15.4127 C   0  0  0  0  0  0  0  0  0  0  0  0
   -5.5708   -1.8768   15.7143 C   0  0  0  0  0  0  0  0  0  0  0  0
   -4.1498   -1.4130   15.6681 C   0  0  0  0  0  0  0  0  0  0  0  0
   -3.8255   -0.6611   16.9250 C   0  0  0  0  0  0  0  0  0  0  0  0
 25 26  1  0  0  0
 26 27  1  0  0  0
 26 24  1  0  0  0
 24 22  1  0  0  0
 22 23  2  0  0  0
 22 21  1  0  0  0
 21 20  1  0  0  0
 20 18  1  0  0  0
 18 19  2  0  0  0
 19 17  1  0  0  0
 17 16  1  0  0  0
 16  1  1  0  0  0
  1  2  1  0  0  0
  2  3  2  0  0  0
  2  5  1  0  0  0
  5  6  2  0  0  0
  6  7  1  0  0  0
  7  8  2  0  0  0
  8  9  1  0  0  0
  9 10  2  0  0  0
 10 11  1  0  0  0
 11 12  2  0  0  0
 12 13  1  0  0  0
 13 14  2  0  0  0
 14 15  1  0  0  0
 15 11  1  0  0  0
  1  4  1  0  0  0
M  END
> <minimizedAffinity>
-2.35248

> <CNNscore>
0.6313960552

> <CNNaffinity>
5.6813330650

> <CNN_VS>
3.5871713161

> <CNNaffinity_variance>
0.5902746916

$$$$
[H]/C(=C(\[H])C([H])([H])C([H])([H])N([H])C(=O)/C([H])=C([H])/C([H])=C([H])/C([H])=C(\[H])c1sc([H])c([H])c1[H])C([H])([H])OC(=O)C([H])([H])C([H])(C([H])([H])[H])C([H])([H])[H]


 27 27  0  0  0  0  0  0  0  0999 V2000
   -9.2691   -5.7620   13.4610 N   0  0  0  0  0  0  0  0  0  0  0  0
  -10.5960   -5.3226   13.6224 C   0  0  0  0  0  0  0  0  0  0  0  0
  -10.8633   -4.5431   14.5706 O   0  0  0  0  0  0  0  0  0  0  0  0
   -9.0388   -6.4108   12.6710 H   0  0  0  0  0  0  0  0  0  0  0  0
  -11.6466   -5.7449   12.7291 C   0  0  0  0  0  0  0  0  0  0  0  0
  -11.7167   -5.4397   11.4654 C   0  0  0  0  0  0  0  0  0  0  0  0
  -12.8128   -5.9006   10.6060 C   0  0  0  0  0  0  0  0  0  0  0  0
  -12.6282   -6.5746    9.5076 C   0  0  0  0  0  0  0  0  0  0  0  0
  -13.7500   -7.0264    8.6612 C   0  0  0  0  0  0  0  0  0  0  0  0
  -13.6399   -7.0498    7.3529 C   0  0  0  0  0  0  0  0  0  0  0  0
  -14.7738   -7.5059    6.5129 C   0  0  0  0  0  0  0  0  0  0  0  0
  -16.1074   -7.4767    6.8197 C   0  0  0  0  0  0  0  0  0  0  0  0
  -16.9628   -7.9467    5.8975 C   0  0  0  0  0  0  0  0  0  0  0  0
  -16.4262   -8.4150    4.7279 C   0  0  0  0  0  0  0  0  0  0  0  0
  -14.7546   -8.1865    4.9505 S   0  0  0  0  0  0  0  0  0  0  0  0
   -8.1862   -5.3692   14.3292 C   0  0  0  0  0  0  0  0  0  0  0  0
   -6.8414   -5.3162   13.6289 C   0  0  0  0  0  0  0  0  0  0  0  0
   -5.0732   -4.5484   15.1770 C   0  0  0  0  0  0  0  0  0  0  0  0
   -5.9560   -4.3099   14.2432 C   0  0  0  0  0  0  0  0  0  0  0  0
   -4.8611   -5.8861   15.7339 C   0  0  0  0  0  0  0  0  0  0  0  0
   -3.5400   -6.0006   16.2141 O   0  0  0  0  0  0  0  0  0  0  0  0
   -2.7063   -6.9835   15.7386 C   0  0  0  0  0  0  0  0  0  0  0  0
   -1.9210   -7.5628   16.5168 O   0  0  0  0  0  0  0  0  0  0  0  0
   -2.6988   -7.3964   14.3029 C   0  0  0  0  0  0  0  0  0  0  0  0
   -2.7113   -5.5587   12.6049 C   0  0  0  0  0  0  0  0  0  0  0  0
   -1.8727   -6.4189   13.4955 C   0  0  0  0  0  0  0  0  0  0  0  0
   -1.0110   -5.5520   14.3652 C   0  0  0  0  0  0  0  0  0  0  0  0
 25 26  1  0  0  0
 26 27  1  0  0  0
 26 24  1  0  0  0
 24 22  1  0  0  0
 22 23  2  0  0  0
 22 21  1  0  0  0
 21 20  1  0  0  0
 20 18  1  0  0  0
 18 19  2  0  0  0
 19 17  1  0  0  0
 17 16  1  0  0  0
 16  1  1  0  0  0
  1  2  1  0  0  0
  2  3  2  0  0  0
  2  5  1  0  0  0
  5  6  2  0  0  0
  6  7  1  0  0  0
  7  8  2  0  0  0
  8  9  1  0  0  0
  9 10  2  0  0  0
 10 11  1  0  0  0
 11 12  2  0  0  0
 12 13  1  0  0  0
 13 14  2  0  0  0
 14 15  1  0  0  0
 15 11  1  0  0  0
  1  4  1  0  0  0
M  END
> <minimizedAffinity>
-2.73682

> <CNNscore>
0.5956581235

> <CNNaffinity>
5.7133712769

> <CNN_VS>
3.4032161236

> <CNNaffinity_variance>
0.7312716842

$$$$
[H]/C(=C(\[H])C([H])([H])C([H])([H])N([H])C(=O)/C([H])=C([H])/C([H])=C([H])/C([H])=C(\[H])c1sc([H])c([H])c1[H])C([H])([H])OC(=O)C([H])([H])C([H])(C([H])([H])[H])C([H])([H])[H]


 27 27  0  0  0  0  0  0  0  0999 V2000
   -2.8393   -6.6845    5.8664 N   0  0  0  0  0  0  0  0  0  0  0  0
   -3.6192   -7.6744    6.4922 C   0  0  0  0  0  0  0  0  0  0  0  0
   -3.0921   -8.7849    6.7512 O   0  0  0  0  0  0  0  0  0  0  0  0
   -3.2722   -5.7552    5.6492 H   0  0  0  0  0  0  0  0  0  0  0  0
   -4.9996   -7.4423    6.8396 C   0  0  0  0  0  0  0  0  0  0  0  0
   -6.0168   -8.0361    6.2850 C   0  0  0  0  0  0  0  0  0  0  0  0
   -7.4012   -7.7573    6.6826 C   0  0  0  0  0  0  0  0  0  0  0  0
   -8.1368   -8.5949    7.3550 C   0  0  0  0  0  0  0  0  0  0  0  0
   -9.5279   -8.2885    7.7424 C   0  0  0  0  0  0  0  0  0  0  0  0
   -9.8148   -7.2002    8.4187 C   0  0  0  0  0  0  0  0  0  0  0  0
  -11.2162   -6.9030    8.8022 C   0  0  0  0  0  0  0  0  0  0  0  0
  -12.3571   -7.2230    8.1171 C   0  0  0  0  0  0  0  0  0  0  0  0
  -13.5274   -6.8498    8.6596 C   0  0  0  0  0  0  0  0  0  0  0  0
  -13.4782   -6.1804    9.8532 C   0  0  0  0  0  0  0  0  0  0  0  0
  -11.8102   -6.0932   10.1791 S   0  0  0  0  0  0  0  0  0  0  0  0
   -1.4570   -6.8706    5.4982 C   0  0  0  0  0  0  0  0  0  0  0  0
   -0.8730   -5.6957    4.7363 C   0  0  0  0  0  0  0  0  0  0  0  0
   -2.1371   -4.7089    2.8545 C   0  0  0  0  0  0  0  0  0  0  0  0
   -1.3784   -5.6497    3.3519 C   0  0  0  0  0  0  0  0  0  0  0  0
   -2.5834   -3.5599    3.6453 C   0  0  0  0  0  0  0  0  0  0  0  0
   -3.7270   -2.9860    3.0521 O   0  0  0  0  0  0  0  0  0  0  0  0
   -3.6298   -2.3022    1.8647 C   0  0  0  0  0  0  0  0  0  0  0  0
   -3.0744   -1.1848    1.8343 O   0  0  0  0  0  0  0  0  0  0  0  0
   -4.1706   -2.8487    0.5838 C   0  0  0  0  0  0  0  0  0  0  0  0
   -2.6148   -3.0247   -1.3680 C   0  0  0  0  0  0  0  0  0  0  0  0
   -3.5284   -2.1355   -0.5863 C   0  0  0  0  0  0  0  0  0  0  0  0
   -4.5452   -1.5268   -1.5058 C   0  0  0  0  0  0  0  0  0  0  0  0
 25 26  1  0  0  0
 26 27  1  0  0  0
 26 24  1  0  0  0
 24 22  1  0  0  0
 22 23  2  0  0  0
 22 21  1  0  0  0
 21 20  1  0  0  0
 20 18  1  0  0  0
 18 19  2  0  0  0
 19 17  1  0  0  0
 17 16  1  0  0  0
 16  1  1  0  0  0
  1  2  1  0  0  0
  2  3  2  0  0  0
  2  5  1  0  0  0
  5  6  2  0  0  0
  6  7  1  0  0  0
  7  8  2  0  0  0
  8  9  1  0  0  0
  9 10  2  0  0  0
 10 11  1  0  0  0
 11 12  2  0  0  0
 12 13  1  0  0  0
 13 14  2  0  0  0
 14 15  1  0  0  0
 15 11  1  0  0  0
  1  4  1  0  0  0
M  END
> <minimizedAffinity>
-5.36112

> <CNNscore>
0.5593497157

> <CNNaffinity>
5.4650864601

> <CNN_VS>
3.0568945408

> <CNNaffinity_variance>
0.1067466512

$$$$
[H]/C(=C(\[H])C([H])([H])C([H])([H])N([H])C(=O)/C([H])=C([H])/C([H])=C([H])/C([H])=C(\[H])c1sc([H])c([H])c1[H])C([H])([H])OC(=O)C([H])([H])C([H])(C([H])([H])[H])C([H])([H])[H]


 27 27  0  0  0  0  0  0  0  0999 V2000
   -3.2686   -5.7108    6.6789 N   0  0  0  0  0  0  0  0  0  0  0  0
   -3.7516   -6.8567    7.3371 C   0  0  0  0  0  0  0  0  0  0  0  0
   -3.6582   -6.9193    8.5883 O   0  0  0  0  0  0  0  0  0  0  0  0
   -3.3451   -5.6512    5.6355 H   0  0  0  0  0  0  0  0  0  0  0  0
   -4.3469   -7.9516    6.6112 C   0  0  0  0  0  0  0  0  0  0  0  0
   -5.2125   -7.8224    5.6473 C   0  0  0  0  0  0  0  0  0  0  0  0
   -5.7836   -8.9770    4.9450 C   0  0  0  0  0  0  0  0  0  0  0  0
   -6.8381   -8.9044    4.1850 C   0  0  0  0  0  0  0  0  0  0  0  0
   -7.3921  -10.0828    3.4896 C   0  0  0  0  0  0  0  0  0  0  0  0
   -7.1095  -10.3154    2.2285 C   0  0  0  0  0  0  0  0  0  0  0  0
   -7.6719  -11.5026    1.5405 C   0  0  0  0  0  0  0  0  0  0  0  0
   -8.8877  -11.6134    0.9216 C   0  0  0  0  0  0  0  0  0  0  0  0
   -9.1884  -12.7955    0.3600 C   0  0  0  0  0  0  0  0  0  0  0  0
   -8.2513  -13.7894    0.4550 C   0  0  0  0  0  0  0  0  0  0  0  0
   -6.9873  -13.0477    1.3201 S   0  0  0  0  0  0  0  0  0  0  0  0
   -2.6640   -4.5928    7.3610 C   0  0  0  0  0  0  0  0  0  0  0  0
   -3.2379   -3.2513    6.9450 C   0  0  0  0  0  0  0  0  0  0  0  0
   -1.9091   -1.2071    7.3553 C   0  0  0  0  0  0  0  0  0  0  0  0
   -2.1694   -2.2782    6.6530 C   0  0  0  0  0  0  0  0  0  0  0  0
   -2.6773   -0.8446    8.5483 C   0  0  0  0  0  0  0  0  0  0  0  0
   -2.6707    0.5559    8.7144 O   0  0  0  0  0  0  0  0  0  0  0  0
   -3.0221    1.1186    9.9173 C   0  0  0  0  0  0  0  0  0  0  0  0
   -2.9178    2.3516   10.0810 O   0  0  0  0  0  0  0  0  0  0  0  0
   -3.5332    0.3029   11.0598 C   0  0  0  0  0  0  0  0  0  0  0  0
   -3.6943    1.4982   13.2520 C   0  0  0  0  0  0  0  0  0  0  0  0
   -2.8208    0.7056   12.3327 C   0  0  0  0  0  0  0  0  0  0  0  0
   -2.2609   -0.4768   13.0667 C   0  0  0  0  0  0  0  0  0  0  0  0
 25 26  1  0  0  0
 26 27  1  0  0  0
 26 24  1  0  0  0
 24 22  1  0  0  0
 22 23  2  0  0  0
 22 21  1  0  0  0
 21 20  1  0  0  0
 20 18  1  0  0  0
 18 19  2  0  0  0
 19 17  1  0  0  0
 17 16  1  0  0  0
 16  1  1  0  0  0
  1  2  1  0  0  0
  2  3  2  0  0  0
  2  5  1  0  0  0
  5  6  2  0  0  0
  6  7  1  0  0  0
  7  8  2  0  0  0
  8  9  1  0  0  0
  9 10  2  0  0  0
 10 11  1  0  0  0
 11 12  2  0  0  0
 12 13  1  0  0  0
 13 14  2  0  0  0
 14 15  1  0  0  0
 15 11  1  0  0  0
  1  4  1  0  0  0
M  END
> <minimizedAffinity>
3.58496

> <CNNscore>
0.5447006226

> <CNNaffinity>
5.2712569237

> <CNN_VS>
2.8712568283

> <CNNaffinity_variance>
3.2870297432

$$$$
[H]/C(=C(\[H])C([H])([H])C([H])([H])N([H])C(=O)/C([H])=C([H])/C([H])=C([H])/C([H])=C(\[H])c1sc([H])c([H])c1[H])C([H])([H])OC(=O)C([H])([H])C([H])(C([H])([H])[H])C([H])([H])[H]


 27 27  0  0  0  0  0  0  0  0999 V2000
   -9.3856   -5.6746   13.1965 N   0  0  0  0  0  0  0  0  0  0  0  0
  -10.7766   -5.4654   13.1599 C   0  0  0  0  0  0  0  0  0  0  0  0
  -11.3382   -4.9602   14.1636 O   0  0  0  0  0  0  0  0  0  0  0  0
   -8.9104   -6.0938   12.3619 H   0  0  0  0  0  0  0  0  0  0  0  0
  -11.5641   -5.8158   12.0036 C   0  0  0  0  0  0  0  0  0  0  0  0
  -11.1180   -5.8474   10.7809 C   0  0  0  0  0  0  0  0  0  0  0  0
  -11.9698   -6.2127    9.6436 C   0  0  0  0  0  0  0  0  0  0  0  0
  -11.6705   -7.1553    8.7970 C   0  0  0  0  0  0  0  0  0  0  0  0
  -12.5464   -7.5025    7.6607 C   0  0  0  0  0  0  0  0  0  0  0  0
  -13.8534   -7.4525    7.7776 C   0  0  0  0  0  0  0  0  0  0  0  0
  -14.7231   -7.8036    6.6289 C   0  0  0  0  0  0  0  0  0  0  0  0
  -14.3614   -8.4264    5.4650 C   0  0  0  0  0  0  0  0  0  0  0  0
  -15.3261   -8.6446    4.5568 C   0  0  0  0  0  0  0  0  0  0  0  0
  -16.5902   -8.2248    4.8740 C   0  0  0  0  0  0  0  0  0  0  0  0
  -16.3943   -7.5425    6.4207 S   0  0  0  0  0  0  0  0  0  0  0  0
   -8.5572   -5.3427   14.3298 C   0  0  0  0  0  0  0  0  0  0  0  0
   -7.2005   -4.7855   13.9417 C   0  0  0  0  0  0  0  0  0  0  0  0
   -5.3878   -6.3035   13.2187 C   0  0  0  0  0  0  0  0  0  0  0  0
   -6.5091   -5.6726   12.9884 C   0  0  0  0  0  0  0  0  0  0  0  0
   -4.6718   -6.1930   14.4915 C   0  0  0  0  0  0  0  0  0  0  0  0
   -3.3428   -6.6373   14.3330 O   0  0  0  0  0  0  0  0  0  0  0  0
   -2.4003   -5.8274   13.7475 C   0  0  0  0  0  0  0  0  0  0  0  0
   -1.7411   -6.2444   12.7731 O   0  0  0  0  0  0  0  0  0  0  0  0
   -2.1249   -4.4428   14.2363 C   0  0  0  0  0  0  0  0  0  0  0  0
   -2.7797   -2.0469   13.9338 C   0  0  0  0  0  0  0  0  0  0  0  0
   -3.0574   -3.4661   13.5532 C   0  0  0  0  0  0  0  0  0  0  0  0
   -3.0244   -3.6016   12.0596 C   0  0  0  0  0  0  0  0  0  0  0  0
 25 26  1  0  0  0
 26 27  1  0  0  0
 26 24  1  0  0  0
 24 22  1  0  0  0
 22 23  2  0  0  0
 22 21  1  0  0  0
 21 20  1  0  0  0
 20 18  1  0  0  0
 18 19  2  0  0  0
 19 17  1  0  0  0
 17 16  1  0  0  0
 16  1  1  0  0  0
  1  2  1  0  0  0
  2  3  2  0  0  0
  2  5  1  0  0  0
  5  6  2  0  0  0
  6  7  1  0  0  0
  7  8  2  0  0  0
  8  9  1  0  0  0
  9 10  2  0  0  0
 10 11  1  0  0  0
 11 12  2  0  0  0
 12 13  1  0  0  0
 13 14  2  0  0  0
 14 15  1  0  0  0
 15 11  1  0  0  0
  1  4  1  0  0  0
M  END
> <minimizedAffinity>
-2.13627

> <CNNscore>
0.5329790711

> <CNNaffinity>
5.6928839684

> <CNN_VS>
3.0341880322

> <CNNaffinity_variance>
0.5733700991

$$$$
[H]/C(=C(\[H])C([H])([H])C([H])([H])N([H])C(=O)/C([H])=C([H])/C([H])=C([H])/C([H])=C(\[H])c1sc([H])c([H])c1[H])C([H])([H])OC(=O)C([H])([H])C([H])(C([H])([H])[H])C([H])([H])[H]


 27 27  0  0  0  0  0  0  0  0999 V2000
   -3.1375   -5.9587    6.3264 N   0  0  0  0  0  0  0  0  0  0  0  0
   -3.7658   -6.9714    7.0745 C   0  0  0  0  0  0  0  0  0  0  0  0
   -3.7096   -6.9195    8.3285 O   0  0  0  0  0  0  0  0  0  0  0  0
   -3.1821   -5.9949    5.2801 H   0  0  0  0  0  0  0  0  0  0  0  0
   -4.4671   -8.0584    6.4369 C   0  0  0  0  0  0  0  0  0  0  0  0
   -5.1042   -7.9709    5.3049 C   0  0  0  0  0  0  0  0  0  0  0  0
   -5.8002   -9.1148    4.7053 C   0  0  0  0  0  0  0  0  0  0  0  0
   -6.7441   -8.9946    3.8167 C   0  0  0  0  0  0  0  0  0  0  0  0
   -7.4282  -10.1633    3.2293 C   0  0  0  0  0  0  0  0  0  0  0  0
   -7.0490  -10.6546    2.0720 C   0  0  0  0  0  0  0  0  0  0  0  0
   -7.7439  -11.8292    1.4919 C   0  0  0  0  0  0  0  0  0  0  0  0
   -8.9340  -11.8479    0.8160 C   0  0  0  0  0  0  0  0  0  0  0  0
   -9.3751  -13.0377    0.3769 C   0  0  0  0  0  0  0  0  0  0  0  0
   -8.5950  -14.1311    0.6434 C   0  0  0  0  0  0  0  0  0  0  0  0
   -7.2781  -13.4686    1.4936 S   0  0  0  0  0  0  0  0  0  0  0  0
   -2.4233   -4.8542    6.9186 C   0  0  0  0  0  0  0  0  0  0  0  0
   -2.6141   -3.5455    6.1753 C   0  0  0  0  0  0  0  0  0  0  0  0
   -2.2392   -2.7121    3.8779 C   0  0  0  0  0  0  0  0  0  0  0  0
   -2.2914   -3.6897    4.7438 C   0  0  0  0  0  0  0  0  0  0  0  0
   -2.5056   -1.3203    4.2479 C   0  0  0  0  0  0  0  0  0  0  0  0
   -3.1134   -0.6462    3.1687 O   0  0  0  0  0  0  0  0  0  0  0  0
   -3.5455    0.6503    3.3087 C   0  0  0  0  0  0  0  0  0  0  0  0
   -4.1302    1.2164    2.3623 O   0  0  0  0  0  0  0  0  0  0  0  0
   -3.3417    1.4266    4.5687 C   0  0  0  0  0  0  0  0  0  0  0  0
   -4.6266    0.6069    6.5530 C   0  0  0  0  0  0  0  0  0  0  0  0
   -4.6391    1.4883    5.3450 C   0  0  0  0  0  0  0  0  0  0  0  0
   -4.9913    2.8894    5.7490 C   0  0  0  0  0  0  0  0  0  0  0  0
 25 26  1  0  0  0
 26 27  1  0  0  0
 26 24  1  0  0  0
 24 22  1  0  0  0
 22 23  2  0  0  0
 22 21  1  0  0  0
 21 20  1  0  0  0
 20 18  1  0  0  0
 18 19  2  0  0  0
 19 17  1  0  0  0
 17 16  1  0  0  0
 16  1  1  0  0  0
  1  2  1  0  0  0
  2  3  2  0  0  0
  2  5  1  0  0  0
  5  6  2  0  0  0
  6  7  1  0  0  0
  7  8  2  0  0  0
  8  9  1  0  0  0
  9 10  2  0  0  0
 10 11  1  0  0  0
 11 12  2  0  0  0
 12 13  1  0  0  0
 13 14  2  0  0  0
 14 15  1  0  0  0
 15 11  1  0  0  0
  1  4  1  0  0  0
M  END
> <minimizedAffinity>
3.92371

> <CNNscore>
0.5329434872

> <CNNaffinity>
5.3281879425

> <CNN_VS>
2.8396229744

> <CNNaffinity_variance>
2.1683492661

$$$$
[H]/C(=C(\[H])C([H])([H])C([H])([H])N([H])C(=O)/C([H])=C([H])/C([H])=C([H])/C([H])=C(\[H])c1sc([H])c([H])c1[H])C([H])([H])OC(=O)C([H])([H])C([H])(C([H])([H])[H])C([H])([H])[H]


 27 27  0  0  0  0  0  0  0  0999 V2000
  -14.6419   -9.2478    5.6012 N   0  0  0  0  0  0  0  0  0  0  0  0
  -13.5800   -9.6992    6.4065 C   0  0  0  0  0  0  0  0  0  0  0  0
  -12.4475   -9.8502    5.8842 O   0  0  0  0  0  0  0  0  0  0  0  0
  -15.5888   -9.1178    6.0309 H   0  0  0  0  0  0  0  0  0  0  0  0
  -13.7632   -9.9892    7.8073 C   0  0  0  0  0  0  0  0  0  0  0  0
  -12.9912   -9.5598    8.7636 C   0  0  0  0  0  0  0  0  0  0  0  0
  -13.2299   -9.8895   10.1732 C   0  0  0  0  0  0  0  0  0  0  0  0
  -13.3612   -8.9922   11.1072 C   0  0  0  0  0  0  0  0  0  0  0  0
  -13.6011   -9.3519   12.5187 C   0  0  0  0  0  0  0  0  0  0  0  0
  -12.9904   -8.7130   13.4899 C   0  0  0  0  0  0  0  0  0  0  0  0
  -13.2396   -9.0832   14.9041 C   0  0  0  0  0  0  0  0  0  0  0  0
  -14.3255   -8.7645   15.6738 C   0  0  0  0  0  0  0  0  0  0  0  0
  -14.3369   -9.2119   16.9398 C   0  0  0  0  0  0  0  0  0  0  0  0
  -13.2595   -9.9498   17.3520 C   0  0  0  0  0  0  0  0  0  0  0  0
  -12.2700   -9.9956   15.9681 S   0  0  0  0  0  0  0  0  0  0  0  0
  -14.5078   -8.9473    4.1968 C   0  0  0  0  0  0  0  0  0  0  0  0
  -15.5003   -7.9104    3.7051 C   0  0  0  0  0  0  0  0  0  0  0  0
  -14.7129   -5.8161    4.7571 C   0  0  0  0  0  0  0  0  0  0  0  0
  -14.9075   -6.5604    3.7005 C   0  0  0  0  0  0  0  0  0  0  0  0
  -15.0758   -6.2568    6.1057 C   0  0  0  0  0  0  0  0  0  0  0  0
  -13.9194   -6.6609    6.8045 O   0  0  0  0  0  0  0  0  0  0  0  0
  -13.8339   -6.5005    8.1662 C   0  0  0  0  0  0  0  0  0  0  0  0
  -14.7089   -6.9947    8.9066 O   0  0  0  0  0  0  0  0  0  0  0  0
  -12.7177   -5.7457    8.8112 C   0  0  0  0  0  0  0  0  0  0  0  0
  -13.1585   -5.8122   11.2733 C   0  0  0  0  0  0  0  0  0  0  0  0
  -13.2386   -4.9997   10.0204 C   0  0  0  0  0  0  0  0  0  0  0  0
  -12.5352   -3.6906   10.2246 C   0  0  0  0  0  0  0  0  0  0  0  0
 25 26  1  0  0  0
 26 27  1  0  0  0
 26 24  1  0  0  0
 24 22  1  0  0  0
 22 23  2  0  0  0
 22 21  1  0  0  0
 21 20  1  0  0  0
 20 18  1  0  0  0
 18 19  2  0  0  0
 19 17  1  0  0  0
 17 16  1  0  0  0
 16  1  1  0  0  0
  1  2  1  0  0  0
  2  3  2  0  0  0
  2  5  1  0  0  0
  5  6  2  0  0  0
  6  7  1  0  0  0
  7  8  2  0  0  0
  8  9  1  0  0  0
  9 10  2  0  0  0
 10 11  1  0  0  0
 11 12  2  0  0  0
 12 13  1  0  0  0
 13 14  2  0  0  0
 14 15  1  0  0  0
 15 11  1  0  0  0
  1  4  1  0  0  0
M  END
> <minimizedAffinity>
11.67805

> <CNNscore>
0.5154173970

> <CNNaffinity>
6.3114676476

> <CNN_VS>
3.2530403137

> <CNNaffinity_variance>
0.2809526324

$$$$
[H]Oc1nc(N([H])c2c([H])c(OC([H])([H])[H])c([H])c([H])c2OC([H])([H])[H])c([H])c2c([H])c([H])c([H])c([H])c12


 24 26  0  0  0  0  0  0  0  0999 V2000
  -13.6504   -8.2483    7.9044 N   0  0  0  0  0  0  0  0  0  0  0  0
  -13.9711   -9.0944    8.5085 H   0  0  0  0  0  0  0  0  0  0  0  0
  -14.6215   -7.7484    7.0411 C   0  0  0  0  0  0  0  0  0  0  0  0
  -14.3792   -6.5561    6.3592 C   0  0  0  0  0  0  0  0  0  0  0  0
  -15.3135   -6.0197    5.4908 C   0  0  0  0  0  0  0  0  0  0  0  0
  -15.0827   -4.8402    4.8114 C   0  0  0  0  0  0  0  0  0  0  0  0
  -16.0433   -4.3479    3.9591 C   0  0  0  0  0  0  0  0  0  0  0  0
  -17.2190   -5.0075    3.7756 C   0  0  0  0  0  0  0  0  0  0  0  0
  -17.4528   -6.1802    4.4488 C   0  0  0  0  0  0  0  0  0  0  0  0
  -16.5022   -6.6779    5.2994 C   0  0  0  0  0  0  0  0  0  0  0  0
  -16.7269   -7.8553    5.9807 C   0  0  0  0  0  0  0  0  0  0  0  0
  -17.9244   -8.5250    5.7924 O   0  0  0  0  0  0  0  0  0  0  0  0
  -15.7818   -8.3178    6.8046 N   0  0  0  0  0  0  0  0  0  0  0  0
  -17.9238   -9.2739    5.1163 H   0  0  0  0  0  0  0  0  0  0  0  0
   -9.9083   -8.0331    7.7873 C   0  0  0  0  0  0  0  0  0  0  0  0
   -9.7332   -6.9847    8.6522 C   0  0  0  0  0  0  0  0  0  0  0  0
  -10.7997   -6.3593    9.2613 C   0  0  0  0  0  0  0  0  0  0  0  0
  -12.0928   -6.7883    9.0044 C   0  0  0  0  0  0  0  0  0  0  0  0
  -12.3285   -7.8513    8.1321 C   0  0  0  0  0  0  0  0  0  0  0  0
  -11.2255   -8.4443    7.5474 C   0  0  0  0  0  0  0  0  0  0  0  0
   -7.8420   -9.3637    7.8643 C   0  0  0  0  0  0  0  0  0  0  0  0
   -8.8252   -8.6573    7.1779 O   0  0  0  0  0  0  0  0  0  0  0  0
  -13.1832   -6.1821    9.5993 O   0  0  0  0  0  0  0  0  0  0  0  0
  -12.9735   -5.1243   10.5287 C   0  0  0  0  0  0  0  0  0  0  0  0
 21 22  1  0  0  0
 22 15  1  0  0  0
 15 16  2  0  0  0
 16 17  1  0  0  0
 17 18  2  0  0  0
 18 23  1  0  0  0
 23 24  1  0  0  0
 18 19  1  0  0  0
 19  1  1  0  0  0
  1  3  1  0  0  0
  3  4  2  0  0  0
  4  5  1  0  0  0
  5  6  2  0  0  0
  6  7  1  0  0  0
  7  8  2  0  0  0
  8  9  1  0  0  0
  9 10  2  0  0  0
 10 11  1  0  0  0
 11 12  1  0  0  0
 11 13  2  0  0  0
 19 20  2  0  0  0
 20 15  1  0  0  0
 13  3  1  0  0  0
 10  5  1  0  0  0
  1  2  1  0  0  0
 12 14  1  0  0  0
M  END
> <minimizedAffinity>
-9.37988

> <CNNscore>
0.7264284492

> <CNNaffinity>
6.8504266739

> <CNN_VS>
4.9763450623

> <CNNaffinity_variance>
0.2420671731

$$$$
[H]Oc1nc(N([H])c2c([H])c(OC([H])([H])[H])c([H])c([H])c2OC([H])([H])[H])c([H])c2c([H])c([H])c([H])c([H])c12


 24 26  0  0  0  0  0  0  0  0999 V2000
  -12.7541   -9.0853    8.1295 N   0  0  0  0  0  0  0  0  0  0  0  0
  -12.8521   -9.9103    8.8319 H   0  0  0  0  0  0  0  0  0  0  0  0
  -13.9174   -8.7747    7.4307 C   0  0  0  0  0  0  0  0  0  0  0  0
  -13.8881   -8.7450    6.0366 C   0  0  0  0  0  0  0  0  0  0  0  0
  -15.0183   -8.4416    5.2981 C   0  0  0  0  0  0  0  0  0  0  0  0
  -14.9990   -8.4097    3.9180 C   0  0  0  0  0  0  0  0  0  0  0  0
  -16.1492   -8.1026    3.2294 C   0  0  0  0  0  0  0  0  0  0  0  0
  -17.3071   -7.8295    3.8895 C   0  0  0  0  0  0  0  0  0  0  0  0
  -17.3310   -7.8600    5.2613 C   0  0  0  0  0  0  0  0  0  0  0  0
  -16.1907   -8.1648    5.9552 C   0  0  0  0  0  0  0  0  0  0  0  0
  -16.2036   -8.1982    7.3336 C   0  0  0  0  0  0  0  0  0  0  0  0
  -17.3833   -7.9199    8.0034 O   0  0  0  0  0  0  0  0  0  0  0  0
  -15.0762   -8.4985    7.9851 N   0  0  0  0  0  0  0  0  0  0  0  0
  -17.9429   -8.7110    8.2845 H   0  0  0  0  0  0  0  0  0  0  0  0
   -9.0961   -8.5537    7.4975 C   0  0  0  0  0  0  0  0  0  0  0  0
   -8.9685   -7.3066    8.0510 C   0  0  0  0  0  0  0  0  0  0  0  0
  -10.0400   -6.6497    8.6169 C   0  0  0  0  0  0  0  0  0  0  0  0
  -11.2891   -7.2508    8.6360 C   0  0  0  0  0  0  0  0  0  0  0  0
  -11.4754   -8.5196    8.0865 C   0  0  0  0  0  0  0  0  0  0  0  0
  -10.3696   -9.1356    7.5317 C   0  0  0  0  0  0  0  0  0  0  0  0
   -6.9459   -8.5613    6.3046 C   0  0  0  0  0  0  0  0  0  0  0  0
   -8.0084   -9.2079    6.9290 O   0  0  0  0  0  0  0  0  0  0  0  0
  -12.3831   -6.6184    9.1959 O   0  0  0  0  0  0  0  0  0  0  0  0
  -12.2185   -5.8683   10.3946 C   0  0  0  0  0  0  0  0  0  0  0  0
 21 22  1  0  0  0
 22 15  1  0  0  0
 15 16  2  0  0  0
 16 17  1  0  0  0
 17 18  2  0  0  0
 18 23  1  0  0  0
 23 24  1  0  0  0
 18 19  1  0  0  0
 19  1  1  0  0  0
  1  3  1  0  0  0
  3  4  2  0  0  0
  4  5  1  0  0  0
  5  6  2  0  0  0
  6  7  1  0  0  0
  7  8  2  0  0  0
  8  9  1  0  0  0
  9 10  2  0  0  0
 10 11  1  0  0  0
 11 12  1  0  0  0
 11 13  2  0  0  0
 19 20  2  0  0  0
 20 15  1  0  0  0
 13  3  1  0  0  0
 10  5  1  0  0  0
  1  2  1  0  0  0
 12 14  1  0  0  0
M  END
> <minimizedAffinity>
-8.63868

> <CNNscore>
0.6387979388

> <CNNaffinity>
6.7045135498

> <CNN_VS>
4.2828292847

> <CNNaffinity_variance>
0.2785339952

$$$$
[H]Oc1nc(N([H])c2c([H])c(OC([H])([H])[H])c([H])c([H])c2OC([H])([H])[H])c([H])c2c([H])c([H])c([H])c([H])c12


 24 26  0  0  0  0  0  0  0  0999 V2000
  -13.3371   -8.6420    6.9444 N   0  0  0  0  0  0  0  0  0  0  0  0
  -13.2836   -9.7281    6.9086 H   0  0  0  0  0  0  0  0  0  0  0  0
  -14.4092   -8.0890    6.2495 C   0  0  0  0  0  0  0  0  0  0  0  0
  -14.3071   -6.7861    5.7625 C   0  0  0  0  0  0  0  0  0  0  0  0
  -15.3455   -6.1933    5.0662 C   0  0  0  0  0  0  0  0  0  0  0  0
  -15.2537   -4.9042    4.5804 C   0  0  0  0  0  0  0  0  0  0  0  0
  -16.3140   -4.3596    3.8942 C   0  0  0  0  0  0  0  0  0  0  0  0
  -17.4532   -5.0739    3.6870 C   0  0  0  0  0  0  0  0  0  0  0  0
  -17.5490   -6.3555    4.1681 C   0  0  0  0  0  0  0  0  0  0  0  0
  -16.4985   -6.9059    4.8523 C   0  0  0  0  0  0  0  0  0  0  0  0
  -16.5842   -8.1928    5.3399 C   0  0  0  0  0  0  0  0  0  0  0  0
  -17.7448   -8.9180    5.1279 O   0  0  0  0  0  0  0  0  0  0  0  0
  -15.5437   -8.7047    6.0042 N   0  0  0  0  0  0  0  0  0  0  0  0
  -17.7501   -9.5445    4.3370 H   0  0  0  0  0  0  0  0  0  0  0  0
  -11.4478   -6.3677    9.2511 C   0  0  0  0  0  0  0  0  0  0  0  0
  -10.2020   -6.9223    9.1155 C   0  0  0  0  0  0  0  0  0  0  0  0
   -9.9749   -8.0077    8.2970 C   0  0  0  0  0  0  0  0  0  0  0  0
  -11.0231   -8.5678    7.5831 C   0  0  0  0  0  0  0  0  0  0  0  0
  -12.3119   -8.0430    7.6840 C   0  0  0  0  0  0  0  0  0  0  0  0
  -12.4866   -6.9548    8.5178 C   0  0  0  0  0  0  0  0  0  0  0  0
  -12.8983   -4.9491   10.6404 C   0  0  0  0  0  0  0  0  0  0  0  0
  -11.6661   -5.2724   10.0799 O   0  0  0  0  0  0  0  0  0  0  0  0
  -10.8281   -9.6563    6.7540 O   0  0  0  0  0  0  0  0  0  0  0  0
   -9.6127  -10.3924    6.8419 C   0  0  0  0  0  0  0  0  0  0  0  0
 21 22  1  0  0  0
 22 15  1  0  0  0
 15 16  2  0  0  0
 16 17  1  0  0  0
 17 18  2  0  0  0
 18 23  1  0  0  0
 23 24  1  0  0  0
 18 19  1  0  0  0
 19  1  1  0  0  0
  1  3  1  0  0  0
  3  4  2  0  0  0
  4  5  1  0  0  0
  5  6  2  0  0  0
  6  7  1  0  0  0
  7  8  2  0  0  0
  8  9  1  0  0  0
  9 10  2  0  0  0
 10 11  1  0  0  0
 11 12  1  0  0  0
 11 13  2  0  0  0
 19 20  2  0  0  0
 20 15  1  0  0  0
 13  3  1  0  0  0
 10  5  1  0  0  0
  1  2  1  0  0  0
 12 14  1  0  0  0
M  END
> <minimizedAffinity>
-8.65554

> <CNNscore>
0.6350395679

> <CNNaffinity>
6.6439962387

> <CNN_VS>
4.2192006111

> <CNNaffinity_variance>
0.1631579548

$$$$
[H]Oc1nc(N([H])c2c([H])c(OC([H])([H])[H])c([H])c([H])c2OC([H])([H])[H])c([H])c2c([H])c([H])c([H])c([H])c12


 24 26  0  0  0  0  0  0  0  0999 V2000
   -7.1848   -9.0896    6.3493 N   0  0  0  0  0  0  0  0  0  0  0  0
   -7.9854   -9.5673    6.9102 H   0  0  0  0  0  0  0  0  0  0  0  0
   -6.2902   -8.3551    7.1229 C   0  0  0  0  0  0  0  0  0  0  0  0
   -4.9580   -8.2616    6.7208 C   0  0  0  0  0  0  0  0  0  0  0  0
   -4.0317   -7.5434    7.4562 C   0  0  0  0  0  0  0  0  0  0  0  0
   -2.7110   -7.4451    7.0662 C   0  0  0  0  0  0  0  0  0  0  0  0
   -1.8287   -6.7191    7.8318 C   0  0  0  0  0  0  0  0  0  0  0  0
   -2.2394   -6.0956    8.9691 C   0  0  0  0  0  0  0  0  0  0  0  0
   -3.5512   -6.1905    9.3607 C   0  0  0  0  0  0  0  0  0  0  0  0
   -4.4367   -6.9111    8.6048 C   0  0  0  0  0  0  0  0  0  0  0  0
   -5.7569   -7.0130    8.9891 C   0  0  0  0  0  0  0  0  0  0  0  0
   -6.1727   -6.3775   10.1472 O   0  0  0  0  0  0  0  0  0  0  0  0
   -6.5992   -7.7228    8.2324 N   0  0  0  0  0  0  0  0  0  0  0  0
   -6.5934   -5.4669   10.0389 H   0  0  0  0  0  0  0  0  0  0  0  0
   -7.6553  -10.7362    3.0130 C   0  0  0  0  0  0  0  0  0  0  0  0
   -7.3012   -9.6837    2.2100 C   0  0  0  0  0  0  0  0  0  0  0  0
   -6.9183   -8.4674    2.7330 C   0  0  0  0  0  0  0  0  0  0  0  0
   -6.8842   -8.2842    4.1068 C   0  0  0  0  0  0  0  0  0  0  0  0
   -7.2347   -9.3221    4.9707 C   0  0  0  0  0  0  0  0  0  0  0  0
   -7.6112  -10.5214    4.3963 C   0  0  0  0  0  0  0  0  0  0  0  0
   -7.9486  -12.2835    1.1247 C   0  0  0  0  0  0  0  0  0  0  0  0
   -8.0402  -11.9595    2.4751 O   0  0  0  0  0  0  0  0  0  0  0  0
   -6.5047   -7.0768    4.6622 O   0  0  0  0  0  0  0  0  0  0  0  0
   -7.5021   -6.1171    4.9955 C   0  0  0  0  0  0  0  0  0  0  0  0
 21 22  1  0  0  0
 22 15  1  0  0  0
 15 16  2  0  0  0
 16 17  1  0  0  0
 17 18  2  0  0  0
 18 23  1  0  0  0
 23 24  1  0  0  0
 18 19  1  0  0  0
 19  1  1  0  0  0
  1  3  1  0  0  0
  3  4  2  0  0  0
  4  5  1  0  0  0
  5  6  2  0  0  0
  6  7  1  0  0  0
  7  8  2  0  0  0
  8  9  1  0  0  0
  9 10  2  0  0  0
 10 11  1  0  0  0
 11 12  1  0  0  0
 11 13  2  0  0  0
 19 20  2  0  0  0
 20 15  1  0  0  0
 13  3  1  0  0  0
 10  5  1  0  0  0
  1  2  1  0  0  0
 12 14  1  0  0  0
M  END
> <minimizedAffinity>
11.13457

> <CNNscore>
0.5179285407

> <CNNaffinity>
4.9601163864

> <CNN_VS>
2.5689859390

> <CNNaffinity_variance>
0.6589779258

$$$$
[H]Oc1nc(N([H])c2c([H])c(OC([H])([H])[H])c([H])c([H])c2OC([H])([H])[H])c([H])c2c([H])c([H])c([H])c([H])c12


 24 26  0  0  0  0  0  0  0  0999 V2000
  -13.1731   -8.5035    7.6493 N   0  0  0  0  0  0  0  0  0  0  0  0
  -13.6426   -9.0522    8.4631 H   0  0  0  0  0  0  0  0  0  0  0  0
  -14.0127   -8.2259    6.5741 C   0  0  0  0  0  0  0  0  0  0  0  0
  -15.0801   -7.3459    6.7518 C   0  0  0  0  0  0  0  0  0  0  0  0
  -15.9417   -7.0388    5.7135 C   0  0  0  0  0  0  0  0  0  0  0  0
  -17.0008   -6.1690    5.8797 C   0  0  0  0  0  0  0  0  0  0  0  0
  -17.8292   -5.8960    4.8163 C   0  0  0  0  0  0  0  0  0  0  0  0
  -17.6195   -6.4716    3.6015 C   0  0  0  0  0  0  0  0  0  0  0  0
  -16.5680   -7.3369    3.4316 C   0  0  0  0  0  0  0  0  0  0  0  0
  -15.7381   -7.6145    4.4846 C   0  0  0  0  0  0  0  0  0  0  0  0
  -14.6787   -8.4824    4.3248 C   0  0  0  0  0  0  0  0  0  0  0  0
  -14.4672   -9.0671    3.0874 O   0  0  0  0  0  0  0  0  0  0  0  0
  -13.8849   -8.7353    5.3697 N   0  0  0  0  0  0  0  0  0  0  0  0
  -13.7943   -8.6196    2.4833 H   0  0  0  0  0  0  0  0  0  0  0  0
   -9.4251   -8.5884    7.5565 C   0  0  0  0  0  0  0  0  0  0  0  0
   -9.1727   -7.5107    8.3643 C   0  0  0  0  0  0  0  0  0  0  0  0
  -10.1900   -6.7710    8.9280 C   0  0  0  0  0  0  0  0  0  0  0  0
  -11.5113   -7.1111    8.6826 C   0  0  0  0  0  0  0  0  0  0  0  0
  -11.8253   -8.1991    7.8676 C   0  0  0  0  0  0  0  0  0  0  0  0
  -10.7693   -8.9080    7.3269 C   0  0  0  0  0  0  0  0  0  0  0  0
   -7.2922   -8.7699    6.3467 C   0  0  0  0  0  0  0  0  0  0  0  0
   -8.3912   -9.3282    6.9927 O   0  0  0  0  0  0  0  0  0  0  0  0
  -12.5539   -6.3895    9.2329 O   0  0  0  0  0  0  0  0  0  0  0  0
  -12.4124   -5.8442   10.5403 C   0  0  0  0  0  0  0  0  0  0  0  0
 21 22  1  0  0  0
 22 15  1  0  0  0
 15 16  2  0  0  0
 16 17  1  0  0  0
 17 18  2  0  0  0
 18 23  1  0  0  0
 23 24  1  0  0  0
 18 19  1  0  0  0
 19  1  1  0  0  0
  1  3  1  0  0  0
  3  4  2  0  0  0
  4  5  1  0  0  0
  5  6  2  0  0  0
  6  7  1  0  0  0
  7  8  2  0  0  0
  8  9  1  0  0  0
  9 10  2  0  0  0
 10 11  1  0  0  0
 11 12  1  0  0  0
 11 13  2  0  0  0
 19 20  2  0  0  0
 20 15  1  0  0  0
 13  3  1  0  0  0
 10  5  1  0  0  0
  1  2  1  0  0  0
 12 14  1  0  0  0
M  END
> <minimizedAffinity>
-7.85870

> <CNNscore>
0.4845496118

> <CNNaffinity>
6.4724340439

> <CNN_VS>
3.1362154484

> <CNNaffinity_variance>
0.2509683967

$$$$
[H]Oc1nc(N([H])c2c([H])c(OC([H])([H])[H])c([H])c([H])c2OC([H])([H])[H])c([H])c2c([H])c([H])c([H])c([H])c12


 24 26  0  0  0  0  0  0  0  0999 V2000
  -13.7043   -8.0075    7.7192 N   0  0  0  0  0  0  0  0  0  0  0  0
  -14.1384   -8.8017    8.3229 H   0  0  0  0  0  0  0  0  0  0  0  0
  -14.5646   -7.4609    6.7709 C   0  0  0  0  0  0  0  0  0  0  0  0
  -15.7022   -8.1730    6.3914 C   0  0  0  0  0  0  0  0  0  0  0  0
  -16.5869   -7.6714    5.4530 C   0  0  0  0  0  0  0  0  0  0  0  0
  -17.7155   -8.3688    5.0711 C   0  0  0  0  0  0  0  0  0  0  0  0
  -18.5641   -7.8273    4.1340 C   0  0  0  0  0  0  0  0  0  0  0  0
  -18.3070   -6.6126    3.5776 C   0  0  0  0  0  0  0  0  0  0  0  0
  -17.1864   -5.9158    3.9541 C   0  0  0  0  0  0  0  0  0  0  0  0
  -16.3358   -6.4472    4.8864 C   0  0  0  0  0  0  0  0  0  0  0  0
  -15.2071   -5.7555    5.2719 C   0  0  0  0  0  0  0  0  0  0  0  0
  -14.9474   -4.5193    4.7041 O   0  0  0  0  0  0  0  0  0  0  0  0
  -14.3945   -6.2980    6.1836 N   0  0  0  0  0  0  0  0  0  0  0  0
  -15.2486   -3.7090    5.2243 H   0  0  0  0  0  0  0  0  0  0  0  0
   -9.9565   -8.0721    7.8345 C   0  0  0  0  0  0  0  0  0  0  0  0
   -9.7582   -7.0486    8.7238 C   0  0  0  0  0  0  0  0  0  0  0  0
  -10.8112   -6.3512    9.2757 C   0  0  0  0  0  0  0  0  0  0  0  0
  -12.1140   -6.6795    8.9339 C   0  0  0  0  0  0  0  0  0  0  0  0
  -12.3733   -7.7130    8.0332 C   0  0  0  0  0  0  0  0  0  0  0  0
  -11.2831   -8.3810    7.5084 C   0  0  0  0  0  0  0  0  0  0  0  0
   -7.8094   -9.2566    8.0174 C   0  0  0  0  0  0  0  0  0  0  0  0
   -8.8869   -8.7695    7.2834 O   0  0  0  0  0  0  0  0  0  0  0  0
  -13.1913   -5.9993    9.4698 O   0  0  0  0  0  0  0  0  0  0  0  0
  -12.9972   -5.1730   10.6126 C   0  0  0  0  0  0  0  0  0  0  0  0
 21 22  1  0  0  0
 22 15  1  0  0  0
 15 16  2  0  0  0
 16 17  1  0  0  0
 17 18  2  0  0  0
 18 23  1  0  0  0
 23 24  1  0  0  0
 18 19  1  0  0  0
 19  1  1  0  0  0
  1  3  1  0  0  0
  3  4  2  0  0  0
  4  5  1  0  0  0
  5  6  2  0  0  0
  6  7  1  0  0  0
  7  8  2  0  0  0
  8  9  1  0  0  0
  9 10  2  0  0  0
 10 11  1  0  0  0
 11 12  1  0  0  0
 11 13  2  0  0  0
 19 20  2  0  0  0
 20 15  1  0  0  0
 13  3  1  0  0  0
 10  5  1  0  0  0
  1  2  1  0  0  0
 12 14  1  0  0  0
M  END
> <minimizedAffinity>
-8.67842

> <CNNscore>
0.4324752390

> <CNNaffinity>
6.3402318954

> <CNN_VS>
2.7419931889

> <CNNaffinity_variance>
0.3622287214

$$$$
[H]Oc1nc(N([H])c2c([H])c(OC([H])([H])[H])c([H])c([H])c2OC([H])([H])[H])c([H])c2c([H])c([H])c([H])c([H])c12


 24 26  0  0  0  0  0  0  0  0999 V2000
  -12.8662   -7.6002    8.6082 N   0  0  0  0  0  0  0  0  0  0  0  0
  -12.9576   -7.4019    9.6741 H   0  0  0  0  0  0  0  0  0  0  0  0
  -14.0171   -7.3444    7.8679 C   0  0  0  0  0  0  0  0  0  0  0  0
  -13.9389   -6.5122    6.7514 C   0  0  0  0  0  0  0  0  0  0  0  0
  -15.0550   -6.2283    5.9844 C   0  0  0  0  0  0  0  0  0  0  0  0
  -14.9874   -5.4058    4.8776 C   0  0  0  0  0  0  0  0  0  0  0  0
  -16.1256   -5.1542    4.1476 C   0  0  0  0  0  0  0  0  0  0  0  0
  -17.3184   -5.7050    4.5009 C   0  0  0  0  0  0  0  0  0  0  0  0
  -17.3903   -6.5232    5.6003 C   0  0  0  0  0  0  0  0  0  0  0  0
  -16.2624   -6.7793    6.3330 C   0  0  0  0  0  0  0  0  0  0  0  0
  -16.3235   -7.5999    7.4394 C   0  0  0  0  0  0  0  0  0  0  0  0
  -17.5387   -8.1594    7.7971 O   0  0  0  0  0  0  0  0  0  0  0  0
  -15.2072   -7.8325    8.1361 N   0  0  0  0  0  0  0  0  0  0  0  0
  -17.7195   -9.0973    7.4721 H   0  0  0  0  0  0  0  0  0  0  0  0
   -9.1683   -7.8848    8.0534 C   0  0  0  0  0  0  0  0  0  0  0  0
   -9.1476   -9.0918    7.4049 C   0  0  0  0  0  0  0  0  0  0  0  0
  -10.3023   -9.8002    7.1512 C   0  0  0  0  0  0  0  0  0  0  0  0
  -11.5280   -9.2942    7.5556 C   0  0  0  0  0  0  0  0  0  0  0  0
  -11.6069   -8.0698    8.2198 C   0  0  0  0  0  0  0  0  0  0  0  0
  -10.4207   -7.3990    8.4498 C   0  0  0  0  0  0  0  0  0  0  0  0
   -6.8132   -7.7588    8.7493 C   0  0  0  0  0  0  0  0  0  0  0  0
   -7.9971   -7.1779    8.3045 O   0  0  0  0  0  0  0  0  0  0  0  0
  -12.7038   -9.9803    7.3162 O   0  0  0  0  0  0  0  0  0  0  0  0
  -13.3135   -9.8945    6.0326 C   0  0  0  0  0  0  0  0  0  0  0  0
 21 22  1  0  0  0
 22 15  1  0  0  0
 15 16  2  0  0  0
 16 17  1  0  0  0
 17 18  2  0  0  0
 18 23  1  0  0  0
 23 24  1  0  0  0
 18 19  1  0  0  0
 19  1  1  0  0  0
  1  3  1  0  0  0
  3  4  2  0  0  0
  4  5  1  0  0  0
  5  6  2  0  0  0
  6  7  1  0  0  0
  7  8  2  0  0  0
  8  9  1  0  0  0
  9 10  2  0  0  0
 10 11  1  0  0  0
 11 12  1  0  0  0
 11 13  2  0  0  0
 19 20  2  0  0  0
 20 15  1  0  0  0
 13  3  1  0  0  0
 10  5  1  0  0  0
  1  2  1  0  0  0
 12 14  1  0  0  0
M  END
> <minimizedAffinity>
-8.70871

> <CNNscore>
0.3891239464

> <CNNaffinity>
6.3840789795

> <CNN_VS>
2.4841980934

> <CNNaffinity_variance>
0.1183803529

$$$$
[H]Oc1nc(N([H])c2c([H])c(OC([H])([H])[H])c([H])c([H])c2OC([H])([H])[H])c([H])c2c([H])c([H])c([H])c([H])c12


 24 26  0  0  0  0  0  0  0  0999 V2000
   -6.4067   -6.3694    8.0021 N   0  0  0  0  0  0  0  0  0  0  0  0
   -7.1486   -5.6476    8.3372 H   0  0  0  0  0  0  0  0  0  0  0  0
   -5.1088   -6.1138    8.4360 C   0  0  0  0  0  0  0  0  0  0  0  0
   -4.8980   -5.1605    9.4320 C   0  0  0  0  0  0  0  0  0  0  0  0
   -3.6267   -4.8717    9.8959 C   0  0  0  0  0  0  0  0  0  0  0  0
   -3.4082   -3.9298   10.8813 C   0  0  0  0  0  0  0  0  0  0  0  0
   -2.1252   -3.6786   11.3086 C   0  0  0  0  0  0  0  0  0  0  0  0
   -1.0672   -4.3460   10.7734 C   0  0  0  0  0  0  0  0  0  0  0  0
   -1.2797   -5.2830    9.7936 C   0  0  0  0  0  0  0  0  0  0  0  0
   -2.5535   -5.5397    9.3621 C   0  0  0  0  0  0  0  0  0  0  0  0
   -2.7782   -6.4792    8.3782 C   0  0  0  0  0  0  0  0  0  0  0  0
   -1.6998   -7.1572    7.8349 O   0  0  0  0  0  0  0  0  0  0  0  0
   -4.0317   -6.7093    7.9761 N   0  0  0  0  0  0  0  0  0  0  0  0
   -1.4908   -8.0639    8.2250 H   0  0  0  0  0  0  0  0  0  0  0  0
   -6.8839   -8.8702    5.2486 C   0  0  0  0  0  0  0  0  0  0  0  0
   -8.0417   -9.4521    5.6947 C   0  0  0  0  0  0  0  0  0  0  0  0
   -8.6567   -9.0468    6.8596 C   0  0  0  0  0  0  0  0  0  0  0  0
   -8.1039   -8.0239    7.6147 C   0  0  0  0  0  0  0  0  0  0  0  0
   -6.9263   -7.3966    7.2071 C   0  0  0  0  0  0  0  0  0  0  0  0
   -6.3492   -7.8398    6.0322 C   0  0  0  0  0  0  0  0  0  0  0  0
   -6.9408   -9.8978    3.0155 C   0  0  0  0  0  0  0  0  0  0  0  0
   -6.2714   -9.2867    4.0716 O   0  0  0  0  0  0  0  0  0  0  0  0
   -8.6963   -7.5946    8.7874 O   0  0  0  0  0  0  0  0  0  0  0  0
   -9.8176   -6.7197    8.7239 C   0  0  0  0  0  0  0  0  0  0  0  0
 21 22  1  0  0  0
 22 15  1  0  0  0
 15 16  2  0  0  0
 16 17  1  0  0  0
 17 18  2  0  0  0
 18 23  1  0  0  0
 23 24  1  0  0  0
 18 19  1  0  0  0
 19  1  1  0  0  0
  1  3  1  0  0  0
  3  4  2  0  0  0
  4  5  1  0  0  0
  5  6  2  0  0  0
  6  7  1  0  0  0
  7  8  2  0  0  0
  8  9  1  0  0  0
  9 10  2  0  0  0
 10 11  1  0  0  0
 11 12  1  0  0  0
 11 13  2  0  0  0
 19 20  2  0  0  0
 20 15  1  0  0  0
 13  3  1  0  0  0
 10  5  1  0  0  0
  1  2  1  0  0  0
 12 14  1  0  0  0
M  END
> <minimizedAffinity>
-0.12577

> <CNNscore>
0.3760210276

> <CNNaffinity>
4.9430480003

> <CNN_VS>
1.8586900234

> <CNNaffinity_variance>
0.6428018808

$$$$
[H]Oc1nc(N([H])c2c([H])c(OC([H])([H])[H])c([H])c([H])c2OC([H])([H])[H])c([H])c2c([H])c([H])c([H])c([H])c12


 24 26  0  0  0  0  0  0  0  0999 V2000
  -15.2841   -8.6288    7.3647 N   0  0  0  0  0  0  0  0  0  0  0  0
  -15.7963   -9.3992    7.9373 H   0  0  0  0  0  0  0  0  0  0  0  0
  -14.1374   -8.1205    7.9688 C   0  0  0  0  0  0  0  0  0  0  0  0
  -14.2616   -7.1306    8.9434 C   0  0  0  0  0  0  0  0  0  0  0  0
  -13.1516   -6.5945    9.5719 C   0  0  0  0  0  0  0  0  0  0  0  0
  -13.2645   -5.6145   10.5378 C   0  0  0  0  0  0  0  0  0  0  0  0
  -12.1305   -5.1136   11.1333 C   0  0  0  0  0  0  0  0  0  0  0  0
  -10.8976   -5.5707   10.7839 C   0  0  0  0  0  0  0  0  0  0  0  0
  -10.7805   -6.5447    9.8243 C   0  0  0  0  0  0  0  0  0  0  0  0
  -11.9040   -7.0493    9.2261 C   0  0  0  0  0  0  0  0  0  0  0  0
  -11.7976   -8.0281    8.2608 C   0  0  0  0  0  0  0  0  0  0  0  0
  -10.5416   -8.4918    7.9067 O   0  0  0  0  0  0  0  0  0  0  0  0
  -12.9107   -8.5024    7.6935 N   0  0  0  0  0  0  0  0  0  0  0  0
  -10.2249   -9.3353    8.3608 H   0  0  0  0  0  0  0  0  0  0  0  0
  -15.9077   -8.1230    3.7016 C   0  0  0  0  0  0  0  0  0  0  0  0
  -17.2031   -7.6813    3.7703 C   0  0  0  0  0  0  0  0  0  0  0  0
  -17.8629   -7.5489    4.9731 C   0  0  0  0  0  0  0  0  0  0  0  0
  -17.2149   -7.8666    6.1568 C   0  0  0  0  0  0  0  0  0  0  0  0
  -15.8959   -8.3209    6.1449 C   0  0  0  0  0  0  0  0  0  0  0  0
  -15.2792   -8.4360    4.9134 C   0  0  0  0  0  0  0  0  0  0  0  0
  -14.0574   -8.9469    2.3073 C   0  0  0  0  0  0  0  0  0  0  0  0
  -15.2510   -8.2530    2.4826 O   0  0  0  0  0  0  0  0  0  0  0  0
  -17.8489   -7.7446    7.3790 O   0  0  0  0  0  0  0  0  0  0  0  0
  -18.9457   -8.5990    7.6852 C   0  0  0  0  0  0  0  0  0  0  0  0
 21 22  1  0  0  0
 22 15  1  0  0  0
 15 16  2  0  0  0
 16 17  1  0  0  0
 17 18  2  0  0  0
 18 23  1  0  0  0
 23 24  1  0  0  0
 18 19  1  0  0  0
 19  1  1  0  0  0
  1  3  1  0  0  0
  3  4  2  0  0  0
  4  5  1  0  0  0
  5  6  2  0  0  0
  6  7  1  0  0  0
  7  8  2  0  0  0
  8  9  1  0  0  0
  9 10  2  0  0  0
 10 11  1  0  0  0
 11 12  1  0  0  0
 11 13  2  0  0  0
 19 20  2  0  0  0
 20 15  1  0  0  0
 13  3  1  0  0  0
 10  5  1  0  0  0
  1  2  1  0  0  0
 12 14  1  0  0  0
M  END
> <minimizedAffinity>
-3.21510

> <CNNscore>
0.3740257323

> <CNNaffinity>
6.0950999260

> <CNN_VS>
2.2797241211

> <CNNaffinity_variance>
0.4850301743

$$$$
[H]Oc1c([H])c2c(c([H])c1O[H])[C@]1([H])c3c(sc(Cl)c3[H])C([H])([H])N([H])[C@@]1([H])C([H])([H])C2([H])[H]


 23 26  0  0  0  0  0  0  0  0999 V2000
   -8.4982   -7.9953    7.5781 O   0  0  0  0  0  0  0  0  0  0  0  0
   -9.8643   -8.1357    7.4202 C   0  0  0  0  0  0  0  0  0  0  0  0
  -10.4682   -9.2504    7.9773 C   0  0  0  0  0  0  0  0  0  0  0  0
  -11.8093   -9.4018    7.8298 C   0  0  0  0  0  0  0  0  0  0  0  0
  -12.5635   -8.4472    7.1263 C   0  0  0  0  0  0  0  0  0  0  0  0
  -11.9566   -7.3533    6.5835 C   0  0  0  0  0  0  0  0  0  0  0  0
  -10.5735   -7.1845    6.7283 C   0  0  0  0  0  0  0  0  0  0  0  0
   -9.9044   -6.0944    6.1978 O   0  0  0  0  0  0  0  0  0  0  0  0
  -13.9982   -8.7928    7.0739 C   0  0  0  0  0  0  0  0  0  0  0  0
  -14.8460   -7.9301    6.2195 C   0  0  0  0  0  0  0  0  0  0  0  0
  -14.5681   -7.5461    4.9372 C   0  0  0  0  0  0  0  0  0  0  0  0
  -15.4802   -6.7535    4.3181 C   0  0  0  0  0  0  0  0  0  0  0  0
  -15.4116   -6.0979    2.6868 Cl  0  0  0  0  0  0  0  0  0  0  0  0
  -16.6941   -6.5504    5.4948 S   0  0  0  0  0  0  0  0  0  0  0  0
  -16.0184   -7.4752    6.7450 C   0  0  0  0  0  0  0  0  0  0  0  0
  -16.5071   -7.8086    8.1192 C   0  0  0  0  0  0  0  0  0  0  0  0
  -15.8945   -9.0753    8.5060 N   0  0  0  0  0  0  0  0  0  0  0  0
  -14.4656   -8.8766    8.4777 C   0  0  0  0  0  0  0  0  0  0  0  0
  -13.7330   -9.9825    9.2158 C   0  0  0  0  0  0  0  0  0  0  0  0
  -12.5732  -10.5473    8.4093 C   0  0  0  0  0  0  0  0  0  0  0  0
   -7.9463   -8.6756    8.0809 H   0  0  0  0  0  0  0  0  0  0  0  0
  -10.3422   -5.3611    5.6837 H   0  0  0  0  0  0  0  0  0  0  0  0
  -16.2670   -9.3388    9.4324 H   0  0  0  0  0  0  0  0  0  0  0  0
  1  2  1  0  0  0
  2  3  2  0  0  0
  3  4  1  0  0  0
  4  5  2  0  0  0
  5  6  1  0  0  0
  6  7  2  0  0  0
  7  8  1  0  0  0
  5  9  1  0  0  0
  9 10  1  0  0  0
 10 11  1  0  0  0
 11 12  2  0  0  0
 12 13  1  0  0  0
 12 14  1  0  0  0
 14 15  1  0  0  0
 15 16  1  0  0  0
 16 17  1  0  0  0
 17 18  1  0  0  0
 18 19  1  0  0  0
 19 20  1  0  0  0
  7  2  1  0  0  0
 18  9  1  0  0  0
 20  4  1  0  0  0
 15 10  2  0  0  0
  1 21  1  0  0  0
  8 22  1  0  0  0
 17 23  1  0  0  0
M  END
> <minimizedAffinity>
2.22322

> <CNNscore>
0.4889919758

> <CNNaffinity>
6.6299514771

> <CNN_VS>
3.2419931889

> <CNNaffinity_variance>
2.3507034779

$$$$
[H]Oc1c([H])c2c(c([H])c1O[H])[C@]1([H])c3c(sc(Cl)c3[H])C([H])([H])N([H])[C@@]1([H])C([H])([H])C2([H])[H]


 23 26  0  0  0  0  0  0  0  0999 V2000
  -14.2189   -9.4517    8.0371 O   0  0  0  0  0  0  0  0  0  0  0  0
  -12.9276   -8.9617    7.9824 C   0  0  0  0  0  0  0  0  0  0  0  0
  -12.6765   -7.7343    8.5723 C   0  0  0  0  0  0  0  0  0  0  0  0
  -11.4128   -7.2402    8.5262 C   0  0  0  0  0  0  0  0  0  0  0  0
  -10.3861   -7.9607    7.8924 C   0  0  0  0  0  0  0  0  0  0  0  0
  -10.6465   -9.1690    7.3163 C   0  0  0  0  0  0  0  0  0  0  0  0
  -11.9459   -9.6907    7.3568 C   0  0  0  0  0  0  0  0  0  0  0  0
  -12.2682  -10.9115    6.7882 O   0  0  0  0  0  0  0  0  0  0  0  0
   -9.0897   -7.2558    7.9461 C   0  0  0  0  0  0  0  0  0  0  0  0
   -7.9850   -7.8620    7.1681 C   0  0  0  0  0  0  0  0  0  0  0  0
   -8.0554   -8.2924    5.8724 C   0  0  0  0  0  0  0  0  0  0  0  0
   -6.9249   -8.8165    5.3331 C   0  0  0  0  0  0  0  0  0  0  0  0
   -6.6969   -9.4518    3.7083 Cl  0  0  0  0  0  0  0  0  0  0  0  0
   -5.7935   -8.7105    6.6011 S   0  0  0  0  0  0  0  0  0  0  0  0
   -6.7786   -8.0037    7.7863 C   0  0  0  0  0  0  0  0  0  0  0  0
   -6.4993   -7.5686    9.1902 C   0  0  0  0  0  0  0  0  0  0  0  0
   -7.4460   -6.5069    9.5157 N   0  0  0  0  0  0  0  0  0  0  0  0
   -8.7686   -7.0676    9.3805 C   0  0  0  0  0  0  0  0  0  0  0  0
   -9.8161   -6.1956   10.0488 C   0  0  0  0  0  0  0  0  0  0  0  0
  -11.0173   -5.9419    9.1502 C   0  0  0  0  0  0  0  0  0  0  0  0
  -14.9647   -8.9420    8.4891 H   0  0  0  0  0  0  0  0  0  0  0  0
  -11.6178  -11.5019    6.3168 H   0  0  0  0  0  0  0  0  0  0  0  0
   -7.2262   -6.1650   10.4651 H   0  0  0  0  0  0  0  0  0  0  0  0
  1  2  1  0  0  0
  2  3  2  0  0  0
  3  4  1  0  0  0
  4  5  2  0  0  0
  5  6  1  0  0  0
  6  7  2  0  0  0
  7  8  1  0  0  0
  5  9  1  0  0  0
  9 10  1  0  0  0
 10 11  1  0  0  0
 11 12  2  0  0  0
 12 13  1  0  0  0
 12 14  1  0  0  0
 14 15  1  0  0  0
 15 16  1  0  0  0
 16 17  1  0  0  0
 17 18  1  0  0  0
 18 19  1  0  0  0
 19 20  1  0  0  0
  7  2  1  0  0  0
 18  9  1  0  0  0
 20  4  1  0  0  0
 15 10  2  0  0  0
  1 21  1  0  0  0
  8 22  1  0  0  0
 17 23  1  0  0  0
M  END
> <minimizedAffinity>
0.44013

> <CNNscore>
0.4601148665

> <CNNaffinity>
6.0258712769

> <CNN_VS>
2.7725930214

> <CNNaffinity_variance>
1.5592969656

$$$$
[H]Oc1c([H])c2c(c([H])c1O[H])[C@]1([H])c3c(sc(Cl)c3[H])C([H])([H])N([H])[C@@]1([H])C([H])([H])C2([H])[H]


 23 26  0  0  0  0  0  0  0  0999 V2000
  -14.3279   -2.1693    5.2567 O   0  0  0  0  0  0  0  0  0  0  0  0
  -14.6158   -3.5182    5.1650 C   0  0  0  0  0  0  0  0  0  0  0  0
  -14.8845   -4.2030    6.3382 C   0  0  0  0  0  0  0  0  0  0  0  0
  -15.1685   -5.5285    6.2636 C   0  0  0  0  0  0  0  0  0  0  0  0
  -15.1875   -6.1869    5.0221 C   0  0  0  0  0  0  0  0  0  0  0  0
  -14.9222   -5.5005    3.8740 C   0  0  0  0  0  0  0  0  0  0  0  0
  -14.6277   -4.1324    3.9365 C   0  0  0  0  0  0  0  0  0  0  0  0
  -14.3499   -3.3857    2.8040 O   0  0  0  0  0  0  0  0  0  0  0  0
  -15.5126   -7.6214    5.1522 C   0  0  0  0  0  0  0  0  0  0  0  0
  -15.4001   -8.4303    3.9169 C   0  0  0  0  0  0  0  0  0  0  0  0
  -14.3474   -8.4243    3.0446 C   0  0  0  0  0  0  0  0  0  0  0  0
  -14.4328   -9.2466    1.9675 C   0  0  0  0  0  0  0  0  0  0  0  0
  -13.2559   -9.4633    0.6777 Cl  0  0  0  0  0  0  0  0  0  0  0  0
  -15.9424  -10.0084    2.1677 S   0  0  0  0  0  0  0  0  0  0  0  0
  -16.4312   -9.2680    3.6125 C   0  0  0  0  0  0  0  0  0  0  0  0
  -17.6553   -9.4328    4.4569 C   0  0  0  0  0  0  0  0  0  0  0  0
  -17.2963   -9.0685    5.8235 N   0  0  0  0  0  0  0  0  0  0  0  0
  -16.8487   -7.6973    5.7888 C   0  0  0  0  0  0  0  0  0  0  0  0
  -16.8099   -7.0868    7.1781 C   0  0  0  0  0  0  0  0  0  0  0  0
  -15.5006   -6.3638    7.4566 C   0  0  0  0  0  0  0  0  0  0  0  0
  -14.3106   -1.6863    6.1437 H   0  0  0  0  0  0  0  0  0  0  0  0
  -14.3377   -3.7525    1.8771 H   0  0  0  0  0  0  0  0  0  0  0  0
  -18.1219   -9.2292    6.4227 H   0  0  0  0  0  0  0  0  0  0  0  0
  1  2  1  0  0  0
  2  3  2  0  0  0
  3  4  1  0  0  0
  4  5  2  0  0  0
  5  6  1  0  0  0
  6  7  2  0  0  0
  7  8  1  0  0  0
  5  9  1  0  0  0
  9 10  1  0  0  0
 10 11  1  0  0  0
 11 12  2  0  0  0
 12 13  1  0  0  0
 12 14  1  0  0  0
 14 15  1  0  0  0
 15 16  1  0  0  0
 16 17  1  0  0  0
 17 18  1  0  0  0
 18 19  1  0  0  0
 19 20  1  0  0  0
  7  2  1  0  0  0
 18  9  1  0  0  0
 20  4  1  0  0  0
 15 10  2  0  0  0
  1 21  1  0  0  0
  8 22  1  0  0  0
 17 23  1  0  0  0
M  END
> <minimizedAffinity>
15.90393

> <CNNscore>
0.4345473647

> <CNNaffinity>
6.2409181595

> <CNN_VS>
2.7119746208

> <CNNaffinity_variance>
2.1601843834

$$$$
[H]Oc1c([H])c2c(c([H])c1O[H])[C@]1([H])c3c(sc(Cl)c3[H])C([H])([H])N([H])[C@@]1([H])C([H])([H])C2([H])[H]


 23 26  0  0  0  0  0  0  0  0999 V2000
  -21.2002   -9.7478    6.2758 O   0  0  0  0  0  0  0  0  0  0  0  0
  -19.9297   -9.2287    6.1116 C   0  0  0  0  0  0  0  0  0  0  0  0
  -19.5392   -8.8673    4.8331 C   0  0  0  0  0  0  0  0  0  0  0  0
  -18.2939   -8.3564    4.6566 C   0  0  0  0  0  0  0  0  0  0  0  0
  -17.4236   -8.2003    5.7490 C   0  0  0  0  0  0  0  0  0  0  0  0
  -17.8210   -8.5590    7.0033 C   0  0  0  0  0  0  0  0  0  0  0  0
  -19.1034   -9.0874    7.1997 C   0  0  0  0  0  0  0  0  0  0  0  0
  -19.5598   -9.4692    8.4500 O   0  0  0  0  0  0  0  0  0  0  0  0
  -16.1192   -7.6339    5.3514 C   0  0  0  0  0  0  0  0  0  0  0  0
  -15.0819   -7.5812    6.4070 C   0  0  0  0  0  0  0  0  0  0  0  0
  -14.7379   -8.6025    7.2483 C   0  0  0  0  0  0  0  0  0  0  0  0
  -13.7524   -8.3556    8.1490 C   0  0  0  0  0  0  0  0  0  0  0  0
  -13.0917   -9.4527    9.3555 Cl  0  0  0  0  0  0  0  0  0  0  0  0
  -13.3170   -6.7408    7.8293 S   0  0  0  0  0  0  0  0  0  0  0  0
  -14.3937   -6.4149    6.5607 C   0  0  0  0  0  0  0  0  0  0  0  0
  -14.6087   -5.1968    5.7189 C   0  0  0  0  0  0  0  0  0  0  0  0
  -15.1597   -5.6391    4.4422 N   0  0  0  0  0  0  0  0  0  0  0  0
  -16.3999   -6.3170    4.7322 C   0  0  0  0  0  0  0  0  0  0  0  0
  -17.2487   -6.4871    3.4853 C   0  0  0  0  0  0  0  0  0  0  0  0
  -17.7729   -7.9069    3.3308 C   0  0  0  0  0  0  0  0  0  0  0  0
  -21.8336   -9.8652    5.4977 H   0  0  0  0  0  0  0  0  0  0  0  0
  -19.0260   -9.4003    9.2891 H   0  0  0  0  0  0  0  0  0  0  0  0
  -15.2625   -4.8095    3.8358 H   0  0  0  0  0  0  0  0  0  0  0  0
  1  2  1  0  0  0
  2  3  2  0  0  0
  3  4  1  0  0  0
  4  5  2  0  0  0
  5  6  1  0  0  0
  6  7  2  0  0  0
  7  8  1  0  0  0
  5  9  1  0  0  0
  9 10  1  0  0  0
 10 11  1  0  0  0
 11 12  2  0  0  0
 12 13  1  0  0  0
 12 14  1  0  0  0
 14 15  1  0  0  0
 15 16  1  0  0  0
 16 17  1  0  0  0
 17 18  1  0  0  0
 18 19  1  0  0  0
 19 20  1  0  0  0
  7  2  1  0  0  0
 18  9  1  0  0  0
 20  4  1  0  0  0
 15 10  2  0  0  0
  1 21  1  0  0  0
  8 22  1  0  0  0
 17 23  1  0  0  0
M  END
> <minimizedAffinity>
-1.70098

> <CNNscore>
0.4243085682

> <CNNaffinity>
6.3181800842

> <CNN_VS>
2.6808578968

> <CNNaffinity_variance>
0.4625088573

$$$$
[H]Oc1c([H])c2c(c([H])c1O[H])[C@]1([H])c3c(sc(Cl)c3[H])C([H])([H])N([H])[C@@]1([H])C([H])([H])C2([H])[H]


 23 26  0  0  0  0  0  0  0  0999 V2000
  -16.8499   -4.0506    3.0069 O   0  0  0  0  0  0  0  0  0  0  0  0
  -16.2797   -4.9619    3.8758 C   0  0  0  0  0  0  0  0  0  0  0  0
  -16.7401   -6.2674    3.8371 C   0  0  0  0  0  0  0  0  0  0  0  0
  -16.1895   -7.1734    4.6851 C   0  0  0  0  0  0  0  0  0  0  0  0
  -15.1764   -6.7909    5.5808 C   0  0  0  0  0  0  0  0  0  0  0  0
  -14.7312   -5.5022    5.6080 C   0  0  0  0  0  0  0  0  0  0  0  0
  -15.2904   -4.5570    4.7384 C   0  0  0  0  0  0  0  0  0  0  0  0
  -14.8783   -3.2351    4.7227 O   0  0  0  0  0  0  0  0  0  0  0  0
  -14.7127   -7.9157    6.4176 C   0  0  0  0  0  0  0  0  0  0  0  0
  -13.7604   -7.5746    7.4992 C   0  0  0  0  0  0  0  0  0  0  0  0
  -13.8937   -6.5504    8.3949 C   0  0  0  0  0  0  0  0  0  0  0  0
  -12.9097   -6.4058    9.3192 C   0  0  0  0  0  0  0  0  0  0  0  0
  -12.7924   -5.1973   10.5925 Cl  0  0  0  0  0  0  0  0  0  0  0  0
  -11.8273   -7.6668    8.9480 S   0  0  0  0  0  0  0  0  0  0  0  0
  -12.6467   -8.3494    7.6298 C   0  0  0  0  0  0  0  0  0  0  0  0
  -12.3392   -9.5293    6.7628 C   0  0  0  0  0  0  0  0  0  0  0  0
  -13.6063  -10.0302    6.2403 N   0  0  0  0  0  0  0  0  0  0  0  0
  -14.2058   -8.9538    5.4894 C   0  0  0  0  0  0  0  0  0  0  0  0
  -15.3228   -9.4535    4.5912 C   0  0  0  0  0  0  0  0  0  0  0  0
  -16.5852   -8.6136    4.7151 C   0  0  0  0  0  0  0  0  0  0  0  0
  -17.5792   -4.3143    2.3597 H   0  0  0  0  0  0  0  0  0  0  0  0
  -14.1687   -2.8599    5.3138 H   0  0  0  0  0  0  0  0  0  0  0  0
  -13.4079  -10.8763    5.6825 H   0  0  0  0  0  0  0  0  0  0  0  0
  1  2  1  0  0  0
  2  3  2  0  0  0
  3  4  1  0  0  0
  4  5  2  0  0  0
  5  6  1  0  0  0
  6  7  2  0  0  0
  7  8  1  0  0  0
  5  9  1  0  0  0
  9 10  1  0  0  0
 10 11  1  0  0  0
 11 12  2  0  0  0
 12 13  1  0  0  0
 12 14  1  0  0  0
 14 15  1  0  0  0
 15 16  1  0  0  0
 16 17  1  0  0  0
 17 18  1  0  0  0
 18 19  1  0  0  0
 19 20  1  0  0  0
  7  2  1  0  0  0
 18  9  1  0  0  0
 20  4  1  0  0  0
 15 10  2  0  0  0
  1 21  1  0  0  0
  8 22  1  0  0  0
 17 23  1  0  0  0
M  END
> <minimizedAffinity>
-7.84170

> <CNNscore>
0.3639236689

> <CNNaffinity>
6.6908187866

> <CNN_VS>
2.4349472523

> <CNNaffinity_variance>
0.3501500487

$$$$
[H]Oc1c([H])c2c(c([H])c1O[H])[C@]1([H])c3c(sc(Cl)c3[H])C([H])([H])N([H])[C@@]1([H])C([H])([H])C2([H])[H]


 23 26  0  0  0  0  0  0  0  0999 V2000
  -11.7524   -6.5873   11.1523 O   0  0  0  0  0  0  0  0  0  0  0  0
  -12.2836   -6.8069    9.8952 C   0  0  0  0  0  0  0  0  0  0  0  0
  -11.8749   -7.9384    9.2094 C   0  0  0  0  0  0  0  0  0  0  0  0
  -12.3880   -8.1669    7.9734 C   0  0  0  0  0  0  0  0  0  0  0  0
  -13.3119   -7.2726    7.4062 C   0  0  0  0  0  0  0  0  0  0  0  0
  -13.7071   -6.1626    8.0928 C   0  0  0  0  0  0  0  0  0  0  0  0
  -13.1857   -5.9147    9.3692 C   0  0  0  0  0  0  0  0  0  0  0  0
  -13.5501   -4.8039   10.1113 O   0  0  0  0  0  0  0  0  0  0  0  0
  -13.7472   -7.6940    6.0596 C   0  0  0  0  0  0  0  0  0  0  0  0
  -14.5972   -6.7339    5.3188 C   0  0  0  0  0  0  0  0  0  0  0  0
  -14.3561   -5.3968    5.1672 C   0  0  0  0  0  0  0  0  0  0  0  0
  -15.2573   -4.6846    4.4432 C   0  0  0  0  0  0  0  0  0  0  0  0
  -15.2291   -2.9647    4.0736 Cl  0  0  0  0  0  0  0  0  0  0  0  0
  -16.4103   -5.8511    3.9856 S   0  0  0  0  0  0  0  0  0  0  0  0
  -15.7239   -7.2154    4.7219 C   0  0  0  0  0  0  0  0  0  0  0  0
  -16.1417   -8.6517    4.7538 C   0  0  0  0  0  0  0  0  0  0  0  0
  -14.9392   -9.4526    4.9583 N   0  0  0  0  0  0  0  0  0  0  0  0
  -14.3635   -9.0330    6.2131 C   0  0  0  0  0  0  0  0  0  0  0  0
  -13.3405  -10.0330    6.7207 C   0  0  0  0  0  0  0  0  0  0  0  0
  -12.0430   -9.3657    7.1517 C   0  0  0  0  0  0  0  0  0  0  0  0
  -11.0871   -7.2228   11.5692 H   0  0  0  0  0  0  0  0  0  0  0  0
  -14.1963   -4.1095    9.8047 H   0  0  0  0  0  0  0  0  0  0  0  0
  -15.2117  -10.4483    4.9296 H   0  0  0  0  0  0  0  0  0  0  0  0
  1  2  1  0  0  0
  2  3  2  0  0  0
  3  4  1  0  0  0
  4  5  2  0  0  0
  5  6  1  0  0  0
  6  7  2  0  0  0
  7  8  1  0  0  0
  5  9  1  0  0  0
  9 10  1  0  0  0
 10 11  1  0  0  0
 11 12  2  0  0  0
 12 13  1  0  0  0
 12 14  1  0  0  0
 14 15  1  0  0  0
 15 16  1  0  0  0
 16 17  1  0  0  0
 17 18  1  0  0  0
 18 19  1  0  0  0
 19 20  1  0  0  0
  7  2  1  0  0  0
 18  9  1  0  0  0
 20  4  1  0  0  0
 15 10  2  0  0  0
  1 21  1  0  0  0
  8 22  1  0  0  0
 17 23  1  0  0  0
M  END
> <minimizedAffinity>
-7.23280

> <CNNscore>
0.3514820337

> <CNNaffinity>
6.3637595177

> <CNN_VS>
2.2367470264

> <CNNaffinity_variance>
0.3897230625

$$$$
[H]Oc1c([H])c2c(c([H])c1O[H])[C@]1([H])c3c(sc(Cl)c3[H])C([H])([H])N([H])[C@@]1([H])C([H])([H])C2([H])[H]


 23 26  0  0  0  0  0  0  0  0999 V2000
  -16.4779   -9.0275    8.7697 O   0  0  0  0  0  0  0  0  0  0  0  0
  -15.1468   -8.7056    8.5818 C   0  0  0  0  0  0  0  0  0  0  0  0
  -14.7766   -7.3787    8.7221 C   0  0  0  0  0  0  0  0  0  0  0  0
  -13.4726   -7.0476    8.5401 C   0  0  0  0  0  0  0  0  0  0  0  0
  -12.5235   -8.0320    8.2158 C   0  0  0  0  0  0  0  0  0  0  0  0
  -12.9011   -9.3356    8.0817 C   0  0  0  0  0  0  0  0  0  0  0  0
  -14.2433   -9.6911    8.2669 C   0  0  0  0  0  0  0  0  0  0  0  0
  -14.6836  -10.9981    8.1426 O   0  0  0  0  0  0  0  0  0  0  0  0
  -11.1663   -7.4726    8.0562 C   0  0  0  0  0  0  0  0  0  0  0  0
  -10.1301   -8.4066    7.5592 C   0  0  0  0  0  0  0  0  0  0  0  0
  -10.2519   -9.2468    6.4876 C   0  0  0  0  0  0  0  0  0  0  0  0
   -9.1803  -10.0247    6.1874 C   0  0  0  0  0  0  0  0  0  0  0  0
   -9.0270  -11.1963    4.8839 Cl  0  0  0  0  0  0  0  0  0  0  0  0
   -8.0328   -9.5939    7.3694 S   0  0  0  0  0  0  0  0  0  0  0  0
   -8.9370   -8.4371    8.2174 C   0  0  0  0  0  0  0  0  0  0  0  0
   -8.6059   -7.5745    9.3942 C   0  0  0  0  0  0  0  0  0  0  0  0
   -9.4460   -6.3841    9.3141 N   0  0  0  0  0  0  0  0  0  0  0  0
  -10.8165   -6.8342    9.3471 C   0  0  0  0  0  0  0  0  0  0  0  0
  -11.7718   -5.6945    9.6515 C   0  0  0  0  0  0  0  0  0  0  0  0
  -12.9516   -5.6558    8.6917 C   0  0  0  0  0  0  0  0  0  0  0  0
  -17.1686   -8.3280    9.0021 H   0  0  0  0  0  0  0  0  0  0  0  0
  -14.0956  -11.7709    7.9173 H   0  0  0  0  0  0  0  0  0  0  0  0
   -9.1869   -5.7590   10.0942 H   0  0  0  0  0  0  0  0  0  0  0  0
  1  2  1  0  0  0
  2  3  2  0  0  0
  3  4  1  0  0  0
  4  5  2  0  0  0
  5  6  1  0  0  0
  6  7  2  0  0  0
  7  8  1  0  0  0
  5  9  1  0  0  0
  9 10  1  0  0  0
 10 11  1  0  0  0
 11 12  2  0  0  0
 12 13  1  0  0  0
 12 14  1  0  0  0
 14 15  1  0  0  0
 15 16  1  0  0  0
 16 17  1  0  0  0
 17 18  1  0  0  0
 18 19  1  0  0  0
 19 20  1  0  0  0
  7  2  1  0  0  0
 18  9  1  0  0  0
 20  4  1  0  0  0
 15 10  2  0  0  0
  1 21  1  0  0  0
  8 22  1  0  0  0
 17 23  1  0  0  0
M  END
> <minimizedAffinity>
-0.38218

> <CNNscore>
0.3458812833

> <CNNaffinity>
6.0685420036

> <CNN_VS>
2.0989952087

> <CNNaffinity_variance>
0.7040472031

$$$$
[H]Oc1c([H])c2c(c([H])c1O[H])[C@]1([H])c3c(sc(Cl)c3[H])C([H])([H])N([H])[C@@]1([H])C([H])([H])C2([H])[H]


 23 26  0  0  0  0  0  0  0  0999 V2000
  -10.2127  -11.2457    6.8105 O   0  0  0  0  0  0  0  0  0  0  0  0
  -11.2112  -10.2973    6.9292 C   0  0  0  0  0  0  0  0  0  0  0  0
  -11.3920   -9.7003    8.1655 C   0  0  0  0  0  0  0  0  0  0  0  0
  -12.3693   -8.7671    8.2972 C   0  0  0  0  0  0  0  0  0  0  0  0
  -13.1775   -8.4187    7.2015 C   0  0  0  0  0  0  0  0  0  0  0  0
  -12.9882   -9.0134    5.9890 C   0  0  0  0  0  0  0  0  0  0  0  0
  -11.9833   -9.9777    5.8390 C   0  0  0  0  0  0  0  0  0  0  0  0
  -11.7467  -10.6144    4.6324 O   0  0  0  0  0  0  0  0  0  0  0  0
  -14.1806   -7.3919    7.5477 C   0  0  0  0  0  0  0  0  0  0  0  0
  -15.1796   -7.0770    6.5009 C   0  0  0  0  0  0  0  0  0  0  0  0
  -15.8978   -7.9860    5.7750 C   0  0  0  0  0  0  0  0  0  0  0  0
  -16.7733   -7.4939    4.8613 C   0  0  0  0  0  0  0  0  0  0  0  0
  -17.8307   -8.3964    3.7828 Cl  0  0  0  0  0  0  0  0  0  0  0  0
  -16.5990   -5.8068    5.0122 S   0  0  0  0  0  0  0  0  0  0  0  0
  -15.4206   -5.7630    6.2305 C   0  0  0  0  0  0  0  0  0  0  0  0
  -14.7539   -4.6252    6.9371 C   0  0  0  0  0  0  0  0  0  0  0  0
  -14.3365   -5.1092    8.2489 N   0  0  0  0  0  0  0  0  0  0  0  0
  -13.4278   -6.2067    8.0220 C   0  0  0  0  0  0  0  0  0  0  0  0
  -12.6377   -6.5458    9.2730 C   0  0  0  0  0  0  0  0  0  0  0  0
  -12.6391   -8.0374    9.5724 C   0  0  0  0  0  0  0  0  0  0  0  0
   -9.6266  -11.5045    7.5914 H   0  0  0  0  0  0  0  0  0  0  0  0
  -12.2595  -10.4418    3.7950 H   0  0  0  0  0  0  0  0  0  0  0  0
  -13.9218   -4.3157    8.7634 H   0  0  0  0  0  0  0  0  0  0  0  0
  1  2  1  0  0  0
  2  3  2  0  0  0
  3  4  1  0  0  0
  4  5  2  0  0  0
  5  6  1  0  0  0
  6  7  2  0  0  0
  7  8  1  0  0  0
  5  9  1  0  0  0
  9 10  1  0  0  0
 10 11  1  0  0  0
 11 12  2  0  0  0
 12 13  1  0  0  0
 12 14  1  0  0  0
 14 15  1  0  0  0
 15 16  1  0  0  0
 16 17  1  0  0  0
 17 18  1  0  0  0
 18 19  1  0  0  0
 19 20  1  0  0  0
  7  2  1  0  0  0
 18  9  1  0  0  0
 20  4  1  0  0  0
 15 10  2  0  0  0
  1 21  1  0  0  0
  8 22  1  0  0  0
 17 23  1  0  0  0
M  END
> <minimizedAffinity>
7.68254

> <CNNscore>
0.3342780471

> <CNNaffinity>
6.2459511757

> <CNN_VS>
2.0878844261

> <CNNaffinity_variance>
1.2596762180

$$$$
[H]Oc1c([H])c2c(c([H])c1O[H])[C@]1([H])c3c(sc(Cl)c3[H])C([H])([H])N([H])[C@@]1([H])C([H])([H])C2([H])[H]


 23 26  0  0  0  0  0  0  0  0999 V2000
   -2.8880   -2.3997   11.8572 O   0  0  0  0  0  0  0  0  0  0  0  0
   -3.1198   -3.2256   10.7733 C   0  0  0  0  0  0  0  0  0  0  0  0
   -2.3146   -3.0693    9.6576 C   0  0  0  0  0  0  0  0  0  0  0  0
   -2.5310   -3.8733    8.5852 C   0  0  0  0  0  0  0  0  0  0  0  0
   -3.5506   -4.8402    8.6107 C   0  0  0  0  0  0  0  0  0  0  0  0
   -4.3358   -4.9847    9.7162 C   0  0  0  0  0  0  0  0  0  0  0  0
   -4.1233   -4.1618   10.8298 C   0  0  0  0  0  0  0  0  0  0  0  0
   -4.8900   -4.2633   11.9784 O   0  0  0  0  0  0  0  0  0  0  0  0
   -3.6276   -5.6083    7.3518 C   0  0  0  0  0  0  0  0  0  0  0  0
   -4.7718   -6.5398    7.2251 C   0  0  0  0  0  0  0  0  0  0  0  0
   -6.0798   -6.2487    7.4964 C   0  0  0  0  0  0  0  0  0  0  0  0
   -6.9855   -7.2431    7.3108 C   0  0  0  0  0  0  0  0  0  0  0  0
   -8.7245   -7.1831    7.5707 Cl  0  0  0  0  0  0  0  0  0  0  0  0
   -6.0361   -8.5496    6.7711 S   0  0  0  0  0  0  0  0  0  0  0  0
   -4.5126   -7.8059    6.7924 C   0  0  0  0  0  0  0  0  0  0  0  0
   -3.1512   -8.3033    6.4214 C   0  0  0  0  0  0  0  0  0  0  0  0
   -2.3533   -7.1451    6.0325 N   0  0  0  0  0  0  0  0  0  0  0  0
   -2.3100   -6.2628    7.1733 C   0  0  0  0  0  0  0  0  0  0  0  0
   -1.2148   -5.2211    7.0328 C   0  0  0  0  0  0  0  0  0  0  0  0
   -1.7099   -3.8154    7.3387 C   0  0  0  0  0  0  0  0  0  0  0  0
   -2.1587   -1.7009   11.8494 H   0  0  0  0  0  0  0  0  0  0  0  0
   -5.6355   -4.9136   12.1017 H   0  0  0  0  0  0  0  0  0  0  0  0
   -1.4279   -7.4853    5.7251 H   0  0  0  0  0  0  0  0  0  0  0  0
  1  2  1  0  0  0
  2  3  2  0  0  0
  3  4  1  0  0  0
  4  5  2  0  0  0
  5  6  1  0  0  0
  6  7  2  0  0  0
  7  8  1  0  0  0
  5  9  1  0  0  0
  9 10  1  0  0  0
 10 11  1  0  0  0
 11 12  2  0  0  0
 12 13  1  0  0  0
 12 14  1  0  0  0
 14 15  1  0  0  0
 15 16  1  0  0  0
 16 17  1  0  0  0
 17 18  1  0  0  0
 18 19  1  0  0  0
 19 20  1  0  0  0
  7  2  1  0  0  0
 18  9  1  0  0  0
 20  4  1  0  0  0
 15 10  2  0  0  0
  1 21  1  0  0  0
  8 22  1  0  0  0
 17 23  1  0  0  0
M  END
> <minimizedAffinity>
-4.84790

> <CNNscore>
0.3276803493

> <CNNaffinity>
4.5565824509

> <CNN_VS>
1.4931025505

> <CNNaffinity_variance>
0.1232037321

$$$$
[H]c1c(-c2c([H])c([H])c([H])c(C([H])([H])n3nc(-c4c([H])c(F)c([H])c(F)c4[H])c([H])c([H])c3=O)c2[H])nnc(C([H])([H])[H])c1[H]


 29 32  0  0  0  0  0  0  0  0999 V2000
  -13.1462   -7.3268    8.3601 N   0  0  0  0  0  0  0  0  0  0  0  0
  -13.8193   -6.8102    7.3359 N   0  0  0  0  0  0  0  0  0  0  0  0
  -15.1177   -7.0604    7.0766 C   0  0  0  0  0  0  0  0  0  0  0  0
  -15.7995   -7.9082    7.9262 C   0  0  0  0  0  0  0  0  0  0  0  0
  -15.1347   -8.4661    9.0030 C   0  0  0  0  0  0  0  0  0  0  0  0
  -13.7914   -8.1536    9.1975 C   0  0  0  0  0  0  0  0  0  0  0  0
  -13.1380   -8.6226   10.1455 O   0  0  0  0  0  0  0  0  0  0  0  0
  -15.7633   -6.4345    5.9150 C   0  0  0  0  0  0  0  0  0  0  0  0
  -16.9677   -6.8195    5.3978 C   0  0  0  0  0  0  0  0  0  0  0  0
  -17.5267   -6.1823    4.2907 C   0  0  0  0  0  0  0  0  0  0  0  0
  -18.7148   -6.5789    3.7986 F   0  0  0  0  0  0  0  0  0  0  0  0
  -16.8802   -5.1359    3.6758 C   0  0  0  0  0  0  0  0  0  0  0  0
  -15.6651   -4.7406    4.1901 C   0  0  0  0  0  0  0  0  0  0  0  0
  -15.0262   -3.7115    3.5877 F   0  0  0  0  0  0  0  0  0  0  0  0
  -15.1245   -5.3801    5.2856 C   0  0  0  0  0  0  0  0  0  0  0  0
  -11.7728   -6.9547    8.4980 C   0  0  0  0  0  0  0  0  0  0  0  0
   -8.4445   -8.3673    7.4979 C   0  0  0  0  0  0  0  0  0  0  0  0
   -8.8796   -9.5998    7.0395 C   0  0  0  0  0  0  0  0  0  0  0  0
  -10.1963   -9.9791    7.0432 C   0  0  0  0  0  0  0  0  0  0  0  0
  -11.1460   -9.1114    7.5197 C   0  0  0  0  0  0  0  0  0  0  0  0
  -10.7745   -7.8813    7.9852 C   0  0  0  0  0  0  0  0  0  0  0  0
   -9.4441   -7.5367    7.9653 C   0  0  0  0  0  0  0  0  0  0  0  0
   -2.9651   -6.8131    7.7050 C   0  0  0  0  0  0  0  0  0  0  0  0
   -4.4017   -7.2548    7.6026 C   0  0  0  0  0  0  0  0  0  0  0  0
   -4.8195   -8.0852    6.5869 C   0  0  0  0  0  0  0  0  0  0  0  0
   -6.1571   -8.4823    6.5114 C   0  0  0  0  0  0  0  0  0  0  0  0
   -7.0335   -8.0275    7.4663 C   0  0  0  0  0  0  0  0  0  0  0  0
   -6.5556   -7.2234    8.4236 N   0  0  0  0  0  0  0  0  0  0  0  0
   -5.2956   -6.8457    8.4995 N   0  0  0  0  0  0  0  0  0  0  0  0
 23 24  1  0  0  0
 24 25  2  0  0  0
 25 26  1  0  0  0
 26 27  2  0  0  0
 27 17  1  0  0  0
 17 18  2  0  0  0
 18 19  1  0  0  0
 19 20  2  0  0  0
 20 21  1  0  0  0
 21 16  1  0  0  0
 16  1  1  0  0  0
  1  2  1  0  0  0
  2  3  2  0  0  0
  3  8  1  0  0  0
  8  9  2  0  0  0
  9 10  1  0  0  0
 10 11  1  0  0  0
 10 12  2  0  0  0
 12 13  1  0  0  0
 13 14  1  0  0  0
 13 15  2  0  0  0
  3  4  1  0  0  0
  4  5  2  0  0  0
  5  6  1  0  0  0
  6  7  2  0  0  0
 21 22  2  0  0  0
 27 28  1  0  0  0
 28 29  2  0  0  0
 29 24  1  0  0  0
 22 17  1  0  0  0
  6  1  1  0  0  0
 15  8  1  0  0  0
M  END
> <minimizedAffinity>
-11.40123

> <CNNscore>
0.5398301482

> <CNNaffinity>
6.8773140907

> <CNN_VS>
3.7125813961

> <CNNaffinity_variance>
0.1953981370

$$$$
[H]c1c(-c2c([H])c([H])c([H])c(C([H])([H])n3nc(-c4c([H])c(F)c([H])c(F)c4[H])c([H])c([H])c3=O)c2[H])nnc(C([H])([H])[H])c1[H]


 29 32  0  0  0  0  0  0  0  0999 V2000
  -13.0743   -7.3526    8.3731 N   0  0  0  0  0  0  0  0  0  0  0  0
  -13.7175   -6.7892    7.3545 N   0  0  0  0  0  0  0  0  0  0  0  0
  -15.0098   -7.0206    7.0507 C   0  0  0  0  0  0  0  0  0  0  0  0
  -15.7179   -7.8996    7.8453 C   0  0  0  0  0  0  0  0  0  0  0  0
  -15.0846   -8.5064    8.9146 C   0  0  0  0  0  0  0  0  0  0  0  0
  -13.7455   -8.2103    9.1574 C   0  0  0  0  0  0  0  0  0  0  0  0
  -13.1197   -8.7228   10.1015 O   0  0  0  0  0  0  0  0  0  0  0  0
  -15.6213   -6.3423    5.9000 C   0  0  0  0  0  0  0  0  0  0  0  0
  -15.0608   -5.2890    5.2347 C   0  0  0  0  0  0  0  0  0  0  0  0
  -15.6946   -4.6886    4.1476 C   0  0  0  0  0  0  0  0  0  0  0  0
  -15.1232   -3.6520    3.5073 F   0  0  0  0  0  0  0  0  0  0  0  0
  -16.9156   -5.1391    3.7036 C   0  0  0  0  0  0  0  0  0  0  0  0
  -17.4888   -6.2008    4.3682 C   0  0  0  0  0  0  0  0  0  0  0  0
  -18.6899   -6.6467    3.9342 F   0  0  0  0  0  0  0  0  0  0  0  0
  -16.8502   -6.7846    5.4418 C   0  0  0  0  0  0  0  0  0  0  0  0
  -11.7033   -6.9948    8.5629 C   0  0  0  0  0  0  0  0  0  0  0  0
   -8.3630   -8.3481    7.5218 C   0  0  0  0  0  0  0  0  0  0  0  0
   -8.7851   -9.5777    7.0439 C   0  0  0  0  0  0  0  0  0  0  0  0
  -10.0970   -9.9734    7.0474 C   0  0  0  0  0  0  0  0  0  0  0  0
  -11.0549   -9.1260    7.5438 C   0  0  0  0  0  0  0  0  0  0  0  0
  -10.6962   -7.8997    8.0290 C   0  0  0  0  0  0  0  0  0  0  0  0
   -9.3703   -7.5383    8.0085 C   0  0  0  0  0  0  0  0  0  0  0  0
   -2.9118   -6.6943    7.7018 C   0  0  0  0  0  0  0  0  0  0  0  0
   -4.3394   -7.1664    7.6099 C   0  0  0  0  0  0  0  0  0  0  0  0
   -4.7223   -8.0934    6.6667 C   0  0  0  0  0  0  0  0  0  0  0  0
   -6.0522   -8.5171    6.5995 C   0  0  0  0  0  0  0  0  0  0  0  0
   -6.9564   -7.9902    7.4891 C   0  0  0  0  0  0  0  0  0  0  0  0
   -6.5118   -7.0937    8.3779 N   0  0  0  0  0  0  0  0  0  0  0  0
   -5.2592   -6.6906    8.4457 N   0  0  0  0  0  0  0  0  0  0  0  0
 23 24  1  0  0  0
 24 25  2  0  0  0
 25 26  1  0  0  0
 26 27  2  0  0  0
 27 17  1  0  0  0
 17 18  2  0  0  0
 18 19  1  0  0  0
 19 20  2  0  0  0
 20 21  1  0  0  0
 21 16  1  0  0  0
 16  1  1  0  0  0
  1  2  1  0  0  0
  2  3  2  0  0  0
  3  8  1  0  0  0
  8  9  2  0  0  0
  9 10  1  0  0  0
 10 11  1  0  0  0
 10 12  2  0  0  0
 12 13  1  0  0  0
 13 14  1  0  0  0
 13 15  2  0  0  0
  3  4  1  0  0  0
  4  5  2  0  0  0
  5  6  1  0  0  0
  6  7  2  0  0  0
 21 22  2  0  0  0
 27 28  1  0  0  0
 28 29  2  0  0  0
 29 24  1  0  0  0
 22 17  1  0  0  0
  6  1  1  0  0  0
 15  8  1  0  0  0
M  END
> <minimizedAffinity>
-11.34316

> <CNNscore>
0.5314446092

> <CNNaffinity>
6.8594579697

> <CNN_VS>
3.6454219818

> <CNNaffinity_variance>
0.2005048543

$$$$
[H]c1c(-c2c([H])c([H])c([H])c(C([H])([H])n3nc(-c4c([H])c(F)c([H])c(F)c4[H])c([H])c([H])c3=O)c2[H])nnc(C([H])([H])[H])c1[H]


 29 32  0  0  0  0  0  0  0  0999 V2000
  -13.0079   -7.9000    7.3241 N   0  0  0  0  0  0  0  0  0  0  0  0
  -12.7890   -8.2092    8.5989 N   0  0  0  0  0  0  0  0  0  0  0  0
  -13.7563   -8.3208    9.5304 C   0  0  0  0  0  0  0  0  0  0  0  0
  -15.0625   -8.1007    9.1420 C   0  0  0  0  0  0  0  0  0  0  0  0
  -15.3316   -7.7767    7.8247 C   0  0  0  0  0  0  0  0  0  0  0  0
  -14.2712   -7.6821    6.9268 C   0  0  0  0  0  0  0  0  0  0  0  0
  -14.4468   -7.3941    5.7302 O   0  0  0  0  0  0  0  0  0  0  0  0
  -13.4010   -8.6681   10.9129 C   0  0  0  0  0  0  0  0  0  0  0  0
  -13.3561   -9.9422   11.4039 C   0  0  0  0  0  0  0  0  0  0  0  0
  -13.0106  -10.2046   12.7290 C   0  0  0  0  0  0  0  0  0  0  0  0
  -12.9729  -11.4681   13.1906 F   0  0  0  0  0  0  0  0  0  0  0  0
  -12.7006   -9.1822   13.5948 C   0  0  0  0  0  0  0  0  0  0  0  0
  -12.7432   -7.8940   13.1088 C   0  0  0  0  0  0  0  0  0  0  0  0
  -12.4388   -6.8857   13.9577 F   0  0  0  0  0  0  0  0  0  0  0  0
  -13.0866   -7.6496   11.7959 C   0  0  0  0  0  0  0  0  0  0  0  0
  -11.8705   -7.8278    6.4611 C   0  0  0  0  0  0  0  0  0  0  0  0
   -8.3609   -8.6124    7.5293 C   0  0  0  0  0  0  0  0  0  0  0  0
   -8.4688   -9.9926    7.5736 C   0  0  0  0  0  0  0  0  0  0  0  0
   -9.6242  -10.6645    7.2712 C   0  0  0  0  0  0  0  0  0  0  0  0
  -10.7397   -9.9553    6.9045 C   0  0  0  0  0  0  0  0  0  0  0  0
  -10.6916   -8.5908    6.8437 C   0  0  0  0  0  0  0  0  0  0  0  0
   -9.5147   -7.9524    7.1542 C   0  0  0  0  0  0  0  0  0  0  0  0
   -3.2643   -6.2694    8.5376 C   0  0  0  0  0  0  0  0  0  0  0  0
   -4.6333   -6.8571    8.3146 C   0  0  0  0  0  0  0  0  0  0  0  0
   -5.7035   -6.4832    9.0960 C   0  0  0  0  0  0  0  0  0  0  0  0
   -6.9646   -7.0414    8.8712 C   0  0  0  0  0  0  0  0  0  0  0  0
   -7.1064   -7.9621    7.8619 C   0  0  0  0  0  0  0  0  0  0  0  0
   -6.0217   -8.2768    7.1436 N   0  0  0  0  0  0  0  0  0  0  0  0
   -4.8304   -7.7537    7.3511 N   0  0  0  0  0  0  0  0  0  0  0  0
 23 24  1  0  0  0
 24 25  2  0  0  0
 25 26  1  0  0  0
 26 27  2  0  0  0
 27 17  1  0  0  0
 17 18  2  0  0  0
 18 19  1  0  0  0
 19 20  2  0  0  0
 20 21  1  0  0  0
 21 16  1  0  0  0
 16  1  1  0  0  0
  1  2  1  0  0  0
  2  3  2  0  0  0
  3  8  1  0  0  0
  8  9  2  0  0  0
  9 10  1  0  0  0
 10 11  1  0  0  0
 10 12  2  0  0  0
 12 13  1  0  0  0
 13 14  1  0  0  0
 13 15  2  0  0  0
  3  4  1  0  0  0
  4  5  2  0  0  0
  5  6  1  0  0  0
  6  7  2  0  0  0
 21 22  2  0  0  0
 27 28  1  0  0  0
 28 29  2  0  0  0
 29 24  1  0  0  0
 22 17  1  0  0  0
  6  1  1  0  0  0
 15  8  1  0  0  0
M  END
> <minimizedAffinity>
11.73643

> <CNNscore>
0.4969308078

> <CNNaffinity>
6.6429963112

> <CNN_VS>
3.3011095524

> <CNNaffinity_variance>
0.9838826060

$$$$
[H]c1c(-c2c([H])c([H])c([H])c(C([H])([H])n3nc(-c4c([H])c(F)c([H])c(F)c4[H])c([H])c([H])c3=O)c2[H])nnc(C([H])([H])[H])c1[H]


 29 32  0  0  0  0  0  0  0  0999 V2000
   -9.7625   -7.6560    8.0517 N   0  0  0  0  0  0  0  0  0  0  0  0
   -8.5356   -7.2725    7.7105 N   0  0  0  0  0  0  0  0  0  0  0  0
   -7.6271   -8.0720    7.1179 C   0  0  0  0  0  0  0  0  0  0  0  0
   -7.9877   -9.3761    6.8445 C   0  0  0  0  0  0  0  0  0  0  0  0
   -9.2549   -9.8136    7.1841 C   0  0  0  0  0  0  0  0  0  0  0  0
  -10.1321   -8.9203    7.7945 C   0  0  0  0  0  0  0  0  0  0  0  0
  -11.2839   -9.2520    8.1246 O   0  0  0  0  0  0  0  0  0  0  0  0
   -6.2980   -7.5432    6.7837 C   0  0  0  0  0  0  0  0  0  0  0  0
   -6.0768   -6.3957    6.0760 C   0  0  0  0  0  0  0  0  0  0  0  0
   -4.7874   -5.9477    5.7918 C   0  0  0  0  0  0  0  0  0  0  0  0
   -4.5938   -4.8141    5.0929 F   0  0  0  0  0  0  0  0  0  0  0  0
   -3.6846   -6.6506    6.2170 C   0  0  0  0  0  0  0  0  0  0  0  0
   -3.8976   -7.8089    6.9313 C   0  0  0  0  0  0  0  0  0  0  0  0
   -2.8151   -8.5030    7.3513 F   0  0  0  0  0  0  0  0  0  0  0  0
   -5.1785   -8.2398    7.2050 C   0  0  0  0  0  0  0  0  0  0  0  0
  -10.6076   -6.6816    8.6682 C   0  0  0  0  0  0  0  0  0  0  0  0
  -14.2029   -7.1839    7.7220 C   0  0  0  0  0  0  0  0  0  0  0  0
  -14.6787   -7.5974    8.9554 C   0  0  0  0  0  0  0  0  0  0  0  0
  -13.8834   -7.7145   10.0651 C   0  0  0  0  0  0  0  0  0  0  0  0
  -12.5485   -7.4126    9.9721 C   0  0  0  0  0  0  0  0  0  0  0  0
  -12.0235   -6.9995    8.7797 C   0  0  0  0  0  0  0  0  0  0  0  0
  -12.8530   -6.8942    7.6889 C   0  0  0  0  0  0  0  0  0  0  0  0
  -17.9243   -7.0956    3.4063 C   0  0  0  0  0  0  0  0  0  0  0  0
  -16.9138   -7.0734    4.5233 C   0  0  0  0  0  0  0  0  0  0  0  0
  -15.9058   -6.1359    4.5515 C   0  0  0  0  0  0  0  0  0  0  0  0
  -14.9793   -6.1339    5.5975 C   0  0  0  0  0  0  0  0  0  0  0  0
  -15.0997   -7.0809    6.5851 C   0  0  0  0  0  0  0  0  0  0  0  0
  -16.1045   -7.9602    6.4913 N   0  0  0  0  0  0  0  0  0  0  0  0
  -16.9808   -7.9667    5.5074 N   0  0  0  0  0  0  0  0  0  0  0  0
 23 24  1  0  0  0
 24 25  2  0  0  0
 25 26  1  0  0  0
 26 27  2  0  0  0
 27 17  1  0  0  0
 17 18  2  0  0  0
 18 19  1  0  0  0
 19 20  2  0  0  0
 20 21  1  0  0  0
 21 16  1  0  0  0
 16  1  1  0  0  0
  1  2  1  0  0  0
  2  3  2  0  0  0
  3  8  1  0  0  0
  8  9  2  0  0  0
  9 10  1  0  0  0
 10 11  1  0  0  0
 10 12  2  0  0  0
 12 13  1  0  0  0
 13 14  1  0  0  0
 13 15  2  0  0  0
  3  4  1  0  0  0
  4  5  2  0  0  0
  5  6  1  0  0  0
  6  7  2  0  0  0
 21 22  2  0  0  0
 27 28  1  0  0  0
 28 29  2  0  0  0
 29 24  1  0  0  0
 22 17  1  0  0  0
  6  1  1  0  0  0
 15  8  1  0  0  0
M  END
> <minimizedAffinity>
-10.73001

> <CNNscore>
0.4824440479

> <CNNaffinity>
6.9112448692

> <CNN_VS>
3.3342888355

> <CNNaffinity_variance>
0.1381402314

$$$$
[H]c1c(-c2c([H])c([H])c([H])c(C([H])([H])n3nc(-c4c([H])c(F)c([H])c(F)c4[H])c([H])c([H])c3=O)c2[H])nnc(C([H])([H])[H])c1[H]


 29 32  0  0  0  0  0  0  0  0999 V2000
  -14.0545   -8.6192    7.6757 N   0  0  0  0  0  0  0  0  0  0  0  0
  -14.7054   -7.6677    7.0125 N   0  0  0  0  0  0  0  0  0  0  0  0
  -15.0996   -7.7708    5.7281 C   0  0  0  0  0  0  0  0  0  0  0  0
  -14.8115   -8.9385    5.0506 C   0  0  0  0  0  0  0  0  0  0  0  0
  -14.1356   -9.9520    5.7053 C   0  0  0  0  0  0  0  0  0  0  0  0
  -13.7649   -9.7620    7.0343 C   0  0  0  0  0  0  0  0  0  0  0  0
  -13.1552  -10.6337    7.6777 O   0  0  0  0  0  0  0  0  0  0  0  0
  -15.8140   -6.6556    5.0927 C   0  0  0  0  0  0  0  0  0  0  0  0
  -17.1649   -6.6150    4.8931 C   0  0  0  0  0  0  0  0  0  0  0  0
  -17.7825   -5.5242    4.2824 C   0  0  0  0  0  0  0  0  0  0  0  0
  -19.1152   -5.5063    4.0963 F   0  0  0  0  0  0  0  0  0  0  0  0
  -17.0478   -4.4427    3.8563 C   0  0  0  0  0  0  0  0  0  0  0  0
  -15.6848   -4.4746    4.0532 C   0  0  0  0  0  0  0  0  0  0  0  0
  -14.9588   -3.4123    3.6352 F   0  0  0  0  0  0  0  0  0  0  0  0
  -15.0878   -5.5601    4.6586 C   0  0  0  0  0  0  0  0  0  0  0  0
  -13.7132   -8.3540    9.0384 C   0  0  0  0  0  0  0  0  0  0  0  0
  -10.2600   -6.9055    8.8121 C   0  0  0  0  0  0  0  0  0  0  0  0
  -10.4175   -5.8697    9.7181 C   0  0  0  0  0  0  0  0  0  0  0  0
  -11.5883   -5.6321   10.3894 C   0  0  0  0  0  0  0  0  0  0  0  0
  -12.6690   -6.4476   10.1683 C   0  0  0  0  0  0  0  0  0  0  0  0
  -12.5714   -7.4857    9.2847 C   0  0  0  0  0  0  0  0  0  0  0  0
  -11.3804   -7.6923    8.6305 C   0  0  0  0  0  0  0  0  0  0  0  0
   -5.1968   -7.9654    6.4197 C   0  0  0  0  0  0  0  0  0  0  0  0
   -6.5444   -7.6445    7.0118 C   0  0  0  0  0  0  0  0  0  0  0  0
   -7.3479   -6.6698    6.4639 C   0  0  0  0  0  0  0  0  0  0  0  0
   -8.5942   -6.3888    7.0297 C   0  0  0  0  0  0  0  0  0  0  0  0
   -8.9916   -7.1025    8.1340 C   0  0  0  0  0  0  0  0  0  0  0  0
   -8.1580   -8.0345    8.6113 N   0  0  0  0  0  0  0  0  0  0  0  0
   -6.9819   -8.3036    8.0820 N   0  0  0  0  0  0  0  0  0  0  0  0
 23 24  1  0  0  0
 24 25  2  0  0  0
 25 26  1  0  0  0
 26 27  2  0  0  0
 27 17  1  0  0  0
 17 18  2  0  0  0
 18 19  1  0  0  0
 19 20  2  0  0  0
 20 21  1  0  0  0
 21 16  1  0  0  0
 16  1  1  0  0  0
  1  2  1  0  0  0
  2  3  2  0  0  0
  3  8  1  0  0  0
  8  9  2  0  0  0
  9 10  1  0  0  0
 10 11  1  0  0  0
 10 12  2  0  0  0
 12 13  1  0  0  0
 13 14  1  0  0  0
 13 15  2  0  0  0
  3  4  1  0  0  0
  4  5  2  0  0  0
  5  6  1  0  0  0
  6  7  2  0  0  0
 21 22  2  0  0  0
 27 28  1  0  0  0
 28 29  2  0  0  0
 29 24  1  0  0  0
 22 17  1  0  0  0
  6  1  1  0  0  0
 15  8  1  0  0  0
M  END
> <minimizedAffinity>
-10.39644

> <CNNscore>
0.4640102386

> <CNNaffinity>
7.1758623123

> <CNN_VS>
3.3296735287

> <CNNaffinity_variance>
0.0867084190

$$$$
[H]c1c(-c2c([H])c([H])c([H])c(C([H])([H])n3nc(-c4c([H])c(F)c([H])c(F)c4[H])c([H])c([H])c3=O)c2[H])nnc(C([H])([H])[H])c1[H]


 29 32  0  0  0  0  0  0  0  0999 V2000
  -10.6654   -8.5759    7.0613 N   0  0  0  0  0  0  0  0  0  0  0  0
  -11.8839   -8.1007    6.8201 N   0  0  0  0  0  0  0  0  0  0  0  0
  -12.9664   -8.3661    7.5774 C   0  0  0  0  0  0  0  0  0  0  0  0
  -12.8064   -9.1847    8.6774 C   0  0  0  0  0  0  0  0  0  0  0  0
  -11.5547   -9.6991    8.9621 C   0  0  0  0  0  0  0  0  0  0  0  0
  -10.4893   -9.3737    8.1260 C   0  0  0  0  0  0  0  0  0  0  0  0
   -9.3405   -9.8043    8.3273 O   0  0  0  0  0  0  0  0  0  0  0  0
  -14.2676   -7.7867    7.2182 C   0  0  0  0  0  0  0  0  0  0  0  0
  -15.4023   -7.9063    7.9697 C   0  0  0  0  0  0  0  0  0  0  0  0
  -16.6083   -7.3310    7.5715 C   0  0  0  0  0  0  0  0  0  0  0  0
  -17.7134   -7.4619    8.3282 F   0  0  0  0  0  0  0  0  0  0  0  0
  -16.6987   -6.6176    6.3994 C   0  0  0  0  0  0  0  0  0  0  0  0
  -15.5598   -6.4916    5.6349 C   0  0  0  0  0  0  0  0  0  0  0  0
  -15.6449   -5.7904    4.4811 F   0  0  0  0  0  0  0  0  0  0  0  0
  -14.3740   -7.0660    6.0413 C   0  0  0  0  0  0  0  0  0  0  0  0
   -9.6213   -8.1929    6.1630 C   0  0  0  0  0  0  0  0  0  0  0  0
   -6.7933   -7.5373    8.5391 C   0  0  0  0  0  0  0  0  0  0  0  0
   -5.7525   -7.9774    7.7382 C   0  0  0  0  0  0  0  0  0  0  0  0
   -5.9367   -8.4700    6.4727 C   0  0  0  0  0  0  0  0  0  0  0  0
   -7.2051   -8.5392    5.9548 C   0  0  0  0  0  0  0  0  0  0  0  0
   -8.2707   -8.1190    6.7003 C   0  0  0  0  0  0  0  0  0  0  0  0
   -8.0461   -7.6310    7.9654 C   0  0  0  0  0  0  0  0  0  0  0  0
   -6.1340   -5.6349   13.8710 C   0  0  0  0  0  0  0  0  0  0  0  0
   -6.2537   -6.1216   12.4504 C   0  0  0  0  0  0  0  0  0  0  0  0
   -5.1986   -6.0175   11.5719 C   0  0  0  0  0  0  0  0  0  0  0  0
   -5.3321   -6.4757   10.2585 C   0  0  0  0  0  0  0  0  0  0  0  0
   -6.5296   -7.0262    9.8721 C   0  0  0  0  0  0  0  0  0  0  0  0
   -7.5103   -7.0944   10.7804 N   0  0  0  0  0  0  0  0  0  0  0  0
   -7.3901   -6.6640   12.0198 N   0  0  0  0  0  0  0  0  0  0  0  0
 23 24  1  0  0  0
 24 25  2  0  0  0
 25 26  1  0  0  0
 26 27  2  0  0  0
 27 17  1  0  0  0
 17 18  2  0  0  0
 18 19  1  0  0  0
 19 20  2  0  0  0
 20 21  1  0  0  0
 21 16  1  0  0  0
 16  1  1  0  0  0
  1  2  1  0  0  0
  2  3  2  0  0  0
  3  8  1  0  0  0
  8  9  2  0  0  0
  9 10  1  0  0  0
 10 11  1  0  0  0
 10 12  2  0  0  0
 12 13  1  0  0  0
 13 14  1  0  0  0
 13 15  2  0  0  0
  3  4  1  0  0  0
  4  5  2  0  0  0
  5  6  1  0  0  0
  6  7  2  0  0  0
 21 22  2  0  0  0
 27 28  1  0  0  0
 28 29  2  0  0  0
 29 24  1  0  0  0
 22 17  1  0  0  0
  6  1  1  0  0  0
 15  8  1  0  0  0
M  END
> <minimizedAffinity>
4.49450

> <CNNscore>
0.4417916238

> <CNNaffinity>
6.7148180008

> <CNN_VS>
2.9665503502

> <CNNaffinity_variance>
2.3027968407

$$$$
[H]c1c(-c2c([H])c([H])c([H])c(C([H])([H])n3nc(-c4c([H])c(F)c([H])c(F)c4[H])c([H])c([H])c3=O)c2[H])nnc(C([H])([H])[H])c1[H]


 29 32  0  0  0  0  0  0  0  0999 V2000
  -12.9631   -8.5383    9.6752 N   0  0  0  0  0  0  0  0  0  0  0  0
  -13.8919   -8.2823    8.7584 N   0  0  0  0  0  0  0  0  0  0  0  0
  -15.1087   -7.7720    9.0317 C   0  0  0  0  0  0  0  0  0  0  0  0
  -15.4175   -7.4947   10.3482 C   0  0  0  0  0  0  0  0  0  0  0  0
  -14.4783   -7.7471   11.3315 C   0  0  0  0  0  0  0  0  0  0  0  0
  -13.2442   -8.2758   10.9609 C   0  0  0  0  0  0  0  0  0  0  0  0
  -12.3584   -8.5255   11.7967 O   0  0  0  0  0  0  0  0  0  0  0  0
  -16.0596   -7.5280    7.9389 C   0  0  0  0  0  0  0  0  0  0  0  0
  -17.2516   -8.1787    7.7901 C   0  0  0  0  0  0  0  0  0  0  0  0
  -18.1106   -7.8997    6.7279 C   0  0  0  0  0  0  0  0  0  0  0  0
  -19.2801   -8.5535    6.6018 F   0  0  0  0  0  0  0  0  0  0  0  0
  -17.7856   -6.9525    5.7855 C   0  0  0  0  0  0  0  0  0  0  0  0
  -16.5856   -6.2912    5.9270 C   0  0  0  0  0  0  0  0  0  0  0  0
  -16.2626   -5.3587    5.0017 F   0  0  0  0  0  0  0  0  0  0  0  0
  -15.7461   -6.5775    6.9827 C   0  0  0  0  0  0  0  0  0  0  0  0
  -11.7191   -9.0741    9.2180 C   0  0  0  0  0  0  0  0  0  0  0  0
  -12.6364   -9.4786    5.6029 C   0  0  0  0  0  0  0  0  0  0  0  0
  -11.4576  -10.0560    5.1605 C   0  0  0  0  0  0  0  0  0  0  0  0
  -10.3940  -10.3150    5.9848 C   0  0  0  0  0  0  0  0  0  0  0  0
  -10.4798   -9.9949    7.3160 C   0  0  0  0  0  0  0  0  0  0  0  0
  -11.6191   -9.4227    7.8084 C   0  0  0  0  0  0  0  0  0  0  0  0
  -12.6648   -9.1783    6.9507 C   0  0  0  0  0  0  0  0  0  0  0  0
  -17.1705   -8.5784    2.2691 C   0  0  0  0  0  0  0  0  0  0  0  0
  -15.9378   -8.8053    3.1048 C   0  0  0  0  0  0  0  0  0  0  0  0
  -14.6784   -8.6837    2.5618 C   0  0  0  0  0  0  0  0  0  0  0  0
  -13.5488   -8.8987    3.3557 C   0  0  0  0  0  0  0  0  0  0  0  0
  -13.7264   -9.2307    4.6767 C   0  0  0  0  0  0  0  0  0  0  0  0
  -14.9800   -9.3308    5.1348 N   0  0  0  0  0  0  0  0  0  0  0  0
  -16.0485   -9.1293    4.3908 N   0  0  0  0  0  0  0  0  0  0  0  0
 23 24  1  0  0  0
 24 25  2  0  0  0
 25 26  1  0  0  0
 26 27  2  0  0  0
 27 17  1  0  0  0
 17 18  2  0  0  0
 18 19  1  0  0  0
 19 20  2  0  0  0
 20 21  1  0  0  0
 21 16  1  0  0  0
 16  1  1  0  0  0
  1  2  1  0  0  0
  2  3  2  0  0  0
  3  8  1  0  0  0
  8  9  2  0  0  0
  9 10  1  0  0  0
 10 11  1  0  0  0
 10 12  2  0  0  0
 12 13  1  0  0  0
 13 14  1  0  0  0
 13 15  2  0  0  0
  3  4  1  0  0  0
  4  5  2  0  0  0
  5  6  1  0  0  0
  6  7  2  0  0  0
 21 22  2  0  0  0
 27 28  1  0  0  0
 28 29  2  0  0  0
 29 24  1  0  0  0
 22 17  1  0  0  0
  6  1  1  0  0  0
 15  8  1  0  0  0
M  END
> <minimizedAffinity>
10.41798

> <CNNscore>
0.4329453707

> <CNNaffinity>
6.7352018356

> <CNN_VS>
2.9159743786

> <CNNaffinity_variance>
1.3503226042

$$$$
[H]c1c(-c2c([H])c([H])c([H])c(C([H])([H])n3nc(-c4c([H])c(F)c([H])c(F)c4[H])c([H])c([H])c3=O)c2[H])nnc(C([H])([H])[H])c1[H]


 29 32  0  0  0  0  0  0  0  0999 V2000
   -7.8642   -6.5043    6.5848 N   0  0  0  0  0  0  0  0  0  0  0  0
   -6.5501   -6.7091    6.5818 N   0  0  0  0  0  0  0  0  0  0  0  0
   -5.7567   -6.5353    5.5066 C   0  0  0  0  0  0  0  0  0  0  0  0
   -6.3406   -6.1176    4.3276 C   0  0  0  0  0  0  0  0  0  0  0  0
   -7.7048   -5.8938    4.2898 C   0  0  0  0  0  0  0  0  0  0  0  0
   -8.4507   -6.0981    5.4481 C   0  0  0  0  0  0  0  0  0  0  0  0
   -9.6800   -5.9152    5.4791 O   0  0  0  0  0  0  0  0  0  0  0  0
   -4.3143   -6.7911    5.6156 C   0  0  0  0  0  0  0  0  0  0  0  0
   -3.3494   -6.0707    4.9703 C   0  0  0  0  0  0  0  0  0  0  0  0
   -1.9945   -6.3656    5.1167 C   0  0  0  0  0  0  0  0  0  0  0  0
   -1.0615   -5.6419    4.4711 F   0  0  0  0  0  0  0  0  0  0  0  0
   -1.5788   -7.3999    5.9219 C   0  0  0  0  0  0  0  0  0  0  0  0
   -2.5445   -8.1321    6.5766 C   0  0  0  0  0  0  0  0  0  0  0  0
   -2.1392   -9.1504    7.3696 F   0  0  0  0  0  0  0  0  0  0  0  0
   -3.8807   -7.8289    6.4224 C   0  0  0  0  0  0  0  0  0  0  0  0
   -8.5610   -6.7286    7.8128 C   0  0  0  0  0  0  0  0  0  0  0  0
   -6.2347   -6.9011   10.7507 C   0  0  0  0  0  0  0  0  0  0  0  0
   -6.3579   -8.2532   11.0248 C   0  0  0  0  0  0  0  0  0  0  0  0
   -7.1570   -9.0959   10.2974 C   0  0  0  0  0  0  0  0  0  0  0  0
   -7.8784   -8.5969    9.2427 C   0  0  0  0  0  0  0  0  0  0  0  0
   -7.7960   -7.2699    8.9263 C   0  0  0  0  0  0  0  0  0  0  0  0
   -6.9836   -6.4561    9.6791 C   0  0  0  0  0  0  0  0  0  0  0  0
   -3.1299   -3.6038   14.2106 C   0  0  0  0  0  0  0  0  0  0  0  0
   -3.9069   -4.4743   13.2579 C   0  0  0  0  0  0  0  0  0  0  0  0
   -3.3752   -4.8523   12.0454 C   0  0  0  0  0  0  0  0  0  0  0  0
   -4.1139   -5.6603   11.1772 C   0  0  0  0  0  0  0  0  0  0  0  0
   -5.3698   -6.0627   11.5611 C   0  0  0  0  0  0  0  0  0  0  0  0
   -5.8209   -5.6563   12.7539 N   0  0  0  0  0  0  0  0  0  0  0  0
   -5.1288   -4.8945   13.5764 N   0  0  0  0  0  0  0  0  0  0  0  0
 23 24  1  0  0  0
 24 25  2  0  0  0
 25 26  1  0  0  0
 26 27  2  0  0  0
 27 17  1  0  0  0
 17 18  2  0  0  0
 18 19  1  0  0  0
 19 20  2  0  0  0
 20 21  1  0  0  0
 21 16  1  0  0  0
 16  1  1  0  0  0
  1  2  1  0  0  0
  2  3  2  0  0  0
  3  8  1  0  0  0
  8  9  2  0  0  0
  9 10  1  0  0  0
 10 11  1  0  0  0
 10 12  2  0  0  0
 12 13  1  0  0  0
 13 14  1  0  0  0
 13 15  2  0  0  0
  3  4  1  0  0  0
  4  5  2  0  0  0
  5  6  1  0  0  0
  6  7  2  0  0  0
 21 22  2  0  0  0
 27 28  1  0  0  0
 28 29  2  0  0  0
 29 24  1  0  0  0
 22 17  1  0  0  0
  6  1  1  0  0  0
 15  8  1  0  0  0
M  END
> <minimizedAffinity>
13.55394

> <CNNscore>
0.4092881382

> <CNNaffinity>
5.6855025291

> <CNN_VS>
2.3270087242

> <CNNaffinity_variance>
1.8095258474

$$$$
[H]c1c(-c2c([H])c([H])c([H])c(C([H])([H])n3nc(-c4c([H])c(F)c([H])c(F)c4[H])c([H])c([H])c3=O)c2[H])nnc(C([H])([H])[H])c1[H]


 29 32  0  0  0  0  0  0  0  0999 V2000
  -12.9288   -9.5273    4.7806 N   0  0  0  0  0  0  0  0  0  0  0  0
  -13.7502   -9.2179    5.7798 N   0  0  0  0  0  0  0  0  0  0  0  0
  -14.9840   -8.7013    5.6167 C   0  0  0  0  0  0  0  0  0  0  0  0
  -15.4303   -8.4758    4.3301 C   0  0  0  0  0  0  0  0  0  0  0  0
  -14.6057   -8.7843    3.2636 C   0  0  0  0  0  0  0  0  0  0  0  0
  -13.3443   -9.3153    3.5222 C   0  0  0  0  0  0  0  0  0  0  0  0
  -12.5562   -9.6126    2.6079 O   0  0  0  0  0  0  0  0  0  0  0  0
  -15.8085   -8.3963    6.7936 C   0  0  0  0  0  0  0  0  0  0  0  0
  -17.1442   -8.1130    6.7508 C   0  0  0  0  0  0  0  0  0  0  0  0
  -17.8706   -7.8314    7.9072 C   0  0  0  0  0  0  0  0  0  0  0  0
  -19.1860   -7.5552    7.8406 F   0  0  0  0  0  0  0  0  0  0  0  0
  -17.2631   -7.8288    9.1408 C   0  0  0  0  0  0  0  0  0  0  0  0
  -15.9164   -8.1132    9.1941 C   0  0  0  0  0  0  0  0  0  0  0  0
  -15.3155   -8.1115   10.4061 F   0  0  0  0  0  0  0  0  0  0  0  0
  -15.2109   -8.3899    8.0421 C   0  0  0  0  0  0  0  0  0  0  0  0
  -11.6533  -10.0739    5.1242 C   0  0  0  0  0  0  0  0  0  0  0  0
   -8.9759   -8.6957    7.3614 C   0  0  0  0  0  0  0  0  0  0  0  0
   -9.7363   -8.5339    8.5077 C   0  0  0  0  0  0  0  0  0  0  0  0
  -11.0669   -8.8542    8.5763 C   0  0  0  0  0  0  0  0  0  0  0  0
  -11.6958   -9.3610    7.4675 C   0  0  0  0  0  0  0  0  0  0  0  0
  -10.9950   -9.5419    6.3082 C   0  0  0  0  0  0  0  0  0  0  0  0
   -9.6618   -9.2091    6.2782 C   0  0  0  0  0  0  0  0  0  0  0  0
   -3.5054   -7.1347    7.7082 C   0  0  0  0  0  0  0  0  0  0  0  0
   -4.9409   -7.5682    7.5634 C   0  0  0  0  0  0  0  0  0  0  0  0
   -5.3835   -8.1905    6.4178 C   0  0  0  0  0  0  0  0  0  0  0  0
   -6.7196   -8.5841    6.3052 C   0  0  0  0  0  0  0  0  0  0  0  0
   -7.5693   -8.3365    7.3556 C   0  0  0  0  0  0  0  0  0  0  0  0
   -7.0682   -7.7276    8.4371 N   0  0  0  0  0  0  0  0  0  0  0  0
   -5.8096   -7.3543    8.5486 N   0  0  0  0  0  0  0  0  0  0  0  0
 23 24  1  0  0  0
 24 25  2  0  0  0
 25 26  1  0  0  0
 26 27  2  0  0  0
 27 17  1  0  0  0
 17 18  2  0  0  0
 18 19  1  0  0  0
 19 20  2  0  0  0
 20 21  1  0  0  0
 21 16  1  0  0  0
 16  1  1  0  0  0
  1  2  1  0  0  0
  2  3  2  0  0  0
  3  8  1  0  0  0
  8  9  2  0  0  0
  9 10  1  0  0  0
 10 11  1  0  0  0
 10 12  2  0  0  0
 12 13  1  0  0  0
 13 14  1  0  0  0
 13 15  2  0  0  0
  3  4  1  0  0  0
  4  5  2  0  0  0
  5  6  1  0  0  0
  6  7  2  0  0  0
 21 22  2  0  0  0
 27 28  1  0  0  0
 28 29  2  0  0  0
 29 24  1  0  0  0
 22 17  1  0  0  0
  6  1  1  0  0  0
 15  8  1  0  0  0
M  END
> <minimizedAffinity>
9.61683

> <CNNscore>
0.4030314386

> <CNNaffinity>
6.4006905556

> <CNN_VS>
2.5796794891

> <CNNaffinity_variance>
0.9484467506

$$$$
[H]c1c([H])c([H])c(-c2c([H])c([H])c(C([H])([H])Sc3nnc(-c4c([H])c([H])c5c(c4[H])O[C@@]([H])(C([H])([H])OC([H])([H])[H])C([H])([H])O5)o3)c([H])c2[H])c(C#N)c1[H]


 34 38  0  0  0  0  0  0  0  0999 V2000
  -11.5033   -6.5611    9.8666 C   0  0  0  0  0  0  0  0  0  0  0  0
  -10.3832   -6.3461    9.1782 N   0  0  0  0  0  0  0  0  0  0  0  0
   -9.4475   -5.9706   10.0228 N   0  0  0  0  0  0  0  0  0  0  0  0
   -9.9722   -5.9464   11.2507 C   0  0  0  0  0  0  0  0  0  0  0  0
  -11.2461   -6.3195   11.1023 O   0  0  0  0  0  0  0  0  0  0  0  0
  -15.8714   -7.1210    5.6170 C   0  0  0  0  0  0  0  0  0  0  0  0
  -16.3848   -8.4212    6.2183 C   0  0  0  0  0  0  0  0  0  0  0  0
  -16.3964   -8.2272    7.6460 O   0  0  0  0  0  0  0  0  0  0  0  0
  -15.2023   -7.8247    8.2171 C   0  0  0  0  0  0  0  0  0  0  0  0
  -14.9753   -7.9664    9.5895 C   0  0  0  0  0  0  0  0  0  0  0  0
  -13.7602   -7.5427   10.0872 C   0  0  0  0  0  0  0  0  0  0  0  0
  -12.7857   -6.9956    9.2854 C   0  0  0  0  0  0  0  0  0  0  0  0
  -13.0295   -6.8679    7.9545 C   0  0  0  0  0  0  0  0  0  0  0  0
  -14.2379   -7.2786    7.3972 C   0  0  0  0  0  0  0  0  0  0  0  0
  -14.4620   -7.1378    6.0356 O   0  0  0  0  0  0  0  0  0  0  0  0
  -15.9037   -7.0936    4.1286 C   0  0  0  0  0  0  0  0  0  0  0  0
  -18.1757   -6.4848    3.8492 C   0  0  0  0  0  0  0  0  0  0  0  0
  -16.8932   -6.5076    3.4667 O   0  0  0  0  0  0  0  0  0  0  0  0
   -9.1711   -5.5144   12.7716 S   0  0  0  0  0  0  0  0  0  0  0  0
   -7.7089   -6.4915   13.1350 C   0  0  0  0  0  0  0  0  0  0  0  0
   -6.5833   -5.6806   13.6412 C   0  0  0  0  0  0  0  0  0  0  0  0
   -5.8614   -4.9149   12.7259 C   0  0  0  0  0  0  0  0  0  0  0  0
   -4.7891   -4.1572   13.1404 C   0  0  0  0  0  0  0  0  0  0  0  0
   -4.3790   -4.1132   14.4485 C   0  0  0  0  0  0  0  0  0  0  0  0
   -5.0974   -4.8737   15.3498 C   0  0  0  0  0  0  0  0  0  0  0  0
   -6.1760   -5.6376   14.9381 C   0  0  0  0  0  0  0  0  0  0  0  0
   -3.2612   -3.3220   14.9388 C   0  0  0  0  0  0  0  0  0  0  0  0
   -3.2102   -1.9425   14.6987 C   0  0  0  0  0  0  0  0  0  0  0  0
   -2.1690   -1.1778   15.1659 C   0  0  0  0  0  0  0  0  0  0  0  0
   -1.1304   -1.7231   15.8882 C   0  0  0  0  0  0  0  0  0  0  0  0
   -1.1661   -3.0763   16.1318 C   0  0  0  0  0  0  0  0  0  0  0  0
   -2.2243   -3.8588   15.6578 C   0  0  0  0  0  0  0  0  0  0  0  0
   -2.2096   -5.2724   15.9256 C   0  0  0  0  0  0  0  0  0  0  0  0
   -2.1922   -6.4206   16.1182 N   0  0  0  0  0  0  0  0  0  0  0  0
 17 18  1  0  0  0
 18 16  1  0  0  0
 16  6  1  0  0  0
  6  7  1  0  0  0
  7  8  1  0  0  0
  8  9  1  0  0  0
  9 10  2  0  0  0
 10 11  1  0  0  0
 11 12  2  0  0  0
 12  1  1  0  0  0
  1  2  2  0  0  0
  2  3  1  0  0  0
  3  4  2  0  0  0
  4 19  1  0  0  0
 19 20  1  0  0  0
 20 21  1  0  0  0
 21 22  2  0  0  0
 22 23  1  0  0  0
 23 24  2  0  0  0
 24 27  1  0  0  0
 27 28  2  0  0  0
 28 29  1  0  0  0
 29 30  2  0  0  0
 30 31  1  0  0  0
 31 32  2  0  0  0
 32 33  1  0  0  0
 33 34  3  0  0  0
 24 25  1  0  0  0
 25 26  2  0  0  0
  4  5  1  0  0  0
 12 13  1  0  0  0
 13 14  2  0  0  0
 14 15  1  0  0  0
 15  6  1  0  0  0
 14  9  1  0  0  0
  5  1  1  0  0  0
 26 21  1  0  0  0
 32 27  1  0  0  0
M  END
> <minimizedAffinity>
3.20643

> <CNNscore>
0.4315595031

> <CNNaffinity>
5.8324303627

> <CNN_VS>
2.5170407295

> <CNNaffinity_variance>
1.1732143164

$$$$
[H]c1c([H])c([H])c(-c2c([H])c([H])c(C([H])([H])Sc3nnc(-c4c([H])c([H])c5c(c4[H])O[C@@]([H])(C([H])([H])OC([H])([H])[H])C([H])([H])O5)o3)c([H])c2[H])c(C#N)c1[H]


 34 38  0  0  0  0  0  0  0  0999 V2000
  -10.9580   -7.3244    8.3371 C   0  0  0  0  0  0  0  0  0  0  0  0
  -11.1659   -6.4899    9.3546 N   0  0  0  0  0  0  0  0  0  0  0  0
  -10.0034   -6.2165    9.9058 N   0  0  0  0  0  0  0  0  0  0  0  0
   -9.0539   -6.8776    9.2386 C   0  0  0  0  0  0  0  0  0  0  0  0
   -9.6941   -7.5487    8.2774 O   0  0  0  0  0  0  0  0  0  0  0  0
  -15.9596   -7.2689    4.8109 C   0  0  0  0  0  0  0  0  0  0  0  0
  -15.4992   -8.4854    4.0210 C   0  0  0  0  0  0  0  0  0  0  0  0
  -14.9650   -9.4128    4.9857 O   0  0  0  0  0  0  0  0  0  0  0  0
  -13.9723   -8.9249    5.8168 C   0  0  0  0  0  0  0  0  0  0  0  0
  -13.1254   -9.7915    6.5146 C   0  0  0  0  0  0  0  0  0  0  0  0
  -12.1587   -9.2319    7.3243 C   0  0  0  0  0  0  0  0  0  0  0  0
  -12.0088   -7.8714    7.4609 C   0  0  0  0  0  0  0  0  0  0  0  0
  -12.8440   -7.0493    6.7728 C   0  0  0  0  0  0  0  0  0  0  0  0
  -13.8378   -7.5585    5.9407 C   0  0  0  0  0  0  0  0  0  0  0  0
  -14.6773   -6.6980    5.2489 O   0  0  0  0  0  0  0  0  0  0  0  0
  -16.6553   -6.2441    3.9845 C   0  0  0  0  0  0  0  0  0  0  0  0
  -18.6061   -4.9690    4.4080 C   0  0  0  0  0  0  0  0  0  0  0  0
  -17.2990   -5.2253    4.5397 O   0  0  0  0  0  0  0  0  0  0  0  0
   -7.3079   -6.8819    9.5429 S   0  0  0  0  0  0  0  0  0  0  0  0
   -6.3107   -6.4747    8.1060 C   0  0  0  0  0  0  0  0  0  0  0  0
   -6.5626   -7.3668    6.9564 C   0  0  0  0  0  0  0  0  0  0  0  0
   -6.8468   -6.7832    5.7219 C   0  0  0  0  0  0  0  0  0  0  0  0
   -7.1108   -7.5681    4.6219 C   0  0  0  0  0  0  0  0  0  0  0  0
   -7.1090   -8.9386    4.6764 C   0  0  0  0  0  0  0  0  0  0  0  0
   -6.8274   -9.5104    5.9014 C   0  0  0  0  0  0  0  0  0  0  0  0
   -6.5618   -8.7257    7.0105 C   0  0  0  0  0  0  0  0  0  0  0  0
   -7.3705   -9.8118    3.5429 C   0  0  0  0  0  0  0  0  0  0  0  0
   -6.6592   -9.6520    2.3463 C   0  0  0  0  0  0  0  0  0  0  0  0
   -6.8836  -10.4763    1.2705 C   0  0  0  0  0  0  0  0  0  0  0  0
   -7.8117  -11.4935    1.3123 C   0  0  0  0  0  0  0  0  0  0  0  0
   -8.5184  -11.6628    2.4801 C   0  0  0  0  0  0  0  0  0  0  0  0
   -8.2931  -10.8257    3.5779 C   0  0  0  0  0  0  0  0  0  0  0  0
   -9.0676  -11.0330    4.7726 C   0  0  0  0  0  0  0  0  0  0  0  0
   -9.6807  -11.1833    5.7511 N   0  0  0  0  0  0  0  0  0  0  0  0
 17 18  1  0  0  0
 18 16  1  0  0  0
 16  6  1  0  0  0
  6  7  1  0  0  0
  7  8  1  0  0  0
  8  9  1  0  0  0
  9 10  2  0  0  0
 10 11  1  0  0  0
 11 12  2  0  0  0
 12  1  1  0  0  0
  1  2  2  0  0  0
  2  3  1  0  0  0
  3  4  2  0  0  0
  4 19  1  0  0  0
 19 20  1  0  0  0
 20 21  1  0  0  0
 21 22  2  0  0  0
 22 23  1  0  0  0
 23 24  2  0  0  0
 24 27  1  0  0  0
 27 28  2  0  0  0
 28 29  1  0  0  0
 29 30  2  0  0  0
 30 31  1  0  0  0
 31 32  2  0  0  0
 32 33  1  0  0  0
 33 34  3  0  0  0
 24 25  1  0  0  0
 25 26  2  0  0  0
  4  5  1  0  0  0
 12 13  1  0  0  0
 13 14  2  0  0  0
 14 15  1  0  0  0
 15  6  1  0  0  0
 14  9  1  0  0  0
  5  1  1  0  0  0
 26 21  1  0  0  0
 32 27  1  0  0  0
M  END
> <minimizedAffinity>
5.48466

> <CNNscore>
0.4118491113

> <CNNaffinity>
6.6333565712

> <CNN_VS>
2.7319419384

> <CNNaffinity_variance>
0.5620454550

$$$$
[H]c1c([H])c([H])c(-c2c([H])c([H])c(C([H])([H])Sc3nnc(-c4c([H])c([H])c5c(c4[H])O[C@@]([H])(C([H])([H])OC([H])([H])[H])C([H])([H])O5)o3)c([H])c2[H])c(C#N)c1[H]


 34 38  0  0  0  0  0  0  0  0999 V2000
   -6.9595   -7.6667    7.3629 C   0  0  0  0  0  0  0  0  0  0  0  0
   -7.9609   -6.8106    7.5605 N   0  0  0  0  0  0  0  0  0  0  0  0
   -9.0935   -7.4677    7.4367 N   0  0  0  0  0  0  0  0  0  0  0  0
   -8.8133   -8.7439    7.1601 C   0  0  0  0  0  0  0  0  0  0  0  0
   -7.4800   -8.8172    7.1250 O   0  0  0  0  0  0  0  0  0  0  0  0
   -2.0198   -4.2127    8.4223 C   0  0  0  0  0  0  0  0  0  0  0  0
   -1.1242   -5.4294    8.6052 C   0  0  0  0  0  0  0  0  0  0  0  0
   -1.4916   -6.3590    7.5675 O   0  0  0  0  0  0  0  0  0  0  0  0
   -2.8302   -6.7025    7.5015 C   0  0  0  0  0  0  0  0  0  0  0  0
   -3.2481   -7.8471    6.8157 C   0  0  0  0  0  0  0  0  0  0  0  0
   -4.5992   -8.1255    6.7932 C   0  0  0  0  0  0  0  0  0  0  0  0
   -5.5275   -7.3231    7.4148 C   0  0  0  0  0  0  0  0  0  0  0  0
   -5.0973   -6.2158    8.0749 C   0  0  0  0  0  0  0  0  0  0  0  0
   -3.7455   -5.8858    8.1307 C   0  0  0  0  0  0  0  0  0  0  0  0
   -3.3319   -4.7502    8.8113 O   0  0  0  0  0  0  0  0  0  0  0  0
   -1.6985   -3.0866    9.3420 C   0  0  0  0  0  0  0  0  0  0  0  0
   -3.3939   -1.5534    9.9630 C   0  0  0  0  0  0  0  0  0  0  0  0
   -2.5982   -2.6054   10.1903 O   0  0  0  0  0  0  0  0  0  0  0  0
   -9.9495  -10.0774    6.8915 S   0  0  0  0  0  0  0  0  0  0  0  0
  -11.4824   -9.9338    7.8159 C   0  0  0  0  0  0  0  0  0  0  0  0
  -12.4693   -9.0494    7.1642 C   0  0  0  0  0  0  0  0  0  0  0  0
  -12.7136   -7.8020    7.7384 C   0  0  0  0  0  0  0  0  0  0  0  0
  -13.6395   -6.9468    7.1842 C   0  0  0  0  0  0  0  0  0  0  0  0
  -14.3581   -7.2658    6.0604 C   0  0  0  0  0  0  0  0  0  0  0  0
  -14.1121   -8.5022    5.4968 C   0  0  0  0  0  0  0  0  0  0  0  0
  -13.1826   -9.3660    6.0504 C   0  0  0  0  0  0  0  0  0  0  0  0
  -15.3384   -6.3950    5.4305 C   0  0  0  0  0  0  0  0  0  0  0  0
  -14.9350   -5.4367    4.4913 C   0  0  0  0  0  0  0  0  0  0  0  0
  -15.8487   -4.6153    3.8767 C   0  0  0  0  0  0  0  0  0  0  0  0
  -17.1968   -4.6908    4.1499 C   0  0  0  0  0  0  0  0  0  0  0  0
  -17.6083   -5.6266    5.0701 C   0  0  0  0  0  0  0  0  0  0  0  0
  -16.6814   -6.4648    5.6984 C   0  0  0  0  0  0  0  0  0  0  0  0
  -17.1588   -7.4179    6.6648 C   0  0  0  0  0  0  0  0  0  0  0  0
  -17.5252   -8.1843    7.4611 N   0  0  0  0  0  0  0  0  0  0  0  0
 17 18  1  0  0  0
 18 16  1  0  0  0
 16  6  1  0  0  0
  6  7  1  0  0  0
  7  8  1  0  0  0
  8  9  1  0  0  0
  9 10  2  0  0  0
 10 11  1  0  0  0
 11 12  2  0  0  0
 12  1  1  0  0  0
  1  2  2  0  0  0
  2  3  1  0  0  0
  3  4  2  0  0  0
  4 19  1  0  0  0
 19 20  1  0  0  0
 20 21  1  0  0  0
 21 22  2  0  0  0
 22 23  1  0  0  0
 23 24  2  0  0  0
 24 27  1  0  0  0
 27 28  2  0  0  0
 28 29  1  0  0  0
 29 30  2  0  0  0
 30 31  1  0  0  0
 31 32  2  0  0  0
 32 33  1  0  0  0
 33 34  3  0  0  0
 24 25  1  0  0  0
 25 26  2  0  0  0
  4  5  1  0  0  0
 12 13  1  0  0  0
 13 14  2  0  0  0
 14 15  1  0  0  0
 15  6  1  0  0  0
 14  9  1  0  0  0
  5  1  1  0  0  0
 26 21  1  0  0  0
 32 27  1  0  0  0
M  END
> <minimizedAffinity>
-8.37095

> <CNNscore>
0.4078412354

> <CNNaffinity>
6.7399892807

> <CNN_VS>
2.7488455772

> <CNNaffinity_variance>
0.3299362063

$$$$
[H]c1c([H])c([H])c(-c2c([H])c([H])c(C([H])([H])Sc3nnc(-c4c([H])c([H])c5c(c4[H])O[C@@]([H])(C([H])([H])OC([H])([H])[H])C([H])([H])O5)o3)c([H])c2[H])c(C#N)c1[H]


 34 38  0  0  0  0  0  0  0  0999 V2000
   -6.4165   -6.7435    6.8734 C   0  0  0  0  0  0  0  0  0  0  0  0
   -5.9109   -6.4812    5.6691 N   0  0  0  0  0  0  0  0  0  0  0  0
   -4.8012   -5.7939    5.8301 N   0  0  0  0  0  0  0  0  0  0  0  0
   -4.5995   -5.6182    7.1386 C   0  0  0  0  0  0  0  0  0  0  0  0
   -5.6255   -6.2237    7.7426 O   0  0  0  0  0  0  0  0  0  0  0  0
  -12.1701   -7.6699    8.7417 C   0  0  0  0  0  0  0  0  0  0  0  0
  -12.3693   -8.8289    7.7759 C   0  0  0  0  0  0  0  0  0  0  0  0
  -11.1606   -9.6113    7.8318 O   0  0  0  0  0  0  0  0  0  0  0  0
   -9.9807   -8.9299    7.5917 C   0  0  0  0  0  0  0  0  0  0  0  0
   -8.8108   -9.6131    7.2458 C   0  0  0  0  0  0  0  0  0  0  0  0
   -7.6727   -8.8662    7.0212 C   0  0  0  0  0  0  0  0  0  0  0  0
   -7.6586   -7.4948    7.1264 C   0  0  0  0  0  0  0  0  0  0  0  0
   -8.8079   -6.8530    7.4641 C   0  0  0  0  0  0  0  0  0  0  0  0
   -9.9864   -7.5557    7.7021 C   0  0  0  0  0  0  0  0  0  0  0  0
  -11.1464   -6.8770    8.0451 O   0  0  0  0  0  0  0  0  0  0  0  0
  -13.3758   -6.8119    8.9071 C   0  0  0  0  0  0  0  0  0  0  0  0
  -12.9840   -5.1544   10.5534 C   0  0  0  0  0  0  0  0  0  0  0  0
  -13.6447   -6.2074   10.0573 O   0  0  0  0  0  0  0  0  0  0  0  0
   -3.2632   -4.7664    7.9322 S   0  0  0  0  0  0  0  0  0  0  0  0
   -3.0954   -3.0464    7.4440 C   0  0  0  0  0  0  0  0  0  0  0  0
   -2.9498   -2.8716    5.9849 C   0  0  0  0  0  0  0  0  0  0  0  0
   -3.9558   -2.1889    5.3014 C   0  0  0  0  0  0  0  0  0  0  0  0
   -3.8811   -2.0164    3.9374 C   0  0  0  0  0  0  0  0  0  0  0  0
   -2.8357   -2.4953    3.1898 C   0  0  0  0  0  0  0  0  0  0  0  0
   -1.8431   -3.1706    3.8720 C   0  0  0  0  0  0  0  0  0  0  0  0
   -1.9137   -3.3472    5.2433 C   0  0  0  0  0  0  0  0  0  0  0  0
   -2.7045   -2.3308    1.7505 C   0  0  0  0  0  0  0  0  0  0  0  0
   -3.1032   -3.3546    0.8809 C   0  0  0  0  0  0  0  0  0  0  0  0
   -2.9989   -3.2109   -0.4813 C   0  0  0  0  0  0  0  0  0  0  0  0
   -2.5013   -2.0629   -1.0576 C   0  0  0  0  0  0  0  0  0  0  0  0
   -2.1054   -1.0488   -0.2169 C   0  0  0  0  0  0  0  0  0  0  0  0
   -2.2096   -1.1909    1.1707 C   0  0  0  0  0  0  0  0  0  0  0  0
   -1.7687   -0.1079    2.0091 C   0  0  0  0  0  0  0  0  0  0  0  0
   -1.4300    0.7830    2.6780 N   0  0  0  0  0  0  0  0  0  0  0  0
 17 18  1  0  0  0
 18 16  1  0  0  0
 16  6  1  0  0  0
  6  7  1  0  0  0
  7  8  1  0  0  0
  8  9  1  0  0  0
  9 10  2  0  0  0
 10 11  1  0  0  0
 11 12  2  0  0  0
 12  1  1  0  0  0
  1  2  2  0  0  0
  2  3  1  0  0  0
  3  4  2  0  0  0
  4 19  1  0  0  0
 19 20  1  0  0  0
 20 21  1  0  0  0
 21 22  2  0  0  0
 22 23  1  0  0  0
 23 24  2  0  0  0
 24 27  1  0  0  0
 27 28  2  0  0  0
 28 29  1  0  0  0
 29 30  2  0  0  0
 30 31  1  0  0  0
 31 32  2  0  0  0
 32 33  1  0  0  0
 33 34  3  0  0  0
 24 25  1  0  0  0
 25 26  2  0  0  0
  4  5  1  0  0  0
 12 13  1  0  0  0
 13 14  2  0  0  0
 14 15  1  0  0  0
 15  6  1  0  0  0
 14  9  1  0  0  0
  5  1  1  0  0  0
 26 21  1  0  0  0
 32 27  1  0  0  0
M  END
> <minimizedAffinity>
-6.84301

> <CNNscore>
0.3970056474

> <CNNaffinity>
6.0743093491

> <CNN_VS>
2.4115350246

> <CNNaffinity_variance>
0.0768843293

$$$$
[H]c1c([H])c([H])c(-c2c([H])c([H])c(C([H])([H])Sc3nnc(-c4c([H])c([H])c5c(c4[H])O[C@@]([H])(C([H])([H])OC([H])([H])[H])C([H])([H])O5)o3)c([H])c2[H])c(C#N)c1[H]


 34 38  0  0  0  0  0  0  0  0999 V2000
  -11.5511   -6.4783    9.7713 C   0  0  0  0  0  0  0  0  0  0  0  0
  -10.5188   -6.0170    9.0669 N   0  0  0  0  0  0  0  0  0  0  0  0
   -9.5380   -5.7507    9.9018 N   0  0  0  0  0  0  0  0  0  0  0  0
   -9.9460   -6.0429   11.1394 C   0  0  0  0  0  0  0  0  0  0  0  0
  -11.1978   -6.4895   11.0067 O   0  0  0  0  0  0  0  0  0  0  0  0
  -16.0411   -6.8390    5.6284 C   0  0  0  0  0  0  0  0  0  0  0  0
  -16.5270   -8.1752    6.1711 C   0  0  0  0  0  0  0  0  0  0  0  0
  -16.4970   -8.0610    7.6071 O   0  0  0  0  0  0  0  0  0  0  0  0
  -15.2890   -7.6805    8.1642 C   0  0  0  0  0  0  0  0  0  0  0  0
  -15.0198   -7.8963    9.5192 C   0  0  0  0  0  0  0  0  0  0  0  0
  -13.7933   -7.4905   10.0035 C   0  0  0  0  0  0  0  0  0  0  0  0
  -12.8473   -6.8910    9.2049 C   0  0  0  0  0  0  0  0  0  0  0  0
  -13.1320   -6.6916    7.8911 C   0  0  0  0  0  0  0  0  0  0  0  0
  -14.3537   -7.0812    7.3478 C   0  0  0  0  0  0  0  0  0  0  0  0
  -14.6197   -6.8668    6.0035 O   0  0  0  0  0  0  0  0  0  0  0  0
  -16.1184   -6.7291    4.1455 C   0  0  0  0  0  0  0  0  0  0  0  0
  -15.0086   -8.7662    3.6664 C   0  0  0  0  0  0  0  0  0  0  0  0
  -15.4193   -7.5314    3.3529 O   0  0  0  0  0  0  0  0  0  0  0  0
   -9.0398   -5.8815   12.6540 S   0  0  0  0  0  0  0  0  0  0  0  0
   -7.2742   -6.1637   12.4873 C   0  0  0  0  0  0  0  0  0  0  0  0
   -6.8826   -6.5867   11.1277 C   0  0  0  0  0  0  0  0  0  0  0  0
   -7.4035   -7.7838   10.6366 C   0  0  0  0  0  0  0  0  0  0  0  0
   -7.0545   -8.2361    9.3839 C   0  0  0  0  0  0  0  0  0  0  0  0
   -6.1938   -7.5501    8.5655 C   0  0  0  0  0  0  0  0  0  0  0  0
   -5.6811   -6.3660    9.0574 C   0  0  0  0  0  0  0  0  0  0  0  0
   -6.0284   -5.9071   10.3165 C   0  0  0  0  0  0  0  0  0  0  0  0
   -5.8021   -7.9788    7.2319 C   0  0  0  0  0  0  0  0  0  0  0  0
   -6.7731   -8.3587    6.2958 C   0  0  0  0  0  0  0  0  0  0  0  0
   -6.4219   -8.7532    5.0277 C   0  0  0  0  0  0  0  0  0  0  0  0
   -5.1084   -8.7955    4.6146 C   0  0  0  0  0  0  0  0  0  0  0  0
   -4.1434   -8.4257    5.5223 C   0  0  0  0  0  0  0  0  0  0  0  0
   -4.4966   -8.0234    6.8147 C   0  0  0  0  0  0  0  0  0  0  0  0
   -3.4503   -7.6601    7.7330 C   0  0  0  0  0  0  0  0  0  0  0  0
   -2.6057   -7.3422    8.4689 N   0  0  0  0  0  0  0  0  0  0  0  0
 17 18  1  0  0  0
 18 16  1  0  0  0
 16  6  1  0  0  0
  6  7  1  0  0  0
  7  8  1  0  0  0
  8  9  1  0  0  0
  9 10  2  0  0  0
 10 11  1  0  0  0
 11 12  2  0  0  0
 12  1  1  0  0  0
  1  2  2  0  0  0
  2  3  1  0  0  0
  3  4  2  0  0  0
  4 19  1  0  0  0
 19 20  1  0  0  0
 20 21  1  0  0  0
 21 22  2  0  0  0
 22 23  1  0  0  0
 23 24  2  0  0  0
 24 27  1  0  0  0
 27 28  2  0  0  0
 28 29  1  0  0  0
 29 30  2  0  0  0
 30 31  1  0  0  0
 31 32  2  0  0  0
 32 33  1  0  0  0
 33 34  3  0  0  0
 24 25  1  0  0  0
 25 26  2  0  0  0
  4  5  1  0  0  0
 12 13  1  0  0  0
 13 14  2  0  0  0
 14 15  1  0  0  0
 15  6  1  0  0  0
 14  9  1  0  0  0
  5  1  1  0  0  0
 26 21  1  0  0  0
 32 27  1  0  0  0
M  END
> <minimizedAffinity>
8.23080

> <CNNscore>
0.3953648806

> <CNNaffinity>
6.4506225586

> <CNN_VS>
2.5503497124

> <CNNaffinity_variance>
0.7165573835

$$$$
[H]c1c([H])c([H])c(-c2c([H])c([H])c(C([H])([H])Sc3nnc(-c4c([H])c([H])c5c(c4[H])O[C@@]([H])(C([H])([H])OC([H])([H])[H])C([H])([H])O5)o3)c([H])c2[H])c(C#N)c1[H]


 34 38  0  0  0  0  0  0  0  0999 V2000
   -6.6215   -7.3955    6.6746 C   0  0  0  0  0  0  0  0  0  0  0  0
   -6.4419   -6.3256    5.9014 N   0  0  0  0  0  0  0  0  0  0  0  0
   -5.1506   -6.0892    5.8207 N   0  0  0  0  0  0  0  0  0  0  0  0
   -4.5069   -7.0096    6.5433 C   0  0  0  0  0  0  0  0  0  0  0  0
   -5.4600   -7.7952    7.0518 O   0  0  0  0  0  0  0  0  0  0  0  0
  -12.3586   -7.5599    8.7988 C   0  0  0  0  0  0  0  0  0  0  0  0
  -12.7265   -8.7385    7.9093 C   0  0  0  0  0  0  0  0  0  0  0  0
  -11.6115   -9.6493    7.9668 O   0  0  0  0  0  0  0  0  0  0  0  0
  -10.3741   -9.1204    7.6455 C   0  0  0  0  0  0  0  0  0  0  0  0
   -9.3034   -9.9499    7.2979 C   0  0  0  0  0  0  0  0  0  0  0  0
   -8.0996   -9.3504    6.9897 C   0  0  0  0  0  0  0  0  0  0  0  0
   -7.9279   -7.9859    7.0150 C   0  0  0  0  0  0  0  0  0  0  0  0
   -8.9831   -7.2004    7.3561 C   0  0  0  0  0  0  0  0  0  0  0  0
  -10.2216   -7.7507    7.6766 C   0  0  0  0  0  0  0  0  0  0  0  0
  -11.2831   -6.9270    8.0212 O   0  0  0  0  0  0  0  0  0  0  0  0
  -13.4528   -6.5626    8.9575 C   0  0  0  0  0  0  0  0  0  0  0  0
  -12.4641   -5.4895   10.8235 C   0  0  0  0  0  0  0  0  0  0  0  0
  -13.4779   -5.7169    9.9797 O   0  0  0  0  0  0  0  0  0  0  0  0
   -2.7600   -7.1762    6.7921 S   0  0  0  0  0  0  0  0  0  0  0  0
   -2.2494   -7.0717    8.5106 C   0  0  0  0  0  0  0  0  0  0  0  0
   -2.3611   -5.7073    9.0645 C   0  0  0  0  0  0  0  0  0  0  0  0
   -3.5418   -5.3591    9.7202 C   0  0  0  0  0  0  0  0  0  0  0  0
   -3.7075   -4.0935   10.2365 C   0  0  0  0  0  0  0  0  0  0  0  0
   -2.7418   -3.1246   10.1379 C   0  0  0  0  0  0  0  0  0  0  0  0
   -1.5753   -3.4752    9.4873 C   0  0  0  0  0  0  0  0  0  0  0  0
   -1.4040   -4.7462    8.9659 C   0  0  0  0  0  0  0  0  0  0  0  0
   -2.8631   -1.7782   10.6747 C   0  0  0  0  0  0  0  0  0  0  0  0
   -3.3955   -0.7474    9.8890 C   0  0  0  0  0  0  0  0  0  0  0  0
   -3.5298    0.5269   10.3843 C   0  0  0  0  0  0  0  0  0  0  0  0
   -3.1512    0.8541   11.6678 C   0  0  0  0  0  0  0  0  0  0  0  0
   -2.6264   -0.1471   12.4514 C   0  0  0  0  0  0  0  0  0  0  0  0
   -2.4877   -1.4459   11.9510 C   0  0  0  0  0  0  0  0  0  0  0  0
   -1.9197   -2.4557   12.8041 C   0  0  0  0  0  0  0  0  0  0  0  0
   -1.4817   -3.2854   13.4937 N   0  0  0  0  0  0  0  0  0  0  0  0
 17 18  1  0  0  0
 18 16  1  0  0  0
 16  6  1  0  0  0
  6  7  1  0  0  0
  7  8  1  0  0  0
  8  9  1  0  0  0
  9 10  2  0  0  0
 10 11  1  0  0  0
 11 12  2  0  0  0
 12  1  1  0  0  0
  1  2  2  0  0  0
  2  3  1  0  0  0
  3  4  2  0  0  0
  4 19  1  0  0  0
 19 20  1  0  0  0
 20 21  1  0  0  0
 21 22  2  0  0  0
 22 23  1  0  0  0
 23 24  2  0  0  0
 24 27  1  0  0  0
 27 28  2  0  0  0
 28 29  1  0  0  0
 29 30  2  0  0  0
 30 31  1  0  0  0
 31 32  2  0  0  0
 32 33  1  0  0  0
 33 34  3  0  0  0
 24 25  1  0  0  0
 25 26  2  0  0  0
  4  5  1  0  0  0
 12 13  1  0  0  0
 13 14  2  0  0  0
 14 15  1  0  0  0
 15  6  1  0  0  0
 14  9  1  0  0  0
  5  1  1  0  0  0
 26 21  1  0  0  0
 32 27  1  0  0  0
M  END
> <minimizedAffinity>
-6.45417

> <CNNscore>
0.3641895354

> <CNNaffinity>
6.1085872650

> <CNN_VS>
2.2246835232

> <CNNaffinity_variance>
0.0964087993

$$$$
[H]c1c([H])c([H])c(-c2c([H])c([H])c(C([H])([H])Sc3nnc(-c4c([H])c([H])c5c(c4[H])O[C@@]([H])(C([H])([H])OC([H])([H])[H])C([H])([H])O5)o3)c([H])c2[H])c(C#N)c1[H]


 34 38  0  0  0  0  0  0  0  0999 V2000
   -6.7862   -7.5943    7.0604 C   0  0  0  0  0  0  0  0  0  0  0  0
   -6.1423   -7.4854    5.8992 N   0  0  0  0  0  0  0  0  0  0  0  0
   -4.9655   -6.9458    6.1311 N   0  0  0  0  0  0  0  0  0  0  0  0
   -4.8596   -6.7107    7.4415 C   0  0  0  0  0  0  0  0  0  0  0  0
   -6.0111   -7.1290    7.9736 O   0  0  0  0  0  0  0  0  0  0  0  0
  -12.6615   -7.7236    8.7683 C   0  0  0  0  0  0  0  0  0  0  0  0
  -13.0199   -8.7475    7.7011 C   0  0  0  0  0  0  0  0  0  0  0  0
  -11.9557   -9.7189    7.7021 O   0  0  0  0  0  0  0  0  0  0  0  0
  -10.6751   -9.2216    7.5380 C   0  0  0  0  0  0  0  0  0  0  0  0
   -9.6224  -10.0549    7.1473 C   0  0  0  0  0  0  0  0  0  0  0  0
   -8.3729   -9.4877    7.0038 C   0  0  0  0  0  0  0  0  0  0  0  0
   -8.1398   -8.1512    7.2304 C   0  0  0  0  0  0  0  0  0  0  0  0
   -9.1787   -7.3613    7.6096 C   0  0  0  0  0  0  0  0  0  0  0  0
  -10.4613   -7.8796    7.7699 C   0  0  0  0  0  0  0  0  0  0  0  0
  -11.5049   -7.0522    8.1575 O   0  0  0  0  0  0  0  0  0  0  0  0
  -13.7164   -6.6973    8.9944 C   0  0  0  0  0  0  0  0  0  0  0  0
  -12.7549   -5.1697   10.5284 C   0  0  0  0  0  0  0  0  0  0  0  0
  -13.7441   -5.9625   10.0989 O   0  0  0  0  0  0  0  0  0  0  0  0
   -3.4931   -5.9962    8.3152 S   0  0  0  0  0  0  0  0  0  0  0  0
   -3.2559   -4.2440    8.0015 C   0  0  0  0  0  0  0  0  0  0  0  0
   -2.8800   -3.9530    6.6034 C   0  0  0  0  0  0  0  0  0  0  0  0
   -3.9018   -3.7157    5.6842 C   0  0  0  0  0  0  0  0  0  0  0  0
   -3.6084   -3.4609    4.3633 C   0  0  0  0  0  0  0  0  0  0  0  0
   -2.3227   -3.4264    3.8869 C   0  0  0  0  0  0  0  0  0  0  0  0
   -1.3156   -3.6625    4.8016 C   0  0  0  0  0  0  0  0  0  0  0  0
   -1.6052   -3.9197    6.1307 C   0  0  0  0  0  0  0  0  0  0  0  0
   -1.9596   -3.1517    2.5054 C   0  0  0  0  0  0  0  0  0  0  0  0
   -2.1459   -1.8725    1.9646 C   0  0  0  0  0  0  0  0  0  0  0  0
   -1.7961   -1.5919    0.6662 C   0  0  0  0  0  0  0  0  0  0  0  0
   -1.2489   -2.5455   -0.1640 C   0  0  0  0  0  0  0  0  0  0  0  0
   -1.0600   -3.8062    0.3524 C   0  0  0  0  0  0  0  0  0  0  0  0
   -1.4150   -4.0963    1.6739 C   0  0  0  0  0  0  0  0  0  0  0  0
   -1.2118   -5.4338    2.1640 C   0  0  0  0  0  0  0  0  0  0  0  0
   -1.0599   -6.5101    2.5814 N   0  0  0  0  0  0  0  0  0  0  0  0
 17 18  1  0  0  0
 18 16  1  0  0  0
 16  6  1  0  0  0
  6  7  1  0  0  0
  7  8  1  0  0  0
  8  9  1  0  0  0
  9 10  2  0  0  0
 10 11  1  0  0  0
 11 12  2  0  0  0
 12  1  1  0  0  0
  1  2  2  0  0  0
  2  3  1  0  0  0
  3  4  2  0  0  0
  4 19  1  0  0  0
 19 20  1  0  0  0
 20 21  1  0  0  0
 21 22  2  0  0  0
 22 23  1  0  0  0
 23 24  2  0  0  0
 24 27  1  0  0  0
 27 28  2  0  0  0
 28 29  1  0  0  0
 29 30  2  0  0  0
 30 31  1  0  0  0
 31 32  2  0  0  0
 32 33  1  0  0  0
 33 34  3  0  0  0
 24 25  1  0  0  0
 25 26  2  0  0  0
  4  5  1  0  0  0
 12 13  1  0  0  0
 13 14  2  0  0  0
 14 15  1  0  0  0
 15  6  1  0  0  0
 14  9  1  0  0  0
  5  1  1  0  0  0
 26 21  1  0  0  0
 32 27  1  0  0  0
M  END
> <minimizedAffinity>
-6.75079

> <CNNscore>
0.3602180481

> <CNNaffinity>
6.0826196671

> <CNN_VS>
2.1910693645

> <CNNaffinity_variance>
0.1127645373

$$$$
[H]c1c([H])c([H])c(-c2c([H])c([H])c(C([H])([H])Sc3nnc(-c4c([H])c([H])c5c(c4[H])O[C@@]([H])(C([H])([H])OC([H])([H])[H])C([H])([H])O5)o3)c([H])c2[H])c(C#N)c1[H]


 34 38  0  0  0  0  0  0  0  0999 V2000
   -6.8858   -7.5246    6.8669 C   0  0  0  0  0  0  0  0  0  0  0  0
   -7.7822   -6.6698    7.3572 N   0  0  0  0  0  0  0  0  0  0  0  0
   -8.9174   -7.3136    7.5205 N   0  0  0  0  0  0  0  0  0  0  0  0
   -8.7439   -8.5801    7.1339 C   0  0  0  0  0  0  0  0  0  0  0  0
   -7.4709   -8.6615    6.7378 O   0  0  0  0  0  0  0  0  0  0  0  0
   -2.2644   -4.4006    4.3499 C   0  0  0  0  0  0  0  0  0  0  0  0
   -1.2835   -4.8561    5.4204 C   0  0  0  0  0  0  0  0  0  0  0  0
   -1.5448   -6.2566    5.6358 O   0  0  0  0  0  0  0  0  0  0  0  0
   -2.8501   -6.5931    5.9477 C   0  0  0  0  0  0  0  0  0  0  0  0
   -3.1562   -7.8226    6.5392 C   0  0  0  0  0  0  0  0  0  0  0  0
   -4.4803   -8.0880    6.8217 C   0  0  0  0  0  0  0  0  0  0  0  0
   -5.4871   -7.1934    6.5426 C   0  0  0  0  0  0  0  0  0  0  0  0
   -5.1650   -6.0049    5.9675 C   0  0  0  0  0  0  0  0  0  0  0  0
   -3.8452   -5.6834    5.6604 C   0  0  0  0  0  0  0  0  0  0  0  0
   -3.5426   -4.4635    5.0738 O   0  0  0  0  0  0  0  0  0  0  0  0
   -2.0605   -2.9933    3.9080 C   0  0  0  0  0  0  0  0  0  0  0  0
   -3.4347   -2.6885    2.0029 C   0  0  0  0  0  0  0  0  0  0  0  0
   -2.9865   -2.3424    3.2157 O   0  0  0  0  0  0  0  0  0  0  0  0
   -9.9331   -9.8943    7.1350 S   0  0  0  0  0  0  0  0  0  0  0  0
  -11.3636   -9.5897    8.1771 C   0  0  0  0  0  0  0  0  0  0  0  0
  -12.3821   -8.7411    7.5264 C   0  0  0  0  0  0  0  0  0  0  0  0
  -13.0026   -9.2255    6.3751 C   0  0  0  0  0  0  0  0  0  0  0  0
  -13.9437   -8.4666    5.7162 C   0  0  0  0  0  0  0  0  0  0  0  0
  -14.3165   -7.2185    6.1455 C   0  0  0  0  0  0  0  0  0  0  0  0
  -13.6984   -6.7442    7.2856 C   0  0  0  0  0  0  0  0  0  0  0  0
  -12.7512   -7.5031    7.9515 C   0  0  0  0  0  0  0  0  0  0  0  0
  -15.3116   -6.3822    5.4926 C   0  0  0  0  0  0  0  0  0  0  0  0
  -14.9263   -5.4521    4.5180 C   0  0  0  0  0  0  0  0  0  0  0  0
  -15.8541   -4.6638    3.8817 C   0  0  0  0  0  0  0  0  0  0  0  0
  -17.1994   -4.7463    4.1666 C   0  0  0  0  0  0  0  0  0  0  0  0
  -17.5933   -5.6545    5.1214 C   0  0  0  0  0  0  0  0  0  0  0  0
  -16.6519   -6.4591    5.7719 C   0  0  0  0  0  0  0  0  0  0  0  0
  -17.1111   -7.3838    6.7740 C   0  0  0  0  0  0  0  0  0  0  0  0
  -17.4877   -8.1488    7.5669 N   0  0  0  0  0  0  0  0  0  0  0  0
 17 18  1  0  0  0
 18 16  1  0  0  0
 16  6  1  0  0  0
  6  7  1  0  0  0
  7  8  1  0  0  0
  8  9  1  0  0  0
  9 10  2  0  0  0
 10 11  1  0  0  0
 11 12  2  0  0  0
 12  1  1  0  0  0
  1  2  2  0  0  0
  2  3  1  0  0  0
  3  4  2  0  0  0
  4 19  1  0  0  0
 19 20  1  0  0  0
 20 21  1  0  0  0
 21 22  2  0  0  0
 22 23  1  0  0  0
 23 24  2  0  0  0
 24 27  1  0  0  0
 27 28  2  0  0  0
 28 29  1  0  0  0
 29 30  2  0  0  0
 30 31  1  0  0  0
 31 32  2  0  0  0
 32 33  1  0  0  0
 33 34  3  0  0  0
 24 25  1  0  0  0
 25 26  2  0  0  0
  4  5  1  0  0  0
 12 13  1  0  0  0
 13 14  2  0  0  0
 14 15  1  0  0  0
 15  6  1  0  0  0
 14  9  1  0  0  0
  5  1  1  0  0  0
 26 21  1  0  0  0
 32 27  1  0  0  0
M  END
> <minimizedAffinity>
-8.57782

> <CNNscore>
0.3583149314

> <CNNaffinity>
6.6531624794

> <CNN_VS>
2.3839273453

> <CNNaffinity_variance>
0.3003377616

$$$$
[H]c1c([H])c([H])c(-c2c([H])c([H])c(C([H])([H])Sc3nnc(-c4c([H])c([H])c5c(c4[H])O[C@@]([H])(C([H])([H])OC([H])([H])[H])C([H])([H])O5)o3)c([H])c2[H])c(C#N)c1[H]


 34 38  0  0  0  0  0  0  0  0999 V2000
  -11.9633   -6.8091    9.1547 C   0  0  0  0  0  0  0  0  0  0  0  0
  -12.5367   -5.7866    9.7875 N   0  0  0  0  0  0  0  0  0  0  0  0
  -11.7306   -5.3952   10.7503 N   0  0  0  0  0  0  0  0  0  0  0  0
  -10.6424   -6.1692   10.7307 C   0  0  0  0  0  0  0  0  0  0  0  0
  -10.8334   -7.0285    9.7260 O   0  0  0  0  0  0  0  0  0  0  0  0
  -15.7548   -7.8284    4.4601 C   0  0  0  0  0  0  0  0  0  0  0  0
  -14.7542   -8.7371    3.7608 C   0  0  0  0  0  0  0  0  0  0  0  0
  -14.1844   -9.5729    4.7869 O   0  0  0  0  0  0  0  0  0  0  0  0
  -13.6247   -8.9162    5.8684 C   0  0  0  0  0  0  0  0  0  0  0  0
  -12.7265   -9.5658    6.7207 C   0  0  0  0  0  0  0  0  0  0  0  0
  -12.2091   -8.8465    7.7782 C   0  0  0  0  0  0  0  0  0  0  0  0
  -12.5466   -7.5336    8.0118 C   0  0  0  0  0  0  0  0  0  0  0  0
  -13.4217   -6.9236    7.1698 C   0  0  0  0  0  0  0  0  0  0  0  0
  -13.9752   -7.6008    6.0861 C   0  0  0  0  0  0  0  0  0  0  0  0
  -14.8660   -6.9555    5.2411 O   0  0  0  0  0  0  0  0  0  0  0  0
  -16.5362   -6.9673    3.5301 C   0  0  0  0  0  0  0  0  0  0  0  0
  -18.8284   -6.9230    4.1257 C   0  0  0  0  0  0  0  0  0  0  0  0
  -17.8207   -7.1950    3.2878 O   0  0  0  0  0  0  0  0  0  0  0  0
   -9.2303   -6.0943   11.7992 S   0  0  0  0  0  0  0  0  0  0  0  0
   -7.6554   -6.2126   10.9446 C   0  0  0  0  0  0  0  0  0  0  0  0
   -7.7413   -6.9639    9.6762 C   0  0  0  0  0  0  0  0  0  0  0  0
   -7.4957   -8.3365    9.7078 C   0  0  0  0  0  0  0  0  0  0  0  0
   -7.5412   -9.0816    8.5508 C   0  0  0  0  0  0  0  0  0  0  0  0
   -7.8249   -8.5284    7.3282 C   0  0  0  0  0  0  0  0  0  0  0  0
   -8.0666   -7.1691    7.3033 C   0  0  0  0  0  0  0  0  0  0  0  0
   -8.0216   -6.4154    8.4637 C   0  0  0  0  0  0  0  0  0  0  0  0
   -7.8955   -9.2721    6.0802 C   0  0  0  0  0  0  0  0  0  0  0  0
   -8.8675  -10.2653    5.9011 C   0  0  0  0  0  0  0  0  0  0  0  0
   -8.9573  -10.9681    4.7242 C   0  0  0  0  0  0  0  0  0  0  0  0
   -8.1036  -10.7345    3.6684 C   0  0  0  0  0  0  0  0  0  0  0  0
   -7.1437   -9.7625    3.8290 C   0  0  0  0  0  0  0  0  0  0  0  0
   -7.0487   -9.0447    5.0259 C   0  0  0  0  0  0  0  0  0  0  0  0
   -6.0186   -8.0481    5.1514 C   0  0  0  0  0  0  0  0  0  0  0  0
   -5.1772   -7.2526    5.2741 N   0  0  0  0  0  0  0  0  0  0  0  0
 17 18  1  0  0  0
 18 16  1  0  0  0
 16  6  1  0  0  0
  6  7  1  0  0  0
  7  8  1  0  0  0
  8  9  1  0  0  0
  9 10  2  0  0  0
 10 11  1  0  0  0
 11 12  2  0  0  0
 12  1  1  0  0  0
  1  2  2  0  0  0
  2  3  1  0  0  0
  3  4  2  0  0  0
  4 19  1  0  0  0
 19 20  1  0  0  0
 20 21  1  0  0  0
 21 22  2  0  0  0
 22 23  1  0  0  0
 23 24  2  0  0  0
 24 27  1  0  0  0
 27 28  2  0  0  0
 28 29  1  0  0  0
 29 30  2  0  0  0
 30 31  1  0  0  0
 31 32  2  0  0  0
 32 33  1  0  0  0
 33 34  3  0  0  0
 24 25  1  0  0  0
 25 26  2  0  0  0
  4  5  1  0  0  0
 12 13  1  0  0  0
 13 14  2  0  0  0
 14 15  1  0  0  0
 15  6  1  0  0  0
 14  9  1  0  0  0
  5  1  1  0  0  0
 26 21  1  0  0  0
 32 27  1  0  0  0
M  END
> <minimizedAffinity>
10.63347

> <CNNscore>
0.3557212949

> <CNNaffinity>
6.4611802101

> <CNN_VS>
2.2983794212

> <CNNaffinity_variance>
0.6790497303

$$$$
[H]c1c([H])c([H])c(C2([H])C([H])([H])[C@]2([H])N([H])C([H])([H])c2c([H])c([H])c(OC([H])([H])[H])c3c([H])c([H])c([H])c([H])c23)c([H])c1[H]


 24 27  0  0  0  0  0  0  0  0999 V2000
   -9.9413   -7.7150    8.2301 C   0  0  0  0  0  0  0  0  0  0  0  0
  -10.0986   -8.8672    7.5011 C   0  0  0  0  0  0  0  0  0  0  0  0
  -11.3322   -9.4861    7.3548 C   0  0  0  0  0  0  0  0  0  0  0  0
  -12.4571   -8.9565    7.9461 C   0  0  0  0  0  0  0  0  0  0  0  0
  -12.3059   -7.7844    8.6895 C   0  0  0  0  0  0  0  0  0  0  0  0
  -13.4392   -7.2615    9.2777 C   0  0  0  0  0  0  0  0  0  0  0  0
  -13.2723   -6.0983   10.0119 C   0  0  0  0  0  0  0  0  0  0  0  0
  -12.0534   -5.4847   10.1575 C   0  0  0  0  0  0  0  0  0  0  0  0
  -10.9301   -6.0184    9.5643 C   0  0  0  0  0  0  0  0  0  0  0  0
  -11.0749   -7.1913    8.8190 C   0  0  0  0  0  0  0  0  0  0  0  0
   -8.0068   -6.6134    7.2314 C   0  0  0  0  0  0  0  0  0  0  0  0
   -8.6943   -7.0968    8.3729 O   0  0  0  0  0  0  0  0  0  0  0  0
  -13.7967   -9.5873    7.8039 C   0  0  0  0  0  0  0  0  0  0  0  0
  -14.0309   -9.8812    6.4244 N   0  0  0  0  0  0  0  0  0  0  0  0
  -14.7971  -10.5843    6.2769 H   0  0  0  0  0  0  0  0  0  0  0  0
  -14.2054   -8.7182    5.5978 C   0  0  0  0  0  0  0  0  0  0  0  0
  -14.4493   -9.0622    4.1238 C   0  0  0  0  0  0  0  0  0  0  0  0
  -15.4753   -8.3697    4.9401 C   0  0  0  0  0  0  0  0  0  0  0  0
  -15.7368   -6.9307    4.7015 C   0  0  0  0  0  0  0  0  0  0  0  0
  -16.9750   -6.4189    4.3895 C   0  0  0  0  0  0  0  0  0  0  0  0
  -17.1909   -5.0861    4.1738 C   0  0  0  0  0  0  0  0  0  0  0  0
  -16.1550   -4.1996    4.2645 C   0  0  0  0  0  0  0  0  0  0  0  0
  -14.9017   -4.6812    4.5757 C   0  0  0  0  0  0  0  0  0  0  0  0
  -14.6999   -6.0327    4.7910 C   0  0  0  0  0  0  0  0  0  0  0  0
 11 12  1  0  0  0
 12  1  1  0  0  0
  1  2  2  0  0  0
  2  3  1  0  0  0
  3  4  2  0  0  0
  4 13  1  0  0  0
 13 14  1  0  0  0
 14 16  1  0  0  0
 16 17  1  0  0  0
 17 18  1  0  0  0
 18 19  1  0  0  0
 19 20  2  0  0  0
 20 21  1  0  0  0
 21 22  2  0  0  0
 22 23  1  0  0  0
 23 24  2  0  0  0
  4  5  1  0  0  0
  5  6  2  0  0  0
  6  7  1  0  0  0
  7  8  2  0  0  0
  8  9  1  0  0  0
  9 10  2  0  0  0
 10  1  1  0  0  0
 18 16  1  0  0  0
 24 19  1  0  0  0
 10  5  1  0  0  0
 14 15  1  0  0  0
M  END
> <minimizedAffinity>
-10.59165

> <CNNscore>
0.8952840567

> <CNNaffinity>
7.2362737656

> <CNN_VS>
6.4785203934

> <CNNaffinity_variance>
0.2056340873

$$$$
[H]c1c([H])c([H])c(C2([H])C([H])([H])[C@]2([H])N([H])C([H])([H])c2c([H])c([H])c(OC([H])([H])[H])c3c([H])c([H])c([H])c([H])c23)c([H])c1[H]


 24 27  0  0  0  0  0  0  0  0999 V2000
   -9.9364   -7.6262    8.2239 C   0  0  0  0  0  0  0  0  0  0  0  0
  -10.1567   -8.7809    7.5153 C   0  0  0  0  0  0  0  0  0  0  0  0
  -11.4022   -9.3911    7.4663 C   0  0  0  0  0  0  0  0  0  0  0  0
  -12.4753   -8.8501    8.1381 C   0  0  0  0  0  0  0  0  0  0  0  0
  -12.2599   -7.6755    8.8615 C   0  0  0  0  0  0  0  0  0  0  0  0
  -13.3415   -7.1411    9.5309 C   0  0  0  0  0  0  0  0  0  0  0  0
  -13.1112   -5.9755   10.2439 C   0  0  0  0  0  0  0  0  0  0  0  0
  -11.8803   -5.3704   10.2933 C   0  0  0  0  0  0  0  0  0  0  0  0
  -10.8091   -5.9155    9.6197 C   0  0  0  0  0  0  0  0  0  0  0  0
  -11.0183   -7.0911    8.8941 C   0  0  0  0  0  0  0  0  0  0  0  0
   -8.0461   -6.6039    7.0685 C   0  0  0  0  0  0  0  0  0  0  0  0
   -8.6777   -7.0168    8.2684 O   0  0  0  0  0  0  0  0  0  0  0  0
  -13.8263   -9.4715    8.1013 C   0  0  0  0  0  0  0  0  0  0  0  0
  -14.2261   -9.6404    6.7390 N   0  0  0  0  0  0  0  0  0  0  0  0
  -14.5208  -10.6232    6.5145 H   0  0  0  0  0  0  0  0  0  0  0  0
  -15.1911   -8.6759    6.2866 C   0  0  0  0  0  0  0  0  0  0  0  0
  -16.0225   -8.0796    7.4284 C   0  0  0  0  0  0  0  0  0  0  0  0
  -15.1189   -7.2405    6.6050 C   0  0  0  0  0  0  0  0  0  0  0  0
  -15.7046   -6.3021    5.6188 C   0  0  0  0  0  0  0  0  0  0  0  0
  -17.0209   -6.3331    5.2205 C   0  0  0  0  0  0  0  0  0  0  0  0
  -17.5379   -5.4556    4.3082 C   0  0  0  0  0  0  0  0  0  0  0  0
  -16.7405   -4.4963    3.7506 C   0  0  0  0  0  0  0  0  0  0  0  0
  -15.4164   -4.4390    4.1291 C   0  0  0  0  0  0  0  0  0  0  0  0
  -14.9088   -5.3343    5.0534 C   0  0  0  0  0  0  0  0  0  0  0  0
 11 12  1  0  0  0
 12  1  1  0  0  0
  1  2  2  0  0  0
  2  3  1  0  0  0
  3  4  2  0  0  0
  4 13  1  0  0  0
 13 14  1  0  0  0
 14 16  1  0  0  0
 16 17  1  0  0  0
 17 18  1  0  0  0
 18 19  1  0  0  0
 19 20  2  0  0  0
 20 21  1  0  0  0
 21 22  2  0  0  0
 22 23  1  0  0  0
 23 24  2  0  0  0
  4  5  1  0  0  0
  5  6  2  0  0  0
  6  7  1  0  0  0
  7  8  2  0  0  0
  8  9  1  0  0  0
  9 10  2  0  0  0
 10  1  1  0  0  0
 18 16  1  0  0  0
 24 19  1  0  0  0
 10  5  1  0  0  0
 14 15  1  0  0  0
M  END
> <minimizedAffinity>
-10.38490

> <CNNscore>
0.7652009726

> <CNNaffinity>
7.0747747421

> <CNN_VS>
5.4136242867

> <CNNaffinity_variance>
0.2530654371

$$$$
[H]c1c([H])c([H])c(C2([H])C([H])([H])[C@]2([H])N([H])C([H])([H])c2c([H])c([H])c(OC([H])([H])[H])c3c([H])c([H])c([H])c([H])c23)c([H])c1[H]


 24 27  0  0  0  0  0  0  0  0999 V2000
  -12.3163   -6.5420    9.7233 C   0  0  0  0  0  0  0  0  0  0  0  0
  -13.5791   -7.0799    9.7273 C   0  0  0  0  0  0  0  0  0  0  0  0
  -13.8993   -8.2181    9.0005 C   0  0  0  0  0  0  0  0  0  0  0  0
  -12.9457   -8.8554    8.2389 C   0  0  0  0  0  0  0  0  0  0  0  0
  -11.6585   -8.3147    8.2293 C   0  0  0  0  0  0  0  0  0  0  0  0
  -10.7100   -8.9608    7.4633 C   0  0  0  0  0  0  0  0  0  0  0  0
   -9.4378   -8.4119    7.4645 C   0  0  0  0  0  0  0  0  0  0  0  0
   -9.1191   -7.2866    8.1826 C   0  0  0  0  0  0  0  0  0  0  0  0
  -10.0767   -6.6518    8.9433 C   0  0  0  0  0  0  0  0  0  0  0  0
  -11.3669   -7.1880    8.9569 C   0  0  0  0  0  0  0  0  0  0  0  0
  -13.0138   -4.4551   10.7776 C   0  0  0  0  0  0  0  0  0  0  0  0
  -12.0011   -5.3942   10.4587 O   0  0  0  0  0  0  0  0  0  0  0  0
  -13.2503  -10.0819    7.4543 C   0  0  0  0  0  0  0  0  0  0  0  0
  -14.4558   -9.8756    6.7138 N   0  0  0  0  0  0  0  0  0  0  0  0
  -15.3178   -9.9033    7.3133 H   0  0  0  0  0  0  0  0  0  0  0  0
  -14.4318   -8.7164    5.8641 C   0  0  0  0  0  0  0  0  0  0  0  0
  -14.3494   -9.0677    4.3740 C   0  0  0  0  0  0  0  0  0  0  0  0
  -15.5223   -8.3600    4.9418 C   0  0  0  0  0  0  0  0  0  0  0  0
  -15.7094   -6.9201    4.6454 C   0  0  0  0  0  0  0  0  0  0  0  0
  -16.8896   -6.3791    4.1906 C   0  0  0  0  0  0  0  0  0  0  0  0
  -17.0373   -5.0462    3.9242 C   0  0  0  0  0  0  0  0  0  0  0  0
  -15.9886   -4.1894    4.1070 C   0  0  0  0  0  0  0  0  0  0  0  0
  -14.7923   -4.7008    4.5620 C   0  0  0  0  0  0  0  0  0  0  0  0
  -14.6592   -6.0520    4.8269 C   0  0  0  0  0  0  0  0  0  0  0  0
 11 12  1  0  0  0
 12  1  1  0  0  0
  1  2  2  0  0  0
  2  3  1  0  0  0
  3  4  2  0  0  0
  4 13  1  0  0  0
 13 14  1  0  0  0
 14 16  1  0  0  0
 16 17  1  0  0  0
 17 18  1  0  0  0
 18 19  1  0  0  0
 19 20  2  0  0  0
 20 21  1  0  0  0
 21 22  2  0  0  0
 22 23  1  0  0  0
 23 24  2  0  0  0
  4  5  1  0  0  0
  5  6  2  0  0  0
  6  7  1  0  0  0
  7  8  2  0  0  0
  8  9  1  0  0  0
  9 10  2  0  0  0
 10  1  1  0  0  0
 18 16  1  0  0  0
 24 19  1  0  0  0
 10  5  1  0  0  0
 14 15  1  0  0  0
M  END
> <minimizedAffinity>
-9.32815

> <CNNscore>
0.7484735250

> <CNNaffinity>
7.0880041122

> <CNN_VS>
5.3051834106

> <CNNaffinity_variance>
0.1995228231

$$$$
[H]c1c([H])c([H])c(C2([H])C([H])([H])[C@]2([H])N([H])C([H])([H])c2c([H])c([H])c(OC([H])([H])[H])c3c([H])c([H])c([H])c([H])c23)c([H])c1[H]


 24 27  0  0  0  0  0  0  0  0999 V2000
  -17.7756   -6.8313    3.9854 C   0  0  0  0  0  0  0  0  0  0  0  0
  -17.7285   -8.1909    4.1675 C   0  0  0  0  0  0  0  0  0  0  0  0
  -16.5522   -8.8522    4.4920 C   0  0  0  0  0  0  0  0  0  0  0  0
  -15.3747   -8.1553    4.6440 C   0  0  0  0  0  0  0  0  0  0  0  0
  -15.4138   -6.7717    4.4605 C   0  0  0  0  0  0  0  0  0  0  0  0
  -14.2287   -6.0824    4.6152 C   0  0  0  0  0  0  0  0  0  0  0  0
  -14.2845   -4.7103    4.4299 C   0  0  0  0  0  0  0  0  0  0  0  0
  -15.4467   -4.0545    4.1093 C   0  0  0  0  0  0  0  0  0  0  0  0
  -16.6229   -4.7561    3.9579 C   0  0  0  0  0  0  0  0  0  0  0  0
  -16.5901   -6.1410    4.1401 C   0  0  0  0  0  0  0  0  0  0  0  0
  -19.2968   -4.9487    4.2940 C   0  0  0  0  0  0  0  0  0  0  0  0
  -18.9655   -6.1716    3.6586 O   0  0  0  0  0  0  0  0  0  0  0  0
  -14.0972   -8.8291    4.9997 C   0  0  0  0  0  0  0  0  0  0  0  0
  -14.3096   -9.6595    6.1440 N   0  0  0  0  0  0  0  0  0  0  0  0
  -13.9030  -10.6220    6.0363 H   0  0  0  0  0  0  0  0  0  0  0  0
  -13.9255   -9.0526    7.3892 C   0  0  0  0  0  0  0  0  0  0  0  0
  -12.9596   -9.9196    8.2052 C   0  0  0  0  0  0  0  0  0  0  0  0
  -12.5590   -8.5910    7.6828 C   0  0  0  0  0  0  0  0  0  0  0  0
  -12.4200   -7.4565    8.6261 C   0  0  0  0  0  0  0  0  0  0  0  0
  -11.2106   -6.9390    9.0284 C   0  0  0  0  0  0  0  0  0  0  0  0
  -11.1086   -5.8909    9.9005 C   0  0  0  0  0  0  0  0  0  0  0  0
  -12.2355   -5.3112   10.4116 C   0  0  0  0  0  0  0  0  0  0  0  0
  -13.4629   -5.8070   10.0278 C   0  0  0  0  0  0  0  0  0  0  0  0
  -13.5490   -6.8680    9.1445 C   0  0  0  0  0  0  0  0  0  0  0  0
 11 12  1  0  0  0
 12  1  1  0  0  0
  1  2  2  0  0  0
  2  3  1  0  0  0
  3  4  2  0  0  0
  4 13  1  0  0  0
 13 14  1  0  0  0
 14 16  1  0  0  0
 16 17  1  0  0  0
 17 18  1  0  0  0
 18 19  1  0  0  0
 19 20  2  0  0  0
 20 21  1  0  0  0
 21 22  2  0  0  0
 22 23  1  0  0  0
 23 24  2  0  0  0
  4  5  1  0  0  0
  5  6  2  0  0  0
  6  7  1  0  0  0
  7  8  2  0  0  0
  8  9  1  0  0  0
  9 10  2  0  0  0
 10  1  1  0  0  0
 18 16  1  0  0  0
 24 19  1  0  0  0
 10  5  1  0  0  0
 14 15  1  0  0  0
M  END
> <minimizedAffinity>
-9.13770

> <CNNscore>
0.6779685020

> <CNNaffinity>
6.9382309914

> <CNN_VS>
4.7039022446

> <CNNaffinity_variance>
0.1643265039

$$$$
[H]c1c([H])c([H])c(C2([H])C([H])([H])[C@]2([H])N([H])C([H])([H])c2c([H])c([H])c(OC([H])([H])[H])c3c([H])c([H])c([H])c([H])c23)c([H])c1[H]


 24 27  0  0  0  0  0  0  0  0999 V2000
  -10.1362   -7.1728    8.3058 C   0  0  0  0  0  0  0  0  0  0  0  0
  -11.3482   -6.6749    8.7145 C   0  0  0  0  0  0  0  0  0  0  0  0
  -12.5295   -7.3868    8.5588 C   0  0  0  0  0  0  0  0  0  0  0  0
  -12.5246   -8.6357    7.9795 C   0  0  0  0  0  0  0  0  0  0  0  0
  -11.2957   -9.1496    7.5610 C   0  0  0  0  0  0  0  0  0  0  0  0
  -11.3014  -10.4020    6.9820 C   0  0  0  0  0  0  0  0  0  0  0  0
  -10.0741  -10.8976    6.5722 C   0  0  0  0  0  0  0  0  0  0  0  0
   -8.9049  -10.1954    6.7255 C   0  0  0  0  0  0  0  0  0  0  0  0
   -8.9145   -8.9456    7.3055 C   0  0  0  0  0  0  0  0  0  0  0  0
  -10.1412   -8.4258    7.7263 C   0  0  0  0  0  0  0  0  0  0  0  0
   -8.1496   -6.1380    7.3382 C   0  0  0  0  0  0  0  0  0  0  0  0
   -8.9495   -6.4491    8.4663 O   0  0  0  0  0  0  0  0  0  0  0  0
  -13.7694   -9.4310    7.8043 C   0  0  0  0  0  0  0  0  0  0  0  0
  -13.9191   -9.7664    6.4226 N   0  0  0  0  0  0  0  0  0  0  0  0
  -14.6188  -10.5323    6.2576 H   0  0  0  0  0  0  0  0  0  0  0  0
  -14.1514   -8.6357    5.5659 C   0  0  0  0  0  0  0  0  0  0  0  0
  -14.6234   -9.0345    4.1627 C   0  0  0  0  0  0  0  0  0  0  0  0
  -15.4836   -8.2448    5.0766 C   0  0  0  0  0  0  0  0  0  0  0  0
  -15.7026   -6.8058    4.7982 C   0  0  0  0  0  0  0  0  0  0  0  0
  -14.6897   -5.8785    4.7188 C   0  0  0  0  0  0  0  0  0  0  0  0
  -14.9176   -4.5553    4.4604 C   0  0  0  0  0  0  0  0  0  0  0  0
  -16.1927   -4.1034    4.2682 C   0  0  0  0  0  0  0  0  0  0  0  0
  -17.2300   -5.0081    4.3414 C   0  0  0  0  0  0  0  0  0  0  0  0
  -16.9825   -6.3436    4.6036 C   0  0  0  0  0  0  0  0  0  0  0  0
 11 12  1  0  0  0
 12  1  1  0  0  0
  1  2  2  0  0  0
  2  3  1  0  0  0
  3  4  2  0  0  0
  4 13  1  0  0  0
 13 14  1  0  0  0
 14 16  1  0  0  0
 16 17  1  0  0  0
 17 18  1  0  0  0
 18 19  1  0  0  0
 19 20  2  0  0  0
 20 21  1  0  0  0
 21 22  2  0  0  0
 22 23  1  0  0  0
 23 24  2  0  0  0
  4  5  1  0  0  0
  5  6  2  0  0  0
  6  7  1  0  0  0
  7  8  2  0  0  0
  8  9  1  0  0  0
  9 10  2  0  0  0
 10  1  1  0  0  0
 18 16  1  0  0  0
 24 19  1  0  0  0
 10  5  1  0  0  0
 14 15  1  0  0  0
M  END
> <minimizedAffinity>
-8.53032

> <CNNscore>
0.6214389801

> <CNNaffinity>
6.6978158951

> <CNN_VS>
4.1622838974

> <CNNaffinity_variance>
0.3275356293

$$$$
[H]c1c([H])c([H])c(C2([H])C([H])([H])[C@]2([H])N([H])C([H])([H])c2c([H])c([H])c(OC([H])([H])[H])c3c([H])c([H])c([H])c([H])c23)c([H])c1[H]


 24 27  0  0  0  0  0  0  0  0999 V2000
  -17.8630   -6.7318    4.0025 C   0  0  0  0  0  0  0  0  0  0  0  0
  -17.8941   -8.0947    4.1624 C   0  0  0  0  0  0  0  0  0  0  0  0
  -16.7529   -8.8309    4.4485 C   0  0  0  0  0  0  0  0  0  0  0  0
  -15.5321   -8.2087    4.5830 C   0  0  0  0  0  0  0  0  0  0  0  0
  -15.4917   -6.8224    4.4218 C   0  0  0  0  0  0  0  0  0  0  0  0
  -14.2638   -6.2083    4.5589 C   0  0  0  0  0  0  0  0  0  0  0  0
  -14.2406   -4.8325    4.3961 C   0  0  0  0  0  0  0  0  0  0  0  0
  -15.3680   -4.1027    4.1134 C   0  0  0  0  0  0  0  0  0  0  0  0
  -16.5877   -4.7295    3.9794 C   0  0  0  0  0  0  0  0  0  0  0  0
  -16.6346   -6.1168    4.1394 C   0  0  0  0  0  0  0  0  0  0  0  0
  -19.2790   -4.7857    4.4037 C   0  0  0  0  0  0  0  0  0  0  0  0
  -19.0179   -5.9964    3.7143 O   0  0  0  0  0  0  0  0  0  0  0  0
  -14.2900   -8.9641    4.8977 C   0  0  0  0  0  0  0  0  0  0  0  0
  -14.3438   -9.4072    6.2560 N   0  0  0  0  0  0  0  0  0  0  0  0
  -14.5508  -10.4329    6.3471 H   0  0  0  0  0  0  0  0  0  0  0  0
  -13.2076   -9.0182    7.0458 C   0  0  0  0  0  0  0  0  0  0  0  0
  -13.0264   -9.8812    8.3000 C   0  0  0  0  0  0  0  0  0  0  0  0
  -12.0109   -9.8575    7.2198 C   0  0  0  0  0  0  0  0  0  0  0  0
  -10.7258   -9.1572    7.4525 C   0  0  0  0  0  0  0  0  0  0  0  0
   -9.4928   -9.7436    7.2842 C   0  0  0  0  0  0  0  0  0  0  0  0
   -8.3204   -9.0758    7.5055 C   0  0  0  0  0  0  0  0  0  0  0  0
   -8.3399   -7.7711    7.9111 C   0  0  0  0  0  0  0  0  0  0  0  0
   -9.5599   -7.1549    8.0888 C   0  0  0  0  0  0  0  0  0  0  0  0
  -10.7371   -7.8446    7.8606 C   0  0  0  0  0  0  0  0  0  0  0  0
 11 12  1  0  0  0
 12  1  1  0  0  0
  1  2  2  0  0  0
  2  3  1  0  0  0
  3  4  2  0  0  0
  4 13  1  0  0  0
 13 14  1  0  0  0
 14 16  1  0  0  0
 16 17  1  0  0  0
 17 18  1  0  0  0
 18 19  1  0  0  0
 19 20  2  0  0  0
 20 21  1  0  0  0
 21 22  2  0  0  0
 22 23  1  0  0  0
 23 24  2  0  0  0
  4  5  1  0  0  0
  5  6  2  0  0  0
  6  7  1  0  0  0
  7  8  2  0  0  0
  8  9  1  0  0  0
  9 10  2  0  0  0
 10  1  1  0  0  0
 18 16  1  0  0  0
 24 19  1  0  0  0
 10  5  1  0  0  0
 14 15  1  0  0  0
M  END
> <minimizedAffinity>
-9.10163

> <CNNscore>
0.6173937917

> <CNNaffinity>
6.5407361984

> <CNN_VS>
4.0382099152

> <CNNaffinity_variance>
0.0749515519

$$$$
[H]c1c([H])c([H])c(C2([H])C([H])([H])[C@]2([H])N([H])C([H])([H])c2c([H])c([H])c(OC([H])([H])[H])c3c([H])c([H])c([H])c([H])c23)c([H])c1[H]


 24 27  0  0  0  0  0  0  0  0999 V2000
  -12.7668   -8.0698   11.3891 C   0  0  0  0  0  0  0  0  0  0  0  0
  -12.7281   -9.4035   11.0673 C   0  0  0  0  0  0  0  0  0  0  0  0
  -13.0555   -9.8676    9.8009 C   0  0  0  0  0  0  0  0  0  0  0  0
  -13.4364   -8.9913    8.8096 C   0  0  0  0  0  0  0  0  0  0  0  0
  -13.4784   -7.6327    9.1285 C   0  0  0  0  0  0  0  0  0  0  0  0
  -13.8610   -6.7628    8.1283 C   0  0  0  0  0  0  0  0  0  0  0  0
  -13.8975   -5.4182    8.4608 C   0  0  0  0  0  0  0  0  0  0  0  0
  -13.5739   -4.9573    9.7125 C   0  0  0  0  0  0  0  0  0  0  0  0
  -13.1935   -5.8379   10.7016 C   0  0  0  0  0  0  0  0  0  0  0  0
  -13.1496   -7.1989   10.3886 C   0  0  0  0  0  0  0  0  0  0  0  0
  -12.5161   -8.4846   13.7804 C   0  0  0  0  0  0  0  0  0  0  0  0
  -12.4351   -7.6097   12.6681 O   0  0  0  0  0  0  0  0  0  0  0  0
  -13.7858   -9.4514    7.4389 C   0  0  0  0  0  0  0  0  0  0  0  0
  -13.1340   -8.6109    6.4834 N   0  0  0  0  0  0  0  0  0  0  0  0
  -12.3101   -9.0719    6.0229 H   0  0  0  0  0  0  0  0  0  0  0  0
  -14.0220   -8.0175    5.5213 C   0  0  0  0  0  0  0  0  0  0  0  0
  -14.5512   -9.0248    4.4937 C   0  0  0  0  0  0  0  0  0  0  0  0
  -15.4582   -8.3290    5.4380 C   0  0  0  0  0  0  0  0  0  0  0  0
  -16.3499   -7.2609    4.9278 C   0  0  0  0  0  0  0  0  0  0  0  0
  -16.9893   -6.3475    5.7336 C   0  0  0  0  0  0  0  0  0  0  0  0
  -17.8078   -5.3705    5.2383 C   0  0  0  0  0  0  0  0  0  0  0  0
  -18.0202   -5.2704    3.8922 C   0  0  0  0  0  0  0  0  0  0  0  0
  -17.3937   -6.1711    3.0580 C   0  0  0  0  0  0  0  0  0  0  0  0
  -16.5685   -7.1537    3.5749 C   0  0  0  0  0  0  0  0  0  0  0  0
 11 12  1  0  0  0
 12  1  1  0  0  0
  1  2  2  0  0  0
  2  3  1  0  0  0
  3  4  2  0  0  0
  4 13  1  0  0  0
 13 14  1  0  0  0
 14 16  1  0  0  0
 16 17  1  0  0  0
 17 18  1  0  0  0
 18 19  1  0  0  0
 19 20  2  0  0  0
 20 21  1  0  0  0
 21 22  2  0  0  0
 22 23  1  0  0  0
 23 24  2  0  0  0
  4  5  1  0  0  0
  5  6  2  0  0  0
  6  7  1  0  0  0
  7  8  2  0  0  0
  8  9  1  0  0  0
  9 10  2  0  0  0
 10  1  1  0  0  0
 18 16  1  0  0  0
 24 19  1  0  0  0
 10  5  1  0  0  0
 14 15  1  0  0  0
M  END
> <minimizedAffinity>
5.14195

> <CNNscore>
0.5551522970

> <CNNaffinity>
6.3086190224

> <CNN_VS>
3.5022442341

> <CNNaffinity_variance>
0.4094389975

$$$$
[H]c1c([H])c([H])c(C2([H])C([H])([H])[C@]2([H])N([H])C([H])([H])c2c([H])c([H])c(OC([H])([H])[H])c3c([H])c([H])c([H])c([H])c23)c([H])c1[H]


 24 27  0  0  0  0  0  0  0  0999 V2000
  -15.4301   -5.3989    4.7600 C   0  0  0  0  0  0  0  0  0  0  0  0
  -14.5336   -5.4796    5.7962 C   0  0  0  0  0  0  0  0  0  0  0  0
  -14.6067   -6.4756    6.7601 C   0  0  0  0  0  0  0  0  0  0  0  0
  -15.5970   -7.4306    6.7082 C   0  0  0  0  0  0  0  0  0  0  0  0
  -16.5132   -7.3558    5.6572 C   0  0  0  0  0  0  0  0  0  0  0  0
  -17.5015   -8.3175    5.6139 C   0  0  0  0  0  0  0  0  0  0  0  0
  -18.4025   -8.2293    4.5650 C   0  0  0  0  0  0  0  0  0  0  0  0
  -18.3318   -7.2453    3.6108 C   0  0  0  0  0  0  0  0  0  0  0  0
  -17.3392   -6.2913    3.6668 C   0  0  0  0  0  0  0  0  0  0  0  0
  -16.4194   -6.3609    4.7162 C   0  0  0  0  0  0  0  0  0  0  0  0
  -14.6890   -3.1733    4.0884 C   0  0  0  0  0  0  0  0  0  0  0  0
  -15.3499   -4.3918    3.7920 O   0  0  0  0  0  0  0  0  0  0  0  0
  -15.7011   -8.5175    7.7184 C   0  0  0  0  0  0  0  0  0  0  0  0
  -14.6367   -9.4498    7.5134 N   0  0  0  0  0  0  0  0  0  0  0  0
  -14.6045   -9.8302    6.5348 H   0  0  0  0  0  0  0  0  0  0  0  0
  -13.3503   -8.9764    7.9461 C   0  0  0  0  0  0  0  0  0  0  0  0
  -12.8041   -9.7465    9.1541 C   0  0  0  0  0  0  0  0  0  0  0  0
  -12.1139   -9.7683    7.8420 C   0  0  0  0  0  0  0  0  0  0  0  0
  -10.8459   -9.0183    7.6809 C   0  0  0  0  0  0  0  0  0  0  0  0
  -10.7330   -7.6586    7.8565 C   0  0  0  0  0  0  0  0  0  0  0  0
   -9.5509   -6.9891    7.7020 C   0  0  0  0  0  0  0  0  0  0  0  0
   -8.4165   -7.6695    7.3595 C   0  0  0  0  0  0  0  0  0  0  0  0
   -8.4967   -9.0333    7.1764 C   0  0  0  0  0  0  0  0  0  0  0  0
   -9.7004   -9.6958    7.3366 C   0  0  0  0  0  0  0  0  0  0  0  0
 11 12  1  0  0  0
 12  1  1  0  0  0
  1  2  2  0  0  0
  2  3  1  0  0  0
  3  4  2  0  0  0
  4 13  1  0  0  0
 13 14  1  0  0  0
 14 16  1  0  0  0
 16 17  1  0  0  0
 17 18  1  0  0  0
 18 19  1  0  0  0
 19 20  2  0  0  0
 20 21  1  0  0  0
 21 22  2  0  0  0
 22 23  1  0  0  0
 23 24  2  0  0  0
  4  5  1  0  0  0
  5  6  2  0  0  0
  6  7  1  0  0  0
  7  8  2  0  0  0
  8  9  1  0  0  0
  9 10  2  0  0  0
 10  1  1  0  0  0
 18 16  1  0  0  0
 24 19  1  0  0  0
 10  5  1  0  0  0
 14 15  1  0  0  0
M  END
> <minimizedAffinity>
-8.59277

> <CNNscore>
0.4308483601

> <CNNaffinity>
6.4614195824

> <CNN_VS>
2.7838919163

> <CNNaffinity_variance>
0.0892054662

$$$$
[H]c1c([H])c([H])c(C2([H])C([H])([H])[C@]2([H])N([H])C([H])([H])c2c([H])c([H])c(OC([H])([H])[H])c3c([H])c([H])c([H])c([H])c23)c([H])c1[H]


 24 27  0  0  0  0  0  0  0  0999 V2000
   -7.1424   -6.7650    5.5857 C   0  0  0  0  0  0  0  0  0  0  0  0
   -5.9379   -6.1445    5.3668 C   0  0  0  0  0  0  0  0  0  0  0  0
   -4.7713   -6.5527    5.9981 C   0  0  0  0  0  0  0  0  0  0  0  0
   -4.7839   -7.6103    6.8795 C   0  0  0  0  0  0  0  0  0  0  0  0
   -6.0052   -8.2473    7.1078 C   0  0  0  0  0  0  0  0  0  0  0  0
   -6.0072   -9.3062    7.9923 C   0  0  0  0  0  0  0  0  0  0  0  0
   -7.2268   -9.9274    8.2079 C   0  0  0  0  0  0  0  0  0  0  0  0
   -8.3815   -9.5254    7.5844 C   0  0  0  0  0  0  0  0  0  0  0  0
   -8.3643   -8.4662    6.7033 C   0  0  0  0  0  0  0  0  0  0  0  0
   -7.1451   -7.8246    6.4707 C   0  0  0  0  0  0  0  0  0  0  0  0
   -9.0148   -5.2096    5.4176 C   0  0  0  0  0  0  0  0  0  0  0  0
   -8.3143   -6.3477    4.9452 O   0  0  0  0  0  0  0  0  0  0  0  0
   -3.5520   -8.0810    7.5676 C   0  0  0  0  0  0  0  0  0  0  0  0
   -2.7526   -6.9494    7.9209 N   0  0  0  0  0  0  0  0  0  0  0  0
   -1.8709   -7.2099    8.4288 H   0  0  0  0  0  0  0  0  0  0  0  0
   -2.4959   -6.0487    6.8305 C   0  0  0  0  0  0  0  0  0  0  0  0
   -1.5781   -4.8838    7.2194 C   0  0  0  0  0  0  0  0  0  0  0  0
   -1.1744   -5.8852    6.2031 C   0  0  0  0  0  0  0  0  0  0  0  0
   -1.1517   -5.4942    4.7738 C   0  0  0  0  0  0  0  0  0  0  0  0
   -1.1938   -6.3931    3.7334 C   0  0  0  0  0  0  0  0  0  0  0  0
   -1.1716   -6.0072    2.4219 C   0  0  0  0  0  0  0  0  0  0  0  0
   -1.1053   -4.6814    2.0977 C   0  0  0  0  0  0  0  0  0  0  0  0
   -1.0619   -3.7556    3.1178 C   0  0  0  0  0  0  0  0  0  0  0  0
   -1.0851   -4.1625    4.4397 C   0  0  0  0  0  0  0  0  0  0  0  0
 11 12  1  0  0  0
 12  1  1  0  0  0
  1  2  2  0  0  0
  2  3  1  0  0  0
  3  4  2  0  0  0
  4 13  1  0  0  0
 13 14  1  0  0  0
 14 16  1  0  0  0
 16 17  1  0  0  0
 17 18  1  0  0  0
 18 19  1  0  0  0
 19 20  2  0  0  0
 20 21  1  0  0  0
 21 22  2  0  0  0
 22 23  1  0  0  0
 23 24  2  0  0  0
  4  5  1  0  0  0
  5  6  2  0  0  0
  6  7  1  0  0  0
  7  8  2  0  0  0
  8  9  1  0  0  0
  9 10  2  0  0  0
 10  1  1  0  0  0
 18 16  1  0  0  0
 24 19  1  0  0  0
 10  5  1  0  0  0
 14 15  1  0  0  0
M  END
> <minimizedAffinity>
-0.87966

> <CNNscore>
0.4293038249

> <CNNaffinity>
4.9051718712

> <CNN_VS>
2.1058089733

> <CNNaffinity_variance>
0.7438260913

$$$$
[H]c1nc([H])c([C@@]2([H])N(C([H])([H])[H])C([H])([H])C([H])([H])C2([H])[H])c([H])c1[H]


 12 13  0  0  0  0  0  0  0  0999 V2000
  -18.2733   -7.1492    3.6051 C   0  0  0  0  0  0  0  0  0  0  0  0
  -17.2179   -6.8943    4.4833 N   0  0  0  0  0  0  0  0  0  0  0  0
  -15.9697   -7.5041    4.2568 C   0  0  0  0  0  0  0  0  0  0  0  0
  -15.0222   -6.3290    4.1261 C   0  0  0  0  0  0  0  0  0  0  0  0
  -15.8931   -5.0694    4.2049 C   0  0  0  0  0  0  0  0  0  0  0  0
  -17.0632   -5.6086    5.0308 C   0  0  0  0  0  0  0  0  0  0  0  0
  -18.2078   -4.7165    5.0219 C   0  0  0  0  0  0  0  0  0  0  0  0
  -18.4431   -3.8762    6.0886 C   0  0  0  0  0  0  0  0  0  0  0  0
  -19.5491   -3.0133    6.0878 C   0  0  0  0  0  0  0  0  0  0  0  0
  -20.3938   -3.0235    5.0004 C   0  0  0  0  0  0  0  0  0  0  0  0
  -20.1451   -3.8399    3.9896 N   0  0  0  0  0  0  0  0  0  0  0  0
  -19.0906   -4.6757    3.9689 C   0  0  0  0  0  0  0  0  0  0  0  0
  1  2  1  0  0  0
  2  3  1  0  0  0
  3  4  1  0  0  0
  4  5  1  0  0  0
  5  6  1  0  0  0
  6  7  1  0  0  0
  7  8  2  0  0  0
  8  9  1  0  0  0
  9 10  2  0  0  0
 10 11  1  0  0  0
 11 12  2  0  0  0
  6  2  1  0  0  0
 12  7  1  0  0  0
M  END
> <minimizedAffinity>
4.96131

> <CNNscore>
0.6891981959

> <CNNaffinity>
4.9659795761

> <CNN_VS>
3.4225442410

> <CNNaffinity_variance>
0.1575903893

$$$$
[H]c1nc([H])c([C@@]2([H])N(C([H])([H])[H])C([H])([H])C([H])([H])C2([H])[H])c([H])c1[H]


 12 13  0  0  0  0  0  0  0  0999 V2000
  -14.2006   -8.8881    5.2489 C   0  0  0  0  0  0  0  0  0  0  0  0
  -14.6098   -8.6901    6.5694 N   0  0  0  0  0  0  0  0  0  0  0  0
  -13.8491   -9.2420    7.6171 C   0  0  0  0  0  0  0  0  0  0  0  0
  -13.4702   -8.0350    8.4509 C   0  0  0  0  0  0  0  0  0  0  0  0
  -14.0105   -6.8123    7.6997 C   0  0  0  0  0  0  0  0  0  0  0  0
  -15.1747   -7.4589    6.9457 C   0  0  0  0  0  0  0  0  0  0  0  0
  -15.7071   -6.6009    5.9034 C   0  0  0  0  0  0  0  0  0  0  0  0
  -14.9436   -5.5750    5.3895 C   0  0  0  0  0  0  0  0  0  0  0  0
  -15.4529   -4.7399    4.3839 C   0  0  0  0  0  0  0  0  0  0  0  0
  -16.7301   -4.9664    3.9216 C   0  0  0  0  0  0  0  0  0  0  0  0
  -17.4417   -5.9580    4.4320 N   0  0  0  0  0  0  0  0  0  0  0  0
  -16.9736   -6.7711    5.3967 C   0  0  0  0  0  0  0  0  0  0  0  0
  1  2  1  0  0  0
  2  3  1  0  0  0
  3  4  1  0  0  0
  4  5  1  0  0  0
  5  6  1  0  0  0
  6  7  1  0  0  0
  7  8  2  0  0  0
  8  9  1  0  0  0
  9 10  2  0  0  0
 10 11  1  0  0  0
 11 12  2  0  0  0
  6  2  1  0  0  0
 12  7  1  0  0  0
M  END
> <minimizedAffinity>
-5.82474

> <CNNscore>
0.6671695709

> <CNNaffinity>
5.2818140984

> <CNN_VS>
3.5238656998

> <CNNaffinity_variance>
0.1284907013

$$$$
[H]c1nc([H])c([C@@]2([H])N(C([H])([H])[H])C([H])([H])C([H])([H])C2([H])[H])c([H])c1[H]


 12 13  0  0  0  0  0  0  0  0999 V2000
   -8.3241  -13.7254    3.2708 C   0  0  0  0  0  0  0  0  0  0  0  0
   -7.6952  -13.0906    2.1976 N   0  0  0  0  0  0  0  0  0  0  0  0
   -7.8255  -13.6310    0.9045 C   0  0  0  0  0  0  0  0  0  0  0  0
   -8.4417  -12.4978    0.1096 C   0  0  0  0  0  0  0  0  0  0  0  0
   -8.7081  -11.3697    1.1134 C   0  0  0  0  0  0  0  0  0  0  0  0
   -7.6351  -11.6866    2.1577 C   0  0  0  0  0  0  0  0  0  0  0  0
   -7.8314  -10.9557    3.3959 C   0  0  0  0  0  0  0  0  0  0  0  0
   -8.8710  -11.2830    4.2395 C   0  0  0  0  0  0  0  0  0  0  0  0
   -9.0683  -10.5789    5.4367 C   0  0  0  0  0  0  0  0  0  0  0  0
   -8.2026   -9.5551    5.7509 C   0  0  0  0  0  0  0  0  0  0  0  0
   -7.2129   -9.2614    4.9237 N   0  0  0  0  0  0  0  0  0  0  0  0
   -7.0048   -9.9231    3.7706 C   0  0  0  0  0  0  0  0  0  0  0  0
  1  2  1  0  0  0
  2  3  1  0  0  0
  3  4  1  0  0  0
  4  5  1  0  0  0
  5  6  1  0  0  0
  6  7  1  0  0  0
  7  8  2  0  0  0
  8  9  1  0  0  0
  9 10  2  0  0  0
 10 11  1  0  0  0
 11 12  2  0  0  0
  6  2  1  0  0  0
 12  7  1  0  0  0
M  END
> <minimizedAffinity>
13.15315

> <CNNscore>
0.6235354543

> <CNNaffinity>
4.3527917862

> <CNN_VS>
2.7141199112

> <CNNaffinity_variance>
0.4634185433

$$$$
[H]c1nc([H])c([C@@]2([H])N(C([H])([H])[H])C([H])([H])C([H])([H])C2([H])[H])c([H])c1[H]


 12 13  0  0  0  0  0  0  0  0999 V2000
  -17.0261   -7.7162    7.2446 C   0  0  0  0  0  0  0  0  0  0  0  0
  -16.3733   -7.5687    6.0189 N   0  0  0  0  0  0  0  0  0  0  0  0
  -17.0112   -6.8684    4.9779 C   0  0  0  0  0  0  0  0  0  0  0  0
  -16.0422   -5.7471    4.6622 C   0  0  0  0  0  0  0  0  0  0  0  0
  -14.9056   -5.8665    5.6846 C   0  0  0  0  0  0  0  0  0  0  0  0
  -14.9827   -7.3639    5.9913 C   0  0  0  0  0  0  0  0  0  0  0  0
  -14.2113   -7.7315    7.1643 C   0  0  0  0  0  0  0  0  0  0  0  0
  -13.8597   -6.7759    8.0931 C   0  0  0  0  0  0  0  0  0  0  0  0
  -13.1118   -7.1237    9.2279 C   0  0  0  0  0  0  0  0  0  0  0  0
  -12.7368   -8.4382    9.3941 C   0  0  0  0  0  0  0  0  0  0  0  0
  -13.0874   -9.3356    8.4875 N   0  0  0  0  0  0  0  0  0  0  0  0
  -13.8043   -9.0247    7.3919 C   0  0  0  0  0  0  0  0  0  0  0  0
  1  2  1  0  0  0
  2  3  1  0  0  0
  3  4  1  0  0  0
  4  5  1  0  0  0
  5  6  1  0  0  0
  6  7  1  0  0  0
  7  8  2  0  0  0
  8  9  1  0  0  0
  9 10  2  0  0  0
 10 11  1  0  0  0
 11 12  2  0  0  0
  6  2  1  0  0  0
 12  7  1  0  0  0
M  END
> <minimizedAffinity>
-5.44073

> <CNNscore>
0.5960620642

> <CNNaffinity>
5.0797047615

> <CNN_VS>
3.0278193951

> <CNNaffinity_variance>
0.0457692519

$$$$
[H]c1nc([H])c([C@@]2([H])N(C([H])([H])[H])C([H])([H])C([H])([H])C2([H])[H])c([H])c1[H]


 12 13  0  0  0  0  0  0  0  0999 V2000
  -10.0258   -9.3270    7.4517 C   0  0  0  0  0  0  0  0  0  0  0  0
   -9.0664   -8.4304    7.9269 N   0  0  0  0  0  0  0  0  0  0  0  0
   -7.7834   -8.4227    7.3483 C   0  0  0  0  0  0  0  0  0  0  0  0
   -7.6306   -7.0002    6.8493 C   0  0  0  0  0  0  0  0  0  0  0  0
   -8.9689   -6.3055    7.1278 C   0  0  0  0  0  0  0  0  0  0  0  0
   -9.4555   -7.1369    8.3170 C   0  0  0  0  0  0  0  0  0  0  0  0
  -10.8549   -6.9040    8.6228 C   0  0  0  0  0  0  0  0  0  0  0  0
  -11.2164   -6.2929    9.8040 C   0  0  0  0  0  0  0  0  0  0  0  0
  -12.5673   -6.0672   10.1073 C   0  0  0  0  0  0  0  0  0  0  0  0
  -13.5234   -6.4686    9.2013 C   0  0  0  0  0  0  0  0  0  0  0  0
  -13.1494   -7.0529    8.0749 N   0  0  0  0  0  0  0  0  0  0  0  0
  -11.8600   -7.2793    7.7633 C   0  0  0  0  0  0  0  0  0  0  0  0
  1  2  1  0  0  0
  2  3  1  0  0  0
  3  4  1  0  0  0
  4  5  1  0  0  0
  5  6  1  0  0  0
  6  7  1  0  0  0
  7  8  2  0  0  0
  8  9  1  0  0  0
  9 10  2  0  0  0
 10 11  1  0  0  0
 11 12  2  0  0  0
  6  2  1  0  0  0
 12  7  1  0  0  0
M  END
> <minimizedAffinity>
-5.63247

> <CNNscore>
0.5433540940

> <CNNaffinity>
4.6844739914

> <CNN_VS>
2.5453281403

> <CNNaffinity_variance>
0.1081464440

$$$$
[H]c1nc([H])c([C@@]2([H])N(C([H])([H])[H])C([H])([H])C([H])([H])C2([H])[H])c([H])c1[H]


 12 13  0  0  0  0  0  0  0  0999 V2000
  -15.8072   -7.8645    7.6873 C   0  0  0  0  0  0  0  0  0  0  0  0
  -14.4858   -7.9306    7.2402 N   0  0  0  0  0  0  0  0  0  0  0  0
  -13.6446   -8.9503    7.7236 C   0  0  0  0  0  0  0  0  0  0  0  0
  -13.2097   -9.6741    6.4654 C   0  0  0  0  0  0  0  0  0  0  0  0
  -13.9679   -9.0107    5.3094 C   0  0  0  0  0  0  0  0  0  0  0  0
  -14.1872   -7.6171    5.9026 C   0  0  0  0  0  0  0  0  0  0  0  0
  -15.1514   -6.8374    5.1487 C   0  0  0  0  0  0  0  0  0  0  0  0
  -16.0786   -7.4657    4.3457 C   0  0  0  0  0  0  0  0  0  0  0  0
  -17.0117   -6.7181    3.6120 C   0  0  0  0  0  0  0  0  0  0  0  0
  -16.9818   -5.3450    3.7107 C   0  0  0  0  0  0  0  0  0  0  0  0
  -16.0814   -4.7670    4.4887 N   0  0  0  0  0  0  0  0  0  0  0  0
  -15.1772   -5.4639    5.2012 C   0  0  0  0  0  0  0  0  0  0  0  0
  1  2  1  0  0  0
  2  3  1  0  0  0
  3  4  1  0  0  0
  4  5  1  0  0  0
  5  6  1  0  0  0
  6  7  1  0  0  0
  7  8  2  0  0  0
  8  9  1  0  0  0
  9 10  2  0  0  0
 10 11  1  0  0  0
 11 12  2  0  0  0
  6  2  1  0  0  0
 12  7  1  0  0  0
M  END
> <minimizedAffinity>
-5.52934

> <CNNscore>
0.5394293666

> <CNNaffinity>
5.1583509445

> <CNN_VS>
2.7825660706

> <CNNaffinity_variance>
0.1349774301

$$$$
[H]c1nc([H])c([C@@]2([H])N(C([H])([H])[H])C([H])([H])C([H])([H])C2([H])[H])c([H])c1[H]


 12 13  0  0  0  0  0  0  0  0999 V2000
  -12.7396   -9.2201    9.3425 C   0  0  0  0  0  0  0  0  0  0  0  0
  -12.8979   -7.9289    8.8344 N   0  0  0  0  0  0  0  0  0  0  0  0
  -13.8537   -7.0727    9.4126 C   0  0  0  0  0  0  0  0  0  0  0  0
  -13.0336   -5.8792    9.8582 C   0  0  0  0  0  0  0  0  0  0  0  0
  -11.5722   -6.2294    9.5537 C   0  0  0  0  0  0  0  0  0  0  0  0
  -11.7715   -7.2106    8.3962 C   0  0  0  0  0  0  0  0  0  0  0  0
  -10.5643   -7.9520    8.0817 C   0  0  0  0  0  0  0  0  0  0  0  0
  -10.6430   -9.1707    7.4430 C   0  0  0  0  0  0  0  0  0  0  0  0
   -9.4803   -9.8942    7.1385 C   0  0  0  0  0  0  0  0  0  0  0  0
   -8.2602   -9.3618    7.4907 C   0  0  0  0  0  0  0  0  0  0  0  0
   -8.2127   -8.1901    8.1030 N   0  0  0  0  0  0  0  0  0  0  0  0
   -9.3146   -7.4791    8.4049 C   0  0  0  0  0  0  0  0  0  0  0  0
  1  2  1  0  0  0
  2  3  1  0  0  0
  3  4  1  0  0  0
  4  5  1  0  0  0
  5  6  1  0  0  0
  6  7  1  0  0  0
  7  8  2  0  0  0
  8  9  1  0  0  0
  9 10  2  0  0  0
 10 11  1  0  0  0
 11 12  2  0  0  0
  6  2  1  0  0  0
 12  7  1  0  0  0
M  END
> <minimizedAffinity>
-6.03255

> <CNNscore>
0.5380985737

> <CNNaffinity>
4.8346281052

> <CNN_VS>
2.6015064716

> <CNNaffinity_variance>
0.0921505317

$$$$
[H]c1nc([H])c([C@@]2([H])N(C([H])([H])[H])C([H])([H])C([H])([H])C2([H])[H])c([H])c1[H]


 12 13  0  0  0  0  0  0  0  0999 V2000
  -17.4888   -8.5780    4.7028 C   0  0  0  0  0  0  0  0  0  0  0  0
  -16.6826   -7.6223    4.0809 N   0  0  0  0  0  0  0  0  0  0  0  0
  -17.2859   -6.5788    3.3541 C   0  0  0  0  0  0  0  0  0  0  0  0
  -16.7701   -5.3290    4.0382 C   0  0  0  0  0  0  0  0  0  0  0  0
  -15.9352   -5.8106    5.2308 C   0  0  0  0  0  0  0  0  0  0  0  0
  -15.5058   -7.1858    4.7145 C   0  0  0  0  0  0  0  0  0  0  0  0
  -14.9386   -8.0193    5.7583 C   0  0  0  0  0  0  0  0  0  0  0  0
  -13.9396   -8.9213    5.4621 C   0  0  0  0  0  0  0  0  0  0  0  0
  -13.3887   -9.7322    6.4656 C   0  0  0  0  0  0  0  0  0  0  0  0
  -13.8665   -9.6082    7.7511 C   0  0  0  0  0  0  0  0  0  0  0  0
  -14.8259   -8.7345    8.0083 N   0  0  0  0  0  0  0  0  0  0  0  0
  -15.3688   -7.9468    7.0619 C   0  0  0  0  0  0  0  0  0  0  0  0
  1  2  1  0  0  0
  2  3  1  0  0  0
  3  4  1  0  0  0
  4  5  1  0  0  0
  5  6  1  0  0  0
  6  7  1  0  0  0
  7  8  2  0  0  0
  8  9  1  0  0  0
  9 10  2  0  0  0
 10 11  1  0  0  0
 11 12  2  0  0  0
  6  2  1  0  0  0
 12  7  1  0  0  0
M  END
> <minimizedAffinity>
-5.90506

> <CNNscore>
0.5310943127

> <CNNaffinity>
5.1839170456

> <CNN_VS>
2.7531487942

> <CNNaffinity_variance>
0.0981551856

$$$$
[H]c1nc([H])c([C@@]2([H])N(C([H])([H])[H])C([H])([H])C([H])([H])C2([H])[H])c([H])c1[H]


 12 13  0  0  0  0  0  0  0  0999 V2000
  -14.5403   -8.8207    4.7091 C   0  0  0  0  0  0  0  0  0  0  0  0
  -15.4922   -7.8104    4.5559 N   0  0  0  0  0  0  0  0  0  0  0  0
  -16.4395   -7.9070    3.5194 C   0  0  0  0  0  0  0  0  0  0  0  0
  -17.7662   -7.8734    4.2505 C   0  0  0  0  0  0  0  0  0  0  0  0
  -17.4276   -7.8510    5.7458 C   0  0  0  0  0  0  0  0  0  0  0  0
  -16.0450   -7.1968    5.6937 C   0  0  0  0  0  0  0  0  0  0  0  0
  -15.3288   -7.3098    6.9507 C   0  0  0  0  0  0  0  0  0  0  0  0
  -14.1595   -6.6081    7.1505 C   0  0  0  0  0  0  0  0  0  0  0  0
  -13.4605   -6.7148    8.3621 C   0  0  0  0  0  0  0  0  0  0  0  0
  -13.9663   -7.5343    9.3463 C   0  0  0  0  0  0  0  0  0  0  0  0
  -15.0906   -8.1967    9.1288 N   0  0  0  0  0  0  0  0  0  0  0  0
  -15.7775   -8.1095    7.9749 C   0  0  0  0  0  0  0  0  0  0  0  0
  1  2  1  0  0  0
  2  3  1  0  0  0
  3  4  1  0  0  0
  4  5  1  0  0  0
  5  6  1  0  0  0
  6  7  1  0  0  0
  7  8  2  0  0  0
  8  9  1  0  0  0
  9 10  2  0  0  0
 10 11  1  0  0  0
 11 12  2  0  0  0
  6  2  1  0  0  0
 12  7  1  0  0  0
M  END
> <minimizedAffinity>
-5.28423

> <CNNscore>
0.5298478603

> <CNNaffinity>
5.1766719818

> <CNN_VS>
2.7428486347

> <CNNaffinity_variance>
0.0342784636

$$$$
[H]c1nc([H])c(N([H])C(=O)c2nc(-c3c(F)c([H])c([H])c([H])c3F)c([H])c([H])c2F)c([C@@]2([H])C([H])([H])[C@@]([H])(N([H])[H])C([H])([H])[C@@]([H])(C([H])([H])[H])C2([H])[H])c1[H]


 35 38  0  0  0  0  0  0  0  0999 V2000
  -15.4521   -8.4601    5.9721 N   0  0  0  0  0  0  0  0  0  0  0  0
  -15.1856   -7.7630    7.1548 C   0  0  0  0  0  0  0  0  0  0  0  0
  -15.9667   -6.7832    7.4947 O   0  0  0  0  0  0  0  0  0  0  0  0
  -14.8207   -9.2533    5.7173 H   0  0  0  0  0  0  0  0  0  0  0  0
  -14.1177   -7.9908    8.1145 C   0  0  0  0  0  0  0  0  0  0  0  0
  -12.8434   -8.0228    7.6843 N   0  0  0  0  0  0  0  0  0  0  0  0
  -11.7492   -8.2172    8.4231 C   0  0  0  0  0  0  0  0  0  0  0  0
  -11.9613   -8.4152    9.7956 C   0  0  0  0  0  0  0  0  0  0  0  0
  -13.2406   -8.3988   10.3115 C   0  0  0  0  0  0  0  0  0  0  0  0
  -14.3089   -8.1836    9.4460 C   0  0  0  0  0  0  0  0  0  0  0  0
  -15.5774   -8.1784   10.0060 F   0  0  0  0  0  0  0  0  0  0  0  0
  -10.3930   -8.1886    7.9190 C   0  0  0  0  0  0  0  0  0  0  0  0
   -9.5981   -7.0564    8.0218 C   0  0  0  0  0  0  0  0  0  0  0  0
  -10.0958   -5.9099    8.5744 F   0  0  0  0  0  0  0  0  0  0  0  0
   -8.2973   -7.0091    7.5784 C   0  0  0  0  0  0  0  0  0  0  0  0
   -7.7233   -8.1061    7.0055 C   0  0  0  0  0  0  0  0  0  0  0  0
   -8.4958   -9.2626    6.8840 C   0  0  0  0  0  0  0  0  0  0  0  0
   -9.7969   -9.2787    7.3376 C   0  0  0  0  0  0  0  0  0  0  0  0
  -10.5635  -10.4153    7.2214 F   0  0  0  0  0  0  0  0  0  0  0  0
  -16.2998   -7.0869    4.2386 C   0  0  0  0  0  0  0  0  0  0  0  0
  -17.3632   -6.8191    3.3693 C   0  0  0  0  0  0  0  0  0  0  0  0
  -18.5617   -7.5102    3.4301 C   0  0  0  0  0  0  0  0  0  0  0  0
  -18.7453   -8.4667    4.3306 N   0  0  0  0  0  0  0  0  0  0  0  0
  -17.7323   -8.7480    5.1815 C   0  0  0  0  0  0  0  0  0  0  0  0
  -16.5439   -8.1054    5.1569 C   0  0  0  0  0  0  0  0  0  0  0  0
  -15.5946   -2.5202    5.2332 C   0  0  0  0  0  0  0  0  0  0  0  0
  -14.7242   -3.8086    5.0339 C   0  0  0  0  0  0  0  0  0  0  0  0
  -13.9183   -3.5836    3.7508 C   0  0  0  0  0  0  0  0  0  0  0  0
  -13.3287   -4.8822    3.3537 C   0  0  0  0  0  0  0  0  0  0  0  0
  -12.4342   -4.7707    2.2590 N   0  0  0  0  0  0  0  0  0  0  0  0
  -14.4402   -5.9122    3.0142 C   0  0  0  0  0  0  0  0  0  0  0  0
  -15.1113   -6.2732    4.3357 C   0  0  0  0  0  0  0  0  0  0  0  0
  -15.7000   -4.8825    4.8073 C   0  0  0  0  0  0  0  0  0  0  0  0
  -11.9839   -5.6838    1.9840 H   0  0  0  0  0  0  0  0  0  0  0  0
  -11.7700   -3.9871    2.2631 H   0  0  0  0  0  0  0  0  0  0  0  0
 26 27  1  0  0  0
 27 28  1  0  0  0
 28 29  1  0  0  0
 29 30  1  0  0  0
 29 31  1  0  0  0
 31 32  1  0  0  0
 32 20  1  0  0  0
 20 21  2  0  0  0
 21 22  1  0  0  0
 22 23  2  0  0  0
 23 24  1  0  0  0
 24 25  2  0  0  0
 25  1  1  0  0  0
  1  2  1  0  0  0
  2  3  2  0  0  0
  2  5  1  0  0  0
  5  6  2  0  0  0
  6  7  1  0  0  0
  7 12  1  0  0  0
 12 13  2  0  0  0
 13 14  1  0  0  0
 13 15  1  0  0  0
 15 16  2  0  0  0
 16 17  1  0  0  0
 17 18  2  0  0  0
 18 19  1  0  0  0
  7  8  2  0  0  0
  8  9  1  0  0  0
  9 10  2  0  0  0
 10 11  1  0  0  0
 32 33  1  0  0  0
 33 27  1  0  0  0
 25 20  1  0  0  0
 10  5  1  0  0  0
 18 12  1  0  0  0
 30 34  1  0  0  0
 30 35  1  0  0  0
  1  4  1  0  0  0
M  END
> <minimizedAffinity>
0.67839

> <CNNscore>
0.4311464429

> <CNNaffinity>
7.6415433884

> <CNN_VS>
3.2946243286

> <CNNaffinity_variance>
0.2421153784

$$$$
[H]c1nc([H])c(N([H])C(=O)c2nc(-c3c(F)c([H])c([H])c([H])c3F)c([H])c([H])c2F)c([C@@]2([H])C([H])([H])[C@@]([H])(N([H])[H])C([H])([H])[C@@]([H])(C([H])([H])[H])C2([H])[H])c1[H]


 35 38  0  0  0  0  0  0  0  0999 V2000
  -15.0528   -6.5409    6.2814 N   0  0  0  0  0  0  0  0  0  0  0  0
  -14.3555   -7.3335    7.1987 C   0  0  0  0  0  0  0  0  0  0  0  0
  -14.7886   -8.5317    7.4484 O   0  0  0  0  0  0  0  0  0  0  0  0
  -14.6857   -5.5824    6.0827 H   0  0  0  0  0  0  0  0  0  0  0  0
  -13.1510   -7.0037    7.9427 C   0  0  0  0  0  0  0  0  0  0  0  0
  -11.9595   -7.4315    7.4872 N   0  0  0  0  0  0  0  0  0  0  0  0
  -10.7634   -7.2197    8.0400 C   0  0  0  0  0  0  0  0  0  0  0  0
  -10.7586   -6.4742    9.2282 C   0  0  0  0  0  0  0  0  0  0  0  0
  -11.9416   -6.0031    9.7589 C   0  0  0  0  0  0  0  0  0  0  0  0
  -13.1319   -6.2824    9.0943 C   0  0  0  0  0  0  0  0  0  0  0  0
  -14.2973   -5.7929    9.6642 F   0  0  0  0  0  0  0  0  0  0  0  0
   -9.5026   -7.6567    7.4800 C   0  0  0  0  0  0  0  0  0  0  0  0
   -9.1870   -9.0013    7.3496 C   0  0  0  0  0  0  0  0  0  0  0  0
  -10.0548   -9.9611    7.7892 F   0  0  0  0  0  0  0  0  0  0  0  0
   -8.0100   -9.4462    6.7950 C   0  0  0  0  0  0  0  0  0  0  0  0
   -7.0828   -8.5560    6.3380 C   0  0  0  0  0  0  0  0  0  0  0  0
   -7.3669   -7.1943    6.4558 C   0  0  0  0  0  0  0  0  0  0  0  0
   -8.5553   -6.7794    7.0168 C   0  0  0  0  0  0  0  0  0  0  0  0
   -8.8418   -5.4390    7.1353 F   0  0  0  0  0  0  0  0  0  0  0  0
  -16.6133   -6.3158    4.5142 C   0  0  0  0  0  0  0  0  0  0  0  0
  -17.7018   -6.8727    3.8336 C   0  0  0  0  0  0  0  0  0  0  0  0
  -18.3264   -8.0331    4.2590 C   0  0  0  0  0  0  0  0  0  0  0  0
  -17.9061   -8.6674    5.3456 N   0  0  0  0  0  0  0  0  0  0  0  0
  -16.8536   -8.1521    6.0209 C   0  0  0  0  0  0  0  0  0  0  0  0
  -16.2090   -7.0268    5.6416 C   0  0  0  0  0  0  0  0  0  0  0  0
  -12.4408   -4.9238    2.7837 C   0  0  0  0  0  0  0  0  0  0  0  0
  -13.8263   -4.2747    3.1253 C   0  0  0  0  0  0  0  0  0  0  0  0
  -13.5749   -3.3313    4.3056 C   0  0  0  0  0  0  0  0  0  0  0  0
  -14.8906   -2.9419    4.8614 C   0  0  0  0  0  0  0  0  0  0  0  0
  -14.7925   -1.9479    5.8680 N   0  0  0  0  0  0  0  0  0  0  0  0
  -15.6402   -4.1799    5.4243 C   0  0  0  0  0  0  0  0  0  0  0  0
  -16.0541   -5.0181    4.2188 C   0  0  0  0  0  0  0  0  0  0  0  0
  -14.6594   -5.3972    3.5753 C   0  0  0  0  0  0  0  0  0  0  0  0
  -15.7248   -1.6394    6.2523 H   0  0  0  0  0  0  0  0  0  0  0  0
  -14.1530   -1.1614    5.7015 H   0  0  0  0  0  0  0  0  0  0  0  0
 26 27  1  0  0  0
 27 28  1  0  0  0
 28 29  1  0  0  0
 29 30  1  0  0  0
 29 31  1  0  0  0
 31 32  1  0  0  0
 32 20  1  0  0  0
 20 21  2  0  0  0
 21 22  1  0  0  0
 22 23  2  0  0  0
 23 24  1  0  0  0
 24 25  2  0  0  0
 25  1  1  0  0  0
  1  2  1  0  0  0
  2  3  2  0  0  0
  2  5  1  0  0  0
  5  6  2  0  0  0
  6  7  1  0  0  0
  7 12  1  0  0  0
 12 13  2  0  0  0
 13 14  1  0  0  0
 13 15  1  0  0  0
 15 16  2  0  0  0
 16 17  1  0  0  0
 17 18  2  0  0  0
 18 19  1  0  0  0
  7  8  2  0  0  0
  8  9  1  0  0  0
  9 10  2  0  0  0
 10 11  1  0  0  0
 32 33  1  0  0  0
 33 27  1  0  0  0
 25 20  1  0  0  0
 10  5  1  0  0  0
 18 12  1  0  0  0
 30 34  1  0  0  0
 30 35  1  0  0  0
  1  4  1  0  0  0
M  END
> <minimizedAffinity>
-0.93392

> <CNNscore>
0.4310984910

> <CNNaffinity>
7.8968706131

> <CNN_VS>
3.4043290615

> <CNNaffinity_variance>
0.3839790821

$$$$
[H]c1nc([H])c(N([H])C(=O)c2nc(-c3c(F)c([H])c([H])c([H])c3F)c([H])c([H])c2F)c([C@@]2([H])C([H])([H])[C@@]([H])(N([H])[H])C([H])([H])[C@@]([H])(C([H])([H])[H])C2([H])[H])c1[H]


 35 38  0  0  0  0  0  0  0  0999 V2000
   -9.4877   -7.2206    8.2306 N   0  0  0  0  0  0  0  0  0  0  0  0
   -8.5257   -7.8814    9.0012 C   0  0  0  0  0  0  0  0  0  0  0  0
   -8.8065   -9.0531    9.4847 O   0  0  0  0  0  0  0  0  0  0  0  0
   -9.2429   -6.2826    7.8392 H   0  0  0  0  0  0  0  0  0  0  0  0
   -7.1868   -7.4347    9.3491 C   0  0  0  0  0  0  0  0  0  0  0  0
   -6.1921   -7.5816    8.4553 N   0  0  0  0  0  0  0  0  0  0  0  0
   -4.9143   -7.2280    8.6078 C   0  0  0  0  0  0  0  0  0  0  0  0
   -4.5803   -6.6464    9.8398 C   0  0  0  0  0  0  0  0  0  0  0  0
   -5.5458   -6.4650   10.8083 C   0  0  0  0  0  0  0  0  0  0  0  0
   -6.8495   -6.8696   10.5381 C   0  0  0  0  0  0  0  0  0  0  0  0
   -7.7872   -6.6719   11.5404 F   0  0  0  0  0  0  0  0  0  0  0  0
   -3.8915   -7.3586    7.5925 C   0  0  0  0  0  0  0  0  0  0  0  0
   -3.8918   -8.4074    6.6845 C   0  0  0  0  0  0  0  0  0  0  0  0
   -4.8496   -9.3798    6.7515 F   0  0  0  0  0  0  0  0  0  0  0  0
   -2.9502   -8.5413    5.6913 C   0  0  0  0  0  0  0  0  0  0  0  0
   -1.9528   -7.6203    5.5574 C   0  0  0  0  0  0  0  0  0  0  0  0
   -1.9209   -6.5526    6.4561 C   0  0  0  0  0  0  0  0  0  0  0  0
   -2.8785   -6.4460    7.4413 C   0  0  0  0  0  0  0  0  0  0  0  0
   -2.8532   -5.3959    8.3299 F   0  0  0  0  0  0  0  0  0  0  0  0
  -10.7125   -9.1456    7.5956 C   0  0  0  0  0  0  0  0  0  0  0  0
  -11.9713   -9.7408    7.4566 C   0  0  0  0  0  0  0  0  0  0  0  0
  -13.1480   -9.0465    7.6821 C   0  0  0  0  0  0  0  0  0  0  0  0
  -13.1211   -7.7707    8.0442 N   0  0  0  0  0  0  0  0  0  0  0  0
  -11.9172   -7.1714    8.1888 C   0  0  0  0  0  0  0  0  0  0  0  0
  -10.7432   -7.8087    7.9856 C   0  0  0  0  0  0  0  0  0  0  0  0
   -9.7075  -12.6973    4.6432 C   0  0  0  0  0  0  0  0  0  0  0  0
   -8.9220  -11.6116    5.4567 C   0  0  0  0  0  0  0  0  0  0  0  0
   -8.1346  -12.3704    6.5293 C   0  0  0  0  0  0  0  0  0  0  0  0
   -7.6347  -11.3796    7.5090 C   0  0  0  0  0  0  0  0  0  0  0  0
   -6.7612  -11.9468    8.4715 N   0  0  0  0  0  0  0  0  0  0  0  0
   -8.8144  -10.6727    8.2301 C   0  0  0  0  0  0  0  0  0  0  0  0
   -9.4748   -9.7699    7.1928 C   0  0  0  0  0  0  0  0  0  0  0  0
   -9.9664  -10.8078    6.1047 C   0  0  0  0  0  0  0  0  0  0  0  0
   -6.3739  -11.2466    9.1583 H   0  0  0  0  0  0  0  0  0  0  0  0
   -6.0507  -12.6101    8.1391 H   0  0  0  0  0  0  0  0  0  0  0  0
 26 27  1  0  0  0
 27 28  1  0  0  0
 28 29  1  0  0  0
 29 30  1  0  0  0
 29 31  1  0  0  0
 31 32  1  0  0  0
 32 20  1  0  0  0
 20 21  2  0  0  0
 21 22  1  0  0  0
 22 23  2  0  0  0
 23 24  1  0  0  0
 24 25  2  0  0  0
 25  1  1  0  0  0
  1  2  1  0  0  0
  2  3  2  0  0  0
  2  5  1  0  0  0
  5  6  2  0  0  0
  6  7  1  0  0  0
  7 12  1  0  0  0
 12 13  2  0  0  0
 13 14  1  0  0  0
 13 15  1  0  0  0
 15 16  2  0  0  0
 16 17  1  0  0  0
 17 18  2  0  0  0
 18 19  1  0  0  0
  7  8  2  0  0  0
  8  9  1  0  0  0
  9 10  2  0  0  0
 10 11  1  0  0  0
 32 33  1  0  0  0
 33 27  1  0  0  0
 25 20  1  0  0  0
 10  5  1  0  0  0
 18 12  1  0  0  0
 30 34  1  0  0  0
 30 35  1  0  0  0
  1  4  1  0  0  0
M  END
> <minimizedAffinity>
21.74464

> <CNNscore>
0.4232543409

> <CNNaffinity>
6.4694046974

> <CNN_VS>
2.7382035255

> <CNNaffinity_variance>
0.9824554324

$$$$
[H]c1nc([H])c(N([H])C(=O)c2nc(-c3c(F)c([H])c([H])c([H])c3F)c([H])c([H])c2F)c([C@@]2([H])C([H])([H])[C@@]([H])(N([H])[H])C([H])([H])[C@@]([H])(C([H])([H])[H])C2([H])[H])c1[H]


 35 38  0  0  0  0  0  0  0  0999 V2000
  -10.3563   -7.2726    9.3795 N   0  0  0  0  0  0  0  0  0  0  0  0
   -9.3679   -6.7988    8.5109 C   0  0  0  0  0  0  0  0  0  0  0  0
   -9.4236   -5.5649    8.1111 O   0  0  0  0  0  0  0  0  0  0  0  0
  -10.2919   -8.2652    9.7011 H   0  0  0  0  0  0  0  0  0  0  0  0
   -8.2235   -7.5145    7.9711 C   0  0  0  0  0  0  0  0  0  0  0  0
   -8.3717   -8.2379    6.8464 N   0  0  0  0  0  0  0  0  0  0  0  0
   -7.4339   -8.9494    6.2178 C   0  0  0  0  0  0  0  0  0  0  0  0
   -6.1597   -8.9414    6.8045 C   0  0  0  0  0  0  0  0  0  0  0  0
   -5.9305   -8.2247    7.9607 C   0  0  0  0  0  0  0  0  0  0  0  0
   -6.9843   -7.5152    8.5287 C   0  0  0  0  0  0  0  0  0  0  0  0
   -6.7107   -6.8116    9.6919 F   0  0  0  0  0  0  0  0  0  0  0  0
   -7.6315   -9.6683    4.9776 C   0  0  0  0  0  0  0  0  0  0  0  0
   -8.6310  -10.6197    4.8348 C   0  0  0  0  0  0  0  0  0  0  0  0
   -9.4411  -10.9352    5.8891 F   0  0  0  0  0  0  0  0  0  0  0  0
   -8.8608  -11.2972    3.6605 C   0  0  0  0  0  0  0  0  0  0  0  0
   -8.0931  -11.0507    2.5600 C   0  0  0  0  0  0  0  0  0  0  0  0
   -7.0761  -10.1006    2.6691 C   0  0  0  0  0  0  0  0  0  0  0  0
   -6.8701   -9.4384    3.8599 C   0  0  0  0  0  0  0  0  0  0  0  0
   -5.8700   -8.5005    3.9740 F   0  0  0  0  0  0  0  0  0  0  0  0
  -12.6279   -6.6313    9.1849 C   0  0  0  0  0  0  0  0  0  0  0  0
  -13.6757   -5.8586    9.6979 C   0  0  0  0  0  0  0  0  0  0  0  0
  -13.4953   -4.9634   10.7388 C   0  0  0  0  0  0  0  0  0  0  0  0
  -12.3014   -4.8054   11.2949 N   0  0  0  0  0  0  0  0  0  0  0  0
  -11.2713   -5.5422   10.8201 C   0  0  0  0  0  0  0  0  0  0  0  0
  -11.3998   -6.4316    9.8111 C   0  0  0  0  0  0  0  0  0  0  0  0
  -15.4425   -6.4271    5.3931 C   0  0  0  0  0  0  0  0  0  0  0  0
  -14.1669   -7.2179    5.8458 C   0  0  0  0  0  0  0  0  0  0  0  0
  -14.6057   -8.6764    6.0087 C   0  0  0  0  0  0  0  0  0  0  0  0
  -13.5308   -9.3940    6.7306 C   0  0  0  0  0  0  0  0  0  0  0  0
  -13.7564  -10.7918    6.8093 N   0  0  0  0  0  0  0  0  0  0  0  0
  -13.3447   -8.8160    8.1598 C   0  0  0  0  0  0  0  0  0  0  0  0
  -12.7257   -7.4323    7.9879 C   0  0  0  0  0  0  0  0  0  0  0  0
  -13.8377   -6.6640    7.1655 C   0  0  0  0  0  0  0  0  0  0  0  0
  -12.9838  -11.3198    7.2954 H   0  0  0  0  0  0  0  0  0  0  0  0
  -14.0915  -11.2696    5.9639 H   0  0  0  0  0  0  0  0  0  0  0  0
 26 27  1  0  0  0
 27 28  1  0  0  0
 28 29  1  0  0  0
 29 30  1  0  0  0
 29 31  1  0  0  0
 31 32  1  0  0  0
 32 20  1  0  0  0
 20 21  2  0  0  0
 21 22  1  0  0  0
 22 23  2  0  0  0
 23 24  1  0  0  0
 24 25  2  0  0  0
 25  1  1  0  0  0
  1  2  1  0  0  0
  2  3  2  0  0  0
  2  5  1  0  0  0
  5  6  2  0  0  0
  6  7  1  0  0  0
  7 12  1  0  0  0
 12 13  2  0  0  0
 13 14  1  0  0  0
 13 15  1  0  0  0
 15 16  2  0  0  0
 16 17  1  0  0  0
 17 18  2  0  0  0
 18 19  1  0  0  0
  7  8  2  0  0  0
  8  9  1  0  0  0
  9 10  2  0  0  0
 10 11  1  0  0  0
 32 33  1  0  0  0
 33 27  1  0  0  0
 25 20  1  0  0  0
 10  5  1  0  0  0
 18 12  1  0  0  0
 30 34  1  0  0  0
 30 35  1  0  0  0
  1  4  1  0  0  0
M  END
> <minimizedAffinity>
5.32333

> <CNNscore>
0.3847421706

> <CNNaffinity>
7.2843933105

> <CNN_VS>
2.8026132584

> <CNNaffinity_variance>
0.3066807389

$$$$
[H]c1nc([H])c(N([H])C(=O)c2nc(-c3c(F)c([H])c([H])c([H])c3F)c([H])c([H])c2F)c([C@@]2([H])C([H])([H])[C@@]([H])(N([H])[H])C([H])([H])[C@@]([H])(C([H])([H])[H])C2([H])[H])c1[H]


 35 38  0  0  0  0  0  0  0  0999 V2000
  -14.7699   -7.7440    5.3404 N   0  0  0  0  0  0  0  0  0  0  0  0
  -13.8035   -8.3215    6.1700 C   0  0  0  0  0  0  0  0  0  0  0  0
  -13.5955   -9.6008    6.0941 O   0  0  0  0  0  0  0  0  0  0  0  0
  -14.9184   -6.7112    5.4054 H   0  0  0  0  0  0  0  0  0  0  0  0
  -12.9458   -7.6685    7.1453 C   0  0  0  0  0  0  0  0  0  0  0  0
  -11.6160   -7.8641    7.0862 N   0  0  0  0  0  0  0  0  0  0  0  0
  -10.6896   -7.3450    7.8945 C   0  0  0  0  0  0  0  0  0  0  0  0
  -11.1640   -6.5111    8.9179 C   0  0  0  0  0  0  0  0  0  0  0  0
  -12.5154   -6.2648    9.0445 C   0  0  0  0  0  0  0  0  0  0  0  0
  -13.3918   -6.8583    8.1411 C   0  0  0  0  0  0  0  0  0  0  0  0
  -14.7414   -6.5866    8.3069 F   0  0  0  0  0  0  0  0  0  0  0  0
   -9.2630   -7.5439    7.7552 C   0  0  0  0  0  0  0  0  0  0  0  0
   -8.3923   -6.4822    7.5574 C   0  0  0  0  0  0  0  0  0  0  0  0
   -8.8706   -5.2068    7.4480 F   0  0  0  0  0  0  0  0  0  0  0  0
   -7.0302   -6.6378    7.4507 C   0  0  0  0  0  0  0  0  0  0  0  0
   -6.4683   -7.8778    7.5393 C   0  0  0  0  0  0  0  0  0  0  0  0
   -7.3158   -8.9695    7.7360 C   0  0  0  0  0  0  0  0  0  0  0  0
   -8.6771   -8.7814    7.8385 C   0  0  0  0  0  0  0  0  0  0  0  0
   -9.5179   -9.8530    8.0330 F   0  0  0  0  0  0  0  0  0  0  0  0
  -16.2985   -7.8271    3.5333 C   0  0  0  0  0  0  0  0  0  0  0  0
  -16.9476   -8.6230    2.5828 C   0  0  0  0  0  0  0  0  0  0  0  0
  -16.8196  -10.0016    2.5592 C   0  0  0  0  0  0  0  0  0  0  0  0
  -16.0635  -10.6255    3.4529 N   0  0  0  0  0  0  0  0  0  0  0  0
  -15.4223   -9.8797    4.3814 C   0  0  0  0  0  0  0  0  0  0  0  0
  -15.5120   -8.5328    4.4408 C   0  0  0  0  0  0  0  0  0  0  0  0
  -13.4730   -4.1394    4.4045 C   0  0  0  0  0  0  0  0  0  0  0  0
  -14.9767   -4.3827    4.0343 C   0  0  0  0  0  0  0  0  0  0  0  0
  -15.7907   -3.9623    5.2619 C   0  0  0  0  0  0  0  0  0  0  0  0
  -17.1718   -4.4641    5.0821 C   0  0  0  0  0  0  0  0  0  0  0  0
  -18.0608   -4.0067    6.0878 N   0  0  0  0  0  0  0  0  0  0  0  0
  -17.1935   -6.0161    5.0355 C   0  0  0  0  0  0  0  0  0  0  0  0
  -16.5486   -6.4167    3.7123 C   0  0  0  0  0  0  0  0  0  0  0  0
  -15.0840   -5.8370    3.8605 C   0  0  0  0  0  0  0  0  0  0  0  0
  -19.0550   -4.3325    5.9558 H   0  0  0  0  0  0  0  0  0  0  0  0
  -18.0011   -3.0192    6.3645 H   0  0  0  0  0  0  0  0  0  0  0  0
 26 27  1  0  0  0
 27 28  1  0  0  0
 28 29  1  0  0  0
 29 30  1  0  0  0
 29 31  1  0  0  0
 31 32  1  0  0  0
 32 20  1  0  0  0
 20 21  2  0  0  0
 21 22  1  0  0  0
 22 23  2  0  0  0
 23 24  1  0  0  0
 24 25  2  0  0  0
 25  1  1  0  0  0
  1  2  1  0  0  0
  2  3  2  0  0  0
  2  5  1  0  0  0
  5  6  2  0  0  0
  6  7  1  0  0  0
  7 12  1  0  0  0
 12 13  2  0  0  0
 13 14  1  0  0  0
 13 15  1  0  0  0
 15 16  2  0  0  0
 16 17  1  0  0  0
 17 18  2  0  0  0
 18 19  1  0  0  0
  7  8  2  0  0  0
  8  9  1  0  0  0
  9 10  2  0  0  0
 10 11  1  0  0  0
 32 33  1  0  0  0
 33 27  1  0  0  0
 25 20  1  0  0  0
 10  5  1  0  0  0
 18 12  1  0  0  0
 30 34  1  0  0  0
 30 35  1  0  0  0
  1  4  1  0  0  0
M  END
> <minimizedAffinity>
2.14566

> <CNNscore>
0.3378132880

> <CNNaffinity>
7.4312653542

> <CNN_VS>
2.5103802681

> <CNNaffinity_variance>
0.3964336514

$$$$
[H]c1nc([H])c(N([H])C(=O)c2nc(-c3c(F)c([H])c([H])c([H])c3F)c([H])c([H])c2F)c([C@@]2([H])C([H])([H])[C@@]([H])(N([H])[H])C([H])([H])[C@@]([H])(C([H])([H])[H])C2([H])[H])c1[H]


 35 38  0  0  0  0  0  0  0  0999 V2000
  -15.2318   -6.2360    6.2121 N   0  0  0  0  0  0  0  0  0  0  0  0
  -15.3326   -7.0766    7.3252 C   0  0  0  0  0  0  0  0  0  0  0  0
  -16.4953   -7.5586    7.6437 O   0  0  0  0  0  0  0  0  0  0  0  0
  -14.2872   -5.8645    5.9619 H   0  0  0  0  0  0  0  0  0  0  0  0
  -14.2746   -7.5231    8.2166 C   0  0  0  0  0  0  0  0  0  0  0  0
  -13.0051   -7.5431    7.7715 N   0  0  0  0  0  0  0  0  0  0  0  0
  -11.9199   -7.9193    8.4510 C   0  0  0  0  0  0  0  0  0  0  0  0
  -12.1372   -8.3444    9.7700 C   0  0  0  0  0  0  0  0  0  0  0  0
  -13.4120   -8.3545   10.2968 C   0  0  0  0  0  0  0  0  0  0  0  0
  -14.4708   -7.9370    9.4960 C   0  0  0  0  0  0  0  0  0  0  0  0
  -15.7354   -7.9664   10.0642 F   0  0  0  0  0  0  0  0  0  0  0  0
  -10.5659   -7.8709    7.9427 C   0  0  0  0  0  0  0  0  0  0  0  0
   -9.9826   -8.9591    7.3102 C   0  0  0  0  0  0  0  0  0  0  0  0
  -10.6680  -10.1347    7.1842 F   0  0  0  0  0  0  0  0  0  0  0  0
   -8.7093   -8.9329    6.7917 C   0  0  0  0  0  0  0  0  0  0  0  0
   -7.9509   -7.8025    6.8816 C   0  0  0  0  0  0  0  0  0  0  0  0
   -8.5060   -6.6887    7.5143 C   0  0  0  0  0  0  0  0  0  0  0  0
   -9.7848   -6.7462    8.0244 C   0  0  0  0  0  0  0  0  0  0  0  0
  -10.3381   -5.6519    8.6485 F   0  0  0  0  0  0  0  0  0  0  0  0
  -16.9106   -6.9540    4.7038 C   0  0  0  0  0  0  0  0  0  0  0  0
  -18.0985   -6.6379    4.0350 C   0  0  0  0  0  0  0  0  0  0  0  0
  -18.6780   -5.3824    4.1078 C   0  0  0  0  0  0  0  0  0  0  0  0
  -18.1166   -4.4196    4.8272 N   0  0  0  0  0  0  0  0  0  0  0  0
  -16.9690   -4.6991    5.4863 C   0  0  0  0  0  0  0  0  0  0  0  0
  -16.3698   -5.9096    5.4501 C   0  0  0  0  0  0  0  0  0  0  0  0
  -13.6457   -8.2869    1.5565 C   0  0  0  0  0  0  0  0  0  0  0  0
  -14.2764   -8.8481    2.8774 C   0  0  0  0  0  0  0  0  0  0  0  0
  -15.0755  -10.0908    2.4732 C   0  0  0  0  0  0  0  0  0  0  0  0
  -15.9359  -10.4671    3.6176 C   0  0  0  0  0  0  0  0  0  0  0  0
  -16.6149  -11.6958    3.4174 N   0  0  0  0  0  0  0  0  0  0  0  0
  -16.9669   -9.3472    3.9246 C   0  0  0  0  0  0  0  0  0  0  0  0
  -16.1755   -8.1810    4.5084 C   0  0  0  0  0  0  0  0  0  0  0  0
  -15.2062   -7.7999    3.3174 C   0  0  0  0  0  0  0  0  0  0  0  0
  -17.2089  -11.9912    4.2372 H   0  0  0  0  0  0  0  0  0  0  0  0
  -16.0818  -12.4755    3.0133 H   0  0  0  0  0  0  0  0  0  0  0  0
 26 27  1  0  0  0
 27 28  1  0  0  0
 28 29  1  0  0  0
 29 30  1  0  0  0
 29 31  1  0  0  0
 31 32  1  0  0  0
 32 20  1  0  0  0
 20 21  2  0  0  0
 21 22  1  0  0  0
 22 23  2  0  0  0
 23 24  1  0  0  0
 24 25  2  0  0  0
 25  1  1  0  0  0
  1  2  1  0  0  0
  2  3  2  0  0  0
  2  5  1  0  0  0
  5  6  2  0  0  0
  6  7  1  0  0  0
  7 12  1  0  0  0
 12 13  2  0  0  0
 13 14  1  0  0  0
 13 15  1  0  0  0
 15 16  2  0  0  0
 16 17  1  0  0  0
 17 18  2  0  0  0
 18 19  1  0  0  0
  7  8  2  0  0  0
  8  9  1  0  0  0
  9 10  2  0  0  0
 10 11  1  0  0  0
 32 33  1  0  0  0
 33 27  1  0  0  0
 25 20  1  0  0  0
 10  5  1  0  0  0
 18 12  1  0  0  0
 30 34  1  0  0  0
 30 35  1  0  0  0
  1  4  1  0  0  0
M  END
> <minimizedAffinity>
2.93907

> <CNNscore>
0.3138600886

> <CNNaffinity>
7.4046201706

> <CNN_VS>
2.3240146637

> <CNNaffinity_variance>
0.1950684041

$$$$
[H]c1nc([H])c(N([H])C(=O)c2nc(-c3c(F)c([H])c([H])c([H])c3F)c([H])c([H])c2F)c([C@@]2([H])C([H])([H])[C@@]([H])(N([H])[H])C([H])([H])[C@@]([H])(C([H])([H])[H])C2([H])[H])c1[H]


 35 38  0  0  0  0  0  0  0  0999 V2000
   -8.3583   -6.1070    8.6872 N   0  0  0  0  0  0  0  0  0  0  0  0
   -9.5965   -5.9660    8.0524 C   0  0  0  0  0  0  0  0  0  0  0  0
   -9.6469   -6.0241    6.7564 O   0  0  0  0  0  0  0  0  0  0  0  0
   -8.3354   -6.0688    9.7317 H   0  0  0  0  0  0  0  0  0  0  0  0
  -10.9027   -5.7658    8.6583 C   0  0  0  0  0  0  0  0  0  0  0  0
  -11.9689   -6.4090    8.1489 N   0  0  0  0  0  0  0  0  0  0  0  0
  -13.2304   -6.3422    8.5793 C   0  0  0  0  0  0  0  0  0  0  0  0
  -13.4610   -5.5025    9.6791 C   0  0  0  0  0  0  0  0  0  0  0  0
  -12.4177   -4.8074   10.2547 C   0  0  0  0  0  0  0  0  0  0  0  0
  -11.1401   -4.9560    9.7235 C   0  0  0  0  0  0  0  0  0  0  0  0
  -10.1218   -4.2366   10.3304 F   0  0  0  0  0  0  0  0  0  0  0  0
  -14.3348   -7.0980    8.0289 C   0  0  0  0  0  0  0  0  0  0  0  0
  -14.6163   -7.0979    6.6705 C   0  0  0  0  0  0  0  0  0  0  0  0
  -13.8711   -6.3419    5.8099 F   0  0  0  0  0  0  0  0  0  0  0  0
  -15.6404   -7.8288    6.1156 C   0  0  0  0  0  0  0  0  0  0  0  0
  -16.4399   -8.6046    6.9031 C   0  0  0  0  0  0  0  0  0  0  0  0
  -16.1862   -8.6263    8.2756 C   0  0  0  0  0  0  0  0  0  0  0  0
  -15.1525   -7.8824    8.8020 C   0  0  0  0  0  0  0  0  0  0  0  0
  -14.8967   -7.8998   10.1538 F   0  0  0  0  0  0  0  0  0  0  0  0
   -7.0366   -7.5666    7.3712 C   0  0  0  0  0  0  0  0  0  0  0  0
   -5.9148   -7.7095    6.5470 C   0  0  0  0  0  0  0  0  0  0  0  0
   -5.0218   -6.6747    6.3254 C   0  0  0  0  0  0  0  0  0  0  0  0
   -5.2031   -5.4915    6.8971 N   0  0  0  0  0  0  0  0  0  0  0  0
   -6.2814   -5.3251    7.6964 C   0  0  0  0  0  0  0  0  0  0  0  0
   -7.1825   -6.3025    7.9379 C   0  0  0  0  0  0  0  0  0  0  0  0
   -6.3549  -12.2350    7.6577 C   0  0  0  0  0  0  0  0  0  0  0  0
   -7.4520  -11.1980    8.0800 C   0  0  0  0  0  0  0  0  0  0  0  0
   -8.6783  -11.4988    7.2129 C   0  0  0  0  0  0  0  0  0  0  0  0
   -9.6168  -10.3618    7.3471 C   0  0  0  0  0  0  0  0  0  0  0  0
  -10.8604  -10.5936    6.7063 N   0  0  0  0  0  0  0  0  0  0  0  0
   -8.9835   -9.0554    6.7962 C   0  0  0  0  0  0  0  0  0  0  0  0
   -7.8846   -8.6616    7.7784 C   0  0  0  0  0  0  0  0  0  0  0  0
   -6.8969   -9.8946    7.6932 C   0  0  0  0  0  0  0  0  0  0  0  0
  -11.5499   -9.8037    6.8189 H   0  0  0  0  0  0  0  0  0  0  0  0
  -11.2938  -11.5174    6.8251 H   0  0  0  0  0  0  0  0  0  0  0  0
 26 27  1  0  0  0
 27 28  1  0  0  0
 28 29  1  0  0  0
 29 30  1  0  0  0
 29 31  1  0  0  0
 31 32  1  0  0  0
 32 20  1  0  0  0
 20 21  2  0  0  0
 21 22  1  0  0  0
 22 23  2  0  0  0
 23 24  1  0  0  0
 24 25  2  0  0  0
 25  1  1  0  0  0
  1  2  1  0  0  0
  2  3  2  0  0  0
  2  5  1  0  0  0
  5  6  2  0  0  0
  6  7  1  0  0  0
  7 12  1  0  0  0
 12 13  2  0  0  0
 13 14  1  0  0  0
 13 15  1  0  0  0
 15 16  2  0  0  0
 16 17  1  0  0  0
 17 18  2  0  0  0
 18 19  1  0  0  0
  7  8  2  0  0  0
  8  9  1  0  0  0
  9 10  2  0  0  0
 10 11  1  0  0  0
 32 33  1  0  0  0
 33 27  1  0  0  0
 25 20  1  0  0  0
 10  5  1  0  0  0
 18 12  1  0  0  0
 30 34  1  0  0  0
 30 35  1  0  0  0
  1  4  1  0  0  0
M  END
> <minimizedAffinity>
10.50358

> <CNNscore>
0.3011876941

> <CNNaffinity>
6.8669776917

> <CNN_VS>
2.0682492256

> <CNNaffinity_variance>
0.7269786596

$$$$
[H]c1nc([H])c(N([H])C(=O)c2nc(-c3c(F)c([H])c([H])c([H])c3F)c([H])c([H])c2F)c([C@@]2([H])C([H])([H])[C@@]([H])(N([H])[H])C([H])([H])[C@@]([H])(C([H])([H])[H])C2([H])[H])c1[H]


 35 38  0  0  0  0  0  0  0  0999 V2000
   -5.3074   -7.1435    8.8535 N   0  0  0  0  0  0  0  0  0  0  0  0
   -5.5837   -5.9024    9.4357 C   0  0  0  0  0  0  0  0  0  0  0  0
   -6.3734   -5.0803    8.8143 O   0  0  0  0  0  0  0  0  0  0  0  0
   -4.6784   -7.7989    9.3709 H   0  0  0  0  0  0  0  0  0  0  0  0
   -5.1040   -5.3737   10.7020 C   0  0  0  0  0  0  0  0  0  0  0  0
   -4.2929   -4.3004   10.7009 N   0  0  0  0  0  0  0  0  0  0  0  0
   -3.7657   -3.6889   11.7636 C   0  0  0  0  0  0  0  0  0  0  0  0
   -4.0936   -4.2359   13.0130 C   0  0  0  0  0  0  0  0  0  0  0  0
   -4.9183   -5.3386   13.0951 C   0  0  0  0  0  0  0  0  0  0  0  0
   -5.4139   -5.8932   11.9189 C   0  0  0  0  0  0  0  0  0  0  0  0
   -6.2361   -7.0024   12.0473 F   0  0  0  0  0  0  0  0  0  0  0  0
   -2.9402   -2.5015   11.7115 C   0  0  0  0  0  0  0  0  0  0  0  0
   -3.1519   -1.5041   10.7708 C   0  0  0  0  0  0  0  0  0  0  0  0
   -4.1346   -1.6377    9.8306 F   0  0  0  0  0  0  0  0  0  0  0  0
   -2.4027   -0.3524   10.7157 C   0  0  0  0  0  0  0  0  0  0  0  0
   -1.3952   -0.1411   11.6109 C   0  0  0  0  0  0  0  0  0  0  0  0
   -1.1530   -1.1258   12.5703 C   0  0  0  0  0  0  0  0  0  0  0  0
   -1.9208   -2.2698   12.5997 C   0  0  0  0  0  0  0  0  0  0  0  0
   -1.6878   -3.2438   13.5430 F   0  0  0  0  0  0  0  0  0  0  0  0
   -5.4021   -6.7755    6.5158 C   0  0  0  0  0  0  0  0  0  0  0  0
   -5.8935   -7.2101    5.2798 C   0  0  0  0  0  0  0  0  0  0  0  0
   -6.7788   -8.2687    5.1654 C   0  0  0  0  0  0  0  0  0  0  0  0
   -7.1983   -8.9183    6.2432 N   0  0  0  0  0  0  0  0  0  0  0  0
   -6.7365   -8.5206    7.4506 C   0  0  0  0  0  0  0  0  0  0  0  0
   -5.8683   -7.4980    7.6117 C   0  0  0  0  0  0  0  0  0  0  0  0
   -3.1753   -3.8857    3.5104 C   0  0  0  0  0  0  0  0  0  0  0  0
   -3.5476   -3.9076    5.0330 C   0  0  0  0  0  0  0  0  0  0  0  0
   -2.2233   -4.0266    5.7934 C   0  0  0  0  0  0  0  0  0  0  0  0
   -2.5382   -4.3667    7.1994 C   0  0  0  0  0  0  0  0  0  0  0  0
   -1.3956   -4.3559    8.0393 N   0  0  0  0  0  0  0  0  0  0  0  0
   -3.2367   -5.7507    7.2893 C   0  0  0  0  0  0  0  0  0  0  0  0
   -4.6318   -5.5685    6.6997 C   0  0  0  0  0  0  0  0  0  0  0  0
   -4.3162   -5.1468    5.2078 C   0  0  0  0  0  0  0  0  0  0  0  0
   -1.6096   -4.5676    9.0500 H   0  0  0  0  0  0  0  0  0  0  0  0
   -0.7296   -3.5816    7.9293 H   0  0  0  0  0  0  0  0  0  0  0  0
 26 27  1  0  0  0
 27 28  1  0  0  0
 28 29  1  0  0  0
 29 30  1  0  0  0
 29 31  1  0  0  0
 31 32  1  0  0  0
 32 20  1  0  0  0
 20 21  2  0  0  0
 21 22  1  0  0  0
 22 23  2  0  0  0
 23 24  1  0  0  0
 24 25  2  0  0  0
 25  1  1  0  0  0
  1  2  1  0  0  0
  2  3  2  0  0  0
  2  5  1  0  0  0
  5  6  2  0  0  0
  6  7  1  0  0  0
  7 12  1  0  0  0
 12 13  2  0  0  0
 13 14  1  0  0  0
 13 15  1  0  0  0
 15 16  2  0  0  0
 16 17  1  0  0  0
 17 18  2  0  0  0
 18 19  1  0  0  0
  7  8  2  0  0  0
  8  9  1  0  0  0
  9 10  2  0  0  0
 10 11  1  0  0  0
 32 33  1  0  0  0
 33 27  1  0  0  0
 25 20  1  0  0  0
 10  5  1  0  0  0
 18 12  1  0  0  0
 30 34  1  0  0  0
 30 35  1  0  0  0
  1  4  1  0  0  0
M  END
> <minimizedAffinity>
0.72292

> <CNNscore>
0.2937936485

> <CNNaffinity>
5.9124341011

> <CNN_VS>
1.7370356321

> <CNNaffinity_variance>
0.7147253156

$$$$
[H]c1nc([H])c(N([H])C(=O)c2nc(-c3c(F)c([H])c([H])c([H])c3F)c([H])c([H])c2F)c([C@@]2([H])C([H])([H])[C@@]([H])(N([H])[H])C([H])([H])[C@@]([H])(C([H])([H])[H])C2([H])[H])c1[H]


 35 38  0  0  0  0  0  0  0  0999 V2000
  -15.1986   -5.4271    5.4220 N   0  0  0  0  0  0  0  0  0  0  0  0
  -14.2658   -6.4491    5.2190 C   0  0  0  0  0  0  0  0  0  0  0  0
  -13.8375   -6.6770    4.0148 O   0  0  0  0  0  0  0  0  0  0  0  0
  -15.5259   -5.2485    6.3987 H   0  0  0  0  0  0  0  0  0  0  0  0
  -13.6653   -7.3309    6.2065 C   0  0  0  0  0  0  0  0  0  0  0  0
  -13.2147   -6.8120    7.3632 N   0  0  0  0  0  0  0  0  0  0  0  0
  -12.6423   -7.4716    8.3723 C   0  0  0  0  0  0  0  0  0  0  0  0
  -12.4928   -8.8552    8.1960 C   0  0  0  0  0  0  0  0  0  0  0  0
  -12.9282   -9.4599    7.0351 C   0  0  0  0  0  0  0  0  0  0  0  0
  -13.5146   -8.6722    6.0490 C   0  0  0  0  0  0  0  0  0  0  0  0
  -13.9347   -9.3201    4.8973 F   0  0  0  0  0  0  0  0  0  0  0  0
  -12.2229   -6.8733    9.6213 C   0  0  0  0  0  0  0  0  0  0  0  0
  -10.9220   -6.4352    9.8221 C   0  0  0  0  0  0  0  0  0  0  0  0
   -9.9798   -6.5956    8.8454 F   0  0  0  0  0  0  0  0  0  0  0  0
  -10.5023   -5.8369   10.9869 C   0  0  0  0  0  0  0  0  0  0  0  0
  -11.3752   -5.6453   12.0176 C   0  0  0  0  0  0  0  0  0  0  0  0
  -12.6924   -6.0765   11.8504 C   0  0  0  0  0  0  0  0  0  0  0  0
  -13.0827   -6.6733   10.6712 C   0  0  0  0  0  0  0  0  0  0  0  0
  -14.3795   -7.1000   10.4998 F   0  0  0  0  0  0  0  0  0  0  0  0
  -16.8728   -5.0918    3.7808 C   0  0  0  0  0  0  0  0  0  0  0  0
  -17.3804   -4.2591    2.7773 C   0  0  0  0  0  0  0  0  0  0  0  0
  -16.7310   -3.1044    2.3741 C   0  0  0  0  0  0  0  0  0  0  0  0
  -15.5853   -2.7422    2.9359 N   0  0  0  0  0  0  0  0  0  0  0  0
  -15.0737   -3.5278    3.9108 C   0  0  0  0  0  0  0  0  0  0  0  0
  -15.6732   -4.6595    4.3414 C   0  0  0  0  0  0  0  0  0  0  0  0
  -17.1700   -7.5539    7.8047 C   0  0  0  0  0  0  0  0  0  0  0  0
  -17.7103   -7.6658    6.3373 C   0  0  0  0  0  0  0  0  0  0  0  0
  -17.0193   -8.8861    5.7212 C   0  0  0  0  0  0  0  0  0  0  0  0
  -17.2510   -8.8467    4.2595 C   0  0  0  0  0  0  0  0  0  0  0  0
  -16.7850  -10.0096    3.5951 N   0  0  0  0  0  0  0  0  0  0  0  0
  -16.5926   -7.5891    3.6300 C   0  0  0  0  0  0  0  0  0  0  0  0
  -17.4124   -6.3919    4.1012 C   0  0  0  0  0  0  0  0  0  0  0  0
  -17.2250   -6.4503    5.6711 C   0  0  0  0  0  0  0  0  0  0  0  0
  -16.9700  -10.0084    2.5569 H   0  0  0  0  0  0  0  0  0  0  0  0
  -16.9803  -10.9191    4.0310 H   0  0  0  0  0  0  0  0  0  0  0  0
 26 27  1  0  0  0
 27 28  1  0  0  0
 28 29  1  0  0  0
 29 30  1  0  0  0
 29 31  1  0  0  0
 31 32  1  0  0  0
 32 20  1  0  0  0
 20 21  2  0  0  0
 21 22  1  0  0  0
 22 23  2  0  0  0
 23 24  1  0  0  0
 24 25  2  0  0  0
 25  1  1  0  0  0
  1  2  1  0  0  0
  2  3  2  0  0  0
  2  5  1  0  0  0
  5  6  2  0  0  0
  6  7  1  0  0  0
  7 12  1  0  0  0
 12 13  2  0  0  0
 13 14  1  0  0  0
 13 15  1  0  0  0
 15 16  2  0  0  0
 16 17  1  0  0  0
 17 18  2  0  0  0
 18 19  1  0  0  0
  7  8  2  0  0  0
  8  9  1  0  0  0
  9 10  2  0  0  0
 10 11  1  0  0  0
 32 33  1  0  0  0
 33 27  1  0  0  0
 25 20  1  0  0  0
 10  5  1  0  0  0
 18 12  1  0  0  0
 30 34  1  0  0  0
 30 35  1  0  0  0
  1  4  1  0  0  0
M  END
> <minimizedAffinity>
3.17322

> <CNNscore>
0.2830242217

> <CNNaffinity>
7.2649536133

> <CNN_VS>
2.0561578274

> <CNNaffinity_variance>
0.4880330563

$$$$
[H]OC(=O)C1(C([H])([H])c2c([H])nc(OC([H])([H])C([H])([H])c3nc(-c4c([H])c([H])c([H])c(Cl)c4[H])oc3C([H])([H])[H])c([H])c2[H])OC([H])([H])C([H])([H])C1([H])[H]


 32 35  0  0  0  0  0  0  0  0999 V2000
  -10.0150   -8.6797    8.0410 O   0  0  0  0  0  0  0  0  0  0  0  0
   -8.8184   -8.1967    7.5406 C   0  0  0  0  0  0  0  0  0  0  0  0
   -7.6989   -9.0445    7.5092 C   0  0  0  0  0  0  0  0  0  0  0  0
   -6.4916   -8.5890    7.0150 C   0  0  0  0  0  0  0  0  0  0  0  0
   -6.3405   -7.3023    6.5398 C   0  0  0  0  0  0  0  0  0  0  0  0
   -7.4599   -6.5168    6.5929 C   0  0  0  0  0  0  0  0  0  0  0  0
   -8.6273   -6.9658    7.0736 N   0  0  0  0  0  0  0  0  0  0  0  0
   -5.0619   -6.8245    6.0142 C   0  0  0  0  0  0  0  0  0  0  0  0
   -3.9711   -6.5706    6.9889 C   0  0  0  0  0  0  0  0  0  0  0  0
   -3.4390   -7.8801    7.5520 C   0  0  0  0  0  0  0  0  0  0  0  0
   -2.6163   -8.3638    6.3740 C   0  0  0  0  0  0  0  0  0  0  0  0
   -2.1941   -7.0850    5.7376 C   0  0  0  0  0  0  0  0  0  0  0  0
   -2.8815   -6.0300    6.2826 O   0  0  0  0  0  0  0  0  0  0  0  0
   -4.2863   -5.6171    8.0726 C   0  0  0  0  0  0  0  0  0  0  0  0
   -3.7507   -4.4544    8.1110 O   0  0  0  0  0  0  0  0  0  0  0  0
   -5.1577   -5.8751    9.1180 O   0  0  0  0  0  0  0  0  0  0  0  0
   -5.8089   -5.1452    9.3709 H   0  0  0  0  0  0  0  0  0  0  0  0
  -10.9686   -9.4310    7.3546 C   0  0  0  0  0  0  0  0  0  0  0  0
  -12.2458   -9.4898    8.1800 C   0  0  0  0  0  0  0  0  0  0  0  0
  -12.6302   -6.8964    9.9376 C   0  0  0  0  0  0  0  0  0  0  0  0
  -13.2097   -7.1556    8.5935 C   0  0  0  0  0  0  0  0  0  0  0  0
  -13.9791   -6.3553    7.9125 O   0  0  0  0  0  0  0  0  0  0  0  0
  -14.3178   -6.8786    6.7681 C   0  0  0  0  0  0  0  0  0  0  0  0
  -13.7343   -8.0858    6.7050 N   0  0  0  0  0  0  0  0  0  0  0  0
  -13.0293   -8.3017    7.8286 C   0  0  0  0  0  0  0  0  0  0  0  0
  -15.1642   -6.2828    5.7451 C   0  0  0  0  0  0  0  0  0  0  0  0
  -14.8879   -5.0842    5.1246 C   0  0  0  0  0  0  0  0  0  0  0  0
  -15.7106   -4.5472    4.1556 C   0  0  0  0  0  0  0  0  0  0  0  0
  -16.8605   -5.1998    3.7642 C   0  0  0  0  0  0  0  0  0  0  0  0
  -17.1707   -6.4087    4.3670 C   0  0  0  0  0  0  0  0  0  0  0  0
  -18.6283   -7.2827    3.9026 Cl  0  0  0  0  0  0  0  0  0  0  0  0
  -16.3353   -6.9264    5.3320 C   0  0  0  0  0  0  0  0  0  0  0  0
 20 21  1  0  0  0
 21 22  1  0  0  0
 22 23  1  0  0  0
 23 26  1  0  0  0
 26 27  2  0  0  0
 27 28  1  0  0  0
 28 29  2  0  0  0
 29 30  1  0  0  0
 30 31  1  0  0  0
 30 32  2  0  0  0
 23 24  2  0  0  0
 24 25  1  0  0  0
 25 19  1  0  0  0
 19 18  1  0  0  0
 18  1  1  0  0  0
  1  2  1  0  0  0
  2  3  2  0  0  0
  3  4  1  0  0  0
  4  5  2  0  0  0
  5  8  1  0  0  0
  8  9  1  0  0  0
  9 14  1  0  0  0
 14 15  2  0  0  0
 14 16  1  0  0  0
  9 10  1  0  0  0
 10 11  1  0  0  0
 11 12  1  0  0  0
 12 13  1  0  0  0
  5  6  1  0  0  0
  6  7  2  0  0  0
 25 21  2  0  0  0
  7  2  1  0  0  0
 32 26  1  0  0  0
 13  9  1  0  0  0
 16 17  1  0  0  0
M  END
> <minimizedAffinity>
-9.25659

> <CNNscore>
0.6332522631

> <CNNaffinity>
6.9213423729

> <CNN_VS>
4.3829555511

> <CNNaffinity_variance>
0.2580322623

$$$$
[H]OC(=O)C1(C([H])([H])c2c([H])nc(OC([H])([H])C([H])([H])c3nc(-c4c([H])c([H])c([H])c(Cl)c4[H])oc3C([H])([H])[H])c([H])c2[H])OC([H])([H])C([H])([H])C1([H])[H]


 32 35  0  0  0  0  0  0  0  0999 V2000
   -9.4331   -9.1891    7.1933 O   0  0  0  0  0  0  0  0  0  0  0  0
   -8.3235   -8.4004    7.4427 C   0  0  0  0  0  0  0  0  0  0  0  0
   -7.9333   -7.4480    6.4868 C   0  0  0  0  0  0  0  0  0  0  0  0
   -6.8296   -6.6469    6.7092 C   0  0  0  0  0  0  0  0  0  0  0  0
   -6.0785   -6.7495    7.8622 C   0  0  0  0  0  0  0  0  0  0  0  0
   -6.4995   -7.6921    8.7607 C   0  0  0  0  0  0  0  0  0  0  0  0
   -7.5710   -8.4652    8.5378 N   0  0  0  0  0  0  0  0  0  0  0  0
   -4.9128   -5.8975    8.0959 C   0  0  0  0  0  0  0  0  0  0  0  0
   -3.7013   -6.1522    7.2762 C   0  0  0  0  0  0  0  0  0  0  0  0
   -3.8975   -5.6427    5.8561 C   0  0  0  0  0  0  0  0  0  0  0  0
   -3.7397   -4.1519    6.0818 C   0  0  0  0  0  0  0  0  0  0  0  0
   -2.8081   -4.1055    7.2431 C   0  0  0  0  0  0  0  0  0  0  0  0
   -2.6612   -5.3559    7.7885 O   0  0  0  0  0  0  0  0  0  0  0  0
   -3.2060   -7.5442    7.2761 C   0  0  0  0  0  0  0  0  0  0  0  0
   -3.5786   -8.3817    6.3816 O   0  0  0  0  0  0  0  0  0  0  0  0
   -2.3244   -8.0650    8.2089 O   0  0  0  0  0  0  0  0  0  0  0  0
   -1.5694   -8.6407    7.8637 H   0  0  0  0  0  0  0  0  0  0  0  0
  -10.6484   -9.1669    7.8772 C   0  0  0  0  0  0  0  0  0  0  0  0
  -10.9086   -7.7565    8.3860 C   0  0  0  0  0  0  0  0  0  0  0  0
  -12.9984   -6.0261    9.9989 C   0  0  0  0  0  0  0  0  0  0  0  0
  -13.1953   -6.6410    8.6600 C   0  0  0  0  0  0  0  0  0  0  0  0
  -14.2679   -6.5720    7.9244 O   0  0  0  0  0  0  0  0  0  0  0  0
  -14.1195   -7.2189    6.8029 C   0  0  0  0  0  0  0  0  0  0  0  0
  -12.8806   -7.7354    6.8133 N   0  0  0  0  0  0  0  0  0  0  0  0
  -12.2644   -7.3983    7.9592 C   0  0  0  0  0  0  0  0  0  0  0  0
  -15.0978   -7.3633    5.7352 C   0  0  0  0  0  0  0  0  0  0  0  0
  -15.1196   -8.4223    4.8542 C   0  0  0  0  0  0  0  0  0  0  0  0
  -16.0632   -8.5310    3.8531 C   0  0  0  0  0  0  0  0  0  0  0  0
  -17.0369   -7.5679    3.6926 C   0  0  0  0  0  0  0  0  0  0  0  0
  -17.0459   -6.4877    4.5610 C   0  0  0  0  0  0  0  0  0  0  0  0
  -18.2691   -5.2300    4.3987 Cl  0  0  0  0  0  0  0  0  0  0  0  0
  -16.0946   -6.3992    5.5531 C   0  0  0  0  0  0  0  0  0  0  0  0
 20 21  1  0  0  0
 21 22  1  0  0  0
 22 23  1  0  0  0
 23 26  1  0  0  0
 26 27  2  0  0  0
 27 28  1  0  0  0
 28 29  2  0  0  0
 29 30  1  0  0  0
 30 31  1  0  0  0
 30 32  2  0  0  0
 23 24  2  0  0  0
 24 25  1  0  0  0
 25 19  1  0  0  0
 19 18  1  0  0  0
 18  1  1  0  0  0
  1  2  1  0  0  0
  2  3  2  0  0  0
  3  4  1  0  0  0
  4  5  2  0  0  0
  5  8  1  0  0  0
  8  9  1  0  0  0
  9 14  1  0  0  0
 14 15  2  0  0  0
 14 16  1  0  0  0
  9 10  1  0  0  0
 10 11  1  0  0  0
 11 12  1  0  0  0
 12 13  1  0  0  0
  5  6  1  0  0  0
  6  7  2  0  0  0
 25 21  2  0  0  0
  7  2  1  0  0  0
 32 26  1  0  0  0
 13  9  1  0  0  0
 16 17  1  0  0  0
M  END
> <minimizedAffinity>
-8.46637

> <CNNscore>
0.5867947936

> <CNNaffinity>
6.9137763977

> <CNN_VS>
4.0569682121

> <CNNaffinity_variance>
0.3113517761

$$$$
[H]OC(=O)C1(C([H])([H])c2c([H])nc(OC([H])([H])C([H])([H])c3nc(-c4c([H])c([H])c([H])c(Cl)c4[H])oc3C([H])([H])[H])c([H])c2[H])OC([H])([H])C([H])([H])C1([H])[H]


 32 35  0  0  0  0  0  0  0  0999 V2000
   -9.5375   -6.6195    7.4653 O   0  0  0  0  0  0  0  0  0  0  0  0
   -8.2259   -6.9695    7.1956 C   0  0  0  0  0  0  0  0  0  0  0  0
   -7.4482   -7.5432    8.2150 C   0  0  0  0  0  0  0  0  0  0  0  0
   -6.1359   -7.9025    7.9741 C   0  0  0  0  0  0  0  0  0  0  0  0
   -5.5464   -7.7146    6.7407 C   0  0  0  0  0  0  0  0  0  0  0  0
   -6.3455   -7.1521    5.7826 C   0  0  0  0  0  0  0  0  0  0  0  0
   -7.6174   -6.8064    6.0239 N   0  0  0  0  0  0  0  0  0  0  0  0
   -4.1580   -8.0992    6.4881 C   0  0  0  0  0  0  0  0  0  0  0  0
   -3.1126   -7.0631    6.6830 C   0  0  0  0  0  0  0  0  0  0  0  0
   -2.6457   -7.0376    8.1308 C   0  0  0  0  0  0  0  0  0  0  0  0
   -1.7764   -8.2795    8.1541 C   0  0  0  0  0  0  0  0  0  0  0  0
   -1.2878   -8.3490    6.7488 C   0  0  0  0  0  0  0  0  0  0  0  0
   -1.9739   -7.4608    5.9595 O   0  0  0  0  0  0  0  0  0  0  0  0
   -3.4578   -5.7053    6.2136 C   0  0  0  0  0  0  0  0  0  0  0  0
   -3.3494   -5.3817    4.9792 O   0  0  0  0  0  0  0  0  0  0  0  0
   -3.9137   -4.6835    7.0302 O   0  0  0  0  0  0  0  0  0  0  0  0
   -4.6902   -4.1314    6.6938 H   0  0  0  0  0  0  0  0  0  0  0  0
  -10.1381   -6.5219    8.7202 C   0  0  0  0  0  0  0  0  0  0  0  0
  -11.0853   -7.6974    8.9124 C   0  0  0  0  0  0  0  0  0  0  0  0
  -13.2820   -5.8420   10.2143 C   0  0  0  0  0  0  0  0  0  0  0  0
  -13.3439   -6.4947    8.8803 C   0  0  0  0  0  0  0  0  0  0  0  0
  -14.3192   -6.4136    8.0210 O   0  0  0  0  0  0  0  0  0  0  0  0
  -14.0652   -7.1029    6.9446 C   0  0  0  0  0  0  0  0  0  0  0  0
  -12.8568   -7.6613    7.1171 N   0  0  0  0  0  0  0  0  0  0  0  0
  -12.3669   -7.3071    8.3175 C   0  0  0  0  0  0  0  0  0  0  0  0
  -14.9161   -7.2494    5.7732 C   0  0  0  0  0  0  0  0  0  0  0  0
  -14.7464   -8.2303    4.8209 C   0  0  0  0  0  0  0  0  0  0  0  0
  -15.5731   -8.3437    3.7217 C   0  0  0  0  0  0  0  0  0  0  0  0
  -16.6184   -7.4649    3.5304 C   0  0  0  0  0  0  0  0  0  0  0  0
  -16.8195   -6.4648    4.4686 C   0  0  0  0  0  0  0  0  0  0  0  0
  -18.1412   -5.3165    4.2707 Cl  0  0  0  0  0  0  0  0  0  0  0  0
  -15.9823   -6.3700    5.5581 C   0  0  0  0  0  0  0  0  0  0  0  0
 20 21  1  0  0  0
 21 22  1  0  0  0
 22 23  1  0  0  0
 23 26  1  0  0  0
 26 27  2  0  0  0
 27 28  1  0  0  0
 28 29  2  0  0  0
 29 30  1  0  0  0
 30 31  1  0  0  0
 30 32  2  0  0  0
 23 24  2  0  0  0
 24 25  1  0  0  0
 25 19  1  0  0  0
 19 18  1  0  0  0
 18  1  1  0  0  0
  1  2  1  0  0  0
  2  3  2  0  0  0
  3  4  1  0  0  0
  4  5  2  0  0  0
  5  8  1  0  0  0
  8  9  1  0  0  0
  9 14  1  0  0  0
 14 15  2  0  0  0
 14 16  1  0  0  0
  9 10  1  0  0  0
 10 11  1  0  0  0
 11 12  1  0  0  0
 12 13  1  0  0  0
  5  6  1  0  0  0
  6  7  2  0  0  0
 25 21  2  0  0  0
  7  2  1  0  0  0
 32 26  1  0  0  0
 13  9  1  0  0  0
 16 17  1  0  0  0
M  END
> <minimizedAffinity>
-8.66016

> <CNNscore>
0.5342850089

> <CNNaffinity>
6.8145551682

> <CNN_VS>
3.6409146786

> <CNNaffinity_variance>
0.4439296722

$$$$
[H]OC(=O)C1(C([H])([H])c2c([H])nc(OC([H])([H])C([H])([H])c3nc(-c4c([H])c([H])c([H])c(Cl)c4[H])oc3C([H])([H])[H])c([H])c2[H])OC([H])([H])C([H])([H])C1([H])[H]


 32 35  0  0  0  0  0  0  0  0999 V2000
  -11.7661   -9.4741    7.3035 O   0  0  0  0  0  0  0  0  0  0  0  0
  -10.4531   -9.0773    7.4882 C   0  0  0  0  0  0  0  0  0  0  0  0
  -10.1778   -7.7237    7.7435 C   0  0  0  0  0  0  0  0  0  0  0  0
   -8.8764   -7.2992    7.9319 C   0  0  0  0  0  0  0  0  0  0  0  0
   -7.8118   -8.1754    7.8774 C   0  0  0  0  0  0  0  0  0  0  0  0
   -8.1330   -9.4817    7.6255 C   0  0  0  0  0  0  0  0  0  0  0  0
   -9.3976   -9.8857    7.4439 N   0  0  0  0  0  0  0  0  0  0  0  0
   -6.4357   -7.7232    8.0807 C   0  0  0  0  0  0  0  0  0  0  0  0
   -5.6915   -7.2344    6.8927 C   0  0  0  0  0  0  0  0  0  0  0  0
   -5.0088   -5.9088    7.1951 C   0  0  0  0  0  0  0  0  0  0  0  0
   -3.8459   -6.3925    8.0390 C   0  0  0  0  0  0  0  0  0  0  0  0
   -3.6039   -7.7561    7.4907 C   0  0  0  0  0  0  0  0  0  0  0  0
   -4.6285   -8.1245    6.6559 O   0  0  0  0  0  0  0  0  0  0  0  0
   -6.4651   -7.1574    5.6363 C   0  0  0  0  0  0  0  0  0  0  0  0
   -6.6163   -8.1838    4.8853 O   0  0  0  0  0  0  0  0  0  0  0  0
   -7.0796   -6.0108    5.1604 O   0  0  0  0  0  0  0  0  0  0  0  0
   -8.0177   -6.1032    4.7969 H   0  0  0  0  0  0  0  0  0  0  0  0
  -12.5666  -10.1709    8.2083 C   0  0  0  0  0  0  0  0  0  0  0  0
  -13.0630   -9.2094    9.2783 C   0  0  0  0  0  0  0  0  0  0  0  0
  -12.7414   -6.1964   10.1623 C   0  0  0  0  0  0  0  0  0  0  0  0
  -13.4504   -6.7003    8.9569 C   0  0  0  0  0  0  0  0  0  0  0  0
  -14.0633   -5.9820    8.0599 O   0  0  0  0  0  0  0  0  0  0  0  0
  -14.5843   -6.7273    7.1265 C   0  0  0  0  0  0  0  0  0  0  0  0
  -14.2916   -8.0000    7.4369 N   0  0  0  0  0  0  0  0  0  0  0  0
  -13.5814   -8.0308    8.5776 C   0  0  0  0  0  0  0  0  0  0  0  0
  -15.3403   -6.2820    5.9654 C   0  0  0  0  0  0  0  0  0  0  0  0
  -15.0237   -5.1617    5.2288 C   0  0  0  0  0  0  0  0  0  0  0  0
  -15.7602   -4.7674    4.1304 C   0  0  0  0  0  0  0  0  0  0  0  0
  -16.8602   -5.4911    3.7208 C   0  0  0  0  0  0  0  0  0  0  0  0
  -17.2087   -6.6246    4.4383 C   0  0  0  0  0  0  0  0  0  0  0  0
  -18.6053   -7.5844    3.9561 Cl  0  0  0  0  0  0  0  0  0  0  0  0
  -16.4594   -6.9999    5.5313 C   0  0  0  0  0  0  0  0  0  0  0  0
 20 21  1  0  0  0
 21 22  1  0  0  0
 22 23  1  0  0  0
 23 26  1  0  0  0
 26 27  2  0  0  0
 27 28  1  0  0  0
 28 29  2  0  0  0
 29 30  1  0  0  0
 30 31  1  0  0  0
 30 32  2  0  0  0
 23 24  2  0  0  0
 24 25  1  0  0  0
 25 19  1  0  0  0
 19 18  1  0  0  0
 18  1  1  0  0  0
  1  2  1  0  0  0
  2  3  2  0  0  0
  3  4  1  0  0  0
  4  5  2  0  0  0
  5  8  1  0  0  0
  8  9  1  0  0  0
  9 14  1  0  0  0
 14 15  2  0  0  0
 14 16  1  0  0  0
  9 10  1  0  0  0
 10 11  1  0  0  0
 11 12  1  0  0  0
 12 13  1  0  0  0
  5  6  1  0  0  0
  6  7  2  0  0  0
 25 21  2  0  0  0
  7  2  1  0  0  0
 32 26  1  0  0  0
 13  9  1  0  0  0
 16 17  1  0  0  0
M  END
> <minimizedAffinity>
-9.42511

> <CNNscore>
0.5261268020

> <CNNaffinity>
6.9563055038

> <CNN_VS>
3.6598987579

> <CNNaffinity_variance>
0.2738648951

$$$$
[H]OC(=O)C1(C([H])([H])c2c([H])nc(OC([H])([H])C([H])([H])c3nc(-c4c([H])c([H])c([H])c(Cl)c4[H])oc3C([H])([H])[H])c([H])c2[H])OC([H])([H])C([H])([H])C1([H])[H]


 32 35  0  0  0  0  0  0  0  0999 V2000
   -8.9760   -8.6544    8.1180 O   0  0  0  0  0  0  0  0  0  0  0  0
   -7.6727   -8.2854    7.8341 C   0  0  0  0  0  0  0  0  0  0  0  0
   -7.1391   -8.5802    6.5686 C   0  0  0  0  0  0  0  0  0  0  0  0
   -5.8409   -8.2235    6.2576 C   0  0  0  0  0  0  0  0  0  0  0  0
   -5.0295   -7.5732    7.1648 C   0  0  0  0  0  0  0  0  0  0  0  0
   -5.5959   -7.3098    8.3825 C   0  0  0  0  0  0  0  0  0  0  0  0
   -6.8557   -7.6588    8.6765 N   0  0  0  0  0  0  0  0  0  0  0  0
   -3.6568   -7.1940    6.8311 C   0  0  0  0  0  0  0  0  0  0  0  0
   -3.2589   -5.7828    7.0641 C   0  0  0  0  0  0  0  0  0  0  0  0
   -2.0579   -5.4151    6.2055 C   0  0  0  0  0  0  0  0  0  0  0  0
   -2.7294   -5.2673    4.8543 C   0  0  0  0  0  0  0  0  0  0  0  0
   -4.1013   -4.8258    5.2304 C   0  0  0  0  0  0  0  0  0  0  0  0
   -4.2930   -4.9601    6.5823 O   0  0  0  0  0  0  0  0  0  0  0  0
   -3.0385   -5.4014    8.4744 C   0  0  0  0  0  0  0  0  0  0  0  0
   -3.6322   -4.3901    8.9895 O   0  0  0  0  0  0  0  0  0  0  0  0
   -2.1982   -6.0717    9.3480 O   0  0  0  0  0  0  0  0  0  0  0  0
   -2.5419   -6.2453   10.2820 H   0  0  0  0  0  0  0  0  0  0  0  0
  -10.1400   -8.0838    7.6036 C   0  0  0  0  0  0  0  0  0  0  0  0
  -10.8863   -7.3763    8.7253 C   0  0  0  0  0  0  0  0  0  0  0  0
  -13.1968   -5.8646   10.2550 C   0  0  0  0  0  0  0  0  0  0  0  0
  -13.2766   -6.4798    8.9042 C   0  0  0  0  0  0  0  0  0  0  0  0
  -14.3174   -6.5019    8.1216 O   0  0  0  0  0  0  0  0  0  0  0  0
  -14.0603   -7.1196    7.0033 C   0  0  0  0  0  0  0  0  0  0  0  0
  -12.7805   -7.5195    7.0657 N   0  0  0  0  0  0  0  0  0  0  0  0
  -12.2494   -7.1400    8.2405 C   0  0  0  0  0  0  0  0  0  0  0  0
  -14.9729   -7.3416    5.8917 C   0  0  0  0  0  0  0  0  0  0  0  0
  -14.9112   -8.4356    5.0567 C   0  0  0  0  0  0  0  0  0  0  0  0
  -15.7941   -8.6181    4.0118 C   0  0  0  0  0  0  0  0  0  0  0  0
  -16.7887   -7.6972    3.7584 C   0  0  0  0  0  0  0  0  0  0  0  0
  -16.8812   -6.5836    4.5784 C   0  0  0  0  0  0  0  0  0  0  0  0
  -18.1343   -5.3774    4.2973 Cl  0  0  0  0  0  0  0  0  0  0  0  0
  -15.9895   -6.4214    5.6154 C   0  0  0  0  0  0  0  0  0  0  0  0
 20 21  1  0  0  0
 21 22  1  0  0  0
 22 23  1  0  0  0
 23 26  1  0  0  0
 26 27  2  0  0  0
 27 28  1  0  0  0
 28 29  2  0  0  0
 29 30  1  0  0  0
 30 31  1  0  0  0
 30 32  2  0  0  0
 23 24  2  0  0  0
 24 25  1  0  0  0
 25 19  1  0  0  0
 19 18  1  0  0  0
 18  1  1  0  0  0
  1  2  1  0  0  0
  2  3  2  0  0  0
  3  4  1  0  0  0
  4  5  2  0  0  0
  5  8  1  0  0  0
  8  9  1  0  0  0
  9 14  1  0  0  0
 14 15  2  0  0  0
 14 16  1  0  0  0
  9 10  1  0  0  0
 10 11  1  0  0  0
 11 12  1  0  0  0
 12 13  1  0  0  0
  5  6  1  0  0  0
  6  7  2  0  0  0
 25 21  2  0  0  0
  7  2  1  0  0  0
 32 26  1  0  0  0
 13  9  1  0  0  0
 16 17  1  0  0  0
M  END
> <minimizedAffinity>
-8.69653

> <CNNscore>
0.4838719964

> <CNNaffinity>
6.6762647629

> <CNN_VS>
3.2304575443

> <CNNaffinity_variance>
0.2952881753

$$$$
[H]OC(=O)C1(C([H])([H])c2c([H])nc(OC([H])([H])C([H])([H])c3nc(-c4c([H])c([H])c([H])c(Cl)c4[H])oc3C([H])([H])[H])c([H])c2[H])OC([H])([H])C([H])([H])C1([H])[H]


 32 35  0  0  0  0  0  0  0  0999 V2000
   -9.1021   -8.6057    7.4411 O   0  0  0  0  0  0  0  0  0  0  0  0
   -7.7621   -8.2609    7.4770 C   0  0  0  0  0  0  0  0  0  0  0  0
   -6.9484   -8.5650    6.3731 C   0  0  0  0  0  0  0  0  0  0  0  0
   -5.6072   -8.2325    6.3814 C   0  0  0  0  0  0  0  0  0  0  0  0
   -5.0232   -7.5980    7.4587 C   0  0  0  0  0  0  0  0  0  0  0  0
   -5.8580   -7.3247    8.5082 C   0  0  0  0  0  0  0  0  0  0  0  0
   -7.1577   -7.6503    8.4926 N   0  0  0  0  0  0  0  0  0  0  0  0
   -3.6039   -7.2445    7.4628 C   0  0  0  0  0  0  0  0  0  0  0  0
   -3.2523   -5.8148    7.2706 C   0  0  0  0  0  0  0  0  0  0  0  0
   -3.8098   -4.9680    8.4050 C   0  0  0  0  0  0  0  0  0  0  0  0
   -2.8323   -5.3213    9.5087 C   0  0  0  0  0  0  0  0  0  0  0  0
   -1.5873   -5.6147    8.7455 C   0  0  0  0  0  0  0  0  0  0  0  0
   -1.8572   -5.6943    7.4027 O   0  0  0  0  0  0  0  0  0  0  0  0
   -3.6032   -5.2375    5.9566 C   0  0  0  0  0  0  0  0  0  0  0  0
   -3.1366   -5.7282    4.8695 O   0  0  0  0  0  0  0  0  0  0  0  0
   -4.4383   -4.1475    5.7745 O   0  0  0  0  0  0  0  0  0  0  0  0
   -5.1266   -4.2076    5.0374 H   0  0  0  0  0  0  0  0  0  0  0  0
  -10.1862   -7.7922    7.7697 C   0  0  0  0  0  0  0  0  0  0  0  0
  -11.4239   -8.6593    7.9489 C   0  0  0  0  0  0  0  0  0  0  0  0
  -12.9303   -6.9162   10.1066 C   0  0  0  0  0  0  0  0  0  0  0  0
  -13.2573   -7.0218    8.6604 C   0  0  0  0  0  0  0  0  0  0  0  0
  -14.2256   -6.4133    8.0372 O   0  0  0  0  0  0  0  0  0  0  0  0
  -14.2431   -6.7181    6.7703 C   0  0  0  0  0  0  0  0  0  0  0  0
  -13.2286   -7.5720    6.5619 N   0  0  0  0  0  0  0  0  0  0  0  0
  -12.5828   -7.7912    7.7201 C   0  0  0  0  0  0  0  0  0  0  0  0
  -15.1756   -6.2351    5.7627 C   0  0  0  0  0  0  0  0  0  0  0  0
  -15.0326   -5.0368    5.0983 C   0  0  0  0  0  0  0  0  0  0  0  0
  -15.9342   -4.6083    4.1454 C   0  0  0  0  0  0  0  0  0  0  0  0
  -17.0316   -5.3754    3.8158 C   0  0  0  0  0  0  0  0  0  0  0  0
  -17.2079   -6.5877    4.4642 C   0  0  0  0  0  0  0  0  0  0  0  0
  -18.5936   -7.6056    4.0794 Cl  0  0  0  0  0  0  0  0  0  0  0  0
  -16.2957   -6.9959    5.4120 C   0  0  0  0  0  0  0  0  0  0  0  0
 20 21  1  0  0  0
 21 22  1  0  0  0
 22 23  1  0  0  0
 23 26  1  0  0  0
 26 27  2  0  0  0
 27 28  1  0  0  0
 28 29  2  0  0  0
 29 30  1  0  0  0
 30 31  1  0  0  0
 30 32  2  0  0  0
 23 24  2  0  0  0
 24 25  1  0  0  0
 25 19  1  0  0  0
 19 18  1  0  0  0
 18  1  1  0  0  0
  1  2  1  0  0  0
  2  3  2  0  0  0
  3  4  1  0  0  0
  4  5  2  0  0  0
  5  8  1  0  0  0
  8  9  1  0  0  0
  9 14  1  0  0  0
 14 15  2  0  0  0
 14 16  1  0  0  0
  9 10  1  0  0  0
 10 11  1  0  0  0
 11 12  1  0  0  0
 12 13  1  0  0  0
  5  6  1  0  0  0
  6  7  2  0  0  0
 25 21  2  0  0  0
  7  2  1  0  0  0
 32 26  1  0  0  0
 13  9  1  0  0  0
 16 17  1  0  0  0
M  END
> <minimizedAffinity>
-8.85474

> <CNNscore>
0.4141054153

> <CNNaffinity>
6.5484848022

> <CNN_VS>
2.7117629051

> <CNNaffinity_variance>
0.3880251050

$$$$
[H]OC(=O)C1(C([H])([H])c2c([H])nc(OC([H])([H])C([H])([H])c3nc(-c4c([H])c([H])c([H])c(Cl)c4[H])oc3C([H])([H])[H])c([H])c2[H])OC([H])([H])C([H])([H])C1([H])[H]


 32 35  0  0  0  0  0  0  0  0999 V2000
  -14.7496   -6.6191    4.7834 O   0  0  0  0  0  0  0  0  0  0  0  0
  -13.7655   -6.6490    5.7562 C   0  0  0  0  0  0  0  0  0  0  0  0
  -12.4182   -6.7098    5.3635 C   0  0  0  0  0  0  0  0  0  0  0  0
  -11.4148   -6.7408    6.3130 C   0  0  0  0  0  0  0  0  0  0  0  0
  -11.6928   -6.7136    7.6643 C   0  0  0  0  0  0  0  0  0  0  0  0
  -13.0197   -6.6551    7.9943 C   0  0  0  0  0  0  0  0  0  0  0  0
  -13.9871   -6.6252    7.0677 N   0  0  0  0  0  0  0  0  0  0  0  0
  -10.6280   -6.7431    8.6667 C   0  0  0  0  0  0  0  0  0  0  0  0
   -9.2578   -7.0772    8.2026 C   0  0  0  0  0  0  0  0  0  0  0  0
   -8.4348   -7.6653    9.3390 C   0  0  0  0  0  0  0  0  0  0  0  0
   -9.0255   -9.0600    9.4039 C   0  0  0  0  0  0  0  0  0  0  0  0
   -9.4401   -9.2931    7.9924 C   0  0  0  0  0  0  0  0  0  0  0  0
   -9.3636   -8.1274    7.2730 O   0  0  0  0  0  0  0  0  0  0  0  0
   -8.5245   -5.9873    7.5262 C   0  0  0  0  0  0  0  0  0  0  0  0
   -7.5624   -6.2356    6.7181 O   0  0  0  0  0  0  0  0  0  0  0  0
   -8.7915   -4.6384    7.6931 O   0  0  0  0  0  0  0  0  0  0  0  0
   -8.8100   -4.0624    6.8632 H   0  0  0  0  0  0  0  0  0  0  0  0
  -14.9357   -5.6390    3.8088 C   0  0  0  0  0  0  0  0  0  0  0  0
  -16.0804   -4.7286    4.2292 C   0  0  0  0  0  0  0  0  0  0  0  0
  -16.5995   -4.0812    7.2746 C   0  0  0  0  0  0  0  0  0  0  0  0
  -17.1455   -5.2277    6.5020 C   0  0  0  0  0  0  0  0  0  0  0  0
  -17.9307   -6.1639    6.9528 O   0  0  0  0  0  0  0  0  0  0  0  0
  -18.2306   -7.0245    6.0212 C   0  0  0  0  0  0  0  0  0  0  0  0
  -17.6040   -6.6222    4.9044 N   0  0  0  0  0  0  0  0  0  0  0  0
  -16.9113   -5.4990    5.1593 C   0  0  0  0  0  0  0  0  0  0  0  0
  -19.0789   -8.1998    6.1503 C   0  0  0  0  0  0  0  0  0  0  0  0
  -19.9865   -8.5983    5.1935 C   0  0  0  0  0  0  0  0  0  0  0  0
  -20.7752   -9.7205    5.3454 C   0  0  0  0  0  0  0  0  0  0  0  0
  -20.6844  -10.4995    6.4796 C   0  0  0  0  0  0  0  0  0  0  0  0
  -19.7816  -10.1289    7.4638 C   0  0  0  0  0  0  0  0  0  0  0  0
  -19.6267  -11.0905    8.9321 Cl  0  0  0  0  0  0  0  0  0  0  0  0
  -19.0043   -9.0051    7.2915 C   0  0  0  0  0  0  0  0  0  0  0  0
 20 21  1  0  0  0
 21 22  1  0  0  0
 22 23  1  0  0  0
 23 26  1  0  0  0
 26 27  2  0  0  0
 27 28  1  0  0  0
 28 29  2  0  0  0
 29 30  1  0  0  0
 30 31  1  0  0  0
 30 32  2  0  0  0
 23 24  2  0  0  0
 24 25  1  0  0  0
 25 19  1  0  0  0
 19 18  1  0  0  0
 18  1  1  0  0  0
  1  2  1  0  0  0
  2  3  2  0  0  0
  3  4  1  0  0  0
  4  5  2  0  0  0
  5  8  1  0  0  0
  8  9  1  0  0  0
  9 14  1  0  0  0
 14 15  2  0  0  0
 14 16  1  0  0  0
  9 10  1  0  0  0
 10 11  1  0  0  0
 11 12  1  0  0  0
 12 13  1  0  0  0
  5  6  1  0  0  0
  6  7  2  0  0  0
 25 21  2  0  0  0
  7  2  1  0  0  0
 32 26  1  0  0  0
 13  9  1  0  0  0
 16 17  1  0  0  0
M  END
> <minimizedAffinity>
24.55998

> <CNNscore>
0.3934890330

> <CNNaffinity>
6.3197073936

> <CNN_VS>
2.4867355824

> <CNNaffinity_variance>
2.1228656769

$$$$
[H]OC(=O)C1(C([H])([H])c2c([H])nc(OC([H])([H])C([H])([H])c3nc(-c4c([H])c([H])c([H])c(Cl)c4[H])oc3C([H])([H])[H])c([H])c2[H])OC([H])([H])C([H])([H])C1([H])[H]


 32 35  0  0  0  0  0  0  0  0999 V2000
  -10.9994   -6.0309   10.3967 O   0  0  0  0  0  0  0  0  0  0  0  0
   -9.8612   -6.5187    9.7786 C   0  0  0  0  0  0  0  0  0  0  0  0
   -9.9751   -7.6065    8.8973 C   0  0  0  0  0  0  0  0  0  0  0  0
   -8.8556   -8.1142    8.2661 C   0  0  0  0  0  0  0  0  0  0  0  0
   -7.6002   -7.5804    8.4739 C   0  0  0  0  0  0  0  0  0  0  0  0
   -7.5429   -6.5233    9.3413 C   0  0  0  0  0  0  0  0  0  0  0  0
   -8.6332   -6.0365    9.9494 N   0  0  0  0  0  0  0  0  0  0  0  0
   -6.4178   -8.1181    7.8016 C   0  0  0  0  0  0  0  0  0  0  0  0
   -6.1956   -7.7269    6.3866 C   0  0  0  0  0  0  0  0  0  0  0  0
   -6.8977   -6.4133    6.0765 C   0  0  0  0  0  0  0  0  0  0  0  0
   -5.9567   -5.4391    6.7576 C   0  0  0  0  0  0  0  0  0  0  0  0
   -4.6467   -6.1402    6.6529 C   0  0  0  0  0  0  0  0  0  0  0  0
   -4.8288   -7.4333    6.2320 O   0  0  0  0  0  0  0  0  0  0  0  0
   -6.5234   -8.7542    5.3765 C   0  0  0  0  0  0  0  0  0  0  0  0
   -7.6383   -9.3839    5.4071 O   0  0  0  0  0  0  0  0  0  0  0  0
   -5.6892   -9.1276    4.3357 O   0  0  0  0  0  0  0  0  0  0  0  0
   -6.1074   -9.2409    3.4230 H   0  0  0  0  0  0  0  0  0  0  0  0
  -12.1011   -6.7692   10.8281 C   0  0  0  0  0  0  0  0  0  0  0  0
  -12.3597   -7.9004    9.8436 C   0  0  0  0  0  0  0  0  0  0  0  0
  -13.8857   -5.1391    9.9409 C   0  0  0  0  0  0  0  0  0  0  0  0
  -13.9774   -6.1705    8.8744 C   0  0  0  0  0  0  0  0  0  0  0  0
  -14.7073   -6.1106    7.7975 O   0  0  0  0  0  0  0  0  0  0  0  0
  -14.5632   -7.1778    7.0637 C   0  0  0  0  0  0  0  0  0  0  0  0
  -13.6903   -7.9732    7.7018 N   0  0  0  0  0  0  0  0  0  0  0  0
  -13.2965   -7.3815    8.8426 C   0  0  0  0  0  0  0  0  0  0  0  0
  -15.2152   -7.4671    5.7952 C   0  0  0  0  0  0  0  0  0  0  0  0
  -14.5929   -7.3561    4.5711 C   0  0  0  0  0  0  0  0  0  0  0  0
  -15.2392   -7.6406    3.3854 C   0  0  0  0  0  0  0  0  0  0  0  0
  -16.5548   -8.0537    3.3794 C   0  0  0  0  0  0  0  0  0  0  0  0
  -17.2131   -8.1769    4.5929 C   0  0  0  0  0  0  0  0  0  0  0  0
  -18.8945   -8.7013    4.6400 Cl  0  0  0  0  0  0  0  0  0  0  0  0
  -16.5489   -7.8876    5.7643 C   0  0  0  0  0  0  0  0  0  0  0  0
 20 21  1  0  0  0
 21 22  1  0  0  0
 22 23  1  0  0  0
 23 26  1  0  0  0
 26 27  2  0  0  0
 27 28  1  0  0  0
 28 29  2  0  0  0
 29 30  1  0  0  0
 30 31  1  0  0  0
 30 32  2  0  0  0
 23 24  2  0  0  0
 24 25  1  0  0  0
 25 19  1  0  0  0
 19 18  1  0  0  0
 18  1  1  0  0  0
  1  2  1  0  0  0
  2  3  2  0  0  0
  3  4  1  0  0  0
  4  5  2  0  0  0
  5  8  1  0  0  0
  8  9  1  0  0  0
  9 14  1  0  0  0
 14 15  2  0  0  0
 14 16  1  0  0  0
  9 10  1  0  0  0
 10 11  1  0  0  0
 11 12  1  0  0  0
 12 13  1  0  0  0
  5  6  1  0  0  0
  6  7  2  0  0  0
 25 21  2  0  0  0
  7  2  1  0  0  0
 32 26  1  0  0  0
 13  9  1  0  0  0
 16 17  1  0  0  0
M  END
> <minimizedAffinity>
2.50806

> <CNNscore>
0.3769471943

> <CNNaffinity>
6.5170288086

> <CNN_VS>
2.4565756321

> <CNNaffinity_variance>
0.7888528109

$$$$
[H]OC(=O)C1(C([H])([H])c2c([H])nc(OC([H])([H])C([H])([H])c3nc(-c4c([H])c([H])c([H])c(Cl)c4[H])oc3C([H])([H])[H])c([H])c2[H])OC([H])([H])C([H])([H])C1([H])[H]


 32 35  0  0  0  0  0  0  0  0999 V2000
  -11.1101   -6.1085   10.2572 O   0  0  0  0  0  0  0  0  0  0  0  0
  -10.2253   -6.0911    9.1931 C   0  0  0  0  0  0  0  0  0  0  0  0
   -8.8472   -6.0070    9.4515 C   0  0  0  0  0  0  0  0  0  0  0  0
   -7.9410   -5.9878    8.4086 C   0  0  0  0  0  0  0  0  0  0  0  0
   -8.3482   -6.0496    7.0916 C   0  0  0  0  0  0  0  0  0  0  0  0
   -9.7000   -6.1298    6.8935 C   0  0  0  0  0  0  0  0  0  0  0  0
  -10.5726   -6.1480    7.9102 N   0  0  0  0  0  0  0  0  0  0  0  0
   -7.3860   -6.0325    5.9901 C   0  0  0  0  0  0  0  0  0  0  0  0
   -6.1127   -6.7721    6.1798 C   0  0  0  0  0  0  0  0  0  0  0  0
   -5.3708   -6.9109    4.8588 C   0  0  0  0  0  0  0  0  0  0  0  0
   -4.8249   -5.5046    4.7088 C   0  0  0  0  0  0  0  0  0  0  0  0
   -4.6587   -5.0777    6.1260 C   0  0  0  0  0  0  0  0  0  0  0  0
   -5.2660   -5.9735    6.9695 O   0  0  0  0  0  0  0  0  0  0  0  0
   -6.2227   -8.0763    6.8653 C   0  0  0  0  0  0  0  0  0  0  0  0
   -6.5176   -9.1429    6.2204 O   0  0  0  0  0  0  0  0  0  0  0  0
   -6.0280   -8.2697    8.2230 O   0  0  0  0  0  0  0  0  0  0  0  0
   -5.4784   -9.0695    8.5042 H   0  0  0  0  0  0  0  0  0  0  0  0
  -11.4092   -5.0513   11.1163 C   0  0  0  0  0  0  0  0  0  0  0  0
  -12.7806   -4.4942   10.7628 C   0  0  0  0  0  0  0  0  0  0  0  0
  -13.8698   -7.3351   11.6031 C   0  0  0  0  0  0  0  0  0  0  0  0
  -13.9034   -6.7345   10.2438 C   0  0  0  0  0  0  0  0  0  0  0  0
  -14.3869   -7.2815    9.1653 O   0  0  0  0  0  0  0  0  0  0  0  0
  -14.2642   -6.4935    8.1347 C   0  0  0  0  0  0  0  0  0  0  0  0
  -13.6677   -5.3730    8.5711 N   0  0  0  0  0  0  0  0  0  0  0  0
  -13.4228   -5.4799    9.8883 C   0  0  0  0  0  0  0  0  0  0  0  0
  -14.6866   -6.7613    6.7680 C   0  0  0  0  0  0  0  0  0  0  0  0
  -14.6679   -5.8201    5.7621 C   0  0  0  0  0  0  0  0  0  0  0  0
  -15.0733   -6.1070    4.4745 C   0  0  0  0  0  0  0  0  0  0  0  0
  -15.5205   -7.3676    4.1390 C   0  0  0  0  0  0  0  0  0  0  0  0
  -15.5530   -8.3403    5.1259 C   0  0  0  0  0  0  0  0  0  0  0  0
  -16.1157   -9.9668    4.7490 Cl  0  0  0  0  0  0  0  0  0  0  0  0
  -15.1438   -8.0321    6.4043 C   0  0  0  0  0  0  0  0  0  0  0  0
 20 21  1  0  0  0
 21 22  1  0  0  0
 22 23  1  0  0  0
 23 26  1  0  0  0
 26 27  2  0  0  0
 27 28  1  0  0  0
 28 29  2  0  0  0
 29 30  1  0  0  0
 30 31  1  0  0  0
 30 32  2  0  0  0
 23 24  2  0  0  0
 24 25  1  0  0  0
 25 19  1  0  0  0
 19 18  1  0  0  0
 18  1  1  0  0  0
  1  2  1  0  0  0
  2  3  2  0  0  0
  3  4  1  0  0  0
  4  5  2  0  0  0
  5  8  1  0  0  0
  8  9  1  0  0  0
  9 14  1  0  0  0
 14 15  2  0  0  0
 14 16  1  0  0  0
  9 10  1  0  0  0
 10 11  1  0  0  0
 11 12  1  0  0  0
 12 13  1  0  0  0
  5  6  1  0  0  0
  6  7  2  0  0  0
 25 21  2  0  0  0
  7  2  1  0  0  0
 32 26  1  0  0  0
 13  9  1  0  0  0
 16 17  1  0  0  0
M  END
> <minimizedAffinity>
5.33002

> <CNNscore>
0.3601731658

> <CNNaffinity>
6.5070648193

> <CNN_VS>
2.3436701298

> <CNNaffinity_variance>
1.8986591101

$$$$
[H]OC(=O)C([H])([H])c1c([H])c([H])c(Oc2c([H])c([H])c(C(=O)N([H])C([H])(C([H])([H])[H])C([H])([H])[H])c([H])c2N([H])S(=O)(=O)c2c([H])c([H])c(Cl)c([H])c2Cl)c(OC([H])([H])[H])c1[H]


 40 42  0  0  0  0  0  0  0  0999 V2000
   -5.0891   -5.6946    6.1712 C   0  0  0  0  0  0  0  0  0  0  0  0
   -5.9506   -6.2879    5.2891 C   0  0  0  0  0  0  0  0  0  0  0  0
   -7.2065   -6.7132    5.6759 C   0  0  0  0  0  0  0  0  0  0  0  0
   -7.6114   -6.5421    6.9752 C   0  0  0  0  0  0  0  0  0  0  0  0
   -6.7345   -5.9435    7.8554 C   0  0  0  0  0  0  0  0  0  0  0  0
   -5.4807   -5.5076    7.5116 C   0  0  0  0  0  0  0  0  0  0  0  0
   -8.9399   -6.9757    7.4255 C   0  0  0  0  0  0  0  0  0  0  0  0
   -9.2440   -8.1935    7.2327 O   0  0  0  0  0  0  0  0  0  0  0  0
   -9.8319   -6.0894    8.0399 N   0  0  0  0  0  0  0  0  0  0  0  0
   -9.6069   -5.1031    8.2085 H   0  0  0  0  0  0  0  0  0  0  0  0
  -11.1359   -6.5743    8.4654 C   0  0  0  0  0  0  0  0  0  0  0  0
  -11.6925   -7.3762    7.3017 C   0  0  0  0  0  0  0  0  0  0  0  0
  -11.0056   -7.4026    9.7074 C   0  0  0  0  0  0  0  0  0  0  0  0
   -4.5588   -4.9010    8.4073 N   0  0  0  0  0  0  0  0  0  0  0  0
   -4.6813   -3.8791    8.6503 H   0  0  0  0  0  0  0  0  0  0  0  0
   -3.2800   -5.8313    9.0662 S   0  0  0  0  0  0  0  0  0  0  0  0
   -2.1368   -4.9552    9.5662 O   0  0  0  0  0  0  0  0  0  0  0  0
   -3.8384   -6.6053   10.2669 O   0  0  0  0  0  0  0  0  0  0  0  0
   -2.7053   -6.9856    7.8890 C   0  0  0  0  0  0  0  0  0  0  0  0
   -1.4927   -6.8125    7.2862 C   0  0  0  0  0  0  0  0  0  0  0  0
   -1.1121   -7.7687    6.3345 C   0  0  0  0  0  0  0  0  0  0  0  0
   -1.9030   -8.8376    6.0057 C   0  0  0  0  0  0  0  0  0  0  0  0
   -1.4075  -10.0141    4.8189 Cl  0  0  0  0  0  0  0  0  0  0  0  0
   -3.1125   -8.9618    6.6427 C   0  0  0  0  0  0  0  0  0  0  0  0
   -3.5371   -8.0635    7.5775 C   0  0  0  0  0  0  0  0  0  0  0  0
   -5.0948   -8.2204    8.4003 Cl  0  0  0  0  0  0  0  0  0  0  0  0
   -3.8343   -5.2667    5.7850 O   0  0  0  0  0  0  0  0  0  0  0  0
   -3.8184   -3.2286    4.4721 C   0  0  0  0  0  0  0  0  0  0  0  0
   -3.4612   -2.6011    3.2890 C   0  0  0  0  0  0  0  0  0  0  0  0
   -2.8088   -3.2518    2.2544 C   0  0  0  0  0  0  0  0  0  0  0  0
   -2.5109   -4.5872    2.4324 C   0  0  0  0  0  0  0  0  0  0  0  0
   -2.8574   -5.2311    3.6007 C   0  0  0  0  0  0  0  0  0  0  0  0
   -3.5188   -4.5650    4.6448 C   0  0  0  0  0  0  0  0  0  0  0  0
   -4.6295   -1.1145    5.3484 C   0  0  0  0  0  0  0  0  0  0  0  0
   -4.4727   -2.5198    5.4828 O   0  0  0  0  0  0  0  0  0  0  0  0
   -2.4309   -2.5652    0.9890 C   0  0  0  0  0  0  0  0  0  0  0  0
   -3.3116   -1.3906    0.7699 C   0  0  0  0  0  0  0  0  0  0  0  0
   -4.4075   -1.4275    0.1765 O   0  0  0  0  0  0  0  0  0  0  0  0
   -2.8577   -0.1628    1.2753 O   0  0  0  0  0  0  0  0  0  0  0  0
   -2.6669   -0.0871    2.2624 H   0  0  0  0  0  0  0  0  0  0  0  0
 34 35  1  0  0  0
 35 28  1  0  0  0
 28 29  2  0  0  0
 29 30  1  0  0  0
 30 36  1  0  0  0
 36 37  1  0  0  0
 37 38  2  0  0  0
 37 39  1  0  0  0
 30 31  2  0  0  0
 31 32  1  0  0  0
 32 33  2  0  0  0
 33 27  1  0  0  0
 27  1  1  0  0  0
  1  2  2  0  0  0
  2  3  1  0  0  0
  3  4  2  0  0  0
  4  7  1  0  0  0
  7  8  2  0  0  0
  7  9  1  0  0  0
  9 11  1  0  0  0
 11 12  1  0  0  0
 11 13  1  0  0  0
  4  5  1  0  0  0
  5  6  2  0  0  0
  6 14  1  0  0  0
 14 16  1  0  0  0
 16 17  2  0  0  0
 16 18  2  0  0  0
 16 19  1  0  0  0
 19 20  2  0  0  0
 20 21  1  0  0  0
 21 22  2  0  0  0
 22 23  1  0  0  0
 22 24  1  0  0  0
 24 25  2  0  0  0
 25 26  1  0  0  0
 33 28  1  0  0  0
  6  1  1  0  0  0
 25 19  1  0  0  0
 39 40  1  0  0  0
  9 10  1  0  0  0
 14 15  1  0  0  0
M  END
> <minimizedAffinity>
-0.86644

> <CNNscore>
0.3682056665

> <CNNaffinity>
6.2515587807

> <CNN_VS>
2.3018593788

> <CNNaffinity_variance>
0.6955471039

$$$$
[H]OC(=O)C([H])([H])c1c([H])c([H])c(Oc2c([H])c([H])c(C(=O)N([H])C([H])(C([H])([H])[H])C([H])([H])[H])c([H])c2N([H])S(=O)(=O)c2c([H])c([H])c(Cl)c([H])c2Cl)c(OC([H])([H])[H])c1[H]


 40 42  0  0  0  0  0  0  0  0999 V2000
  -11.0229   -7.7286    9.1038 C   0  0  0  0  0  0  0  0  0  0  0  0
   -9.9981   -6.8547    9.3458 C   0  0  0  0  0  0  0  0  0  0  0  0
   -8.8415   -6.8656    8.5909 C   0  0  0  0  0  0  0  0  0  0  0  0
   -8.7052   -7.7714    7.5700 C   0  0  0  0  0  0  0  0  0  0  0  0
   -9.7441   -8.6475    7.3357 C   0  0  0  0  0  0  0  0  0  0  0  0
  -10.9074   -8.6692    8.0612 C   0  0  0  0  0  0  0  0  0  0  0  0
   -7.4940   -7.8126    6.7410 C   0  0  0  0  0  0  0  0  0  0  0  0
   -7.4641   -8.6734    5.8080 O   0  0  0  0  0  0  0  0  0  0  0  0
   -6.4204   -6.9435    6.9667 N   0  0  0  0  0  0  0  0  0  0  0  0
   -6.4236   -6.2389    7.7119 H   0  0  0  0  0  0  0  0  0  0  0  0
   -5.2447   -7.0298    6.1141 C   0  0  0  0  0  0  0  0  0  0  0  0
   -4.8219   -5.5997    5.8258 C   0  0  0  0  0  0  0  0  0  0  0  0
   -4.1615   -7.8097    6.7951 C   0  0  0  0  0  0  0  0  0  0  0  0
  -11.9828   -9.5727    7.8433 N   0  0  0  0  0  0  0  0  0  0  0  0
  -12.3630  -10.1202    8.6643 H   0  0  0  0  0  0  0  0  0  0  0  0
  -12.6323   -9.7532    6.2683 S   0  0  0  0  0  0  0  0  0  0  0  0
  -11.5820  -10.2264    5.2696 O   0  0  0  0  0  0  0  0  0  0  0  0
  -13.7301  -10.8222    6.3374 O   0  0  0  0  0  0  0  0  0  0  0  0
  -13.3577   -8.2555    5.7399 C   0  0  0  0  0  0  0  0  0  0  0  0
  -13.0003   -7.0722    6.3194 C   0  0  0  0  0  0  0  0  0  0  0  0
  -13.6448   -5.9163    5.8573 C   0  0  0  0  0  0  0  0  0  0  0  0
  -14.5942   -5.9457    4.8704 C   0  0  0  0  0  0  0  0  0  0  0  0
  -15.3816   -4.4943    4.3122 Cl  0  0  0  0  0  0  0  0  0  0  0  0
  -14.9151   -7.1631    4.3237 C   0  0  0  0  0  0  0  0  0  0  0  0
  -14.3220   -8.3219    4.7318 C   0  0  0  0  0  0  0  0  0  0  0  0
  -14.7329   -9.8924    4.0294 Cl  0  0  0  0  0  0  0  0  0  0  0  0
  -12.1807   -7.7169    9.8562 O   0  0  0  0  0  0  0  0  0  0  0  0
  -14.1805   -6.6022    9.0586 C   0  0  0  0  0  0  0  0  0  0  0  0
  -15.4775   -6.7221    8.5847 C   0  0  0  0  0  0  0  0  0  0  0  0
  -16.1106   -7.9423    8.4135 C   0  0  0  0  0  0  0  0  0  0  0  0
  -15.3973   -9.0783    8.7364 C   0  0  0  0  0  0  0  0  0  0  0  0
  -14.1064   -8.9822    9.2098 C   0  0  0  0  0  0  0  0  0  0  0  0
  -13.4713   -7.7417    9.3810 C   0  0  0  0  0  0  0  0  0  0  0  0
  -13.1378   -4.9435   10.4926 C   0  0  0  0  0  0  0  0  0  0  0  0
  -13.5920   -5.3438    9.2078 O   0  0  0  0  0  0  0  0  0  0  0  0
  -17.5044   -8.0563    7.9034 C   0  0  0  0  0  0  0  0  0  0  0  0
  -17.5441   -7.7056    6.4616 C   0  0  0  0  0  0  0  0  0  0  0  0
  -17.5306   -6.5416    6.0149 O   0  0  0  0  0  0  0  0  0  0  0  0
  -17.6006   -8.7763    5.5565 O   0  0  0  0  0  0  0  0  0  0  0  0
  -16.8632   -9.4635    5.5738 H   0  0  0  0  0  0  0  0  0  0  0  0
 34 35  1  0  0  0
 35 28  1  0  0  0
 28 29  2  0  0  0
 29 30  1  0  0  0
 30 36  1  0  0  0
 36 37  1  0  0  0
 37 38  2  0  0  0
 37 39  1  0  0  0
 30 31  2  0  0  0
 31 32  1  0  0  0
 32 33  2  0  0  0
 33 27  1  0  0  0
 27  1  1  0  0  0
  1  2  2  0  0  0
  2  3  1  0  0  0
  3  4  2  0  0  0
  4  7  1  0  0  0
  7  8  2  0  0  0
  7  9  1  0  0  0
  9 11  1  0  0  0
 11 12  1  0  0  0
 11 13  1  0  0  0
  4  5  1  0  0  0
  5  6  2  0  0  0
  6 14  1  0  0  0
 14 16  1  0  0  0
 16 17  2  0  0  0
 16 18  2  0  0  0
 16 19  1  0  0  0
 19 20  2  0  0  0
 20 21  1  0  0  0
 21 22  2  0  0  0
 22 23  1  0  0  0
 22 24  1  0  0  0
 24 25  2  0  0  0
 25 26  1  0  0  0
 33 28  1  0  0  0
  6  1  1  0  0  0
 25 19  1  0  0  0
 39 40  1  0  0  0
  9 10  1  0  0  0
 14 15  1  0  0  0
M  END
> <minimizedAffinity>
-0.48724

> <CNNscore>
0.3171438873

> <CNNaffinity>
6.9864325523

> <CNN_VS>
2.2157044411

> <CNNaffinity_variance>
0.1744121313

$$$$
[H]OC(=O)C([H])([H])c1c([H])c([H])c(Oc2c([H])c([H])c(C(=O)N([H])C([H])(C([H])([H])[H])C([H])([H])[H])c([H])c2N([H])S(=O)(=O)c2c([H])c([H])c(Cl)c([H])c2Cl)c(OC([H])([H])[H])c1[H]


 40 42  0  0  0  0  0  0  0  0999 V2000
   -3.8676   -5.8600    7.3344 C   0  0  0  0  0  0  0  0  0  0  0  0
   -2.6895   -5.6591    8.0006 C   0  0  0  0  0  0  0  0  0  0  0  0
   -2.6556   -5.4295    9.3622 C   0  0  0  0  0  0  0  0  0  0  0  0
   -3.8269   -5.3996   10.0753 C   0  0  0  0  0  0  0  0  0  0  0  0
   -5.0081   -5.6028    9.3932 C   0  0  0  0  0  0  0  0  0  0  0  0
   -5.0846   -5.8337    8.0438 C   0  0  0  0  0  0  0  0  0  0  0  0
   -3.8340   -5.1635   11.5244 C   0  0  0  0  0  0  0  0  0  0  0  0
   -2.7211   -4.8811   12.0670 O   0  0  0  0  0  0  0  0  0  0  0  0
   -5.0121   -5.2449   12.2754 N   0  0  0  0  0  0  0  0  0  0  0  0
   -5.9221   -5.4685   11.8584 H   0  0  0  0  0  0  0  0  0  0  0  0
   -4.9596   -5.0018   13.7088 C   0  0  0  0  0  0  0  0  0  0  0  0
   -6.3688   -4.6202   14.1280 C   0  0  0  0  0  0  0  0  0  0  0  0
   -4.4702   -6.2218   14.4282 C   0  0  0  0  0  0  0  0  0  0  0  0
   -6.2928   -6.0321    7.3217 N   0  0  0  0  0  0  0  0  0  0  0  0
   -6.7309   -5.2077    6.8249 H   0  0  0  0  0  0  0  0  0  0  0  0
   -7.0061   -7.5889    7.2743 S   0  0  0  0  0  0  0  0  0  0  0  0
   -6.8793   -8.2321    5.8978 O   0  0  0  0  0  0  0  0  0  0  0  0
   -6.2569   -8.4749    8.2775 O   0  0  0  0  0  0  0  0  0  0  0  0
   -8.6797   -7.5006    7.7638 C   0  0  0  0  0  0  0  0  0  0  0  0
   -9.1877   -6.3449    8.2835 C   0  0  0  0  0  0  0  0  0  0  0  0
  -10.5335   -6.3602    8.6755 C   0  0  0  0  0  0  0  0  0  0  0  0
  -11.3246   -7.4718    8.5538 C   0  0  0  0  0  0  0  0  0  0  0  0
  -12.9960   -7.4661    9.0482 Cl  0  0  0  0  0  0  0  0  0  0  0  0
  -10.7613   -8.6064    8.0253 C   0  0  0  0  0  0  0  0  0  0  0  0
   -9.4577   -8.6523    7.6259 C   0  0  0  0  0  0  0  0  0  0  0  0
   -8.7286  -10.1126    6.9444 Cl  0  0  0  0  0  0  0  0  0  0  0  0
   -3.9025   -6.0922    5.9736 O   0  0  0  0  0  0  0  0  0  0  0  0
   -2.1751   -5.5702    4.3544 C   0  0  0  0  0  0  0  0  0  0  0  0
   -1.7144   -4.7093    3.3708 C   0  0  0  0  0  0  0  0  0  0  0  0
   -2.3985   -3.5689    2.9824 C   0  0  0  0  0  0  0  0  0  0  0  0
   -3.5924   -3.2975    3.6185 C   0  0  0  0  0  0  0  0  0  0  0  0
   -4.0689   -4.1398    4.5999 C   0  0  0  0  0  0  0  0  0  0  0  0
   -3.3697   -5.2937    4.9885 C   0  0  0  0  0  0  0  0  0  0  0  0
   -1.0671   -7.6239    3.6837 C   0  0  0  0  0  0  0  0  0  0  0  0
   -1.4431   -6.7082    4.7024 O   0  0  0  0  0  0  0  0  0  0  0  0
   -1.8919   -2.6530    1.9241 C   0  0  0  0  0  0  0  0  0  0  0  0
   -2.7565   -2.7451    0.7210 C   0  0  0  0  0  0  0  0  0  0  0  0
   -3.3880   -1.7900    0.2275 O   0  0  0  0  0  0  0  0  0  0  0  0
   -2.8545   -4.0061    0.1135 O   0  0  0  0  0  0  0  0  0  0  0  0
   -2.0115   -4.4525   -0.2128 H   0  0  0  0  0  0  0  0  0  0  0  0
 34 35  1  0  0  0
 35 28  1  0  0  0
 28 29  2  0  0  0
 29 30  1  0  0  0
 30 36  1  0  0  0
 36 37  1  0  0  0
 37 38  2  0  0  0
 37 39  1  0  0  0
 30 31  2  0  0  0
 31 32  1  0  0  0
 32 33  2  0  0  0
 33 27  1  0  0  0
 27  1  1  0  0  0
  1  2  2  0  0  0
  2  3  1  0  0  0
  3  4  2  0  0  0
  4  7  1  0  0  0
  7  8  2  0  0  0
  7  9  1  0  0  0
  9 11  1  0  0  0
 11 12  1  0  0  0
 11 13  1  0  0  0
  4  5  1  0  0  0
  5  6  2  0  0  0
  6 14  1  0  0  0
 14 16  1  0  0  0
 16 17  2  0  0  0
 16 18  2  0  0  0
 16 19  1  0  0  0
 19 20  2  0  0  0
 20 21  1  0  0  0
 21 22  2  0  0  0
 22 23  1  0  0  0
 22 24  1  0  0  0
 24 25  2  0  0  0
 25 26  1  0  0  0
 33 28  1  0  0  0
  6  1  1  0  0  0
 25 19  1  0  0  0
 39 40  1  0  0  0
  9 10  1  0  0  0
 14 15  1  0  0  0
M  END
> <minimizedAffinity>
-5.97954

> <CNNscore>
0.3114291131

> <CNNaffinity>
6.3842191696

> <CNN_VS>
1.9882316589

> <CNNaffinity_variance>
0.0477911718

$$$$
[H]OC(=O)C([H])([H])c1c([H])c([H])c(Oc2c([H])c([H])c(C(=O)N([H])C([H])(C([H])([H])[H])C([H])([H])[H])c([H])c2N([H])S(=O)(=O)c2c([H])c([H])c(Cl)c([H])c2Cl)c(OC([H])([H])[H])c1[H]


 40 42  0  0  0  0  0  0  0  0999 V2000
  -11.1791   -9.7828    6.7509 C   0  0  0  0  0  0  0  0  0  0  0  0
  -10.2966  -10.6070    6.1073 C   0  0  0  0  0  0  0  0  0  0  0  0
   -8.9694  -10.2620    5.9424 C   0  0  0  0  0  0  0  0  0  0  0  0
   -8.5129   -9.0649    6.4320 C   0  0  0  0  0  0  0  0  0  0  0  0
   -9.4114   -8.2422    7.0783 C   0  0  0  0  0  0  0  0  0  0  0  0
  -10.7354   -8.5474    7.2626 C   0  0  0  0  0  0  0  0  0  0  0  0
   -7.1086   -8.6630    6.2818 C   0  0  0  0  0  0  0  0  0  0  0  0
   -6.4854   -9.1148    5.2719 O   0  0  0  0  0  0  0  0  0  0  0  0
   -6.4835   -7.8202    7.2080 N   0  0  0  0  0  0  0  0  0  0  0  0
   -6.9677   -7.4413    8.0289 H   0  0  0  0  0  0  0  0  0  0  0  0
   -5.0894   -7.4554    7.0091 C   0  0  0  0  0  0  0  0  0  0  0  0
   -5.0897   -6.2815    6.0452 C   0  0  0  0  0  0  0  0  0  0  0  0
   -4.4484   -7.1075    8.3181 C   0  0  0  0  0  0  0  0  0  0  0  0
  -11.6787   -7.7070    7.9139 N   0  0  0  0  0  0  0  0  0  0  0  0
  -12.4991   -7.3359    7.3594 H   0  0  0  0  0  0  0  0  0  0  0  0
  -11.4659   -7.3170    9.5685 S   0  0  0  0  0  0  0  0  0  0  0  0
  -12.2122   -8.2828   10.4821 O   0  0  0  0  0  0  0  0  0  0  0  0
   -9.9696   -7.4320    9.8851 O   0  0  0  0  0  0  0  0  0  0  0  0
  -11.9650   -5.6710    9.8690 C   0  0  0  0  0  0  0  0  0  0  0  0
  -11.0907   -4.6390    9.6838 C   0  0  0  0  0  0  0  0  0  0  0  0
  -11.5584   -3.3488    9.9694 C   0  0  0  0  0  0  0  0  0  0  0  0
  -12.8307   -3.1074   10.4158 C   0  0  0  0  0  0  0  0  0  0  0  0
  -13.3895   -1.4935   10.7638 Cl  0  0  0  0  0  0  0  0  0  0  0  0
  -13.6670   -4.1826   10.5847 C   0  0  0  0  0  0  0  0  0  0  0  0
  -13.2689   -5.4610   10.3232 C   0  0  0  0  0  0  0  0  0  0  0  0
  -14.3439   -6.8488   10.5396 Cl  0  0  0  0  0  0  0  0  0  0  0  0
  -12.5057  -10.1278    6.9187 O   0  0  0  0  0  0  0  0  0  0  0  0
  -14.6637   -9.0589    7.1986 C   0  0  0  0  0  0  0  0  0  0  0  0
  -15.7243   -8.3905    6.6075 C   0  0  0  0  0  0  0  0  0  0  0  0
  -15.7750   -8.0988    5.2541 C   0  0  0  0  0  0  0  0  0  0  0  0
  -14.7083   -8.5023    4.4776 C   0  0  0  0  0  0  0  0  0  0  0  0
  -13.6434   -9.1687    5.0445 C   0  0  0  0  0  0  0  0  0  0  0  0
  -13.5992   -9.4612    6.4171 C   0  0  0  0  0  0  0  0  0  0  0  0
  -15.6698   -8.7327    9.3840 C   0  0  0  0  0  0  0  0  0  0  0  0
  -14.6661   -9.3228    8.5705 O   0  0  0  0  0  0  0  0  0  0  0  0
  -16.9207   -7.3800    4.6326 C   0  0  0  0  0  0  0  0  0  0  0  0
  -16.5253   -5.9869    4.3067 C   0  0  0  0  0  0  0  0  0  0  0  0
  -15.9186   -5.2226    5.0828 O   0  0  0  0  0  0  0  0  0  0  0  0
  -16.8693   -5.5193    3.0293 O   0  0  0  0  0  0  0  0  0  0  0  0
  -16.5253   -6.0174    2.2231 H   0  0  0  0  0  0  0  0  0  0  0  0
 34 35  1  0  0  0
 35 28  1  0  0  0
 28 29  2  0  0  0
 29 30  1  0  0  0
 30 36  1  0  0  0
 36 37  1  0  0  0
 37 38  2  0  0  0
 37 39  1  0  0  0
 30 31  2  0  0  0
 31 32  1  0  0  0
 32 33  2  0  0  0
 33 27  1  0  0  0
 27  1  1  0  0  0
  1  2  2  0  0  0
  2  3  1  0  0  0
  3  4  2  0  0  0
  4  7  1  0  0  0
  7  8  2  0  0  0
  7  9  1  0  0  0
  9 11  1  0  0  0
 11 12  1  0  0  0
 11 13  1  0  0  0
  4  5  1  0  0  0
  5  6  2  0  0  0
  6 14  1  0  0  0
 14 16  1  0  0  0
 16 17  2  0  0  0
 16 18  2  0  0  0
 16 19  1  0  0  0
 19 20  2  0  0  0
 20 21  1  0  0  0
 21 22  2  0  0  0
 22 23  1  0  0  0
 22 24  1  0  0  0
 24 25  2  0  0  0
 25 26  1  0  0  0
 33 28  1  0  0  0
  6  1  1  0  0  0
 25 19  1  0  0  0
 39 40  1  0  0  0
  9 10  1  0  0  0
 14 15  1  0  0  0
M  END
> <minimizedAffinity>
2.92582

> <CNNscore>
0.3104039729

> <CNNaffinity>
6.9796242714

> <CNN_VS>
2.1665031910

> <CNNaffinity_variance>
0.4071920514

$$$$
[H]OC(=O)C([H])([H])c1c([H])c([H])c(Oc2c([H])c([H])c(C(=O)N([H])C([H])(C([H])([H])[H])C([H])([H])[H])c([H])c2N([H])S(=O)(=O)c2c([H])c([H])c(Cl)c([H])c2Cl)c(OC([H])([H])[H])c1[H]


 40 42  0  0  0  0  0  0  0  0999 V2000
   -7.0652   -9.1273    6.8458 C   0  0  0  0  0  0  0  0  0  0  0  0
   -7.9960   -9.6529    5.9915 C   0  0  0  0  0  0  0  0  0  0  0  0
   -9.3453   -9.6314    6.2859 C   0  0  0  0  0  0  0  0  0  0  0  0
   -9.7751   -9.0715    7.4620 C   0  0  0  0  0  0  0  0  0  0  0  0
   -8.8280   -8.5454    8.3153 C   0  0  0  0  0  0  0  0  0  0  0  0
   -7.4807   -8.5469    8.0605 C   0  0  0  0  0  0  0  0  0  0  0  0
  -11.2007   -9.0242    7.8103 C   0  0  0  0  0  0  0  0  0  0  0  0
  -11.5322   -9.4914    8.9436 O   0  0  0  0  0  0  0  0  0  0  0  0
  -12.1525   -8.4887    6.9350 N   0  0  0  0  0  0  0  0  0  0  0  0
  -11.9076   -8.1034    6.0166 H   0  0  0  0  0  0  0  0  0  0  0  0
  -13.5518   -8.4684    7.3325 C   0  0  0  0  0  0  0  0  0  0  0  0
  -13.6218   -7.6371    8.6019 C   0  0  0  0  0  0  0  0  0  0  0  0
  -14.3979   -7.8941    6.2373 C   0  0  0  0  0  0  0  0  0  0  0  0
   -6.4893   -8.0217    8.9331 N   0  0  0  0  0  0  0  0  0  0  0  0
   -5.6779   -8.6394    9.2133 H   0  0  0  0  0  0  0  0  0  0  0  0
   -6.6311   -6.4139    9.5072 S   0  0  0  0  0  0  0  0  0  0  0  0
   -7.2227   -5.4831    8.4545 O   0  0  0  0  0  0  0  0  0  0  0  0
   -7.5847   -6.4310   10.7084 O   0  0  0  0  0  0  0  0  0  0  0  0
   -5.0780   -5.8276   10.0483 C   0  0  0  0  0  0  0  0  0  0  0  0
   -4.0562   -5.6556    9.1594 C   0  0  0  0  0  0  0  0  0  0  0  0
   -2.8329   -5.2049    9.6745 C   0  0  0  0  0  0  0  0  0  0  0  0
   -2.6449   -4.9420   11.0056 C   0  0  0  0  0  0  0  0  0  0  0  0
   -1.1140   -4.3817   11.6222 Cl  0  0  0  0  0  0  0  0  0  0  0  0
   -3.7067   -5.1331   11.8543 C   0  0  0  0  0  0  0  0  0  0  0  0
   -4.9211   -5.5697   11.4120 C   0  0  0  0  0  0  0  0  0  0  0  0
   -6.2913   -5.8168   12.5027 Cl  0  0  0  0  0  0  0  0  0  0  0  0
   -5.7162   -9.1459    6.5513 O   0  0  0  0  0  0  0  0  0  0  0  0
   -3.5432   -8.0817    6.3992 C   0  0  0  0  0  0  0  0  0  0  0  0
   -2.8178   -6.9387    6.1019 C   0  0  0  0  0  0  0  0  0  0  0  0
   -3.4065   -5.7566    5.6831 C   0  0  0  0  0  0  0  0  0  0  0  0
   -4.7809   -5.7396    5.5636 C   0  0  0  0  0  0  0  0  0  0  0  0
   -5.5219   -6.8648    5.8546 C   0  0  0  0  0  0  0  0  0  0  0  0
   -4.9181   -8.0593    6.2789 C   0  0  0  0  0  0  0  0  0  0  0  0
   -1.5187   -9.4181    6.5032 C   0  0  0  0  0  0  0  0  0  0  0  0
   -2.8941   -9.2471    6.8144 O   0  0  0  0  0  0  0  0  0  0  0  0
   -2.6150   -4.5363    5.3669 C   0  0  0  0  0  0  0  0  0  0  0  0
   -2.6040   -4.3081    3.9003 C   0  0  0  0  0  0  0  0  0  0  0  0
   -1.8958   -4.9383    3.0904 O   0  0  0  0  0  0  0  0  0  0  0  0
   -3.4591   -3.3074    3.4143 O   0  0  0  0  0  0  0  0  0  0  0  0
   -4.4477   -3.3860    3.5959 H   0  0  0  0  0  0  0  0  0  0  0  0
 34 35  1  0  0  0
 35 28  1  0  0  0
 28 29  2  0  0  0
 29 30  1  0  0  0
 30 36  1  0  0  0
 36 37  1  0  0  0
 37 38  2  0  0  0
 37 39  1  0  0  0
 30 31  2  0  0  0
 31 32  1  0  0  0
 32 33  2  0  0  0
 33 27  1  0  0  0
 27  1  1  0  0  0
  1  2  2  0  0  0
  2  3  1  0  0  0
  3  4  2  0  0  0
  4  7  1  0  0  0
  7  8  2  0  0  0
  7  9  1  0  0  0
  9 11  1  0  0  0
 11 12  1  0  0  0
 11 13  1  0  0  0
  4  5  1  0  0  0
  5  6  2  0  0  0
  6 14  1  0  0  0
 14 16  1  0  0  0
 16 17  2  0  0  0
 16 18  2  0  0  0
 16 19  1  0  0  0
 19 20  2  0  0  0
 20 21  1  0  0  0
 21 22  2  0  0  0
 22 23  1  0  0  0
 22 24  1  0  0  0
 24 25  2  0  0  0
 25 26  1  0  0  0
 33 28  1  0  0  0
  6  1  1  0  0  0
 25 19  1  0  0  0
 39 40  1  0  0  0
  9 10  1  0  0  0
 14 15  1  0  0  0
M  END
> <minimizedAffinity>
1.09091

> <CNNscore>
0.2607626319

> <CNNaffinity>
6.2716941833

> <CNN_VS>
1.6354235411

> <CNNaffinity_variance>
0.3827280104

$$$$
[H]OC(=O)C([H])([H])c1c([H])c([H])c(Oc2c([H])c([H])c(C(=O)N([H])C([H])(C([H])([H])[H])C([H])([H])[H])c([H])c2N([H])S(=O)(=O)c2c([H])c([H])c(Cl)c([H])c2Cl)c(OC([H])([H])[H])c1[H]


 40 42  0  0  0  0  0  0  0  0999 V2000
  -11.4371   -8.7225    7.2367 C   0  0  0  0  0  0  0  0  0  0  0  0
  -11.9930   -9.7931    6.5907 C   0  0  0  0  0  0  0  0  0  0  0  0
  -11.2387  -10.8899    6.2221 C   0  0  0  0  0  0  0  0  0  0  0  0
   -9.8970  -10.9178    6.5053 C   0  0  0  0  0  0  0  0  0  0  0  0
   -9.3477   -9.8331    7.1561 C   0  0  0  0  0  0  0  0  0  0  0  0
  -10.0610   -8.7264    7.5388 C   0  0  0  0  0  0  0  0  0  0  0  0
   -9.0611  -12.0666    6.1348 C   0  0  0  0  0  0  0  0  0  0  0  0
   -8.1723  -12.4244    6.9684 O   0  0  0  0  0  0  0  0  0  0  0  0
   -9.2342  -12.7386    4.9194 N   0  0  0  0  0  0  0  0  0  0  0  0
   -9.9469  -12.4693    4.2327 H   0  0  0  0  0  0  0  0  0  0  0  0
   -8.3763  -13.8705    4.6045 C   0  0  0  0  0  0  0  0  0  0  0  0
   -9.0851  -15.1034    5.1381 C   0  0  0  0  0  0  0  0  0  0  0  0
   -8.1411  -13.9528    3.1269 C   0  0  0  0  0  0  0  0  0  0  0  0
   -9.5101   -7.5941    8.1981 N   0  0  0  0  0  0  0  0  0  0  0  0
   -9.5870   -7.5297    9.2508 H   0  0  0  0  0  0  0  0  0  0  0  0
   -8.7416   -6.3691    7.2795 S   0  0  0  0  0  0  0  0  0  0  0  0
   -9.4353   -6.1405    5.9412 O   0  0  0  0  0  0  0  0  0  0  0  0
   -8.8258   -5.0642    8.0812 O   0  0  0  0  0  0  0  0  0  0  0  0
   -7.0563   -6.7599    7.0437 C   0  0  0  0  0  0  0  0  0  0  0  0
   -6.4392   -6.4726    5.8603 C   0  0  0  0  0  0  0  0  0  0  0  0
   -5.0916   -6.8390    5.7392 C   0  0  0  0  0  0  0  0  0  0  0  0
   -4.4022   -7.4588    6.7476 C   0  0  0  0  0  0  0  0  0  0  0  0
   -2.7261   -7.9044    6.5733 Cl  0  0  0  0  0  0  0  0  0  0  0  0
   -5.0727   -7.7241    7.9155 C   0  0  0  0  0  0  0  0  0  0  0  0
   -6.3838   -7.3913    8.0924 C   0  0  0  0  0  0  0  0  0  0  0  0
   -7.2509   -7.7316    9.5960 Cl  0  0  0  0  0  0  0  0  0  0  0  0
  -12.1907   -7.6266    7.6081 O   0  0  0  0  0  0  0  0  0  0  0  0
  -14.5944   -7.5523    7.9157 C   0  0  0  0  0  0  0  0  0  0  0  0
  -15.8306   -7.2011    7.3966 C   0  0  0  0  0  0  0  0  0  0  0  0
  -15.9892   -6.6121    6.1528 C   0  0  0  0  0  0  0  0  0  0  0  0
  -14.8490   -6.3734    5.4136 C   0  0  0  0  0  0  0  0  0  0  0  0
  -13.6096   -6.7152    5.9102 C   0  0  0  0  0  0  0  0  0  0  0  0
  -13.4567   -7.3122    7.1718 C   0  0  0  0  0  0  0  0  0  0  0  0
  -13.9048   -7.4031   10.2389 C   0  0  0  0  0  0  0  0  0  0  0  0
  -14.4955   -8.1412    9.1788 O   0  0  0  0  0  0  0  0  0  0  0  0
  -17.3234   -6.2398    5.6077 C   0  0  0  0  0  0  0  0  0  0  0  0
  -17.6954   -7.1655    4.5085 C   0  0  0  0  0  0  0  0  0  0  0  0
  -18.0572   -8.3477    4.6697 O   0  0  0  0  0  0  0  0  0  0  0  0
  -17.6271   -6.6513    3.2047 O   0  0  0  0  0  0  0  0  0  0  0  0
  -18.1786   -5.8389    2.9759 H   0  0  0  0  0  0  0  0  0  0  0  0
 34 35  1  0  0  0
 35 28  1  0  0  0
 28 29  2  0  0  0
 29 30  1  0  0  0
 30 36  1  0  0  0
 36 37  1  0  0  0
 37 38  2  0  0  0
 37 39  1  0  0  0
 30 31  2  0  0  0
 31 32  1  0  0  0
 32 33  2  0  0  0
 33 27  1  0  0  0
 27  1  1  0  0  0
  1  2  2  0  0  0
  2  3  1  0  0  0
  3  4  2  0  0  0
  4  7  1  0  0  0
  7  8  2  0  0  0
  7  9  1  0  0  0
  9 11  1  0  0  0
 11 12  1  0  0  0
 11 13  1  0  0  0
  4  5  1  0  0  0
  5  6  2  0  0  0
  6 14  1  0  0  0
 14 16  1  0  0  0
 16 17  2  0  0  0
 16 18  2  0  0  0
 16 19  1  0  0  0
 19 20  2  0  0  0
 20 21  1  0  0  0
 21 22  2  0  0  0
 22 23  1  0  0  0
 22 24  1  0  0  0
 24 25  2  0  0  0
 25 26  1  0  0  0
 33 28  1  0  0  0
  6  1  1  0  0  0
 25 19  1  0  0  0
 39 40  1  0  0  0
  9 10  1  0  0  0
 14 15  1  0  0  0
M  END
> <minimizedAffinity>
4.51126

> <CNNscore>
0.2493488044

> <CNNaffinity>
6.9004693031

> <CNN_VS>
1.7206237316

> <CNNaffinity_variance>
0.4213128686

$$$$
[H]OC(=O)C([H])([H])c1c([H])c([H])c(Oc2c([H])c([H])c(C(=O)N([H])C([H])(C([H])([H])[H])C([H])([H])[H])c([H])c2N([H])S(=O)(=O)c2c([H])c([H])c(Cl)c([H])c2Cl)c(OC([H])([H])[H])c1[H]


 40 42  0  0  0  0  0  0  0  0999 V2000
  -10.7493   -8.8968    8.3167 C   0  0  0  0  0  0  0  0  0  0  0  0
   -9.5036   -8.9252    8.8824 C   0  0  0  0  0  0  0  0  0  0  0  0
   -8.4343   -8.2585    8.3168 C   0  0  0  0  0  0  0  0  0  0  0  0
   -8.6136   -7.5466    7.1582 C   0  0  0  0  0  0  0  0  0  0  0  0
   -9.8731   -7.5256    6.5969 C   0  0  0  0  0  0  0  0  0  0  0  0
  -10.9596   -8.1732    7.1263 C   0  0  0  0  0  0  0  0  0  0  0  0
   -7.5043   -6.8202    6.5277 C   0  0  0  0  0  0  0  0  0  0  0  0
   -7.7574   -6.2130    5.4415 O   0  0  0  0  0  0  0  0  0  0  0  0
   -6.2256   -6.7962    7.0962 N   0  0  0  0  0  0  0  0  0  0  0  0
   -5.9990   -7.2765    7.9736 H   0  0  0  0  0  0  0  0  0  0  0  0
   -5.1639   -6.0605    6.4269 C   0  0  0  0  0  0  0  0  0  0  0  0
   -4.5778   -5.1196    7.4654 C   0  0  0  0  0  0  0  0  0  0  0  0
   -4.1368   -7.0055    5.8815 C   0  0  0  0  0  0  0  0  0  0  0  0
  -12.2613   -8.1740    6.5554 N   0  0  0  0  0  0  0  0  0  0  0  0
  -12.7090   -9.0996    6.3083 H   0  0  0  0  0  0  0  0  0  0  0  0
  -13.0678   -6.6875    6.2820 S   0  0  0  0  0  0  0  0  0  0  0  0
  -13.5312   -6.0428    7.5836 O   0  0  0  0  0  0  0  0  0  0  0  0
  -12.0704   -5.7328    5.6139 O   0  0  0  0  0  0  0  0  0  0  0  0
  -14.4138   -6.9228    5.1950 C   0  0  0  0  0  0  0  0  0  0  0  0
  -15.2707   -5.8952    4.9234 C   0  0  0  0  0  0  0  0  0  0  0  0
  -16.3406   -6.1693    4.0602 C   0  0  0  0  0  0  0  0  0  0  0  0
  -16.5402   -7.4040    3.5016 C   0  0  0  0  0  0  0  0  0  0  0  0
  -17.8784   -7.7202    2.4305 Cl  0  0  0  0  0  0  0  0  0  0  0  0
  -15.6480   -8.4004    3.8101 C   0  0  0  0  0  0  0  0  0  0  0  0
  -14.5877   -8.1940    4.6433 C   0  0  0  0  0  0  0  0  0  0  0  0
  -13.4360   -9.4756    5.0428 Cl  0  0  0  0  0  0  0  0  0  0  0  0
  -11.8196   -9.5608    8.8827 O   0  0  0  0  0  0  0  0  0  0  0  0
  -13.6817   -8.2154    9.6576 C   0  0  0  0  0  0  0  0  0  0  0  0
  -15.0254   -7.8972    9.5384 C   0  0  0  0  0  0  0  0  0  0  0  0
  -15.8689   -8.5060    8.6235 C   0  0  0  0  0  0  0  0  0  0  0  0
  -15.3237   -9.4718    7.8027 C   0  0  0  0  0  0  0  0  0  0  0  0
  -13.9900   -9.8042    7.9045 C   0  0  0  0  0  0  0  0  0  0  0  0
  -13.1413   -9.1830    8.8346 C   0  0  0  0  0  0  0  0  0  0  0  0
  -12.3228   -6.2991   10.2711 C   0  0  0  0  0  0  0  0  0  0  0  0
  -12.8781   -7.5651   10.5974 O   0  0  0  0  0  0  0  0  0  0  0  0
  -17.3104   -8.1542    8.5063 C   0  0  0  0  0  0  0  0  0  0  0  0
  -17.5930   -7.6308    7.1463 C   0  0  0  0  0  0  0  0  0  0  0  0
  -17.5047   -6.4317    6.8161 O   0  0  0  0  0  0  0  0  0  0  0  0
  -17.9854   -8.5705    6.1810 O   0  0  0  0  0  0  0  0  0  0  0  0
  -17.3659   -9.3384    5.9739 H   0  0  0  0  0  0  0  0  0  0  0  0
 34 35  1  0  0  0
 35 28  1  0  0  0
 28 29  2  0  0  0
 29 30  1  0  0  0
 30 36  1  0  0  0
 36 37  1  0  0  0
 37 38  2  0  0  0
 37 39  1  0  0  0
 30 31  2  0  0  0
 31 32  1  0  0  0
 32 33  2  0  0  0
 33 27  1  0  0  0
 27  1  1  0  0  0
  1  2  2  0  0  0
  2  3  1  0  0  0
  3  4  2  0  0  0
  4  7  1  0  0  0
  7  8  2  0  0  0
  7  9  1  0  0  0
  9 11  1  0  0  0
 11 12  1  0  0  0
 11 13  1  0  0  0
  4  5  1  0  0  0
  5  6  2  0  0  0
  6 14  1  0  0  0
 14 16  1  0  0  0
 16 17  2  0  0  0
 16 18  2  0  0  0
 16 19  1  0  0  0
 19 20  2  0  0  0
 20 21  1  0  0  0
 21 22  2  0  0  0
 22 23  1  0  0  0
 22 24  1  0  0  0
 24 25  2  0  0  0
 25 26  1  0  0  0
 33 28  1  0  0  0
  6  1  1  0  0  0
 25 19  1  0  0  0
 39 40  1  0  0  0
  9 10  1  0  0  0
 14 15  1  0  0  0
M  END
> <minimizedAffinity>
2.82928

> <CNNscore>
0.2378832400

> <CNNaffinity>
6.6481170654

> <CNN_VS>
1.5814756155

> <CNNaffinity_variance>
0.1467956603

$$$$
[H]OC(=O)C([H])([H])c1c([H])c([H])c(Oc2c([H])c([H])c(C(=O)N([H])C([H])(C([H])([H])[H])C([H])([H])[H])c([H])c2N([H])S(=O)(=O)c2c([H])c([H])c(Cl)c([H])c2Cl)c(OC([H])([H])[H])c1[H]


 40 42  0  0  0  0  0  0  0  0999 V2000
  -11.4371   -8.6686    7.3828 C   0  0  0  0  0  0  0  0  0  0  0  0
  -12.0219   -9.7772    6.8339 C   0  0  0  0  0  0  0  0  0  0  0  0
  -13.2174   -9.7020    6.1462 C   0  0  0  0  0  0  0  0  0  0  0  0
  -13.8439   -8.4902    6.0038 C   0  0  0  0  0  0  0  0  0  0  0  0
  -13.2456   -7.3799    6.5617 C   0  0  0  0  0  0  0  0  0  0  0  0
  -12.0607   -7.4121    7.2510 C   0  0  0  0  0  0  0  0  0  0  0  0
  -15.1132   -8.3665    5.2762 C   0  0  0  0  0  0  0  0  0  0  0  0
  -15.2856   -9.1400    4.2839 O   0  0  0  0  0  0  0  0  0  0  0  0
  -16.0902   -7.4396    5.6571 N   0  0  0  0  0  0  0  0  0  0  0  0
  -15.9740   -6.8073    6.4562 H   0  0  0  0  0  0  0  0  0  0  0  0
  -17.3291   -7.3604    4.8986 C   0  0  0  0  0  0  0  0  0  0  0  0
  -16.9574   -6.8112    3.5321 C   0  0  0  0  0  0  0  0  0  0  0  0
  -17.9721   -8.7108    4.8057 C   0  0  0  0  0  0  0  0  0  0  0  0
  -11.4360   -6.2815    7.8438 N   0  0  0  0  0  0  0  0  0  0  0  0
  -10.9204   -5.5992    7.2216 H   0  0  0  0  0  0  0  0  0  0  0  0
  -11.5308   -6.0524    9.5390 S   0  0  0  0  0  0  0  0  0  0  0  0
  -10.2118   -6.3750   10.2322 O   0  0  0  0  0  0  0  0  0  0  0  0
  -11.8446   -4.5724    9.7917 O   0  0  0  0  0  0  0  0  0  0  0  0
  -12.8300   -7.0099   10.2051 C   0  0  0  0  0  0  0  0  0  0  0  0
  -12.5821   -7.9195   11.1925 C   0  0  0  0  0  0  0  0  0  0  0  0
  -13.6726   -8.6669   11.6585 C   0  0  0  0  0  0  0  0  0  0  0  0
  -14.9397   -8.5112   11.1620 C   0  0  0  0  0  0  0  0  0  0  0  0
  -16.2801   -9.4524   11.7582 Cl  0  0  0  0  0  0  0  0  0  0  0  0
  -15.1311   -7.5826   10.1695 C   0  0  0  0  0  0  0  0  0  0  0  0
  -14.1092   -6.8256    9.6758 C   0  0  0  0  0  0  0  0  0  0  0  0
  -14.3522   -5.6281    8.3970 Cl  0  0  0  0  0  0  0  0  0  0  0  0
  -10.2406   -8.7423    8.0682 O   0  0  0  0  0  0  0  0  0  0  0  0
   -8.0197   -9.3440    7.3044 C   0  0  0  0  0  0  0  0  0  0  0  0
   -6.7922   -8.9176    6.8223 C   0  0  0  0  0  0  0  0  0  0  0  0
   -6.4863   -7.5840    6.6053 C   0  0  0  0  0  0  0  0  0  0  0  0
   -7.4651   -6.6541    6.8896 C   0  0  0  0  0  0  0  0  0  0  0  0
   -8.6927   -7.0559    7.3704 C   0  0  0  0  0  0  0  0  0  0  0  0
   -8.9953   -8.4095    7.5882 C   0  0  0  0  0  0  0  0  0  0  0  0
   -9.0647  -11.4017    6.5504 C   0  0  0  0  0  0  0  0  0  0  0  0
   -8.2725  -10.7040    7.5006 O   0  0  0  0  0  0  0  0  0  0  0  0
   -5.1635   -7.1402    6.0868 C   0  0  0  0  0  0  0  0  0  0  0  0
   -4.4631   -6.3327    7.1167 C   0  0  0  0  0  0  0  0  0  0  0  0
   -4.3480   -6.6582    8.3148 O   0  0  0  0  0  0  0  0  0  0  0  0
   -3.8988   -5.1217    6.6881 O   0  0  0  0  0  0  0  0  0  0  0  0
   -3.2117   -5.1426    5.9506 H   0  0  0  0  0  0  0  0  0  0  0  0
 34 35  1  0  0  0
 35 28  1  0  0  0
 28 29  2  0  0  0
 29 30  1  0  0  0
 30 36  1  0  0  0
 36 37  1  0  0  0
 37 38  2  0  0  0
 37 39  1  0  0  0
 30 31  2  0  0  0
 31 32  1  0  0  0
 32 33  2  0  0  0
 33 27  1  0  0  0
 27  1  1  0  0  0
  1  2  2  0  0  0
  2  3  1  0  0  0
  3  4  2  0  0  0
  4  7  1  0  0  0
  7  8  2  0  0  0
  7  9  1  0  0  0
  9 11  1  0  0  0
 11 12  1  0  0  0
 11 13  1  0  0  0
  4  5  1  0  0  0
  5  6  2  0  0  0
  6 14  1  0  0  0
 14 16  1  0  0  0
 16 17  2  0  0  0
 16 18  2  0  0  0
 16 19  1  0  0  0
 19 20  2  0  0  0
 20 21  1  0  0  0
 21 22  2  0  0  0
 22 23  1  0  0  0
 22 24  1  0  0  0
 24 25  2  0  0  0
 25 26  1  0  0  0
 33 28  1  0  0  0
  6  1  1  0  0  0
 25 19  1  0  0  0
 39 40  1  0  0  0
  9 10  1  0  0  0
 14 15  1  0  0  0
M  END
> <minimizedAffinity>
0.92518

> <CNNscore>
0.2373388708

> <CNNaffinity>
6.8377480507

> <CNN_VS>
1.6228634119

> <CNNaffinity_variance>
0.1196908131

$$$$
[H]OC(=O)C([H])([H])c1c([H])c([H])c(Oc2c([H])c([H])c(C(=O)N([H])C([H])(C([H])([H])[H])C([H])([H])[H])c([H])c2N([H])S(=O)(=O)c2c([H])c([H])c(Cl)c([H])c2Cl)c(OC([H])([H])[H])c1[H]


 40 42  0  0  0  0  0  0  0  0999 V2000
  -11.4616   -8.0721    6.8836 C   0  0  0  0  0  0  0  0  0  0  0  0
  -10.7692   -7.0612    6.2746 C   0  0  0  0  0  0  0  0  0  0  0  0
   -9.4344   -6.8306    6.5444 C   0  0  0  0  0  0  0  0  0  0  0  0
   -8.7755   -7.6288    7.4444 C   0  0  0  0  0  0  0  0  0  0  0  0
   -9.4836   -8.6442    8.0523 C   0  0  0  0  0  0  0  0  0  0  0  0
  -10.8080   -8.9060    7.8123 C   0  0  0  0  0  0  0  0  0  0  0  0
   -7.3558   -7.4202    7.7554 C   0  0  0  0  0  0  0  0  0  0  0  0
   -6.9956   -7.6130    8.9577 O   0  0  0  0  0  0  0  0  0  0  0  0
   -6.4395   -7.0271    6.7733 N   0  0  0  0  0  0  0  0  0  0  0  0
   -6.7070   -6.8684    5.7960 H   0  0  0  0  0  0  0  0  0  0  0  0
   -5.0446   -6.8344    7.1389 C   0  0  0  0  0  0  0  0  0  0  0  0
   -4.2931   -8.0400    6.6015 C   0  0  0  0  0  0  0  0  0  0  0  0
   -4.5274   -5.5493    6.5677 C   0  0  0  0  0  0  0  0  0  0  0  0
  -11.5574   -9.9387    8.4385 N   0  0  0  0  0  0  0  0  0  0  0  0
  -11.2533  -10.9426    8.3039 H   0  0  0  0  0  0  0  0  0  0  0  0
  -12.9253   -9.5367    9.3883 S   0  0  0  0  0  0  0  0  0  0  0  0
  -14.2302   -9.9177    8.6980 O   0  0  0  0  0  0  0  0  0  0  0  0
  -12.8350  -10.3343   10.6954 O   0  0  0  0  0  0  0  0  0  0  0  0
  -12.9075   -7.8357    9.7817 C   0  0  0  0  0  0  0  0  0  0  0  0
  -11.7600   -7.2394   10.2193 C   0  0  0  0  0  0  0  0  0  0  0  0
  -11.8319   -5.8763   10.5379 C   0  0  0  0  0  0  0  0  0  0  0  0
  -12.9892   -5.1523   10.4246 C   0  0  0  0  0  0  0  0  0  0  0  0
  -13.0535   -3.4575   10.8267 Cl  0  0  0  0  0  0  0  0  0  0  0  0
  -14.1131   -5.8030    9.9802 C   0  0  0  0  0  0  0  0  0  0  0  0
  -14.1048   -7.1278    9.6547 C   0  0  0  0  0  0  0  0  0  0  0  0
  -15.5510   -7.9695    9.0817 Cl  0  0  0  0  0  0  0  0  0  0  0  0
  -12.7955   -8.3052    6.6127 O   0  0  0  0  0  0  0  0  0  0  0  0
  -14.3859   -7.8259    4.8467 C   0  0  0  0  0  0  0  0  0  0  0  0
  -15.2398   -6.9063    4.2584 C   0  0  0  0  0  0  0  0  0  0  0  0
  -15.4117   -5.6182    4.7387 C   0  0  0  0  0  0  0  0  0  0  0  0
  -14.6884   -5.2560    5.8564 C   0  0  0  0  0  0  0  0  0  0  0  0
  -13.8331   -6.1545    6.4571 C   0  0  0  0  0  0  0  0  0  0  0  0
  -13.6639   -7.4583    5.9643 C   0  0  0  0  0  0  0  0  0  0  0  0
  -15.2401   -9.5894    3.4129 C   0  0  0  0  0  0  0  0  0  0  0  0
  -14.2557   -9.1132    4.3194 O   0  0  0  0  0  0  0  0  0  0  0  0
  -16.3325   -4.6407    4.0967 C   0  0  0  0  0  0  0  0  0  0  0  0
  -17.7412   -5.0180    4.3732 C   0  0  0  0  0  0  0  0  0  0  0  0
  -18.3725   -5.8997    3.7578 O   0  0  0  0  0  0  0  0  0  0  0  0
  -18.3873   -4.3194    5.4044 O   0  0  0  0  0  0  0  0  0  0  0  0
  -17.9888   -4.3461    6.3301 H   0  0  0  0  0  0  0  0  0  0  0  0
 34 35  1  0  0  0
 35 28  1  0  0  0
 28 29  2  0  0  0
 29 30  1  0  0  0
 30 36  1  0  0  0
 36 37  1  0  0  0
 37 38  2  0  0  0
 37 39  1  0  0  0
 30 31  2  0  0  0
 31 32  1  0  0  0
 32 33  2  0  0  0
 33 27  1  0  0  0
 27  1  1  0  0  0
  1  2  2  0  0  0
  2  3  1  0  0  0
  3  4  2  0  0  0
  4  7  1  0  0  0
  7  8  2  0  0  0
  7  9  1  0  0  0
  9 11  1  0  0  0
 11 12  1  0  0  0
 11 13  1  0  0  0
  4  5  1  0  0  0
  5  6  2  0  0  0
  6 14  1  0  0  0
 14 16  1  0  0  0
 16 17  2  0  0  0
 16 18  2  0  0  0
 16 19  1  0  0  0
 19 20  2  0  0  0
 20 21  1  0  0  0
 21 22  2  0  0  0
 22 23  1  0  0  0
 22 24  1  0  0  0
 24 25  2  0  0  0
 25 26  1  0  0  0
 33 28  1  0  0  0
  6  1  1  0  0  0
 25 19  1  0  0  0
 39 40  1  0  0  0
  9 10  1  0  0  0
 14 15  1  0  0  0
M  END
> <minimizedAffinity>
-0.83283

> <CNNscore>
0.2244101465

> <CNNaffinity>
6.9468545914

> <CNN_VS>
1.5589447021

> <CNNaffinity_variance>
0.3144512773

$$$$
[H]c1c([H])c([H])c(N([H])c2nc3c([H])nc(N([H])c4c([H])c([H])c(OC([H])([H])[H])c([H])c4[H])nc3n2C([H])(C([H])([H])[H])C([H])([H])[H])c(F)c1[H]


 31 34  0  0  0  0  0  0  0  0999 V2000
  -13.0761   -8.1949    7.8193 C   0  0  0  0  0  0  0  0  0  0  0  0
  -13.1204   -7.0624    8.5201 N   0  0  0  0  0  0  0  0  0  0  0  0
  -12.0729   -6.3797    8.9784 C   0  0  0  0  0  0  0  0  0  0  0  0
  -10.8093   -6.8702    8.7163 C   0  0  0  0  0  0  0  0  0  0  0  0
   -9.5676   -6.4680    9.0071 N   0  0  0  0  0  0  0  0  0  0  0  0
   -8.6962   -7.3461    8.4915 C   0  0  0  0  0  0  0  0  0  0  0  0
   -9.3800   -8.3372    7.8542 N   0  0  0  0  0  0  0  0  0  0  0  0
  -10.6915   -8.0347    7.9981 C   0  0  0  0  0  0  0  0  0  0  0  0
  -11.7990   -8.6541    7.5771 N   0  0  0  0  0  0  0  0  0  0  0  0
   -8.8401   -9.4934    7.1552 C   0  0  0  0  0  0  0  0  0  0  0  0
   -9.9378  -10.4044    6.6408 C   0  0  0  0  0  0  0  0  0  0  0  0
   -7.8206  -10.2299    7.9702 C   0  0  0  0  0  0  0  0  0  0  0  0
  -14.1737   -8.9100    7.3390 N   0  0  0  0  0  0  0  0  0  0  0  0
  -14.2950   -9.9110    7.6870 H   0  0  0  0  0  0  0  0  0  0  0  0
  -17.1801   -7.3804    4.7798 C   0  0  0  0  0  0  0  0  0  0  0  0
  -16.0653   -7.9947    4.2643 C   0  0  0  0  0  0  0  0  0  0  0  0
  -15.0654   -8.5135    5.0827 C   0  0  0  0  0  0  0  0  0  0  0  0
  -15.1367   -8.4400    6.4361 C   0  0  0  0  0  0  0  0  0  0  0  0
  -16.2969   -7.8016    6.9542 C   0  0  0  0  0  0  0  0  0  0  0  0
  -17.2589   -7.3035    6.1458 C   0  0  0  0  0  0  0  0  0  0  0  0
  -18.5262   -5.5113    4.0637 C   0  0  0  0  0  0  0  0  0  0  0  0
  -18.1679   -6.8685    3.9524 O   0  0  0  0  0  0  0  0  0  0  0  0
   -7.2878   -7.2837    8.5772 N   0  0  0  0  0  0  0  0  0  0  0  0
   -6.8755   -7.7274    9.4666 H   0  0  0  0  0  0  0  0  0  0  0  0
   -6.3670   -6.7324    7.6779 C   0  0  0  0  0  0  0  0  0  0  0  0
   -6.4795   -6.7571    6.3093 C   0  0  0  0  0  0  0  0  0  0  0  0
   -5.4875   -6.1683    5.5093 C   0  0  0  0  0  0  0  0  0  0  0  0
   -4.3880   -5.5572    6.0657 C   0  0  0  0  0  0  0  0  0  0  0  0
   -4.2573   -5.5222    7.4370 C   0  0  0  0  0  0  0  0  0  0  0  0
   -5.2219   -6.0943    8.1913 C   0  0  0  0  0  0  0  0  0  0  0  0
   -5.0551   -6.0384    9.5500 F   0  0  0  0  0  0  0  0  0  0  0  0
 21 22  1  0  0  0
 22 15  1  0  0  0
 15 16  2  0  0  0
 16 17  1  0  0  0
 17 18  2  0  0  0
 18 13  1  0  0  0
 13  1  1  0  0  0
  1  2  2  0  0  0
  2  3  1  0  0  0
  3  4  2  0  0  0
  4  5  1  0  0  0
  5  6  2  0  0  0
  6 23  1  0  0  0
 23 25  1  0  0  0
 25 26  2  0  0  0
 26 27  1  0  0  0
 27 28  2  0  0  0
 28 29  1  0  0  0
 29 30  2  0  0  0
 30 31  1  0  0  0
  6  7  1  0  0  0
  7 10  1  0  0  0
 10 11  1  0  0  0
 10 12  1  0  0  0
  7  8  1  0  0  0
  8  9  2  0  0  0
 18 19  1  0  0  0
 19 20  2  0  0  0
 20 15  1  0  0  0
  9  1  1  0  0  0
  8  4  1  0  0  0
 30 25  1  0  0  0
 13 14  1  0  0  0
 23 24  1  0  0  0
M  END
> <minimizedAffinity>
-8.34746

> <CNNscore>
0.6186855435

> <CNNaffinity>
7.4753394127

> <CNN_VS>
4.6248846054

> <CNNaffinity_variance>
0.1127735376

$$$$
[H]c1c([H])c([H])c(N([H])c2nc3c([H])nc(N([H])c4c([H])c([H])c(OC([H])([H])[H])c([H])c4[H])nc3n2C([H])(C([H])([H])[H])C([H])([H])[H])c(F)c1[H]


 31 34  0  0  0  0  0  0  0  0999 V2000
  -13.3966   -6.6705    7.1152 C   0  0  0  0  0  0  0  0  0  0  0  0
  -12.5304   -7.6813    7.1765 N   0  0  0  0  0  0  0  0  0  0  0  0
  -11.7590   -7.9940    8.2161 C   0  0  0  0  0  0  0  0  0  0  0  0
  -11.8457   -7.2127    9.3509 C   0  0  0  0  0  0  0  0  0  0  0  0
  -11.2465   -7.2244   10.5463 N   0  0  0  0  0  0  0  0  0  0  0  0
  -11.7240   -6.2096   11.2800 C   0  0  0  0  0  0  0  0  0  0  0  0
  -12.6495   -5.5246   10.5519 N   0  0  0  0  0  0  0  0  0  0  0  0
  -12.7196   -6.1534    9.3553 C   0  0  0  0  0  0  0  0  0  0  0  0
  -13.4558   -5.9131    8.2655 N   0  0  0  0  0  0  0  0  0  0  0  0
  -13.4192   -4.3561   10.9510 C   0  0  0  0  0  0  0  0  0  0  0  0
  -12.6553   -3.0685   10.7094 C   0  0  0  0  0  0  0  0  0  0  0  0
  -13.9328   -4.4616   12.3549 C   0  0  0  0  0  0  0  0  0  0  0  0
  -14.2047   -6.3432    6.0259 N   0  0  0  0  0  0  0  0  0  0  0  0
  -14.3870   -5.3076    5.8464 H   0  0  0  0  0  0  0  0  0  0  0  0
  -15.9026   -9.2384    3.4446 C   0  0  0  0  0  0  0  0  0  0  0  0
  -16.4401   -7.9780    3.5359 C   0  0  0  0  0  0  0  0  0  0  0  0
  -15.8974   -7.0044    4.3703 C   0  0  0  0  0  0  0  0  0  0  0  0
  -14.8069   -7.2475    5.1410 C   0  0  0  0  0  0  0  0  0  0  0  0
  -14.2620   -8.5567    5.0351 C   0  0  0  0  0  0  0  0  0  0  0  0
  -14.8008   -9.4904    4.2196 C   0  0  0  0  0  0  0  0  0  0  0  0
  -16.1434  -11.5553    2.8183 C   0  0  0  0  0  0  0  0  0  0  0  0
  -16.4538  -10.1978    2.6091 O   0  0  0  0  0  0  0  0  0  0  0  0
  -11.3491   -5.8758   12.6001 N   0  0  0  0  0  0  0  0  0  0  0  0
  -12.1621   -5.8656   13.3050 H   0  0  0  0  0  0  0  0  0  0  0  0
  -10.0842   -5.5608   13.1114 C   0  0  0  0  0  0  0  0  0  0  0  0
   -8.8941   -6.0828   12.6668 C   0  0  0  0  0  0  0  0  0  0  0  0
   -7.6851   -5.6884   13.2612 C   0  0  0  0  0  0  0  0  0  0  0  0
   -7.6573   -4.7793   14.2930 C   0  0  0  0  0  0  0  0  0  0  0  0
   -8.8410   -4.2443   14.7530 C   0  0  0  0  0  0  0  0  0  0  0  0
   -9.9953   -4.6357   14.1689 C   0  0  0  0  0  0  0  0  0  0  0  0
  -11.1500   -4.0810   14.6547 F   0  0  0  0  0  0  0  0  0  0  0  0
 21 22  1  0  0  0
 22 15  1  0  0  0
 15 16  2  0  0  0
 16 17  1  0  0  0
 17 18  2  0  0  0
 18 13  1  0  0  0
 13  1  1  0  0  0
  1  2  2  0  0  0
  2  3  1  0  0  0
  3  4  2  0  0  0
  4  5  1  0  0  0
  5  6  2  0  0  0
  6 23  1  0  0  0
 23 25  1  0  0  0
 25 26  2  0  0  0
 26 27  1  0  0  0
 27 28  2  0  0  0
 28 29  1  0  0  0
 29 30  2  0  0  0
 30 31  1  0  0  0
  6  7  1  0  0  0
  7 10  1  0  0  0
 10 11  1  0  0  0
 10 12  1  0  0  0
  7  8  1  0  0  0
  8  9  2  0  0  0
 18 19  1  0  0  0
 19 20  2  0  0  0
 20 15  1  0  0  0
  9  1  1  0  0  0
  8  4  1  0  0  0
 30 25  1  0  0  0
 13 14  1  0  0  0
 23 24  1  0  0  0
M  END
> <minimizedAffinity>
13.66168

> <CNNscore>
0.5535061955

> <CNNaffinity>
6.9696035385

> <CNN_VS>
3.8577187061

> <CNNaffinity_variance>
1.1058800220

$$$$
[H]c1c([H])c([H])c(N([H])c2nc3c([H])nc(N([H])c4c([H])c([H])c(OC([H])([H])[H])c([H])c4[H])nc3n2C([H])(C([H])([H])[H])C([H])([H])[H])c(F)c1[H]


 31 34  0  0  0  0  0  0  0  0999 V2000
   -8.9918   -8.6804    7.9448 C   0  0  0  0  0  0  0  0  0  0  0  0
   -9.0425   -9.8034    7.2293 N   0  0  0  0  0  0  0  0  0  0  0  0
  -10.1387  -10.3635    6.7213 C   0  0  0  0  0  0  0  0  0  0  0  0
  -11.3512   -9.7415    6.9422 C   0  0  0  0  0  0  0  0  0  0  0  0
  -12.6167  -10.0033    6.5983 N   0  0  0  0  0  0  0  0  0  0  0  0
  -13.4078   -9.0414    7.0933 C   0  0  0  0  0  0  0  0  0  0  0  0
  -12.6466   -8.1373    7.7710 N   0  0  0  0  0  0  0  0  0  0  0  0
  -11.3708   -8.5789    7.6728 C   0  0  0  0  0  0  0  0  0  0  0  0
  -10.2204   -8.0879    8.1449 N   0  0  0  0  0  0  0  0  0  0  0  0
  -13.0856   -6.9369    8.4662 C   0  0  0  0  0  0  0  0  0  0  0  0
  -13.6276   -7.2514    9.8470 C   0  0  0  0  0  0  0  0  0  0  0  0
  -14.0403   -6.1198    7.6495 C   0  0  0  0  0  0  0  0  0  0  0  0
   -7.8431   -8.0937    8.4769 N   0  0  0  0  0  0  0  0  0  0  0  0
   -7.7131   -8.1453    9.5343 H   0  0  0  0  0  0  0  0  0  0  0  0
   -4.9547   -6.0800    6.1254 C   0  0  0  0  0  0  0  0  0  0  0  0
   -4.7262   -6.3294    7.4564 C   0  0  0  0  0  0  0  0  0  0  0  0
   -5.6550   -6.9963    8.2509 C   0  0  0  0  0  0  0  0  0  0  0  0
   -6.8389   -7.4364    7.7538 C   0  0  0  0  0  0  0  0  0  0  0  0
   -7.0603   -7.1709    6.3745 C   0  0  0  0  0  0  0  0  0  0  0  0
   -6.1479   -6.5224    5.6168 C   0  0  0  0  0  0  0  0  0  0  0  0
   -2.6496   -5.5727    5.6277 C   0  0  0  0  0  0  0  0  0  0  0  0
   -4.0203   -5.4147    5.3465 O   0  0  0  0  0  0  0  0  0  0  0  0
  -14.8101   -8.9496    6.9530 N   0  0  0  0  0  0  0  0  0  0  0  0
  -15.3663   -9.2800    7.8130 H   0  0  0  0  0  0  0  0  0  0  0  0
  -15.5661   -8.4946    5.8658 C   0  0  0  0  0  0  0  0  0  0  0  0
  -15.2060   -8.6053    4.5450 C   0  0  0  0  0  0  0  0  0  0  0  0
  -16.0508   -8.1089    3.5397 C   0  0  0  0  0  0  0  0  0  0  0  0
  -17.2485   -7.5049    3.8442 C   0  0  0  0  0  0  0  0  0  0  0  0
  -17.6271   -7.3845    5.1637 C   0  0  0  0  0  0  0  0  0  0  0  0
  -16.8013   -7.8680    6.1181 C   0  0  0  0  0  0  0  0  0  0  0  0
  -17.2136   -7.7289    7.4172 F   0  0  0  0  0  0  0  0  0  0  0  0
 21 22  1  0  0  0
 22 15  1  0  0  0
 15 16  2  0  0  0
 16 17  1  0  0  0
 17 18  2  0  0  0
 18 13  1  0  0  0
 13  1  1  0  0  0
  1  2  2  0  0  0
  2  3  1  0  0  0
  3  4  2  0  0  0
  4  5  1  0  0  0
  5  6  2  0  0  0
  6 23  1  0  0  0
 23 25  1  0  0  0
 25 26  2  0  0  0
 26 27  1  0  0  0
 27 28  2  0  0  0
 28 29  1  0  0  0
 29 30  2  0  0  0
 30 31  1  0  0  0
  6  7  1  0  0  0
  7 10  1  0  0  0
 10 11  1  0  0  0
 10 12  1  0  0  0
  7  8  1  0  0  0
  8  9  2  0  0  0
 18 19  1  0  0  0
 19 20  2  0  0  0
 20 15  1  0  0  0
  9  1  1  0  0  0
  8  4  1  0  0  0
 30 25  1  0  0  0
 13 14  1  0  0  0
 23 24  1  0  0  0
M  END
> <minimizedAffinity>
-8.83502

> <CNNscore>
0.5422855616

> <CNNaffinity>
7.4148149490

> <CNN_VS>
4.0209469795

> <CNNaffinity_variance>
0.0418057032

$$$$
[H]c1c([H])c([H])c(N([H])c2nc3c([H])nc(N([H])c4c([H])c([H])c(OC([H])([H])[H])c([H])c4[H])nc3n2C([H])(C([H])([H])[H])C([H])([H])[H])c(F)c1[H]


 31 34  0  0  0  0  0  0  0  0999 V2000
  -12.3207   -6.3117    8.4050 C   0  0  0  0  0  0  0  0  0  0  0  0
  -11.2136   -6.8870    7.9370 N   0  0  0  0  0  0  0  0  0  0  0  0
  -10.0654   -7.0345    8.5952 C   0  0  0  0  0  0  0  0  0  0  0  0
   -9.9879   -6.5544    9.8872 C   0  0  0  0  0  0  0  0  0  0  0  0
   -9.0319   -6.5253   10.8218 N   0  0  0  0  0  0  0  0  0  0  0  0
   -9.5156   -5.9239   11.9174 C   0  0  0  0  0  0  0  0  0  0  0  0
  -10.8078   -5.5545   11.6944 N   0  0  0  0  0  0  0  0  0  0  0  0
  -11.0939   -5.9494   10.4317 C   0  0  0  0  0  0  0  0  0  0  0  0
  -12.2059   -5.8447    9.6970 N   0  0  0  0  0  0  0  0  0  0  0  0
  -11.7167   -4.8752   12.6053 C   0  0  0  0  0  0  0  0  0  0  0  0
  -12.0113   -3.4576   12.1547 C   0  0  0  0  0  0  0  0  0  0  0  0
  -11.2526   -4.9380   14.0289 C   0  0  0  0  0  0  0  0  0  0  0  0
  -13.5237   -6.1574    7.7153 N   0  0  0  0  0  0  0  0  0  0  0  0
  -13.5763   -5.3736    6.9937 H   0  0  0  0  0  0  0  0  0  0  0  0
  -17.0870   -8.4239    8.0220 C   0  0  0  0  0  0  0  0  0  0  0  0
  -16.0268   -8.6659    8.8606 C   0  0  0  0  0  0  0  0  0  0  0  0
  -14.8466   -7.9308    8.7869 C   0  0  0  0  0  0  0  0  0  0  0  0
  -14.6781   -6.9342    7.8810 C   0  0  0  0  0  0  0  0  0  0  0  0
  -15.7847   -6.6957    7.0204 C   0  0  0  0  0  0  0  0  0  0  0  0
  -16.9239   -7.4183    7.1053 C   0  0  0  0  0  0  0  0  0  0  0  0
  -19.3878   -8.7528    7.3768 C   0  0  0  0  0  0  0  0  0  0  0  0
  -18.2563   -9.1642    8.1070 O   0  0  0  0  0  0  0  0  0  0  0  0
   -8.8231   -5.6938   13.1266 N   0  0  0  0  0  0  0  0  0  0  0  0
   -9.4575   -5.4865   13.9708 H   0  0  0  0  0  0  0  0  0  0  0  0
   -7.4453   -5.6980   13.3757 C   0  0  0  0  0  0  0  0  0  0  0  0
   -6.5395   -6.5687   12.8208 C   0  0  0  0  0  0  0  0  0  0  0  0
   -5.1778   -6.4738   13.1489 C   0  0  0  0  0  0  0  0  0  0  0  0
   -4.7170   -5.5184   14.0245 C   0  0  0  0  0  0  0  0  0  0  0  0
   -5.6104   -4.6357   14.5915 C   0  0  0  0  0  0  0  0  0  0  0  0
   -6.9174   -4.7419   14.2641 C   0  0  0  0  0  0  0  0  0  0  0  0
   -7.7733   -3.8461   14.8490 F   0  0  0  0  0  0  0  0  0  0  0  0
 21 22  1  0  0  0
 22 15  1  0  0  0
 15 16  2  0  0  0
 16 17  1  0  0  0
 17 18  2  0  0  0
 18 13  1  0  0  0
 13  1  1  0  0  0
  1  2  2  0  0  0
  2  3  1  0  0  0
  3  4  2  0  0  0
  4  5  1  0  0  0
  5  6  2  0  0  0
  6 23  1  0  0  0
 23 25  1  0  0  0
 25 26  2  0  0  0
 26 27  1  0  0  0
 27 28  2  0  0  0
 28 29  1  0  0  0
 29 30  2  0  0  0
 30 31  1  0  0  0
  6  7  1  0  0  0
  7 10  1  0  0  0
 10 11  1  0  0  0
 10 12  1  0  0  0
  7  8  1  0  0  0
  8  9  2  0  0  0
 18 19  1  0  0  0
 19 20  2  0  0  0
 20 15  1  0  0  0
  9  1  1  0  0  0
  8  4  1  0  0  0
 30 25  1  0  0  0
 13 14  1  0  0  0
 23 24  1  0  0  0
M  END
> <minimizedAffinity>
15.74663

> <CNNscore>
0.4975248873

> <CNNaffinity>
6.5044822693

> <CNN_VS>
3.2361419201

> <CNNaffinity_variance>
1.2351120710

$$$$
[H]c1c([H])c([H])c(N([H])c2nc3c([H])nc(N([H])c4c([H])c([H])c(OC([H])([H])[H])c([H])c4[H])nc3n2C([H])(C([H])([H])[H])C([H])([H])[H])c(F)c1[H]


 31 34  0  0  0  0  0  0  0  0999 V2000
   -9.0688   -9.3135    7.7213 C   0  0  0  0  0  0  0  0  0  0  0  0
   -9.4631  -10.2936    6.9092 N   0  0  0  0  0  0  0  0  0  0  0  0
  -10.6937  -10.4729    6.4327 C   0  0  0  0  0  0  0  0  0  0  0  0
  -11.6729   -9.5716    6.7996 C   0  0  0  0  0  0  0  0  0  0  0  0
  -12.9751   -9.4378    6.5265 N   0  0  0  0  0  0  0  0  0  0  0  0
  -13.4429   -8.3572    7.1664 C   0  0  0  0  0  0  0  0  0  0  0  0
  -12.4300   -7.7764    7.8683 N   0  0  0  0  0  0  0  0  0  0  0  0
  -11.3342   -8.5361    7.6356 C   0  0  0  0  0  0  0  0  0  0  0  0
  -10.0726   -8.4337    8.0659 N   0  0  0  0  0  0  0  0  0  0  0  0
  -12.4846   -6.5862    8.7035 C   0  0  0  0  0  0  0  0  0  0  0  0
  -11.1063   -6.1647    9.1750 C   0  0  0  0  0  0  0  0  0  0  0  0
  -13.4582   -6.7251    9.8343 C   0  0  0  0  0  0  0  0  0  0  0  0
   -7.7794   -9.1257    8.2203 N   0  0  0  0  0  0  0  0  0  0  0  0
   -7.4413   -9.8059    8.9691 H   0  0  0  0  0  0  0  0  0  0  0  0
   -5.1353   -6.1192    6.8427 C   0  0  0  0  0  0  0  0  0  0  0  0
   -5.3523   -6.3012    8.1864 C   0  0  0  0  0  0  0  0  0  0  0  0
   -6.2101   -7.2870    8.6672 C   0  0  0  0  0  0  0  0  0  0  0  0
   -6.8805   -8.1226    7.8339 C   0  0  0  0  0  0  0  0  0  0  0  0
   -6.6450   -7.9217    6.4459 C   0  0  0  0  0  0  0  0  0  0  0  0
   -5.8086   -6.9602    5.9956 C   0  0  0  0  0  0  0  0  0  0  0  0
   -3.3715   -5.4379    5.3450 C   0  0  0  0  0  0  0  0  0  0  0  0
   -4.2781   -5.1332    6.3785 O   0  0  0  0  0  0  0  0  0  0  0  0
  -14.7686   -7.8707    7.1389 N   0  0  0  0  0  0  0  0  0  0  0  0
  -15.4131   -8.2913    7.8910 H   0  0  0  0  0  0  0  0  0  0  0  0
  -15.3518   -6.9303    6.2810 C   0  0  0  0  0  0  0  0  0  0  0  0
  -14.6778   -5.9368    5.6137 C   0  0  0  0  0  0  0  0  0  0  0  0
  -15.3749   -5.0503    4.7777 C   0  0  0  0  0  0  0  0  0  0  0  0
  -16.7358   -5.1495    4.6046 C   0  0  0  0  0  0  0  0  0  0  0  0
  -17.4297   -6.1397    5.2656 C   0  0  0  0  0  0  0  0  0  0  0  0
  -16.7421   -6.9840    6.0663 C   0  0  0  0  0  0  0  0  0  0  0  0
  -17.4681   -7.9544    6.7055 F   0  0  0  0  0  0  0  0  0  0  0  0
 21 22  1  0  0  0
 22 15  1  0  0  0
 15 16  2  0  0  0
 16 17  1  0  0  0
 17 18  2  0  0  0
 18 13  1  0  0  0
 13  1  1  0  0  0
  1  2  2  0  0  0
  2  3  1  0  0  0
  3  4  2  0  0  0
  4  5  1  0  0  0
  5  6  2  0  0  0
  6 23  1  0  0  0
 23 25  1  0  0  0
 25 26  2  0  0  0
 26 27  1  0  0  0
 27 28  2  0  0  0
 28 29  1  0  0  0
 29 30  2  0  0  0
 30 31  1  0  0  0
  6  7  1  0  0  0
  7 10  1  0  0  0
 10 11  1  0  0  0
 10 12  1  0  0  0
  7  8  1  0  0  0
  8  9  2  0  0  0
 18 19  1  0  0  0
 19 20  2  0  0  0
 20 15  1  0  0  0
  9  1  1  0  0  0
  8  4  1  0  0  0
 30 25  1  0  0  0
 13 14  1  0  0  0
 23 24  1  0  0  0
M  END
> <minimizedAffinity>
-9.30721

> <CNNscore>
0.4957764149

> <CNNaffinity>
7.5081214905

> <CNN_VS>
3.7223496437

> <CNNaffinity_variance>
0.0976433754

$$$$
[H]c1c([H])c([H])c(N([H])c2nc3c([H])nc(N([H])c4c([H])c([H])c(OC([H])([H])[H])c([H])c4[H])nc3n2C([H])(C([H])([H])[H])C([H])([H])[H])c(F)c1[H]


 31 34  0  0  0  0  0  0  0  0999 V2000
  -10.4806   -7.1822    9.1656 C   0  0  0  0  0  0  0  0  0  0  0  0
  -11.0832   -6.1628    9.7767 N   0  0  0  0  0  0  0  0  0  0  0  0
  -12.3799   -5.8655    9.7169 C   0  0  0  0  0  0  0  0  0  0  0  0
  -13.2002   -6.6744    8.9563 C   0  0  0  0  0  0  0  0  0  0  0  0
  -14.5069   -6.6838    8.6721 N   0  0  0  0  0  0  0  0  0  0  0  0
  -14.7670   -7.7213    7.8647 C   0  0  0  0  0  0  0  0  0  0  0  0
  -13.6118   -8.4000    7.6179 N   0  0  0  0  0  0  0  0  0  0  0  0
  -12.6434   -7.7439    8.2991 C   0  0  0  0  0  0  0  0  0  0  0  0
  -11.3304   -7.9673    8.4160 N   0  0  0  0  0  0  0  0  0  0  0  0
  -13.4264   -9.5868    6.7968 C   0  0  0  0  0  0  0  0  0  0  0  0
  -14.0475   -9.4245    5.4230 C   0  0  0  0  0  0  0  0  0  0  0  0
  -13.8826  -10.8365    7.4867 C   0  0  0  0  0  0  0  0  0  0  0  0
   -9.1220   -7.4937    9.2285 N   0  0  0  0  0  0  0  0  0  0  0  0
   -8.6798   -7.5583   10.1970 H   0  0  0  0  0  0  0  0  0  0  0  0
   -6.7055   -8.3611    5.8616 C   0  0  0  0  0  0  0  0  0  0  0  0
   -6.4792   -7.2369    6.6171 C   0  0  0  0  0  0  0  0  0  0  0  0
   -7.2532   -6.9316    7.7335 C   0  0  0  0  0  0  0  0  0  0  0  0
   -8.2755   -7.7282    8.1367 C   0  0  0  0  0  0  0  0  0  0  0  0
   -8.4968   -8.8882    7.3445 C   0  0  0  0  0  0  0  0  0  0  0  0
   -7.7358   -9.1704    6.2636 C   0  0  0  0  0  0  0  0  0  0  0  0
   -6.4575   -9.4611    3.7292 C   0  0  0  0  0  0  0  0  0  0  0  0
   -5.9263   -8.6523    4.7523 O   0  0  0  0  0  0  0  0  0  0  0  0
  -16.0261   -8.0817    7.3361 N   0  0  0  0  0  0  0  0  0  0  0  0
  -16.5837   -8.7721    7.9447 H   0  0  0  0  0  0  0  0  0  0  0  0
  -16.6406   -7.6709    6.1469 C   0  0  0  0  0  0  0  0  0  0  0  0
  -17.5505   -8.4057    5.4268 C   0  0  0  0  0  0  0  0  0  0  0  0
  -18.1000   -7.8851    4.2446 C   0  0  0  0  0  0  0  0  0  0  0  0
  -17.7477   -6.6398    3.7788 C   0  0  0  0  0  0  0  0  0  0  0  0
  -16.8363   -5.8874    4.4873 C   0  0  0  0  0  0  0  0  0  0  0  0
  -16.3176   -6.4046    5.6231 C   0  0  0  0  0  0  0  0  0  0  0  0
  -15.4152   -5.6257    6.2983 F   0  0  0  0  0  0  0  0  0  0  0  0
 21 22  1  0  0  0
 22 15  1  0  0  0
 15 16  2  0  0  0
 16 17  1  0  0  0
 17 18  2  0  0  0
 18 13  1  0  0  0
 13  1  1  0  0  0
  1  2  2  0  0  0
  2  3  1  0  0  0
  3  4  2  0  0  0
  4  5  1  0  0  0
  5  6  2  0  0  0
  6 23  1  0  0  0
 23 25  1  0  0  0
 25 26  2  0  0  0
 26 27  1  0  0  0
 27 28  2  0  0  0
 28 29  1  0  0  0
 29 30  2  0  0  0
 30 31  1  0  0  0
  6  7  1  0  0  0
  7 10  1  0  0  0
 10 11  1  0  0  0
 10 12  1  0  0  0
  7  8  1  0  0  0
  8  9  2  0  0  0
 18 19  1  0  0  0
 19 20  2  0  0  0
 20 15  1  0  0  0
  9  1  1  0  0  0
  8  4  1  0  0  0
 30 25  1  0  0  0
 13 14  1  0  0  0
 23 24  1  0  0  0
M  END
> <minimizedAffinity>
-4.82262

> <CNNscore>
0.4100439847

> <CNNaffinity>
7.3173918724

> <CNN_VS>
3.0004525185

> <CNNaffinity_variance>
0.0516146645

$$$$
[H]c1c([H])c([H])c(N([H])c2nc3c([H])nc(N([H])c4c([H])c([H])c(OC([H])([H])[H])c([H])c4[H])nc3n2C([H])(C([H])([H])[H])C([H])([H])[H])c(F)c1[H]


 31 34  0  0  0  0  0  0  0  0999 V2000
  -11.4128   -6.8311    9.1618 C   0  0  0  0  0  0  0  0  0  0  0  0
  -12.1415   -6.9885   10.2664 N   0  0  0  0  0  0  0  0  0  0  0  0
  -13.4343   -7.3043   10.3174 C   0  0  0  0  0  0  0  0  0  0  0  0
  -14.1072   -7.4921    9.1267 C   0  0  0  0  0  0  0  0  0  0  0  0
  -15.3650   -7.8066    8.7991 N   0  0  0  0  0  0  0  0  0  0  0  0
  -15.4650   -7.8567    7.4636 C   0  0  0  0  0  0  0  0  0  0  0  0
  -14.2533   -7.5703    6.9106 N   0  0  0  0  0  0  0  0  0  0  0  0
  -13.4154   -7.3451    7.9496 C   0  0  0  0  0  0  0  0  0  0  0  0
  -12.1178   -7.0263    7.9933 N   0  0  0  0  0  0  0  0  0  0  0  0
  -13.9023   -7.5114    5.4999 C   0  0  0  0  0  0  0  0  0  0  0  0
  -14.4222   -6.2479    4.8419 C   0  0  0  0  0  0  0  0  0  0  0  0
  -14.3050   -8.7498    4.7580 C   0  0  0  0  0  0  0  0  0  0  0  0
  -10.0584   -6.5004    9.1087 N   0  0  0  0  0  0  0  0  0  0  0  0
   -9.7215   -5.7156    9.7478 H   0  0  0  0  0  0  0  0  0  0  0  0
   -7.0833   -8.1084    6.5609 C   0  0  0  0  0  0  0  0  0  0  0  0
   -7.6713   -8.8835    7.5301 C   0  0  0  0  0  0  0  0  0  0  0  0
   -8.6573   -8.3828    8.3761 C   0  0  0  0  0  0  0  0  0  0  0  0
   -9.0917   -7.0998    8.2903 C   0  0  0  0  0  0  0  0  0  0  0  0
   -8.4737   -6.3104    7.2818 C   0  0  0  0  0  0  0  0  0  0  0  0
   -7.5180   -6.8120    6.4682 C   0  0  0  0  0  0  0  0  0  0  0  0
   -4.7470   -8.4372    6.0593 C   0  0  0  0  0  0  0  0  0  0  0  0
   -6.1026   -8.6208    5.7254 O   0  0  0  0  0  0  0  0  0  0  0  0
  -16.6260   -8.1555    6.7169 N   0  0  0  0  0  0  0  0  0  0  0  0
  -17.0641   -9.1131    6.9388 H   0  0  0  0  0  0  0  0  0  0  0  0
  -17.2765   -7.3895    5.7420 C   0  0  0  0  0  0  0  0  0  0  0  0
  -17.4474   -6.0273    5.7843 C   0  0  0  0  0  0  0  0  0  0  0  0
  -18.1197   -5.3682    4.7430 C   0  0  0  0  0  0  0  0  0  0  0  0
  -18.6205   -6.0585    3.6638 C   0  0  0  0  0  0  0  0  0  0  0  0
  -18.4590   -7.4257    3.6034 C   0  0  0  0  0  0  0  0  0  0  0  0
  -17.8093   -8.0434    4.6148 C   0  0  0  0  0  0  0  0  0  0  0  0
  -17.6694   -9.4028    4.5174 F   0  0  0  0  0  0  0  0  0  0  0  0
 21 22  1  0  0  0
 22 15  1  0  0  0
 15 16  2  0  0  0
 16 17  1  0  0  0
 17 18  2  0  0  0
 18 13  1  0  0  0
 13  1  1  0  0  0
  1  2  2  0  0  0
  2  3  1  0  0  0
  3  4  2  0  0  0
  4  5  1  0  0  0
  5  6  2  0  0  0
  6 23  1  0  0  0
 23 25  1  0  0  0
 25 26  2  0  0  0
 26 27  1  0  0  0
 27 28  2  0  0  0
 28 29  1  0  0  0
 29 30  2  0  0  0
 30 31  1  0  0  0
  6  7  1  0  0  0
  7 10  1  0  0  0
 10 11  1  0  0  0
 10 12  1  0  0  0
  7  8  1  0  0  0
  8  9  2  0  0  0
 18 19  1  0  0  0
 19 20  2  0  0  0
 20 15  1  0  0  0
  9  1  1  0  0  0
  8  4  1  0  0  0
 30 25  1  0  0  0
 13 14  1  0  0  0
 23 24  1  0  0  0
M  END
> <minimizedAffinity>
-8.66678

> <CNNscore>
0.3492296040

> <CNNaffinity>
7.3859648705

> <CNN_VS>
2.5793976784

> <CNNaffinity_variance>
0.1106780618

$$$$
[H]c1c([H])c([H])c(N([H])c2nc3c([H])nc(N([H])c4c([H])c([H])c(OC([H])([H])[H])c([H])c4[H])nc3n2C([H])(C([H])([H])[H])C([H])([H])[H])c(F)c1[H]


 31 34  0  0  0  0  0  0  0  0999 V2000
  -10.0483   -8.0210    8.4035 C   0  0  0  0  0  0  0  0  0  0  0  0
  -10.1875   -6.8397    9.0041 N   0  0  0  0  0  0  0  0  0  0  0  0
  -11.3118   -6.1319    9.0964 C   0  0  0  0  0  0  0  0  0  0  0  0
  -12.4567   -6.6489    8.5239 C   0  0  0  0  0  0  0  0  0  0  0  0
  -13.7241   -6.2347    8.4213 N   0  0  0  0  0  0  0  0  0  0  0  0
  -14.4268   -7.1541    7.7455 C   0  0  0  0  0  0  0  0  0  0  0  0
  -13.6051   -8.1849    7.4013 N   0  0  0  0  0  0  0  0  0  0  0  0
  -12.3835   -7.8639    7.8881 C   0  0  0  0  0  0  0  0  0  0  0  0
  -11.2113   -8.5052    7.8438 N   0  0  0  0  0  0  0  0  0  0  0  0
  -13.9421   -9.3931    6.6639 C   0  0  0  0  0  0  0  0  0  0  0  0
  -13.4618  -10.6417    7.3778 C   0  0  0  0  0  0  0  0  0  0  0  0
  -13.4856   -9.3386    5.2374 C   0  0  0  0  0  0  0  0  0  0  0  0
   -8.8702   -8.7624    8.3071 N   0  0  0  0  0  0  0  0  0  0  0  0
   -8.9093   -9.7838    8.6118 H   0  0  0  0  0  0  0  0  0  0  0  0
   -5.1967   -7.3844    6.7149 C   0  0  0  0  0  0  0  0  0  0  0  0
   -5.5186   -7.1622    8.0313 C   0  0  0  0  0  0  0  0  0  0  0  0
   -6.7158   -7.6109    8.5828 C   0  0  0  0  0  0  0  0  0  0  0  0
   -7.6320   -8.2925    7.8492 C   0  0  0  0  0  0  0  0  0  0  0  0
   -7.2840   -8.5149    6.4885 C   0  0  0  0  0  0  0  0  0  0  0  0
   -6.1172   -8.0729    5.9686 C   0  0  0  0  0  0  0  0  0  0  0  0
   -3.9134   -5.6078    5.7075 C   0  0  0  0  0  0  0  0  0  0  0  0
   -4.0006   -6.9316    6.1795 O   0  0  0  0  0  0  0  0  0  0  0  0
  -15.8008   -7.0950    7.4242 N   0  0  0  0  0  0  0  0  0  0  0  0
  -16.4551   -7.0301    8.2762 H   0  0  0  0  0  0  0  0  0  0  0  0
  -16.4208   -7.1087    6.1689 C   0  0  0  0  0  0  0  0  0  0  0  0
  -17.3360   -8.0406    5.7441 C   0  0  0  0  0  0  0  0  0  0  0  0
  -17.8908   -7.9490    4.4578 C   0  0  0  0  0  0  0  0  0  0  0  0
  -17.5384   -6.9362    3.5963 C   0  0  0  0  0  0  0  0  0  0  0  0
  -16.6217   -5.9917    4.0043 C   0  0  0  0  0  0  0  0  0  0  0  0
  -16.0981   -6.0958    5.2460 C   0  0  0  0  0  0  0  0  0  0  0  0
  -15.1905   -5.1376    5.6137 F   0  0  0  0  0  0  0  0  0  0  0  0
 21 22  1  0  0  0
 22 15  1  0  0  0
 15 16  2  0  0  0
 16 17  1  0  0  0
 17 18  2  0  0  0
 18 13  1  0  0  0
 13  1  1  0  0  0
  1  2  2  0  0  0
  2  3  1  0  0  0
  3  4  2  0  0  0
  4  5  1  0  0  0
  5  6  2  0  0  0
  6 23  1  0  0  0
 23 25  1  0  0  0
 25 26  2  0  0  0
 26 27  1  0  0  0
 27 28  2  0  0  0
 28 29  1  0  0  0
 29 30  2  0  0  0
 30 31  1  0  0  0
  6  7  1  0  0  0
  7 10  1  0  0  0
 10 11  1  0  0  0
 10 12  1  0  0  0
  7  8  1  0  0  0
  8  9  2  0  0  0
 18 19  1  0  0  0
 19 20  2  0  0  0
 20 15  1  0  0  0
  9  1  1  0  0  0
  8  4  1  0  0  0
 30 25  1  0  0  0
 13 14  1  0  0  0
 23 24  1  0  0  0
M  END
> <minimizedAffinity>
-8.16336

> <CNNscore>
0.3052918613

> <CNNaffinity>
7.1265840530

> <CNN_VS>
2.1756880283

> <CNNaffinity_variance>
0.0398689248

$$$$
[H]c1c([H])c([H])c(N([H])c2nc3c([H])nc(N([H])c4c([H])c([H])c(OC([H])([H])[H])c([H])c4[H])nc3n2C([H])(C([H])([H])[H])C([H])([H])[H])c(F)c1[H]


 31 34  0  0  0  0  0  0  0  0999 V2000
  -12.4545   -7.7818    8.5119 C   0  0  0  0  0  0  0  0  0  0  0  0
  -12.1991   -6.5756    9.0174 N   0  0  0  0  0  0  0  0  0  0  0  0
  -11.0038   -5.9943    9.0997 C   0  0  0  0  0  0  0  0  0  0  0  0
   -9.9081   -6.6858    8.6230 C   0  0  0  0  0  0  0  0  0  0  0  0
   -8.5984   -6.4283    8.5421 N   0  0  0  0  0  0  0  0  0  0  0  0
   -7.9850   -7.4772    7.9769 C   0  0  0  0  0  0  0  0  0  0  0  0
   -8.9089   -8.4346    7.6842 N   0  0  0  0  0  0  0  0  0  0  0  0
  -10.1006   -7.9359    8.0884 C   0  0  0  0  0  0  0  0  0  0  0  0
  -11.3374   -8.4419    8.0462 N   0  0  0  0  0  0  0  0  0  0  0  0
   -8.6901   -9.7333    7.0658 C   0  0  0  0  0  0  0  0  0  0  0  0
   -9.9960  -10.4043    6.6864 C   0  0  0  0  0  0  0  0  0  0  0  0
   -7.8109  -10.6205    7.8940 C   0  0  0  0  0  0  0  0  0  0  0  0
  -13.7070   -8.3905    8.4256 N   0  0  0  0  0  0  0  0  0  0  0  0
  -14.0212   -8.9818    9.2560 H   0  0  0  0  0  0  0  0  0  0  0  0
  -16.5350   -8.0121    5.2971 C   0  0  0  0  0  0  0  0  0  0  0  0
  -15.2618   -8.4592    5.0422 C   0  0  0  0  0  0  0  0  0  0  0  0
  -14.3145   -8.6006    6.0529 C   0  0  0  0  0  0  0  0  0  0  0  0
  -14.5969   -8.3033    7.3467 C   0  0  0  0  0  0  0  0  0  0  0  0
  -15.9190   -7.8421    7.5944 C   0  0  0  0  0  0  0  0  0  0  0  0
  -16.8271   -7.7109    6.6018 C   0  0  0  0  0  0  0  0  0  0  0  0
  -17.6558   -6.6165    3.6803 C   0  0  0  0  0  0  0  0  0  0  0  0
  -17.4678   -7.8764    4.2804 O   0  0  0  0  0  0  0  0  0  0  0  0
   -6.6032   -7.6024    7.7126 N   0  0  0  0  0  0  0  0  0  0  0  0
   -6.2784   -8.6074    7.5063 H   0  0  0  0  0  0  0  0  0  0  0  0
   -5.6117   -6.6142    7.6822 C   0  0  0  0  0  0  0  0  0  0  0  0
   -4.9664   -6.1011    8.7807 C   0  0  0  0  0  0  0  0  0  0  0  0
   -3.9858   -5.1089    8.6231 C   0  0  0  0  0  0  0  0  0  0  0  0
   -3.6471   -4.6278    7.3798 C   0  0  0  0  0  0  0  0  0  0  0  0
   -4.2835   -5.1302    6.2656 C   0  0  0  0  0  0  0  0  0  0  0  0
   -5.2249   -6.0849    6.4364 C   0  0  0  0  0  0  0  0  0  0  0  0
   -5.8342   -6.5582    5.3042 F   0  0  0  0  0  0  0  0  0  0  0  0
 21 22  1  0  0  0
 22 15  1  0  0  0
 15 16  2  0  0  0
 16 17  1  0  0  0
 17 18  2  0  0  0
 18 13  1  0  0  0
 13  1  1  0  0  0
  1  2  2  0  0  0
  2  3  1  0  0  0
  3  4  2  0  0  0
  4  5  1  0  0  0
  5  6  2  0  0  0
  6 23  1  0  0  0
 23 25  1  0  0  0
 25 26  2  0  0  0
 26 27  1  0  0  0
 27 28  2  0  0  0
 28 29  1  0  0  0
 29 30  2  0  0  0
 30 31  1  0  0  0
  6  7  1  0  0  0
  7 10  1  0  0  0
 10 11  1  0  0  0
 10 12  1  0  0  0
  7  8  1  0  0  0
  8  9  2  0  0  0
 18 19  1  0  0  0
 19 20  2  0  0  0
 20 15  1  0  0  0
  9  1  1  0  0  0
  8  4  1  0  0  0
 30 25  1  0  0  0
 13 14  1  0  0  0
 23 24  1  0  0  0
M  END
> <minimizedAffinity>
-7.42706

> <CNNscore>
0.2892636657

> <CNNaffinity>
7.1717100143

> <CNN_VS>
2.0745151043

> <CNNaffinity_variance>
0.2358041257

$$$$
[H]c1nc(-c2c([H])c([H])c(OC([H])([H])C([H])([H])C([H])([H])N3C([H])([H])C([H])([H])C([H])(C([H])([H])c4c([H])nc([H])n4[H])C([H])([H])C3([H])[H])c([H])c2[H])nc([H])c1[H]


 29 32  0  0  0  0  0  0  0  0999 V2000
  -10.7416   -7.2087    8.7286 C   0  0  0  0  0  0  0  0  0  0  0  0
   -9.3757   -7.3914    8.0937 C   0  0  0  0  0  0  0  0  0  0  0  0
   -9.1254   -8.7615    8.0246 O   0  0  0  0  0  0  0  0  0  0  0  0
   -8.4618  -10.8194    4.3950 C   0  0  0  0  0  0  0  0  0  0  0  0
   -7.6232   -9.8086    4.8120 C   0  0  0  0  0  0  0  0  0  0  0  0
   -7.8397   -9.1280    6.0087 C   0  0  0  0  0  0  0  0  0  0  0  0
   -8.9060   -9.4436    6.8221 C   0  0  0  0  0  0  0  0  0  0  0  0
   -9.7419  -10.4557    6.4005 C   0  0  0  0  0  0  0  0  0  0  0  0
   -9.5288  -11.1366    5.2071 C   0  0  0  0  0  0  0  0  0  0  0  0
   -7.7717  -12.8086    0.7537 C   0  0  0  0  0  0  0  0  0  0  0  0
   -7.6027  -11.4460    0.8648 C   0  0  0  0  0  0  0  0  0  0  0  0
   -7.8342  -10.8501    2.0477 N   0  0  0  0  0  0  0  0  0  0  0  0
   -8.2271  -11.5260    3.1405 C   0  0  0  0  0  0  0  0  0  0  0  0
   -8.3899  -12.8505    3.0272 N   0  0  0  0  0  0  0  0  0  0  0  0
   -8.1724  -13.5113    1.8613 C   0  0  0  0  0  0  0  0  0  0  0  0
  -11.4993   -8.5113    8.6069 C   0  0  0  0  0  0  0  0  0  0  0  0
  -12.1241   -8.6654    7.3062 N   0  0  0  0  0  0  0  0  0  0  0  0
  -13.1246   -9.7083    7.4331 C   0  0  0  0  0  0  0  0  0  0  0  0
  -14.4511   -9.0669    7.8599 C   0  0  0  0  0  0  0  0  0  0  0  0
  -14.9867   -8.3714    6.6344 C   0  0  0  0  0  0  0  0  0  0  0  0
  -13.9002   -7.5447    6.0351 C   0  0  0  0  0  0  0  0  0  0  0  0
  -12.7127   -7.3899    6.9561 C   0  0  0  0  0  0  0  0  0  0  0  0
  -16.2387   -7.5803    6.9313 C   0  0  0  0  0  0  0  0  0  0  0  0
  -16.9424   -7.3258    5.6586 C   0  0  0  0  0  0  0  0  0  0  0  0
  -17.2940   -6.1239    5.1046 C   0  0  0  0  0  0  0  0  0  0  0  0
  -17.9143   -6.3469    3.9485 N   0  0  0  0  0  0  0  0  0  0  0  0
  -17.9643   -7.6690    3.7557 C   0  0  0  0  0  0  0  0  0  0  0  0
  -17.3711   -8.2598    4.7998 N   0  0  0  0  0  0  0  0  0  0  0  0
  -17.2616   -9.3058    4.9209 H   0  0  0  0  0  0  0  0  0  0  0  0
 10 11  2  0  0  0
 11 12  1  0  0  0
 12 13  2  0  0  0
 13  4  1  0  0  0
  4  5  2  0  0  0
  5  6  1  0  0  0
  6  7  2  0  0  0
  7  3  1  0  0  0
  3  2  1  0  0  0
  2  1  1  0  0  0
  1 16  1  0  0  0
 16 17  1  0  0  0
 17 18  1  0  0  0
 18 19  1  0  0  0
 19 20  1  0  0  0
 20 23  1  0  0  0
 23 24  1  0  0  0
 24 25  2  0  0  0
 25 26  1  0  0  0
 26 27  2  0  0  0
 27 28  1  0  0  0
 20 21  1  0  0  0
 21 22  1  0  0  0
  7  8  1  0  0  0
  8  9  2  0  0  0
 13 14  1  0  0  0
 14 15  2  0  0  0
 15 10  1  0  0  0
  9  4  1  0  0  0
 22 17  1  0  0  0
 28 24  1  0  0  0
 28 29  1  0  0  0
M  END
> <minimizedAffinity>
1.42881

> <CNNscore>
0.4963566065

> <CNNaffinity>
6.9554948807

> <CNN_VS>
3.4524059296

> <CNNaffinity_variance>
0.4084790349

$$$$
[H]c1nc(-c2c([H])c([H])c(OC([H])([H])C([H])([H])C([H])([H])N3C([H])([H])C([H])([H])C([H])(C([H])([H])c4c([H])nc([H])n4[H])C([H])([H])C3([H])[H])c([H])c2[H])nc([H])c1[H]


 29 32  0  0  0  0  0  0  0  0999 V2000
  -12.5443   -7.6929    7.8921 C   0  0  0  0  0  0  0  0  0  0  0  0
  -11.1375   -7.1897    8.1563 C   0  0  0  0  0  0  0  0  0  0  0  0
  -10.3205   -8.3053    8.3374 O   0  0  0  0  0  0  0  0  0  0  0  0
   -9.1055  -10.8308    5.1760 C   0  0  0  0  0  0  0  0  0  0  0  0
   -8.3054   -9.8013    5.6217 C   0  0  0  0  0  0  0  0  0  0  0  0
   -8.7036   -8.9666    6.6642 C   0  0  0  0  0  0  0  0  0  0  0  0
   -9.9184   -9.1423    7.2900 C   0  0  0  0  0  0  0  0  0  0  0  0
  -10.7151  -10.1738    6.8405 C   0  0  0  0  0  0  0  0  0  0  0  0
  -10.3208  -11.0083    5.8006 C   0  0  0  0  0  0  0  0  0  0  0  0
   -7.8664  -13.2902    1.9966 C   0  0  0  0  0  0  0  0  0  0  0  0
   -7.8106  -11.9172    1.8994 C   0  0  0  0  0  0  0  0  0  0  0  0
   -8.2167  -11.1684    2.9398 N   0  0  0  0  0  0  0  0  0  0  0  0
   -8.6801  -11.6994    4.0838 C   0  0  0  0  0  0  0  0  0  0  0  0
   -8.7324  -13.0346    4.1732 N   0  0  0  0  0  0  0  0  0  0  0  0
   -8.3373  -13.8459    3.1587 C   0  0  0  0  0  0  0  0  0  0  0  0
  -12.5313   -8.4828    6.6031 C   0  0  0  0  0  0  0  0  0  0  0  0
  -13.8013   -9.1359    6.3447 N   0  0  0  0  0  0  0  0  0  0  0  0
  -14.8412   -8.2734    6.8734 C   0  0  0  0  0  0  0  0  0  0  0  0
  -15.2639   -7.2860    5.7783 C   0  0  0  0  0  0  0  0  0  0  0  0
  -16.0897   -8.0823    4.8003 C   0  0  0  0  0  0  0  0  0  0  0  0
  -15.3551   -9.3329    4.4546 C   0  0  0  0  0  0  0  0  0  0  0  0
  -13.9154   -9.3063    4.9116 C   0  0  0  0  0  0  0  0  0  0  0  0
  -16.4778   -7.2681    3.5887 C   0  0  0  0  0  0  0  0  0  0  0  0
  -17.4434   -6.2343    4.0114 C   0  0  0  0  0  0  0  0  0  0  0  0
  -18.7952   -6.1919    3.7967 C   0  0  0  0  0  0  0  0  0  0  0  0
  -19.2845   -5.0831    4.3466 N   0  0  0  0  0  0  0  0  0  0  0  0
  -18.2692   -4.4183    4.9076 C   0  0  0  0  0  0  0  0  0  0  0  0
  -17.1510   -5.1238    4.7004 N   0  0  0  0  0  0  0  0  0  0  0  0
  -16.1868   -4.8405    5.0335 H   0  0  0  0  0  0  0  0  0  0  0  0
 10 11  2  0  0  0
 11 12  1  0  0  0
 12 13  2  0  0  0
 13  4  1  0  0  0
  4  5  2  0  0  0
  5  6  1  0  0  0
  6  7  2  0  0  0
  7  3  1  0  0  0
  3  2  1  0  0  0
  2  1  1  0  0  0
  1 16  1  0  0  0
 16 17  1  0  0  0
 17 18  1  0  0  0
 18 19  1  0  0  0
 19 20  1  0  0  0
 20 23  1  0  0  0
 23 24  1  0  0  0
 24 25  2  0  0  0
 25 26  1  0  0  0
 26 27  2  0  0  0
 27 28  1  0  0  0
 20 21  1  0  0  0
 21 22  1  0  0  0
  7  8  1  0  0  0
  8  9  2  0  0  0
 13 14  1  0  0  0
 14 15  2  0  0  0
 15 10  1  0  0  0
  9  4  1  0  0  0
 22 17  1  0  0  0
 28 24  1  0  0  0
 28 29  1  0  0  0
M  END
> <minimizedAffinity>
4.65971

> <CNNscore>
0.4709703028

> <CNNaffinity>
7.1711411476

> <CNN_VS>
3.3773944378

> <CNNaffinity_variance>
1.1148139238

$$$$
[H]c1nc(-c2c([H])c([H])c(OC([H])([H])C([H])([H])C([H])([H])N3C([H])([H])C([H])([H])C([H])(C([H])([H])c4c([H])nc([H])n4[H])C([H])([H])C3([H])[H])c([H])c2[H])nc([H])c1[H]


 29 32  0  0  0  0  0  0  0  0999 V2000
  -10.4949   -6.2552    7.1064 C   0  0  0  0  0  0  0  0  0  0  0  0
   -9.6474   -7.3416    6.4711 C   0  0  0  0  0  0  0  0  0  0  0  0
  -10.0275   -8.5565    7.0405 O   0  0  0  0  0  0  0  0  0  0  0  0
  -12.9285   -8.8805   10.0947 C   0  0  0  0  0  0  0  0  0  0  0  0
  -12.1710   -7.7397    9.9408 C   0  0  0  0  0  0  0  0  0  0  0  0
  -11.2134   -7.6301    8.9344 C   0  0  0  0  0  0  0  0  0  0  0  0
  -10.9887   -8.6644    8.0523 C   0  0  0  0  0  0  0  0  0  0  0  0
  -11.7493   -9.8034    8.2105 C   0  0  0  0  0  0  0  0  0  0  0  0
  -12.7055   -9.9160    9.2136 C   0  0  0  0  0  0  0  0  0  0  0  0
  -15.8512   -9.1679   13.1060 C   0  0  0  0  0  0  0  0  0  0  0  0
  -16.1791   -8.7637   11.8305 C   0  0  0  0  0  0  0  0  0  0  0  0
  -15.2135   -8.6857   10.8981 N   0  0  0  0  0  0  0  0  0  0  0  0
  -13.9287   -8.9860   11.1515 C   0  0  0  0  0  0  0  0  0  0  0  0
  -13.6151   -9.3784   12.3930 N   0  0  0  0  0  0  0  0  0  0  0  0
  -14.5433   -9.4777   13.3789 C   0  0  0  0  0  0  0  0  0  0  0  0
  -11.8968   -6.7917    7.2866 C   0  0  0  0  0  0  0  0  0  0  0  0
  -12.9016   -5.9047    6.7300 N   0  0  0  0  0  0  0  0  0  0  0  0
  -13.3034   -6.4618    5.4522 C   0  0  0  0  0  0  0  0  0  0  0  0
  -14.4658   -7.4353    5.6848 C   0  0  0  0  0  0  0  0  0  0  0  0
  -15.6742   -6.5775    5.9608 C   0  0  0  0  0  0  0  0  0  0  0  0
  -15.3179   -5.5587    6.9895 C   0  0  0  0  0  0  0  0  0  0  0  0
  -14.0019   -5.8552    7.6696 C   0  0  0  0  0  0  0  0  0  0  0  0
  -16.8829   -7.4018    6.3363 C   0  0  0  0  0  0  0  0  0  0  0  0
  -17.3311   -8.1436    5.1410 C   0  0  0  0  0  0  0  0  0  0  0  0
  -18.0664   -9.2972    5.0799 C   0  0  0  0  0  0  0  0  0  0  0  0
  -18.2487   -9.6252    3.8030 N   0  0  0  0  0  0  0  0  0  0  0  0
  -17.6430   -8.7016    3.0495 C   0  0  0  0  0  0  0  0  0  0  0  0
  -17.0861   -7.8023    3.8694 N   0  0  0  0  0  0  0  0  0  0  0  0
  -16.5376   -6.9537    3.5532 H   0  0  0  0  0  0  0  0  0  0  0  0
 10 11  2  0  0  0
 11 12  1  0  0  0
 12 13  2  0  0  0
 13  4  1  0  0  0
  4  5  2  0  0  0
  5  6  1  0  0  0
  6  7  2  0  0  0
  7  3  1  0  0  0
  3  2  1  0  0  0
  2  1  1  0  0  0
  1 16  1  0  0  0
 16 17  1  0  0  0
 17 18  1  0  0  0
 18 19  1  0  0  0
 19 20  1  0  0  0
 20 23  1  0  0  0
 23 24  1  0  0  0
 24 25  2  0  0  0
 25 26  1  0  0  0
 26 27  2  0  0  0
 27 28  1  0  0  0
 20 21  1  0  0  0
 21 22  1  0  0  0
  7  8  1  0  0  0
  8  9  2  0  0  0
 13 14  1  0  0  0
 14 15  2  0  0  0
 15 10  1  0  0  0
  9  4  1  0  0  0
 22 17  1  0  0  0
 28 24  1  0  0  0
 28 29  1  0  0  0
M  END
> <minimizedAffinity>
18.25543

> <CNNscore>
0.3913777769

> <CNNaffinity>
6.6506814957

> <CNN_VS>
2.6029288769

> <CNNaffinity_variance>
1.1262161732

$$$$
[H]c1nc(-c2c([H])c([H])c(OC([H])([H])C([H])([H])C([H])([H])N3C([H])([H])C([H])([H])C([H])(C([H])([H])c4c([H])nc([H])n4[H])C([H])([H])C3([H])[H])c([H])c2[H])nc([H])c1[H]


 29 32  0  0  0  0  0  0  0  0999 V2000
  -12.7711   -9.9953    7.9726 C   0  0  0  0  0  0  0  0  0  0  0  0
  -11.5015   -9.7055    7.1940 C   0  0  0  0  0  0  0  0  0  0  0  0
  -10.7636   -8.7760    7.9262 O   0  0  0  0  0  0  0  0  0  0  0  0
   -6.8167   -7.6440    6.9314 C   0  0  0  0  0  0  0  0  0  0  0  0
   -7.1434   -8.9566    7.1946 C   0  0  0  0  0  0  0  0  0  0  0  0
   -8.4444   -9.3329    7.5231 C   0  0  0  0  0  0  0  0  0  0  0  0
   -9.4561   -8.4004    7.5966 C   0  0  0  0  0  0  0  0  0  0  0  0
   -9.1240   -7.0887    7.3323 C   0  0  0  0  0  0  0  0  0  0  0  0
   -7.8270   -6.7100    7.0043 C   0  0  0  0  0  0  0  0  0  0  0  0
   -2.9002   -6.4875    5.9235 C   0  0  0  0  0  0  0  0  0  0  0  0
   -3.9721   -5.6546    5.6890 C   0  0  0  0  0  0  0  0  0  0  0  0
   -5.2076   -6.0639    6.0267 N   0  0  0  0  0  0  0  0  0  0  0  0
   -5.4518   -7.2598    6.5885 C   0  0  0  0  0  0  0  0  0  0  0  0
   -4.4063   -8.0657    6.8144 N   0  0  0  0  0  0  0  0  0  0  0  0
   -3.1348   -7.7113    6.4966 C   0  0  0  0  0  0  0  0  0  0  0  0
  -12.9228   -8.9384    9.0429 C   0  0  0  0  0  0  0  0  0  0  0  0
  -14.1370   -8.1603    8.8801 N   0  0  0  0  0  0  0  0  0  0  0  0
  -13.7389   -6.8273    8.4687 C   0  0  0  0  0  0  0  0  0  0  0  0
  -13.6543   -6.7908    6.9375 C   0  0  0  0  0  0  0  0  0  0  0  0
  -15.0791   -6.7760    6.4453 C   0  0  0  0  0  0  0  0  0  0  0  0
  -15.8406   -7.8536    7.1396 C   0  0  0  0  0  0  0  0  0  0  0  0
  -14.9411   -8.8205    7.8734 C   0  0  0  0  0  0  0  0  0  0  0  0
  -15.1615   -6.8671    4.9399 C   0  0  0  0  0  0  0  0  0  0  0  0
  -16.5544   -6.5967    4.5318 C   0  0  0  0  0  0  0  0  0  0  0  0
  -17.4286   -7.4267    3.8822 C   0  0  0  0  0  0  0  0  0  0  0  0
  -18.5824   -6.7867    3.7081 N   0  0  0  0  0  0  0  0  0  0  0  0
  -18.4593   -5.5641    4.2350 C   0  0  0  0  0  0  0  0  0  0  0  0
  -17.2227   -5.4541    4.7349 N   0  0  0  0  0  0  0  0  0  0  0  0
  -16.8393   -4.5923    5.2159 H   0  0  0  0  0  0  0  0  0  0  0  0
 10 11  2  0  0  0
 11 12  1  0  0  0
 12 13  2  0  0  0
 13  4  1  0  0  0
  4  5  2  0  0  0
  5  6  1  0  0  0
  6  7  2  0  0  0
  7  3  1  0  0  0
  3  2  1  0  0  0
  2  1  1  0  0  0
  1 16  1  0  0  0
 16 17  1  0  0  0
 17 18  1  0  0  0
 18 19  1  0  0  0
 19 20  1  0  0  0
 20 23  1  0  0  0
 23 24  1  0  0  0
 24 25  2  0  0  0
 25 26  1  0  0  0
 26 27  2  0  0  0
 27 28  1  0  0  0
 20 21  1  0  0  0
 21 22  1  0  0  0
  7  8  1  0  0  0
  8  9  2  0  0  0
 13 14  1  0  0  0
 14 15  2  0  0  0
 15 10  1  0  0  0
  9  4  1  0  0  0
 22 17  1  0  0  0
 28 24  1  0  0  0
 28 29  1  0  0  0
M  END
> <minimizedAffinity>
-8.54419

> <CNNscore>
0.3907840252

> <CNNaffinity>
7.0360527039

> <CNN_VS>
2.7495770454

> <CNNaffinity_variance>
0.0150018781

$$$$
[H]c1nc(-c2c([H])c([H])c(OC([H])([H])C([H])([H])C([H])([H])N3C([H])([H])C([H])([H])C([H])(C([H])([H])c4c([H])nc([H])n4[H])C([H])([H])C3([H])[H])c([H])c2[H])nc([H])c1[H]


 29 32  0  0  0  0  0  0  0  0999 V2000
   -4.3649   -5.2579    9.3372 C   0  0  0  0  0  0  0  0  0  0  0  0
   -3.2502   -5.9394    8.5658 C   0  0  0  0  0  0  0  0  0  0  0  0
   -2.4204   -4.9403    8.0578 O   0  0  0  0  0  0  0  0  0  0  0  0
   -2.4832   -3.6996    4.0198 C   0  0  0  0  0  0  0  0  0  0  0  0
   -2.2998   -2.7984    5.0460 C   0  0  0  0  0  0  0  0  0  0  0  0
   -2.2787   -3.2047    6.3788 C   0  0  0  0  0  0  0  0  0  0  0  0
   -2.4413   -4.5297    6.7198 C   0  0  0  0  0  0  0  0  0  0  0  0
   -2.6243   -5.4273    5.6894 C   0  0  0  0  0  0  0  0  0  0  0  0
   -2.6459   -5.0251    4.3587 C   0  0  0  0  0  0  0  0  0  0  0  0
   -2.5291   -2.4967   -0.0105 C   0  0  0  0  0  0  0  0  0  0  0  0
   -2.2274   -3.7935    0.3430 C   0  0  0  0  0  0  0  0  0  0  0  0
   -2.2241   -4.1355    1.6434 N   0  0  0  0  0  0  0  0  0  0  0  0
   -2.5040   -3.2646    2.6274 C   0  0  0  0  0  0  0  0  0  0  0  0
   -2.7967   -2.0051    2.2785 N   0  0  0  0  0  0  0  0  0  0  0  0
   -2.8169   -1.5969    0.9837 C   0  0  0  0  0  0  0  0  0  0  0  0
   -3.7398   -4.3721   10.3909 C   0  0  0  0  0  0  0  0  0  0  0  0
   -3.4749   -5.0877   11.6254 N   0  0  0  0  0  0  0  0  0  0  0  0
   -2.0431   -5.0329   11.8528 C   0  0  0  0  0  0  0  0  0  0  0  0
   -1.7221   -3.7680   12.6590 C   0  0  0  0  0  0  0  0  0  0  0  0
   -2.1762   -4.0500   14.0685 C   0  0  0  0  0  0  0  0  0  0  0  0
   -3.5635   -4.5949   14.0285 C   0  0  0  0  0  0  0  0  0  0  0  0
   -4.2163   -4.4239   12.6769 C   0  0  0  0  0  0  0  0  0  0  0  0
   -2.0396   -2.8404   14.9626 C   0  0  0  0  0  0  0  0  0  0  0  0
   -2.0979   -1.6290   14.1205 C   0  0  0  0  0  0  0  0  0  0  0  0
   -1.0626   -0.8570   13.6651 C   0  0  0  0  0  0  0  0  0  0  0  0
   -1.5571    0.1414   12.9372 N   0  0  0  0  0  0  0  0  0  0  0  0
   -2.8884    0.0196   12.9205 C   0  0  0  0  0  0  0  0  0  0  0  0
   -3.2119   -1.0598   13.6425 N   0  0  0  0  0  0  0  0  0  0  0  0
   -4.1996   -1.4044   13.8058 H   0  0  0  0  0  0  0  0  0  0  0  0
 10 11  2  0  0  0
 11 12  1  0  0  0
 12 13  2  0  0  0
 13  4  1  0  0  0
  4  5  2  0  0  0
  5  6  1  0  0  0
  6  7  2  0  0  0
  7  3  1  0  0  0
  3  2  1  0  0  0
  2  1  1  0  0  0
  1 16  1  0  0  0
 16 17  1  0  0  0
 17 18  1  0  0  0
 18 19  1  0  0  0
 19 20  1  0  0  0
 20 23  1  0  0  0
 23 24  1  0  0  0
 24 25  2  0  0  0
 25 26  1  0  0  0
 26 27  2  0  0  0
 27 28  1  0  0  0
 20 21  1  0  0  0
 21 22  1  0  0  0
  7  8  1  0  0  0
  8  9  2  0  0  0
 13 14  1  0  0  0
 14 15  2  0  0  0
 15 10  1  0  0  0
  9  4  1  0  0  0
 22 17  1  0  0  0
 28 24  1  0  0  0
 28 29  1  0  0  0
M  END
> <minimizedAffinity>
-2.96797

> <CNNscore>
0.3503000438

> <CNNaffinity>
4.8962874413

> <CNN_VS>
1.7151696682

> <CNNaffinity_variance>
0.0992181152

$$$$
[H]c1nc(-c2c([H])c([H])c(OC([H])([H])C([H])([H])C([H])([H])N3C([H])([H])C([H])([H])C([H])(C([H])([H])c4c([H])nc([H])n4[H])C([H])([H])C3([H])[H])c([H])c2[H])nc([H])c1[H]


 29 32  0  0  0  0  0  0  0  0999 V2000
  -12.7338  -10.0680    7.9219 C   0  0  0  0  0  0  0  0  0  0  0  0
  -11.4686   -9.7545    7.1453 C   0  0  0  0  0  0  0  0  0  0  0  0
  -10.7611   -8.7935    7.8669 O   0  0  0  0  0  0  0  0  0  0  0  0
   -6.8291   -7.5903    6.8970 C   0  0  0  0  0  0  0  0  0  0  0  0
   -7.8494   -6.6736    7.0294 C   0  0  0  0  0  0  0  0  0  0  0  0
   -9.1473   -7.0676    7.3491 C   0  0  0  0  0  0  0  0  0  0  0  0
   -9.4582   -8.3954    7.5455 C   0  0  0  0  0  0  0  0  0  0  0  0
   -8.4339   -9.3085    7.4120 C   0  0  0  0  0  0  0  0  0  0  0  0
   -7.1380   -8.9187    7.0931 C   0  0  0  0  0  0  0  0  0  0  0  0
   -2.9007   -6.4201    5.9533 C   0  0  0  0  0  0  0  0  0  0  0  0
   -3.1547   -7.6125    6.5947 C   0  0  0  0  0  0  0  0  0  0  0  0
   -4.4257   -7.9479    6.8776 N   0  0  0  0  0  0  0  0  0  0  0  0
   -5.4735   -7.1683    6.5618 C   0  0  0  0  0  0  0  0  0  0  0  0
   -5.2211   -6.0102    5.9383 N   0  0  0  0  0  0  0  0  0  0  0  0
   -3.9608   -5.6143    5.6249 C   0  0  0  0  0  0  0  0  0  0  0  0
  -12.8797   -9.0438    9.0244 C   0  0  0  0  0  0  0  0  0  0  0  0
  -14.0929   -8.2588    8.8897 N   0  0  0  0  0  0  0  0  0  0  0  0
  -13.6900   -6.8935    8.6099 C   0  0  0  0  0  0  0  0  0  0  0  0
  -13.5551   -6.7228    7.0914 C   0  0  0  0  0  0  0  0  0  0  0  0
  -14.9629   -6.6701    6.5549 C   0  0  0  0  0  0  0  0  0  0  0  0
  -15.7400   -7.8070    7.1265 C   0  0  0  0  0  0  0  0  0  0  0  0
  -14.8590   -8.8311    7.8028 C   0  0  0  0  0  0  0  0  0  0  0  0
  -14.9950   -6.6293    5.0454 C   0  0  0  0  0  0  0  0  0  0  0  0
  -16.3972   -6.4662    4.6129 C   0  0  0  0  0  0  0  0  0  0  0  0
  -17.2052   -5.3677    4.7374 C   0  0  0  0  0  0  0  0  0  0  0  0
  -18.3966   -5.6473    4.2144 N   0  0  0  0  0  0  0  0  0  0  0  0
  -18.3624   -6.9038    3.7589 C   0  0  0  0  0  0  0  0  0  0  0  0
  -17.1428   -7.3973    4.0042 N   0  0  0  0  0  0  0  0  0  0  0  0
  -16.8242   -8.3751    3.7524 H   0  0  0  0  0  0  0  0  0  0  0  0
 10 11  2  0  0  0
 11 12  1  0  0  0
 12 13  2  0  0  0
 13  4  1  0  0  0
  4  5  2  0  0  0
  5  6  1  0  0  0
  6  7  2  0  0  0
  7  3  1  0  0  0
  3  2  1  0  0  0
  2  1  1  0  0  0
  1 16  1  0  0  0
 16 17  1  0  0  0
 17 18  1  0  0  0
 18 19  1  0  0  0
 19 20  1  0  0  0
 20 23  1  0  0  0
 23 24  1  0  0  0
 24 25  2  0  0  0
 25 26  1  0  0  0
 26 27  2  0  0  0
 27 28  1  0  0  0
 20 21  1  0  0  0
 21 22  1  0  0  0
  7  8  1  0  0  0
  8  9  2  0  0  0
 13 14  1  0  0  0
 14 15  2  0  0  0
 15 10  1  0  0  0
  9  4  1  0  0  0
 22 17  1  0  0  0
 28 24  1  0  0  0
 28 29  1  0  0  0
M  END
> <minimizedAffinity>
-8.50688

> <CNNscore>
0.3490956128

> <CNNaffinity>
7.0689558983

> <CNN_VS>
2.4677414894

> <CNNaffinity_variance>
0.0165337231

$$$$
[H]c1nc(-c2c([H])c([H])c(OC([H])([H])C([H])([H])C([H])([H])N3C([H])([H])C([H])([H])C([H])(C([H])([H])c4c([H])nc([H])n4[H])C([H])([H])C3([H])[H])c([H])c2[H])nc([H])c1[H]


 29 32  0  0  0  0  0  0  0  0999 V2000
  -12.7307   -7.1074    7.9529 C   0  0  0  0  0  0  0  0  0  0  0  0
  -11.3236   -6.8558    8.4617 C   0  0  0  0  0  0  0  0  0  0  0  0
  -10.7606   -8.0944    8.7673 O   0  0  0  0  0  0  0  0  0  0  0  0
   -9.4871  -10.8532    5.8319 C   0  0  0  0  0  0  0  0  0  0  0  0
   -8.6289   -9.9081    6.3507 C   0  0  0  0  0  0  0  0  0  0  0  0
   -9.0462   -8.9969    7.3189 C   0  0  0  0  0  0  0  0  0  0  0  0
  -10.3391   -9.0086    7.7947 C   0  0  0  0  0  0  0  0  0  0  0  0
  -11.1937   -9.9562    7.2725 C   0  0  0  0  0  0  0  0  0  0  0  0
  -10.7806  -10.8667    6.3064 C   0  0  0  0  0  0  0  0  0  0  0  0
   -8.1914  -13.5494    2.8748 C   0  0  0  0  0  0  0  0  0  0  0  0
   -8.2078  -12.1915    2.6436 C   0  0  0  0  0  0  0  0  0  0  0  0
   -8.6296  -11.3649    3.6166 N   0  0  0  0  0  0  0  0  0  0  0  0
   -9.0410  -11.8030    4.8183 C   0  0  0  0  0  0  0  0  0  0  0  0
   -9.0232  -13.1240    5.0381 N   0  0  0  0  0  0  0  0  0  0  0  0
   -8.6087  -14.0107    4.0972 C   0  0  0  0  0  0  0  0  0  0  0  0
  -12.6343   -7.7111    6.5702 C   0  0  0  0  0  0  0  0  0  0  0  0
  -13.7186   -7.2832    5.7057 N   0  0  0  0  0  0  0  0  0  0  0  0
  -14.4767   -8.4684    5.3519 C   0  0  0  0  0  0  0  0  0  0  0  0
  -15.5670   -8.6875    6.4085 C   0  0  0  0  0  0  0  0  0  0  0  0
  -16.6195   -7.6426    6.1389 C   0  0  0  0  0  0  0  0  0  0  0  0
  -15.9559   -6.3152    5.9945 C   0  0  0  0  0  0  0  0  0  0  0  0
  -14.5161   -6.3327    6.4517 C   0  0  0  0  0  0  0  0  0  0  0  0
  -17.7093   -7.6502    7.1847 C   0  0  0  0  0  0  0  0  0  0  0  0
  -18.7641   -8.5884    6.7523 C   0  0  0  0  0  0  0  0  0  0  0  0
  -19.1174   -8.9452    5.4783 C   0  0  0  0  0  0  0  0  0  0  0  0
  -20.1196   -9.8189    5.5375 N   0  0  0  0  0  0  0  0  0  0  0  0
  -20.4112  -10.0253    6.8258 C   0  0  0  0  0  0  0  0  0  0  0  0
  -19.5829   -9.2737    7.5607 N   0  0  0  0  0  0  0  0  0  0  0  0
  -19.5815   -9.2327    8.6186 H   0  0  0  0  0  0  0  0  0  0  0  0
 10 11  2  0  0  0
 11 12  1  0  0  0
 12 13  2  0  0  0
 13  4  1  0  0  0
  4  5  2  0  0  0
  5  6  1  0  0  0
  6  7  2  0  0  0
  7  3  1  0  0  0
  3  2  1  0  0  0
  2  1  1  0  0  0
  1 16  1  0  0  0
 16 17  1  0  0  0
 17 18  1  0  0  0
 18 19  1  0  0  0
 19 20  1  0  0  0
 20 23  1  0  0  0
 23 24  1  0  0  0
 24 25  2  0  0  0
 25 26  1  0  0  0
 26 27  2  0  0  0
 27 28  1  0  0  0
 20 21  1  0  0  0
 21 22  1  0  0  0
  7  8  1  0  0  0
  8  9  2  0  0  0
 13 14  1  0  0  0
 14 15  2  0  0  0
 15 10  1  0  0  0
  9  4  1  0  0  0
 22 17  1  0  0  0
 28 24  1  0  0  0
 28 29  1  0  0  0
M  END
> <minimizedAffinity>
7.15290

> <CNNscore>
0.3078308403

> <CNNaffinity>
6.4903106689

> <CNN_VS>
1.9979177713

> <CNNaffinity_variance>
0.4988505840

$$$$
[H]c1nc(-c2c([H])c([H])c(OC([H])([H])C([H])([H])C([H])([H])N3C([H])([H])C([H])([H])C([H])(C([H])([H])c4c([H])nc([H])n4[H])C([H])([H])C3([H])[H])c([H])c2[H])nc([H])c1[H]


 29 32  0  0  0  0  0  0  0  0999 V2000
   -3.8174   -4.9053    7.9201 C   0  0  0  0  0  0  0  0  0  0  0  0
   -2.6764   -5.1972    6.9637 C   0  0  0  0  0  0  0  0  0  0  0  0
   -2.3610   -4.0058    6.3112 O   0  0  0  0  0  0  0  0  0  0  0  0
   -3.0319   -3.3680    2.1891 C   0  0  0  0  0  0  0  0  0  0  0  0
   -3.7366   -2.6732    3.1480 C   0  0  0  0  0  0  0  0  0  0  0  0
   -3.5175   -2.8815    4.5084 C   0  0  0  0  0  0  0  0  0  0  0  0
   -2.5830   -3.7948    4.9454 C   0  0  0  0  0  0  0  0  0  0  0  0
   -1.8806   -4.4872    3.9820 C   0  0  0  0  0  0  0  0  0  0  0  0
   -2.0968   -4.2817    2.6240 C   0  0  0  0  0  0  0  0  0  0  0  0
   -3.7677   -2.7110   -1.8999 C   0  0  0  0  0  0  0  0  0  0  0  0
   -4.7843   -2.6430   -0.9727 C   0  0  0  0  0  0  0  0  0  0  0  0
   -4.5051   -2.8598    0.3246 N   0  0  0  0  0  0  0  0  0  0  0  0
   -3.2684   -3.1430    0.7672 C   0  0  0  0  0  0  0  0  0  0  0  0
   -2.2837   -3.2079   -0.1382 N   0  0  0  0  0  0  0  0  0  0  0  0
   -2.5003   -2.9992   -1.4622 C   0  0  0  0  0  0  0  0  0  0  0  0
   -3.2519   -4.2006    9.1322 C   0  0  0  0  0  0  0  0  0  0  0  0
   -3.3801   -4.9944   10.3404 N   0  0  0  0  0  0  0  0  0  0  0  0
   -2.1040   -5.6485   10.5598 C   0  0  0  0  0  0  0  0  0  0  0  0
   -1.2179   -4.7251   11.4055 C   0  0  0  0  0  0  0  0  0  0  0  0
   -1.7662   -4.7968   12.8078 C   0  0  0  0  0  0  0  0  0  0  0  0
   -3.2432   -4.5986   12.7591 C   0  0  0  0  0  0  0  0  0  0  0  0
   -3.7171   -4.0887   11.4183 C   0  0  0  0  0  0  0  0  0  0  0  0
   -1.0691   -3.8350   13.7408 C   0  0  0  0  0  0  0  0  0  0  0  0
   -1.7285   -2.5186   13.6314 C   0  0  0  0  0  0  0  0  0  0  0  0
   -1.4747   -1.5095   12.7411 C   0  0  0  0  0  0  0  0  0  0  0  0
   -2.2988   -0.4953   12.9925 N   0  0  0  0  0  0  0  0  0  0  0  0
   -3.0732   -0.8397   14.0266 C   0  0  0  0  0  0  0  0  0  0  0  0
   -2.7215   -2.0723   14.4114 N   0  0  0  0  0  0  0  0  0  0  0  0
   -3.1653   -2.6060   15.2108 H   0  0  0  0  0  0  0  0  0  0  0  0
 10 11  2  0  0  0
 11 12  1  0  0  0
 12 13  2  0  0  0
 13  4  1  0  0  0
  4  5  2  0  0  0
  5  6  1  0  0  0
  6  7  2  0  0  0
  7  3  1  0  0  0
  3  2  1  0  0  0
  2  1  1  0  0  0
  1 16  1  0  0  0
 16 17  1  0  0  0
 17 18  1  0  0  0
 18 19  1  0  0  0
 19 20  1  0  0  0
 20 23  1  0  0  0
 23 24  1  0  0  0
 24 25  2  0  0  0
 25 26  1  0  0  0
 26 27  2  0  0  0
 27 28  1  0  0  0
 20 21  1  0  0  0
 21 22  1  0  0  0
  7  8  1  0  0  0
  8  9  2  0  0  0
 13 14  1  0  0  0
 14 15  2  0  0  0
 15 10  1  0  0  0
  9  4  1  0  0  0
 22 17  1  0  0  0
 28 24  1  0  0  0
 28 29  1  0  0  0
M  END
> <minimizedAffinity>
-3.05339

> <CNNscore>
0.2973753810

> <CNNaffinity>
4.7774758339

> <CNN_VS>
1.4207036495

> <CNNaffinity_variance>
0.3287677467

$$$$
[H]c1nc(-c2c([H])c([H])c(OC([H])([H])C([H])([H])C([H])([H])N3C([H])([H])C([H])([H])C([H])(C([H])([H])c4c([H])nc([H])n4[H])C([H])([H])C3([H])[H])c([H])c2[H])nc([H])c1[H]


 29 32  0  0  0  0  0  0  0  0999 V2000
  -17.3362   -7.7126    7.2493 C   0  0  0  0  0  0  0  0  0  0  0  0
  -16.2218   -8.4587    6.5399 C   0  0  0  0  0  0  0  0  0  0  0  0
  -15.3888   -8.9983    7.5195 O   0  0  0  0  0  0  0  0  0  0  0  0
  -11.2175   -8.3386    7.6411 C   0  0  0  0  0  0  0  0  0  0  0  0
  -11.7415   -9.6078    7.5249 C   0  0  0  0  0  0  0  0  0  0  0  0
  -13.1169   -9.8284    7.4846 C   0  0  0  0  0  0  0  0  0  0  0  0
  -14.0068   -8.7792    7.5599 C   0  0  0  0  0  0  0  0  0  0  0  0
  -13.4775   -7.5115    7.6759 C   0  0  0  0  0  0  0  0  0  0  0  0
  -12.1058   -7.2880    7.7164 C   0  0  0  0  0  0  0  0  0  0  0  0
   -7.0660   -7.6845    7.8134 C   0  0  0  0  0  0  0  0  0  0  0  0
   -7.8724   -7.4377    8.9027 C   0  0  0  0  0  0  0  0  0  0  0  0
   -9.1948   -7.6605    8.8043 N   0  0  0  0  0  0  0  0  0  0  0  0
   -9.7761   -8.1177    7.6826 C   0  0  0  0  0  0  0  0  0  0  0  0
   -8.9878   -8.3561    6.6265 N   0  0  0  0  0  0  0  0  0  0  0  0
   -7.6460   -8.1516    6.6616 C   0  0  0  0  0  0  0  0  0  0  0  0
  -18.6584   -8.2681    6.7710 C   0  0  0  0  0  0  0  0  0  0  0  0
  -19.0646   -7.7032    5.4974 N   0  0  0  0  0  0  0  0  0  0  0  0
  -18.7811   -6.2814    5.5501 C   0  0  0  0  0  0  0  0  0  0  0  0
  -17.3468   -6.0483    5.0587 C   0  0  0  0  0  0  0  0  0  0  0  0
  -17.3885   -6.2271    3.5625 C   0  0  0  0  0  0  0  0  0  0  0  0
  -18.1032   -7.4974    3.2481 C   0  0  0  0  0  0  0  0  0  0  0  0
  -18.2992   -8.3704    4.4654 C   0  0  0  0  0  0  0  0  0  0  0  0
  -16.0134   -6.1512    2.9423 C   0  0  0  0  0  0  0  0  0  0  0  0
  -15.3989   -7.4922    3.0047 C   0  0  0  0  0  0  0  0  0  0  0  0
  -15.8639   -8.6142    3.6373 C   0  0  0  0  0  0  0  0  0  0  0  0
  -15.0008   -9.6082    3.4419 N   0  0  0  0  0  0  0  0  0  0  0  0
  -13.9945   -9.1401    2.6964 C   0  0  0  0  0  0  0  0  0  0  0  0
  -14.2422   -7.8515    2.4333 N   0  0  0  0  0  0  0  0  0  0  0  0
  -13.6149   -7.2198    1.8603 H   0  0  0  0  0  0  0  0  0  0  0  0
 10 11  2  0  0  0
 11 12  1  0  0  0
 12 13  2  0  0  0
 13  4  1  0  0  0
  4  5  2  0  0  0
  5  6  1  0  0  0
  6  7  2  0  0  0
  7  3  1  0  0  0
  3  2  1  0  0  0
  2  1  1  0  0  0
  1 16  1  0  0  0
 16 17  1  0  0  0
 17 18  1  0  0  0
 18 19  1  0  0  0
 19 20  1  0  0  0
 20 23  1  0  0  0
 23 24  1  0  0  0
 24 25  2  0  0  0
 25 26  1  0  0  0
 26 27  2  0  0  0
 27 28  1  0  0  0
 20 21  1  0  0  0
 21 22  1  0  0  0
  7  8  1  0  0  0
  8  9  2  0  0  0
 13 14  1  0  0  0
 14 15  2  0  0  0
 15 10  1  0  0  0
  9  4  1  0  0  0
 22 17  1  0  0  0
 28 24  1  0  0  0
 28 29  1  0  0  0
M  END
> <minimizedAffinity>
1.88024

> <CNNscore>
0.2972870469

> <CNNaffinity>
6.7939491272

> <CNN_VS>
2.0197529793

> <CNNaffinity_variance>
0.0798101202

$$$$
[H]OC(=O)[C@]1([H])N([H])[C@@]([H])(C([H])([H])C([H])([H])c2c([H])c([H])c([H])c([H])c2[H])C(=O)N([H])[C@]([H])(C(=O)N([H])C([H])([H])[H])C([H])([H])C([H])([H])C(=O)OC([H])([H])C([H])([H])N([H])C(=O)C([H])([H])C1([H])[H]


 39 40  0  0  0  0  0  0  0  0999 V2000
   -7.6591   -7.9973    6.3361 C   0  0  0  0  0  0  0  0  0  0  0  0
   -8.2976   -7.2323    7.4482 C   0  0  0  0  0  0  0  0  0  0  0  0
   -7.4009   -6.4401    8.3335 C   0  0  0  0  0  0  0  0  0  0  0  0
   -7.8407   -6.5809    9.7700 C   0  0  0  0  0  0  0  0  0  0  0  0
   -7.2164   -7.4543   10.4641 O   0  0  0  0  0  0  0  0  0  0  0  0
   -8.8384   -5.8451   10.3404 O   0  0  0  0  0  0  0  0  0  0  0  0
  -10.1336   -5.6223    9.9052 C   0  0  0  0  0  0  0  0  0  0  0  0
  -11.1637   -6.5964   10.4776 C   0  0  0  0  0  0  0  0  0  0  0  0
  -12.3342   -6.5521    9.6454 N   0  0  0  0  0  0  0  0  0  0  0  0
  -13.2698   -7.5906    9.4413 C   0  0  0  0  0  0  0  0  0  0  0  0
  -14.5260   -7.3520    9.4967 O   0  0  0  0  0  0  0  0  0  0  0  0
  -12.9053   -9.0115    9.1524 C   0  0  0  0  0  0  0  0  0  0  0  0
  -11.7355   -9.1120    8.2290 C   0  0  0  0  0  0  0  0  0  0  0  0
  -12.0735   -9.1448    6.7535 C   0  0  0  0  0  0  0  0  0  0  0  0
  -10.8499   -9.2973    6.0215 N   0  0  0  0  0  0  0  0  0  0  0  0
  -10.0666  -10.4431    6.1741 C   0  0  0  0  0  0  0  0  0  0  0  0
   -8.7500  -10.2769    6.8504 C   0  0  0  0  0  0  0  0  0  0  0  0
   -8.5781  -11.0306    7.8725 O   0  0  0  0  0  0  0  0  0  0  0  0
   -7.6953   -9.4382    6.5376 N   0  0  0  0  0  0  0  0  0  0  0  0
  -12.5272   -5.6460    9.1266 H   0  0  0  0  0  0  0  0  0  0  0  0
  -10.9312   -8.8432    5.1148 H   0  0  0  0  0  0  0  0  0  0  0  0
   -6.7297   -9.8955    6.4175 H   0  0  0  0  0  0  0  0  0  0  0  0
   -4.7887   -5.6569    5.3327 C   0  0  0  0  0  0  0  0  0  0  0  0
   -6.1014   -6.1702    5.6317 N   0  0  0  0  0  0  0  0  0  0  0  0
   -6.3072   -7.4969    6.0360 C   0  0  0  0  0  0  0  0  0  0  0  0
   -5.3324   -8.2588    6.1412 O   0  0  0  0  0  0  0  0  0  0  0  0
   -6.9213   -5.5345    5.5437 H   0  0  0  0  0  0  0  0  0  0  0  0
  -13.1479  -10.0819    6.4333 C   0  0  0  0  0  0  0  0  0  0  0  0
  -13.5064  -11.0737    7.1086 O   0  0  0  0  0  0  0  0  0  0  0  0
  -13.8523   -9.8471    5.2380 O   0  0  0  0  0  0  0  0  0  0  0  0
  -13.5372  -10.3844    4.4415 H   0  0  0  0  0  0  0  0  0  0  0  0
   -9.8720  -11.2294    4.8724 C   0  0  0  0  0  0  0  0  0  0  0  0
   -8.6140  -10.8376    4.1755 C   0  0  0  0  0  0  0  0  0  0  0  0
   -8.3457  -11.7063    2.9857 C   0  0  0  0  0  0  0  0  0  0  0  0
   -8.0941  -11.2063    1.7449 C   0  0  0  0  0  0  0  0  0  0  0  0
   -7.8568  -12.1149    0.7204 C   0  0  0  0  0  0  0  0  0  0  0  0
   -7.8712  -13.4801    0.9314 C   0  0  0  0  0  0  0  0  0  0  0  0
   -8.1270  -13.9713    2.1903 C   0  0  0  0  0  0  0  0  0  0  0  0
   -8.3609  -13.0663    3.1996 C   0  0  0  0  0  0  0  0  0  0  0  0
 23 24  1  0  0  0
 24 25  1  0  0  0
 25 26  2  0  0  0
 25  1  1  0  0  0
  1  2  1  0  0  0
  2  3  1  0  0  0
  3  4  1  0  0  0
  4  5  2  0  0  0
  4  6  1  0  0  0
  6  7  1  0  0  0
  7  8  1  0  0  0
  8  9  1  0  0  0
  9 10  1  0  0  0
 10 11  2  0  0  0
 10 12  1  0  0  0
 12 13  1  0  0  0
 13 14  1  0  0  0
 14 28  1  0  0  0
 28 29  2  0  0  0
 28 30  1  0  0  0
 14 15  1  0  0  0
 15 16  1  0  0  0
 16 32  1  0  0  0
 32 33  1  0  0  0
 33 34  1  0  0  0
 34 35  2  0  0  0
 35 36  1  0  0  0
 36 37  2  0  0  0
 37 38  1  0  0  0
 38 39  2  0  0  0
 16 17  1  0  0  0
 17 18  2  0  0  0
 17 19  1  0  0  0
 19  1  1  0  0  0
 39 34  1  0  0  0
 24 27  1  0  0  0
  9 20  1  0  0  0
 30 31  1  0  0  0
 15 21  1  0  0  0
 19 22  1  0  0  0
M  END
> <minimizedAffinity>
11.69017

> <CNNscore>
0.4869824350

> <CNNaffinity>
6.3841543198

> <CNN_VS>
3.1089711189

> <CNNaffinity_variance>
0.7599180341

$$$$
[H]OC(=O)[C@]1([H])N([H])[C@@]([H])(C([H])([H])C([H])([H])c2c([H])c([H])c([H])c([H])c2[H])C(=O)N([H])[C@]([H])(C(=O)N([H])C([H])([H])[H])C([H])([H])C([H])([H])C(=O)OC([H])([H])C([H])([H])N([H])C(=O)C([H])([H])C1([H])[H]


 39 40  0  0  0  0  0  0  0  0999 V2000
  -10.7805   -8.2335    8.4506 C   0  0  0  0  0  0  0  0  0  0  0  0
  -11.0101   -7.6387    9.8008 C   0  0  0  0  0  0  0  0  0  0  0  0
  -12.4122   -7.2986   10.1666 C   0  0  0  0  0  0  0  0  0  0  0  0
  -12.4487   -5.9739   10.8882 C   0  0  0  0  0  0  0  0  0  0  0  0
  -12.7320   -4.9534   10.1722 O   0  0  0  0  0  0  0  0  0  0  0  0
  -12.2019   -5.8219   12.2217 O   0  0  0  0  0  0  0  0  0  0  0  0
  -11.1357   -6.2719   12.9814 C   0  0  0  0  0  0  0  0  0  0  0  0
  -10.0021   -5.2575   13.1340 C   0  0  0  0  0  0  0  0  0  0  0  0
   -8.8187   -5.9644   13.5397 N   0  0  0  0  0  0  0  0  0  0  0  0
   -7.4796   -5.5911   13.2889 C   0  0  0  0  0  0  0  0  0  0  0  0
   -6.6099   -5.6265   14.2272 O   0  0  0  0  0  0  0  0  0  0  0  0
   -6.9636   -5.1369   11.9612 C   0  0  0  0  0  0  0  0  0  0  0  0
   -7.5554   -5.9184   10.8342 C   0  0  0  0  0  0  0  0  0  0  0  0
   -6.7950   -7.1665   10.4393 C   0  0  0  0  0  0  0  0  0  0  0  0
   -7.4651   -7.7581    9.3180 N   0  0  0  0  0  0  0  0  0  0  0  0
   -7.5652   -7.0730    8.1054 C   0  0  0  0  0  0  0  0  0  0  0  0
   -8.9218   -6.6109    7.6999 C   0  0  0  0  0  0  0  0  0  0  0  0
   -9.0075   -5.3540    7.4651 O   0  0  0  0  0  0  0  0  0  0  0  0
  -10.0902   -7.3337    7.5384 N   0  0  0  0  0  0  0  0  0  0  0  0
   -8.9542   -6.8626   14.0896 H   0  0  0  0  0  0  0  0  0  0  0  0
   -7.3382   -8.7674    9.3331 H   0  0  0  0  0  0  0  0  0  0  0  0
  -10.5958   -7.2359    6.5947 H   0  0  0  0  0  0  0  0  0  0  0  0
  -14.0662   -8.5177    6.4893 C   0  0  0  0  0  0  0  0  0  0  0  0
  -12.8480   -8.0021    7.0603 N   0  0  0  0  0  0  0  0  0  0  0  0
  -12.0210   -8.7839    7.8792 C   0  0  0  0  0  0  0  0  0  0  0  0
  -12.3426   -9.9578    8.1245 O   0  0  0  0  0  0  0  0  0  0  0  0
  -12.5755   -7.0177    6.8576 H   0  0  0  0  0  0  0  0  0  0  0  0
   -5.3584   -6.9406   10.2974 C   0  0  0  0  0  0  0  0  0  0  0  0
   -4.6987   -6.9425    9.2329 O   0  0  0  0  0  0  0  0  0  0  0  0
   -4.6394   -6.6982   11.4824 O   0  0  0  0  0  0  0  0  0  0  0  0
   -4.1805   -7.5073   11.8791 H   0  0  0  0  0  0  0  0  0  0  0  0
   -6.9080   -7.8079    6.9313 C   0  0  0  0  0  0  0  0  0  0  0  0
   -6.3548   -6.8561    5.9265 C   0  0  0  0  0  0  0  0  0  0  0  0
   -4.8612   -6.9342    5.8525 C   0  0  0  0  0  0  0  0  0  0  0  0
   -4.0585   -5.8359    5.9022 C   0  0  0  0  0  0  0  0  0  0  0  0
   -2.6855   -6.0379    5.8271 C   0  0  0  0  0  0  0  0  0  0  0  0
   -2.1341   -7.2988    5.7058 C   0  0  0  0  0  0  0  0  0  0  0  0
   -2.9572   -8.3995    5.6566 C   0  0  0  0  0  0  0  0  0  0  0  0
   -4.3151   -8.1922    5.7316 C   0  0  0  0  0  0  0  0  0  0  0  0
 23 24  1  0  0  0
 24 25  1  0  0  0
 25 26  2  0  0  0
 25  1  1  0  0  0
  1  2  1  0  0  0
  2  3  1  0  0  0
  3  4  1  0  0  0
  4  5  2  0  0  0
  4  6  1  0  0  0
  6  7  1  0  0  0
  7  8  1  0  0  0
  8  9  1  0  0  0
  9 10  1  0  0  0
 10 11  2  0  0  0
 10 12  1  0  0  0
 12 13  1  0  0  0
 13 14  1  0  0  0
 14 28  1  0  0  0
 28 29  2  0  0  0
 28 30  1  0  0  0
 14 15  1  0  0  0
 15 16  1  0  0  0
 16 32  1  0  0  0
 32 33  1  0  0  0
 33 34  1  0  0  0
 34 35  2  0  0  0
 35 36  1  0  0  0
 36 37  2  0  0  0
 37 38  1  0  0  0
 38 39  2  0  0  0
 16 17  1  0  0  0
 17 18  2  0  0  0
 17 19  1  0  0  0
 19  1  1  0  0  0
 39 34  1  0  0  0
 24 27  1  0  0  0
  9 20  1  0  0  0
 30 31  1  0  0  0
 15 21  1  0  0  0
 19 22  1  0  0  0
M  END
> <minimizedAffinity>
12.40625

> <CNNscore>
0.4859031439

> <CNNaffinity>
5.9870262146

> <CNN_VS>
2.9091148376

> <CNNaffinity_variance>
0.6609808803

$$$$
[H]OC(=O)[C@]1([H])N([H])[C@@]([H])(C([H])([H])C([H])([H])c2c([H])c([H])c([H])c([H])c2[H])C(=O)N([H])[C@]([H])(C(=O)N([H])C([H])([H])[H])C([H])([H])C([H])([H])C(=O)OC([H])([H])C([H])([H])N([H])C(=O)C([H])([H])C1([H])[H]


 39 40  0  0  0  0  0  0  0  0999 V2000
   -8.9253   -6.4853    6.8466 C   0  0  0  0  0  0  0  0  0  0  0  0
   -8.0556   -6.3656    8.0546 C   0  0  0  0  0  0  0  0  0  0  0  0
   -6.6429   -6.8158    7.9248 C   0  0  0  0  0  0  0  0  0  0  0  0
   -6.2263   -7.5672    9.1652 C   0  0  0  0  0  0  0  0  0  0  0  0
   -6.2971   -8.8419    9.0984 O   0  0  0  0  0  0  0  0  0  0  0  0
   -5.7935   -6.9692   10.3129 O   0  0  0  0  0  0  0  0  0  0  0  0
   -6.3712   -5.9519   11.0531 C   0  0  0  0  0  0  0  0  0  0  0  0
   -7.2620   -6.4369   12.1972 C   0  0  0  0  0  0  0  0  0  0  0  0
   -8.1202   -5.3528   12.5883 N   0  0  0  0  0  0  0  0  0  0  0  0
   -9.4031   -5.4542   13.1709 C   0  0  0  0  0  0  0  0  0  0  0  0
   -9.7114   -4.7418   14.1885 O   0  0  0  0  0  0  0  0  0  0  0  0
  -10.4842   -6.3633   12.6808 C   0  0  0  0  0  0  0  0  0  0  0  0
  -10.5323   -6.4213   11.1890 C   0  0  0  0  0  0  0  0  0  0  0  0
  -11.4222   -5.3907   10.5270 C   0  0  0  0  0  0  0  0  0  0  0  0
  -11.3939   -5.6234    9.1123 N   0  0  0  0  0  0  0  0  0  0  0  0
  -11.8742   -6.8205    8.5775 C   0  0  0  0  0  0  0  0  0  0  0  0
  -10.8708   -7.7441    7.9786 C   0  0  0  0  0  0  0  0  0  0  0  0
  -10.8755   -8.9268    8.4720 O   0  0  0  0  0  0  0  0  0  0  0  0
   -9.9461   -7.5146    6.9757 N   0  0  0  0  0  0  0  0  0  0  0  0
   -7.7601   -4.3667   12.4295 H   0  0  0  0  0  0  0  0  0  0  0  0
  -11.5249   -4.7454    8.6154 H   0  0  0  0  0  0  0  0  0  0  0  0
   -9.9572   -8.1910    6.1401 H   0  0  0  0  0  0  0  0  0  0  0  0
   -6.1982   -7.5858    4.3819 C   0  0  0  0  0  0  0  0  0  0  0  0
   -6.9915   -7.4367    5.5754 N   0  0  0  0  0  0  0  0  0  0  0  0
   -8.1310   -6.6207    5.6142 C   0  0  0  0  0  0  0  0  0  0  0  0
   -8.4725   -6.0041    4.5920 O   0  0  0  0  0  0  0  0  0  0  0  0
   -6.7075   -7.9515    6.4348 H   0  0  0  0  0  0  0  0  0  0  0  0
  -12.7417   -5.2913   11.1468 C   0  0  0  0  0  0  0  0  0  0  0  0
  -13.5733   -6.2155   11.2966 O   0  0  0  0  0  0  0  0  0  0  0  0
  -13.1193   -4.0222   11.6229 O   0  0  0  0  0  0  0  0  0  0  0  0
  -13.6936   -3.4802   10.9912 H   0  0  0  0  0  0  0  0  0  0  0  0
  -13.0366   -6.6296    7.5963 C   0  0  0  0  0  0  0  0  0  0  0  0
  -12.7049   -7.1546    6.2412 C   0  0  0  0  0  0  0  0  0  0  0  0
  -13.9328   -7.3515    5.4072 C   0  0  0  0  0  0  0  0  0  0  0  0
  -14.4324   -8.5806    5.1025 C   0  0  0  0  0  0  0  0  0  0  0  0
  -15.5810   -8.6335    4.3221 C   0  0  0  0  0  0  0  0  0  0  0  0
  -16.2092   -7.4926    3.8612 C   0  0  0  0  0  0  0  0  0  0  0  0
  -15.6933   -6.2574    4.1767 C   0  0  0  0  0  0  0  0  0  0  0  0
  -14.5562   -6.2124    4.9496 C   0  0  0  0  0  0  0  0  0  0  0  0
 23 24  1  0  0  0
 24 25  1  0  0  0
 25 26  2  0  0  0
 25  1  1  0  0  0
  1  2  1  0  0  0
  2  3  1  0  0  0
  3  4  1  0  0  0
  4  5  2  0  0  0
  4  6  1  0  0  0
  6  7  1  0  0  0
  7  8  1  0  0  0
  8  9  1  0  0  0
  9 10  1  0  0  0
 10 11  2  0  0  0
 10 12  1  0  0  0
 12 13  1  0  0  0
 13 14  1  0  0  0
 14 28  1  0  0  0
 28 29  2  0  0  0
 28 30  1  0  0  0
 14 15  1  0  0  0
 15 16  1  0  0  0
 16 32  1  0  0  0
 32 33  1  0  0  0
 33 34  1  0  0  0
 34 35  2  0  0  0
 35 36  1  0  0  0
 36 37  2  0  0  0
 37 38  1  0  0  0
 38 39  2  0  0  0
 16 17  1  0  0  0
 17 18  2  0  0  0
 17 19  1  0  0  0
 19  1  1  0  0  0
 39 34  1  0  0  0
 24 27  1  0  0  0
  9 20  1  0  0  0
 30 31  1  0  0  0
 15 21  1  0  0  0
 19 22  1  0  0  0
M  END
> <minimizedAffinity>
13.27543

> <CNNscore>
0.4858384132

> <CNNaffinity>
6.6367387772

> <CNN_VS>
3.2243826389

> <CNNaffinity_variance>
1.8246338367

$$$$
[H]OC(=O)[C@]1([H])N([H])[C@@]([H])(C([H])([H])C([H])([H])c2c([H])c([H])c([H])c([H])c2[H])C(=O)N([H])[C@]([H])(C(=O)N([H])C([H])([H])[H])C([H])([H])C([H])([H])C(=O)OC([H])([H])C([H])([H])N([H])C(=O)C([H])([H])C1([H])[H]


 39 40  0  0  0  0  0  0  0  0999 V2000
  -13.3160   -6.7411    7.0940 C   0  0  0  0  0  0  0  0  0  0  0  0
  -12.7148   -8.0167    6.6030 C   0  0  0  0  0  0  0  0  0  0  0  0
  -13.6514   -9.0930    6.1791 C   0  0  0  0  0  0  0  0  0  0  0  0
  -13.1502  -10.4313    6.6634 C   0  0  0  0  0  0  0  0  0  0  0  0
  -13.6638  -10.8614    7.7522 O   0  0  0  0  0  0  0  0  0  0  0  0
  -12.2078  -11.1756    6.0152 O   0  0  0  0  0  0  0  0  0  0  0  0
  -10.9558  -10.8095    5.5517 C   0  0  0  0  0  0  0  0  0  0  0  0
   -9.8181  -11.0827    6.5359 C   0  0  0  0  0  0  0  0  0  0  0  0
   -8.6870  -10.2867    6.1467 N   0  0  0  0  0  0  0  0  0  0  0  0
   -7.6644   -9.7965    6.9890 C   0  0  0  0  0  0  0  0  0  0  0  0
   -6.4355   -9.9065    6.6489 O   0  0  0  0  0  0  0  0  0  0  0  0
   -7.9018   -9.1287    8.3055 C   0  0  0  0  0  0  0  0  0  0  0  0
   -9.0882   -8.2220    8.2666 C   0  0  0  0  0  0  0  0  0  0  0  0
   -8.8005   -6.7926    7.8589 C   0  0  0  0  0  0  0  0  0  0  0  0
  -10.0289   -6.0559    7.9278 N   0  0  0  0  0  0  0  0  0  0  0  0
  -10.6936   -5.8915    9.1447 C   0  0  0  0  0  0  0  0  0  0  0  0
  -11.9956   -6.5970    9.3046 C   0  0  0  0  0  0  0  0  0  0  0  0
  -12.0590   -7.3721   10.3232 O   0  0  0  0  0  0  0  0  0  0  0  0
  -13.1357   -6.5360    8.5235 N   0  0  0  0  0  0  0  0  0  0  0  0
   -8.5995  -10.0372    5.1183 H   0  0  0  0  0  0  0  0  0  0  0  0
  -10.0230   -5.3095    7.2365 H   0  0  0  0  0  0  0  0  0  0  0  0
  -14.0569   -6.3012    9.0256 H   0  0  0  0  0  0  0  0  0  0  0  0
  -17.0932   -7.3352    6.7727 C   0  0  0  0  0  0  0  0  0  0  0  0
  -15.7137   -7.4523    7.1718 N   0  0  0  0  0  0  0  0  0  0  0  0
  -14.7192   -6.6009    6.6700 C   0  0  0  0  0  0  0  0  0  0  0  0
  -15.0298   -5.7166    5.8556 O   0  0  0  0  0  0  0  0  0  0  0  0
  -15.4493   -8.1934    7.8538 H   0  0  0  0  0  0  0  0  0  0  0  0
   -7.6536   -6.2179    8.5584 C   0  0  0  0  0  0  0  0  0  0  0  0
   -6.7448   -5.5146    8.0605 O   0  0  0  0  0  0  0  0  0  0  0  0
   -7.5582   -6.4854    9.9365 O   0  0  0  0  0  0  0  0  0  0  0  0
   -6.9547   -7.2585   10.1829 H   0  0  0  0  0  0  0  0  0  0  0  0
  -10.8578   -4.4246    9.5591 C   0  0  0  0  0  0  0  0  0  0  0  0
  -11.8544   -4.2709   10.6567 C   0  0  0  0  0  0  0  0  0  0  0  0
  -11.3369   -4.8093   11.9547 C   0  0  0  0  0  0  0  0  0  0  0  0
  -12.0461   -4.7538   13.1153 C   0  0  0  0  0  0  0  0  0  0  0  0
  -11.4592   -5.2907   14.2549 C   0  0  0  0  0  0  0  0  0  0  0  0
  -10.2027   -5.8645   14.2332 C   0  0  0  0  0  0  0  0  0  0  0  0
   -9.4974   -5.9136   13.0535 C   0  0  0  0  0  0  0  0  0  0  0  0
  -10.0844   -5.3804   11.9294 C   0  0  0  0  0  0  0  0  0  0  0  0
 23 24  1  0  0  0
 24 25  1  0  0  0
 25 26  2  0  0  0
 25  1  1  0  0  0
  1  2  1  0  0  0
  2  3  1  0  0  0
  3  4  1  0  0  0
  4  5  2  0  0  0
  4  6  1  0  0  0
  6  7  1  0  0  0
  7  8  1  0  0  0
  8  9  1  0  0  0
  9 10  1  0  0  0
 10 11  2  0  0  0
 10 12  1  0  0  0
 12 13  1  0  0  0
 13 14  1  0  0  0
 14 28  1  0  0  0
 28 29  2  0  0  0
 28 30  1  0  0  0
 14 15  1  0  0  0
 15 16  1  0  0  0
 16 32  1  0  0  0
 32 33  1  0  0  0
 33 34  1  0  0  0
 34 35  2  0  0  0
 35 36  1  0  0  0
 36 37  2  0  0  0
 37 38  1  0  0  0
 38 39  2  0  0  0
 16 17  1  0  0  0
 17 18  2  0  0  0
 17 19  1  0  0  0
 19  1  1  0  0  0
 39 34  1  0  0  0
 24 27  1  0  0  0
  9 20  1  0  0  0
 30 31  1  0  0  0
 15 21  1  0  0  0
 19 22  1  0  0  0
M  END
> <minimizedAffinity>
16.62898

> <CNNscore>
0.4849987924

> <CNNaffinity>
6.5505895615

> <CNN_VS>
3.1770279408

> <CNNaffinity_variance>
1.3296830654

$$$$
[H]OC(=O)[C@]1([H])N([H])[C@@]([H])(C([H])([H])C([H])([H])c2c([H])c([H])c([H])c([H])c2[H])C(=O)N([H])[C@]([H])(C(=O)N([H])C([H])([H])[H])C([H])([H])C([H])([H])C(=O)OC([H])([H])C([H])([H])N([H])C(=O)C([H])([H])C1([H])[H]


 39 40  0  0  0  0  0  0  0  0999 V2000
  -10.4585   -7.8287    8.3203 C   0  0  0  0  0  0  0  0  0  0  0  0
  -10.3857   -7.3548    9.7344 C   0  0  0  0  0  0  0  0  0  0  0  0
  -11.6651   -6.9725   10.3920 C   0  0  0  0  0  0  0  0  0  0  0  0
  -11.4672   -5.7236   11.2154 C   0  0  0  0  0  0  0  0  0  0  0  0
  -11.8033   -4.6244   10.6559 O   0  0  0  0  0  0  0  0  0  0  0  0
  -10.9639   -5.7152   12.4838 O   0  0  0  0  0  0  0  0  0  0  0  0
   -9.8104   -6.2962   12.9822 C   0  0  0  0  0  0  0  0  0  0  0  0
   -8.5962   -5.3673   12.9969 C   0  0  0  0  0  0  0  0  0  0  0  0
   -7.4135   -6.1761   13.1050 N   0  0  0  0  0  0  0  0  0  0  0  0
   -6.1213   -5.8571   12.6318 C   0  0  0  0  0  0  0  0  0  0  0  0
   -5.0960   -6.0320   13.3775 O   0  0  0  0  0  0  0  0  0  0  0  0
   -5.8314   -5.3069   11.2722 C   0  0  0  0  0  0  0  0  0  0  0  0
   -6.6806   -5.9412   10.2197 C   0  0  0  0  0  0  0  0  0  0  0  0
   -6.1025   -7.1866    9.5818 C   0  0  0  0  0  0  0  0  0  0  0  0
   -7.0132   -7.6283    8.5660 N   0  0  0  0  0  0  0  0  0  0  0  0
   -7.2880   -6.8248    7.4574 C   0  0  0  0  0  0  0  0  0  0  0  0
   -8.6585   -6.2495    7.3624 C   0  0  0  0  0  0  0  0  0  0  0  0
   -8.6932   -4.9730    7.2549 O   0  0  0  0  0  0  0  0  0  0  0  0
   -9.8868   -6.8859    7.3703 N   0  0  0  0  0  0  0  0  0  0  0  0
   -7.5096   -7.1140   13.5935 H   0  0  0  0  0  0  0  0  0  0  0  0
   -6.9609   -8.6398    8.4715 H   0  0  0  0  0  0  0  0  0  0  0  0
  -10.5519   -6.6689    6.5540 H   0  0  0  0  0  0  0  0  0  0  0  0
  -13.5963   -9.9902    7.8675 C   0  0  0  0  0  0  0  0  0  0  0  0
  -12.2676   -9.5539    8.2142 N   0  0  0  0  0  0  0  0  0  0  0  0
  -11.8215   -8.2501    7.9558 C   0  0  0  0  0  0  0  0  0  0  0  0
  -12.5899   -7.4412    7.4110 O   0  0  0  0  0  0  0  0  0  0  0  0
  -11.6200  -10.2299    8.6703 H   0  0  0  0  0  0  0  0  0  0  0  0
   -4.7054   -7.0300    9.1838 C   0  0  0  0  0  0  0  0  0  0  0  0
   -3.9427   -6.0805    9.4754 O   0  0  0  0  0  0  0  0  0  0  0  0
   -4.1599   -8.0525    8.3858 O   0  0  0  0  0  0  0  0  0  0  0  0
   -4.1630   -7.8688    7.3914 H   0  0  0  0  0  0  0  0  0  0  0  0
   -6.9192   -7.4792    6.1209 C   0  0  0  0  0  0  0  0  0  0  0  0
   -6.3073   -6.4996    5.1787 C   0  0  0  0  0  0  0  0  0  0  0  0
   -4.9017   -6.1600    5.5676 C   0  0  0  0  0  0  0  0  0  0  0  0
   -3.8907   -7.0715    5.5623 C   0  0  0  0  0  0  0  0  0  0  0  0
   -2.6272   -6.6340    5.9413 C   0  0  0  0  0  0  0  0  0  0  0  0
   -2.3839   -5.3260    6.3138 C   0  0  0  0  0  0  0  0  0  0  0  0
   -3.4150   -4.4159    6.3146 C   0  0  0  0  0  0  0  0  0  0  0  0
   -4.6629   -4.8558    5.9383 C   0  0  0  0  0  0  0  0  0  0  0  0
 23 24  1  0  0  0
 24 25  1  0  0  0
 25 26  2  0  0  0
 25  1  1  0  0  0
  1  2  1  0  0  0
  2  3  1  0  0  0
  3  4  1  0  0  0
  4  5  2  0  0  0
  4  6  1  0  0  0
  6  7  1  0  0  0
  7  8  1  0  0  0
  8  9  1  0  0  0
  9 10  1  0  0  0
 10 11  2  0  0  0
 10 12  1  0  0  0
 12 13  1  0  0  0
 13 14  1  0  0  0
 14 28  1  0  0  0
 28 29  2  0  0  0
 28 30  1  0  0  0
 14 15  1  0  0  0
 15 16  1  0  0  0
 16 32  1  0  0  0
 32 33  1  0  0  0
 33 34  1  0  0  0
 34 35  2  0  0  0
 35 36  1  0  0  0
 36 37  2  0  0  0
 37 38  1  0  0  0
 38 39  2  0  0  0
 16 17  1  0  0  0
 17 18  2  0  0  0
 17 19  1  0  0  0
 19  1  1  0  0  0
 39 34  1  0  0  0
 24 27  1  0  0  0
  9 20  1  0  0  0
 30 31  1  0  0  0
 15 21  1  0  0  0
 19 22  1  0  0  0
M  END
> <minimizedAffinity>
8.64508

> <CNNscore>
0.4666254818

> <CNNaffinity>
5.8654141426

> <CNN_VS>
2.7369515896

> <CNNaffinity_variance>
0.5510535240

$$$$
[H]OC(=O)[C@]1([H])N([H])[C@@]([H])(C([H])([H])C([H])([H])c2c([H])c([H])c([H])c([H])c2[H])C(=O)N([H])[C@]([H])(C(=O)N([H])C([H])([H])[H])C([H])([H])C([H])([H])C(=O)OC([H])([H])C([H])([H])N([H])C(=O)C([H])([H])C1([H])[H]


 39 40  0  0  0  0  0  0  0  0999 V2000
   -9.7029   -9.8169    6.8813 C   0  0  0  0  0  0  0  0  0  0  0  0
  -11.1790   -9.7532    7.0977 C   0  0  0  0  0  0  0  0  0  0  0  0
  -12.0419  -10.4854    6.1310 C   0  0  0  0  0  0  0  0  0  0  0  0
  -13.2553   -9.6545    5.7928 C   0  0  0  0  0  0  0  0  0  0  0  0
  -13.1843   -8.9725    4.7139 O   0  0  0  0  0  0  0  0  0  0  0  0
  -14.3833   -9.6005    6.5589 O   0  0  0  0  0  0  0  0  0  0  0  0
  -14.5218   -9.3556    7.9144 C   0  0  0  0  0  0  0  0  0  0  0  0
  -14.7794   -7.8896    8.2636 C   0  0  0  0  0  0  0  0  0  0  0  0
  -14.4696   -7.6981    9.6536 N   0  0  0  0  0  0  0  0  0  0  0  0
  -14.0404   -6.5018   10.2702 C   0  0  0  0  0  0  0  0  0  0  0  0
  -14.5714   -6.1107   11.3669 O   0  0  0  0  0  0  0  0  0  0  0  0
  -12.9695   -5.6096    9.7293 C   0  0  0  0  0  0  0  0  0  0  0  0
  -11.8344   -6.3875    9.1481 C   0  0  0  0  0  0  0  0  0  0  0  0
  -10.7252   -6.7400   10.1163 C   0  0  0  0  0  0  0  0  0  0  0  0
   -9.7021   -7.4306    9.3864 N   0  0  0  0  0  0  0  0  0  0  0  0
   -9.0080   -6.7927    8.3563 C   0  0  0  0  0  0  0  0  0  0  0  0
   -9.2583   -7.2781    6.9706 C   0  0  0  0  0  0  0  0  0  0  0  0
   -9.6445   -6.3716    6.1511 O   0  0  0  0  0  0  0  0  0  0  0  0
   -9.1332   -8.5511    6.4439 N   0  0  0  0  0  0  0  0  0  0  0  0
  -14.5740   -8.5382   10.2946 H   0  0  0  0  0  0  0  0  0  0  0  0
   -9.2283   -8.0916    9.9976 H   0  0  0  0  0  0  0  0  0  0  0  0
   -8.5212   -8.6560    5.5662 H   0  0  0  0  0  0  0  0  0  0  0  0
   -9.1349  -13.3881    5.5980 C   0  0  0  0  0  0  0  0  0  0  0  0
   -9.4941  -12.2695    6.4321 N   0  0  0  0  0  0  0  0  0  0  0  0
   -9.3276  -10.9430    6.0099 C   0  0  0  0  0  0  0  0  0  0  0  0
   -8.8560  -10.7178    4.8835 O   0  0  0  0  0  0  0  0  0  0  0  0
   -9.8889  -12.4544    7.3777 H   0  0  0  0  0  0  0  0  0  0  0  0
  -10.2947   -5.6059   10.9308 C   0  0  0  0  0  0  0  0  0  0  0  0
   -9.7900   -5.6515   12.0760 O   0  0  0  0  0  0  0  0  0  0  0  0
  -10.4684   -4.3268   10.3707 O   0  0  0  0  0  0  0  0  0  0  0  0
  -11.3089   -3.8432   10.6574 H   0  0  0  0  0  0  0  0  0  0  0  0
   -7.4965   -6.7073    8.5982 C   0  0  0  0  0  0  0  0  0  0  0  0
   -7.1183   -7.2733    9.9242 C   0  0  0  0  0  0  0  0  0  0  0  0
   -6.0921   -6.4295   10.6149 C   0  0  0  0  0  0  0  0  0  0  0  0
   -6.1040   -6.1983   11.9563 C   0  0  0  0  0  0  0  0  0  0  0  0
   -5.0948   -5.3998   12.4811 C   0  0  0  0  0  0  0  0  0  0  0  0
   -4.1057   -4.8503   11.6883 C   0  0  0  0  0  0  0  0  0  0  0  0
   -4.1063   -5.0922   10.3345 C   0  0  0  0  0  0  0  0  0  0  0  0
   -5.1080   -5.8835    9.8218 C   0  0  0  0  0  0  0  0  0  0  0  0
 23 24  1  0  0  0
 24 25  1  0  0  0
 25 26  2  0  0  0
 25  1  1  0  0  0
  1  2  1  0  0  0
  2  3  1  0  0  0
  3  4  1  0  0  0
  4  5  2  0  0  0
  4  6  1  0  0  0
  6  7  1  0  0  0
  7  8  1  0  0  0
  8  9  1  0  0  0
  9 10  1  0  0  0
 10 11  2  0  0  0
 10 12  1  0  0  0
 12 13  1  0  0  0
 13 14  1  0  0  0
 14 28  1  0  0  0
 28 29  2  0  0  0
 28 30  1  0  0  0
 14 15  1  0  0  0
 15 16  1  0  0  0
 16 32  1  0  0  0
 32 33  1  0  0  0
 33 34  1  0  0  0
 34 35  2  0  0  0
 35 36  1  0  0  0
 36 37  2  0  0  0
 37 38  1  0  0  0
 38 39  2  0  0  0
 16 17  1  0  0  0
 17 18  2  0  0  0
 17 19  1  0  0  0
 19  1  1  0  0  0
 39 34  1  0  0  0
 24 27  1  0  0  0
  9 20  1  0  0  0
 30 31  1  0  0  0
 15 21  1  0  0  0
 19 22  1  0  0  0
M  END
> <minimizedAffinity>
14.95410

> <CNNscore>
0.4586274028

> <CNNaffinity>
6.0073351860

> <CNN_VS>
2.7551286221

> <CNNaffinity_variance>
0.7820357084

$$$$
[H]OC(=O)[C@]1([H])N([H])[C@@]([H])(C([H])([H])C([H])([H])c2c([H])c([H])c([H])c([H])c2[H])C(=O)N([H])[C@]([H])(C(=O)N([H])C([H])([H])[H])C([H])([H])C([H])([H])C(=O)OC([H])([H])C([H])([H])N([H])C(=O)C([H])([H])C1([H])[H]


 39 40  0  0  0  0  0  0  0  0999 V2000
  -13.9362   -8.7115    5.5081 C   0  0  0  0  0  0  0  0  0  0  0  0
  -12.4837   -8.7522    5.8518 C   0  0  0  0  0  0  0  0  0  0  0  0
  -11.6442   -9.7587    5.1464 C   0  0  0  0  0  0  0  0  0  0  0  0
  -10.6719  -10.3869    6.1143 C   0  0  0  0  0  0  0  0  0  0  0  0
  -11.0244  -11.5099    6.6132 O   0  0  0  0  0  0  0  0  0  0  0  0
   -9.4771   -9.8303    6.4680 O   0  0  0  0  0  0  0  0  0  0  0  0
   -9.1957   -8.5539    6.9239 C   0  0  0  0  0  0  0  0  0  0  0  0
   -9.1743   -8.4225    8.4470 C   0  0  0  0  0  0  0  0  0  0  0  0
   -9.3133   -7.0315    8.7795 N   0  0  0  0  0  0  0  0  0  0  0  0
   -9.8696   -6.4932    9.9611 C   0  0  0  0  0  0  0  0  0  0  0  0
   -9.2716   -5.5521   10.5893 O   0  0  0  0  0  0  0  0  0  0  0  0
  -11.1566   -6.9470   10.5720 C   0  0  0  0  0  0  0  0  0  0  0  0
  -12.1942   -7.2384    9.5377 C   0  0  0  0  0  0  0  0  0  0  0  0
  -13.0665   -6.0653    9.1439 C   0  0  0  0  0  0  0  0  0  0  0  0
  -14.0331   -6.5310    8.1925 N   0  0  0  0  0  0  0  0  0  0  0  0
  -14.9756   -7.4974    8.5495 C   0  0  0  0  0  0  0  0  0  0  0  0
  -14.8379   -8.8407    7.9209 C   0  0  0  0  0  0  0  0  0  0  0  0
  -14.7521   -9.8113    8.7533 O   0  0  0  0  0  0  0  0  0  0  0  0
  -14.7927   -9.1900    6.5831 N   0  0  0  0  0  0  0  0  0  0  0  0
   -8.9606   -6.3249    8.0697 H   0  0  0  0  0  0  0  0  0  0  0  0
  -14.2804   -5.7779    7.5549 H   0  0  0  0  0  0  0  0  0  0  0  0
  -15.4924   -9.9359    6.2515 H   0  0  0  0  0  0  0  0  0  0  0  0
  -15.7883  -10.4972    2.6614 C   0  0  0  0  0  0  0  0  0  0  0  0
  -15.4943   -9.8464    3.9127 N   0  0  0  0  0  0  0  0  0  0  0  0
  -14.2111   -9.3736    4.2219 C   0  0  0  0  0  0  0  0  0  0  0  0
  -13.2947   -9.5175    3.3965 O   0  0  0  0  0  0  0  0  0  0  0  0
  -16.2600   -9.7249    4.6078 H   0  0  0  0  0  0  0  0  0  0  0  0
  -13.5840   -5.3258   10.2929 C   0  0  0  0  0  0  0  0  0  0  0  0
  -14.2538   -5.7882   11.2447 O   0  0  0  0  0  0  0  0  0  0  0  0
  -13.3027   -3.9477   10.3329 O   0  0  0  0  0  0  0  0  0  0  0  0
  -14.0383   -3.3491    9.9820 H   0  0  0  0  0  0  0  0  0  0  0  0
  -16.4255   -7.0190    8.4107 C   0  0  0  0  0  0  0  0  0  0  0  0
  -17.2112   -7.9004    7.5009 C   0  0  0  0  0  0  0  0  0  0  0  0
  -17.3247   -7.3177    6.1262 C   0  0  0  0  0  0  0  0  0  0  0  0
  -16.7143   -6.1573    5.7605 C   0  0  0  0  0  0  0  0  0  0  0  0
  -16.8926   -5.7199    4.4535 C   0  0  0  0  0  0  0  0  0  0  0  0
  -17.6577   -6.4217    3.5420 C   0  0  0  0  0  0  0  0  0  0  0  0
  -18.2688   -7.5926    3.9254 C   0  0  0  0  0  0  0  0  0  0  0  0
  -18.0879   -8.0197    5.2205 C   0  0  0  0  0  0  0  0  0  0  0  0
 23 24  1  0  0  0
 24 25  1  0  0  0
 25 26  2  0  0  0
 25  1  1  0  0  0
  1  2  1  0  0  0
  2  3  1  0  0  0
  3  4  1  0  0  0
  4  5  2  0  0  0
  4  6  1  0  0  0
  6  7  1  0  0  0
  7  8  1  0  0  0
  8  9  1  0  0  0
  9 10  1  0  0  0
 10 11  2  0  0  0
 10 12  1  0  0  0
 12 13  1  0  0  0
 13 14  1  0  0  0
 14 28  1  0  0  0
 28 29  2  0  0  0
 28 30  1  0  0  0
 14 15  1  0  0  0
 15 16  1  0  0  0
 16 32  1  0  0  0
 32 33  1  0  0  0
 33 34  1  0  0  0
 34 35  2  0  0  0
 35 36  1  0  0  0
 36 37  2  0  0  0
 37 38  1  0  0  0
 38 39  2  0  0  0
 16 17  1  0  0  0
 17 18  2  0  0  0
 17 19  1  0  0  0
 19  1  1  0  0  0
 39 34  1  0  0  0
 24 27  1  0  0  0
  9 20  1  0  0  0
 30 31  1  0  0  0
 15 21  1  0  0  0
 19 22  1  0  0  0
M  END
> <minimizedAffinity>
11.10461

> <CNNscore>
0.4567711949

> <CNNaffinity>
6.9388933182

> <CNN_VS>
3.1694865227

> <CNNaffinity_variance>
1.3935792446

$$$$
[H]OC(=O)[C@]1([H])N([H])[C@@]([H])(C([H])([H])C([H])([H])c2c([H])c([H])c([H])c([H])c2[H])C(=O)N([H])[C@]([H])(C(=O)N([H])C([H])([H])[H])C([H])([H])C([H])([H])C(=O)OC([H])([H])C([H])([H])N([H])C(=O)C([H])([H])C1([H])[H]


 39 40  0  0  0  0  0  0  0  0999 V2000
   -8.0841   -6.6716    7.8116 C   0  0  0  0  0  0  0  0  0  0  0  0
   -7.6892   -6.4187    9.2293 C   0  0  0  0  0  0  0  0  0  0  0  0
   -6.3083   -6.8020    9.6311 C   0  0  0  0  0  0  0  0  0  0  0  0
   -6.3285   -7.4382   10.9992 C   0  0  0  0  0  0  0  0  0  0  0  0
   -6.3407   -8.7163   11.0227 O   0  0  0  0  0  0  0  0  0  0  0  0
   -6.3341   -6.7362   12.1694 O   0  0  0  0  0  0  0  0  0  0  0  0
   -7.1568   -5.6996   12.5757 C   0  0  0  0  0  0  0  0  0  0  0  0
   -8.3763   -6.1463   13.3825 C   0  0  0  0  0  0  0  0  0  0  0  0
   -9.3430   -5.0834   13.3604 N   0  0  0  0  0  0  0  0  0  0  0  0
  -10.7453   -5.2095   13.4745 C   0  0  0  0  0  0  0  0  0  0  0  0
  -11.4039   -4.4422   14.2590 O   0  0  0  0  0  0  0  0  0  0  0  0
  -11.5676   -6.2075   12.7241 C   0  0  0  0  0  0  0  0  0  0  0  0
  -11.0952   -6.3765   11.3171 C   0  0  0  0  0  0  0  0  0  0  0  0
  -11.7260   -5.4452   10.3037 C   0  0  0  0  0  0  0  0  0  0  0  0
  -11.2043   -5.7784    9.0102 N   0  0  0  0  0  0  0  0  0  0  0  0
  -11.4407   -7.0349    8.4489 C   0  0  0  0  0  0  0  0  0  0  0  0
  -10.2699   -7.9455    8.3125 C   0  0  0  0  0  0  0  0  0  0  0  0
  -10.4162   -9.0878    8.8747 O   0  0  0  0  0  0  0  0  0  0  0  0
   -9.0612   -7.7412    7.6714 N   0  0  0  0  0  0  0  0  0  0  0  0
   -8.9742   -4.0938   13.2500 H   0  0  0  0  0  0  0  0  0  0  0  0
  -11.1767   -4.9470    8.4245 H   0  0  0  0  0  0  0  0  0  0  0  0
   -8.7661   -8.4763    6.9445 H   0  0  0  0  0  0  0  0  0  0  0  0
   -4.8651   -5.9516    5.8514 C   0  0  0  0  0  0  0  0  0  0  0  0
   -6.0213   -5.7978    6.6973 N   0  0  0  0  0  0  0  0  0  0  0  0
   -6.9095   -6.8544    6.9427 C   0  0  0  0  0  0  0  0  0  0  0  0
   -6.6996   -7.9598    6.4174 O   0  0  0  0  0  0  0  0  0  0  0  0
   -6.2011   -4.8720    7.1387 H   0  0  0  0  0  0  0  0  0  0  0  0
  -13.1804   -5.3705   10.4226 C   0  0  0  0  0  0  0  0  0  0  0  0
  -13.9973   -6.3046   10.2536 O   0  0  0  0  0  0  0  0  0  0  0  0
  -13.7207   -4.1158   10.7595 O   0  0  0  0  0  0  0  0  0  0  0  0
  -14.0452   -3.5640    9.9767 H   0  0  0  0  0  0  0  0  0  0  0  0
  -12.1961   -6.9775    7.1160 C   0  0  0  0  0  0  0  0  0  0  0  0
  -13.4525   -7.7783    7.1605 C   0  0  0  0  0  0  0  0  0  0  0  0
  -14.3120   -7.5283    5.9600 C   0  0  0  0  0  0  0  0  0  0  0  0
  -14.8469   -6.3101    5.6724 C   0  0  0  0  0  0  0  0  0  0  0  0
  -15.6261   -6.2033    4.5266 C   0  0  0  0  0  0  0  0  0  0  0  0
  -15.8622   -7.2814    3.6956 C   0  0  0  0  0  0  0  0  0  0  0  0
  -15.3154   -8.5064    3.9986 C   0  0  0  0  0  0  0  0  0  0  0  0
  -14.5452   -8.6050    5.1342 C   0  0  0  0  0  0  0  0  0  0  0  0
 23 24  1  0  0  0
 24 25  1  0  0  0
 25 26  2  0  0  0
 25  1  1  0  0  0
  1  2  1  0  0  0
  2  3  1  0  0  0
  3  4  1  0  0  0
  4  5  2  0  0  0
  4  6  1  0  0  0
  6  7  1  0  0  0
  7  8  1  0  0  0
  8  9  1  0  0  0
  9 10  1  0  0  0
 10 11  2  0  0  0
 10 12  1  0  0  0
 12 13  1  0  0  0
 13 14  1  0  0  0
 14 28  1  0  0  0
 28 29  2  0  0  0
 28 30  1  0  0  0
 14 15  1  0  0  0
 15 16  1  0  0  0
 16 32  1  0  0  0
 32 33  1  0  0  0
 33 34  1  0  0  0
 34 35  2  0  0  0
 35 36  1  0  0  0
 36 37  2  0  0  0
 37 38  1  0  0  0
 38 39  2  0  0  0
 16 17  1  0  0  0
 17 18  2  0  0  0
 17 19  1  0  0  0
 19  1  1  0  0  0
 39 34  1  0  0  0
 24 27  1  0  0  0
  9 20  1  0  0  0
 30 31  1  0  0  0
 15 21  1  0  0  0
 19 22  1  0  0  0
M  END
> <minimizedAffinity>
9.12288

> <CNNscore>
0.4451223016

> <CNNaffinity>
6.3018388748

> <CNN_VS>
2.8050889969

> <CNNaffinity_variance>
0.5320927501

$$$$
[H]OC(=O)[C@]1([H])N([H])[C@@]([H])(C([H])([H])C([H])([H])c2c([H])c([H])c([H])c([H])c2[H])C(=O)N([H])[C@]([H])(C(=O)N([H])C([H])([H])[H])C([H])([H])C([H])([H])C(=O)OC([H])([H])C([H])([H])N([H])C(=O)C([H])([H])C1([H])[H]


 39 40  0  0  0  0  0  0  0  0999 V2000
   -9.0773   -7.2123    8.0907 C   0  0  0  0  0  0  0  0  0  0  0  0
  -10.2428   -6.4094    8.5669 C   0  0  0  0  0  0  0  0  0  0  0  0
   -9.9974   -5.4385    9.6680 C   0  0  0  0  0  0  0  0  0  0  0  0
  -11.1409   -5.4766   10.6518 C   0  0  0  0  0  0  0  0  0  0  0  0
  -10.9633   -6.2016   11.6897 O   0  0  0  0  0  0  0  0  0  0  0  0
  -12.3130   -4.7969   10.4892 O   0  0  0  0  0  0  0  0  0  0  0  0
  -13.1718   -4.7604    9.4040 C   0  0  0  0  0  0  0  0  0  0  0  0
  -14.3136   -5.7748    9.4735 C   0  0  0  0  0  0  0  0  0  0  0  0
  -14.8462   -5.9425    8.1496 N   0  0  0  0  0  0  0  0  0  0  0  0
  -15.4853   -7.0907    7.6313 C   0  0  0  0  0  0  0  0  0  0  0  0
  -16.5780   -6.9837    6.9737 O   0  0  0  0  0  0  0  0  0  0  0  0
  -14.9738   -8.4866    7.7905 C   0  0  0  0  0  0  0  0  0  0  0  0
  -13.4876   -8.5559    7.6583 C   0  0  0  0  0  0  0  0  0  0  0  0
  -12.9699   -8.7771    6.2529 C   0  0  0  0  0  0  0  0  0  0  0  0
  -11.5405   -8.8723    6.3166 N   0  0  0  0  0  0  0  0  0  0  0  0
  -10.9265   -9.9057    7.0271 C   0  0  0  0  0  0  0  0  0  0  0  0
  -10.1938   -9.5303    8.2684 C   0  0  0  0  0  0  0  0  0  0  0  0
  -10.5780  -10.1517    9.3213 O   0  0  0  0  0  0  0  0  0  0  0  0
   -9.1675   -8.6203    8.4481 N   0  0  0  0  0  0  0  0  0  0  0  0
  -14.7580   -5.1207    7.4829 H   0  0  0  0  0  0  0  0  0  0  0  0
  -11.1325   -8.5257    5.4515 H   0  0  0  0  0  0  0  0  0  0  0  0
   -8.2761   -8.9814    8.9286 H   0  0  0  0  0  0  0  0  0  0  0  0
   -5.8606   -6.4603   10.0426 C   0  0  0  0  0  0  0  0  0  0  0  0
   -7.1146   -7.0396    9.6330 N   0  0  0  0  0  0  0  0  0  0  0  0
   -7.7969   -6.6036    8.4883 C   0  0  0  0  0  0  0  0  0  0  0  0
   -7.3113   -5.6900    7.8019 O   0  0  0  0  0  0  0  0  0  0  0  0
   -7.5254   -7.8053   10.2067 H   0  0  0  0  0  0  0  0  0  0  0  0
  -13.6659   -9.8519    5.5491 C   0  0  0  0  0  0  0  0  0  0  0  0
  -14.0897   -9.8279    4.3710 O   0  0  0  0  0  0  0  0  0  0  0  0
  -13.8862  -11.0384    6.2726 O   0  0  0  0  0  0  0  0  0  0  0  0
  -14.7994  -11.1176    6.6996 H   0  0  0  0  0  0  0  0  0  0  0  0
  -10.0301  -10.7967    6.1593 C   0  0  0  0  0  0  0  0  0  0  0  0
   -9.2437   -9.9968    5.1778 C   0  0  0  0  0  0  0  0  0  0  0  0
   -7.9470   -9.5249    5.7595 C   0  0  0  0  0  0  0  0  0  0  0  0
   -7.1790   -8.5645    5.1757 C   0  0  0  0  0  0  0  0  0  0  0  0
   -5.9968   -8.2091    5.8141 C   0  0  0  0  0  0  0  0  0  0  0  0
   -5.5964   -8.7965    6.9988 C   0  0  0  0  0  0  0  0  0  0  0  0
   -6.3823   -9.7655    7.5773 C   0  0  0  0  0  0  0  0  0  0  0  0
   -7.5511  -10.1124    6.9400 C   0  0  0  0  0  0  0  0  0  0  0  0
 23 24  1  0  0  0
 24 25  1  0  0  0
 25 26  2  0  0  0
 25  1  1  0  0  0
  1  2  1  0  0  0
  2  3  1  0  0  0
  3  4  1  0  0  0
  4  5  2  0  0  0
  4  6  1  0  0  0
  6  7  1  0  0  0
  7  8  1  0  0  0
  8  9  1  0  0  0
  9 10  1  0  0  0
 10 11  2  0  0  0
 10 12  1  0  0  0
 12 13  1  0  0  0
 13 14  1  0  0  0
 14 28  1  0  0  0
 28 29  2  0  0  0
 28 30  1  0  0  0
 14 15  1  0  0  0
 15 16  1  0  0  0
 16 32  1  0  0  0
 32 33  1  0  0  0
 33 34  1  0  0  0
 34 35  2  0  0  0
 35 36  1  0  0  0
 36 37  2  0  0  0
 37 38  1  0  0  0
 38 39  2  0  0  0
 16 17  1  0  0  0
 17 18  2  0  0  0
 17 19  1  0  0  0
 19  1  1  0  0  0
 39 34  1  0  0  0
 24 27  1  0  0  0
  9 20  1  0  0  0
 30 31  1  0  0  0
 15 21  1  0  0  0
 19 22  1  0  0  0
M  END
> <minimizedAffinity>
16.42671

> <CNNscore>
0.4395419657

> <CNNaffinity>
6.4127554893

> <CNN_VS>
2.8186750412

> <CNNaffinity_variance>
1.5943554640

$$$$
[H]c1nc2n(n1)C([H])(c1sc([H])c([H])c1[H])C([H])([H])C([H])(c1c([H])c([H])c(Cl)c(Cl)c1[H])N2[H]


 23 26  0  0  0  0  0  0  0  0999 V2000
  -14.4396   -7.3604    6.6745 C   0  0  0  0  0  0  0  0  0  0  0  0
  -14.3499   -6.7859    8.0456 C   0  0  0  0  0  0  0  0  0  0  0  0
  -13.3719   -7.5077    8.8979 C   0  0  0  0  0  0  0  0  0  0  0  0
  -13.3296   -8.9218    8.7001 N   0  0  0  0  0  0  0  0  0  0  0  0
  -12.6871   -9.8597    9.3653 N   0  0  0  0  0  0  0  0  0  0  0  0
  -12.9289  -11.0673    8.8398 C   0  0  0  0  0  0  0  0  0  0  0  0
  -13.7589  -10.8419    7.8065 N   0  0  0  0  0  0  0  0  0  0  0  0
  -14.0244   -9.5321    7.6942 C   0  0  0  0  0  0  0  0  0  0  0  0
  -14.8164   -8.7541    6.8059 N   0  0  0  0  0  0  0  0  0  0  0  0
  -15.5972   -9.2228    6.3183 H   0  0  0  0  0  0  0  0  0  0  0  0
  -18.0068   -4.2390    3.0030 Cl  0  0  0  0  0  0  0  0  0  0  0  0
  -16.9807   -5.1612    4.0755 C   0  0  0  0  0  0  0  0  0  0  0  0
  -17.4604   -6.3125    4.6550 C   0  0  0  0  0  0  0  0  0  0  0  0
  -16.6155   -7.0313    5.5104 C   0  0  0  0  0  0  0  0  0  0  0  0
  -15.3397   -6.6183    5.7787 C   0  0  0  0  0  0  0  0  0  0  0  0
  -14.8814   -5.4625    5.1869 C   0  0  0  0  0  0  0  0  0  0  0  0
  -15.6996   -4.7187    4.3259 C   0  0  0  0  0  0  0  0  0  0  0  0
  -15.1309   -3.2476    3.5666 Cl  0  0  0  0  0  0  0  0  0  0  0  0
  -11.9715   -6.9598    8.7568 C   0  0  0  0  0  0  0  0  0  0  0  0
  -11.4025   -5.9399    9.4646 C   0  0  0  0  0  0  0  0  0  0  0  0
  -10.1383   -5.6125    9.1741 C   0  0  0  0  0  0  0  0  0  0  0  0
   -9.5156   -6.3306    8.1857 C   0  0  0  0  0  0  0  0  0  0  0  0
  -10.7191   -7.4355    7.7001 S   0  0  0  0  0  0  0  0  0  0  0  0
 11 12  1  0  0  0
 12 13  2  0  0  0
 13 14  1  0  0  0
 14 15  2  0  0  0
 15  1  1  0  0  0
  1  2  1  0  0  0
  2  3  1  0  0  0
  3 19  1  0  0  0
 19 20  2  0  0  0
 20 21  1  0  0  0
 21 22  2  0  0  0
 22 23  1  0  0  0
  3  4  1  0  0  0
  4  5  1  0  0  0
  5  6  2  0  0  0
  6  7  1  0  0  0
  7  8  2  0  0  0
  8  9  1  0  0  0
 15 16  1  0  0  0
 16 17  2  0  0  0
 17 18  1  0  0  0
 17 12  1  0  0  0
  9  1  1  0  0  0
 23 19  1  0  0  0
  8  4  1  0  0  0
  9 10  1  0  0  0
M  END
> <minimizedAffinity>
-3.74116

> <CNNscore>
0.5220894814

> <CNNaffinity>
6.9177565575

> <CNN_VS>
3.6116878986

> <CNNaffinity_variance>
0.6295865178

$$$$
[H]c1nc2n(n1)C([H])(c1sc([H])c([H])c1[H])C([H])([H])C([H])(c1c([H])c([H])c(Cl)c(Cl)c1[H])N2[H]


 23 26  0  0  0  0  0  0  0  0999 V2000
  -13.5455   -8.3076    6.3794 C   0  0  0  0  0  0  0  0  0  0  0  0
  -13.8295   -8.7067    7.7858 C   0  0  0  0  0  0  0  0  0  0  0  0
  -12.5942   -8.8226    8.6009 C   0  0  0  0  0  0  0  0  0  0  0  0
  -11.4648   -9.3582    7.9091 N   0  0  0  0  0  0  0  0  0  0  0  0
  -10.2768   -9.7108    8.3554 N   0  0  0  0  0  0  0  0  0  0  0  0
   -9.5107  -10.1713    7.3585 C   0  0  0  0  0  0  0  0  0  0  0  0
  -10.2788  -10.0907    6.2581 N   0  0  0  0  0  0  0  0  0  0  0  0
  -11.4866   -9.5944    6.5635 C   0  0  0  0  0  0  0  0  0  0  0  0
  -12.6574   -9.3026    5.8111 N   0  0  0  0  0  0  0  0  0  0  0  0
  -12.7990   -9.8092    4.9222 H   0  0  0  0  0  0  0  0  0  0  0  0
  -18.4951   -7.3584    3.1316 Cl  0  0  0  0  0  0  0  0  0  0  0  0
  -17.0496   -7.6509    4.0688 C   0  0  0  0  0  0  0  0  0  0  0  0
  -16.3055   -8.7844    3.8383 C   0  0  0  0  0  0  0  0  0  0  0  0
  -15.1516   -8.9926    4.6047 C   0  0  0  0  0  0  0  0  0  0  0  0
  -14.7537   -8.1043    5.5655 C   0  0  0  0  0  0  0  0  0  0  0  0
  -15.5146   -6.9766    5.7783 C   0  0  0  0  0  0  0  0  0  0  0  0
  -16.6748   -6.7366    5.0298 C   0  0  0  0  0  0  0  0  0  0  0  0
  -17.6521   -5.3078    5.2892 Cl  0  0  0  0  0  0  0  0  0  0  0  0
  -12.1947   -7.5089    9.2298 C   0  0  0  0  0  0  0  0  0  0  0  0
  -12.8874   -6.7879   10.1601 C   0  0  0  0  0  0  0  0  0  0  0  0
  -12.3467   -5.6400   10.5841 C   0  0  0  0  0  0  0  0  0  0  0  0
  -11.1370   -5.2805   10.0478 C   0  0  0  0  0  0  0  0  0  0  0  0
  -10.8009   -6.5592    8.9721 S   0  0  0  0  0  0  0  0  0  0  0  0
 11 12  1  0  0  0
 12 13  2  0  0  0
 13 14  1  0  0  0
 14 15  2  0  0  0
 15  1  1  0  0  0
  1  2  1  0  0  0
  2  3  1  0  0  0
  3 19  1  0  0  0
 19 20  2  0  0  0
 20 21  1  0  0  0
 21 22  2  0  0  0
 22 23  1  0  0  0
  3  4  1  0  0  0
  4  5  1  0  0  0
  5  6  2  0  0  0
  6  7  1  0  0  0
  7  8  2  0  0  0
  8  9  1  0  0  0
 15 16  1  0  0  0
 16 17  2  0  0  0
 17 18  1  0  0  0
 17 12  1  0  0  0
  9  1  1  0  0  0
 23 19  1  0  0  0
  8  4  1  0  0  0
  9 10  1  0  0  0
M  END
> <minimizedAffinity>
-6.69530

> <CNNscore>
0.4930720925

> <CNNaffinity>
6.8427186012

> <CNN_VS>
3.3739535809

> <CNNaffinity_variance>
0.0230522659

$$$$
[H]c1nc2n(n1)C([H])(c1sc([H])c([H])c1[H])C([H])([H])C([H])(c1c([H])c([H])c(Cl)c(Cl)c1[H])N2[H]


 23 26  0  0  0  0  0  0  0  0999 V2000
  -10.0296   -7.4523    7.8871 C   0  0  0  0  0  0  0  0  0  0  0  0
  -10.8300   -8.6789    8.1568 C   0  0  0  0  0  0  0  0  0  0  0  0
  -12.2551   -8.3732    8.4388 C   0  0  0  0  0  0  0  0  0  0  0  0
  -12.4768   -7.1819    9.1953 N   0  0  0  0  0  0  0  0  0  0  0  0
  -13.5822   -6.6961    9.7216 N   0  0  0  0  0  0  0  0  0  0  0  0
  -13.3403   -5.5433   10.3583 C   0  0  0  0  0  0  0  0  0  0  0  0
  -12.0223   -5.3268   10.2058 N   0  0  0  0  0  0  0  0  0  0  0  0
  -11.4625   -6.3167    9.4951 C   0  0  0  0  0  0  0  0  0  0  0  0
  -10.1410   -6.5909    9.0477 N   0  0  0  0  0  0  0  0  0  0  0  0
   -9.3568   -6.1663    9.5690 H   0  0  0  0  0  0  0  0  0  0  0  0
   -4.3231   -8.4420    6.3365 Cl  0  0  0  0  0  0  0  0  0  0  0  0
   -5.9866   -8.1699    6.7974 C   0  0  0  0  0  0  0  0  0  0  0  0
   -6.6508   -9.1157    7.5429 C   0  0  0  0  0  0  0  0  0  0  0  0
   -7.9835   -8.8706    7.8978 C   0  0  0  0  0  0  0  0  0  0  0  0
   -8.6308   -7.7254    7.5236 C   0  0  0  0  0  0  0  0  0  0  0  0
   -7.9453   -6.7929    6.7775 C   0  0  0  0  0  0  0  0  0  0  0  0
   -6.6112   -7.0056    6.4049 C   0  0  0  0  0  0  0  0  0  0  0  0
   -5.7272   -5.8295    5.4565 Cl  0  0  0  0  0  0  0  0  0  0  0  0
  -13.0889   -8.3070    7.1813 C   0  0  0  0  0  0  0  0  0  0  0  0
  -13.3271   -9.3121    6.2879 C   0  0  0  0  0  0  0  0  0  0  0  0
  -14.1000   -9.0336    5.2319 C   0  0  0  0  0  0  0  0  0  0  0  0
  -14.5911   -7.7571    5.1332 C   0  0  0  0  0  0  0  0  0  0  0  0
  -13.9550   -6.9948    6.5186 S   0  0  0  0  0  0  0  0  0  0  0  0
 11 12  1  0  0  0
 12 13  2  0  0  0
 13 14  1  0  0  0
 14 15  2  0  0  0
 15  1  1  0  0  0
  1  2  1  0  0  0
  2  3  1  0  0  0
  3 19  1  0  0  0
 19 20  2  0  0  0
 20 21  1  0  0  0
 21 22  2  0  0  0
 22 23  1  0  0  0
  3  4  1  0  0  0
  4  5  1  0  0  0
  5  6  2  0  0  0
  6  7  1  0  0  0
  7  8  2  0  0  0
  8  9  1  0  0  0
 15 16  1  0  0  0
 16 17  2  0  0  0
 17 18  1  0  0  0
 17 12  1  0  0  0
  9  1  1  0  0  0
 23 19  1  0  0  0
  8  4  1  0  0  0
  9 10  1  0  0  0
M  END
> <minimizedAffinity>
-8.67648

> <CNNscore>
0.4385612011

> <CNNaffinity>
6.6502914429

> <CNN_VS>
2.9165596962

> <CNNaffinity_variance>
0.1099927872

$$$$
[H]c1nc2n(n1)C([H])(c1sc([H])c([H])c1[H])C([H])([H])C([H])(c1c([H])c([H])c(Cl)c(Cl)c1[H])N2[H]


 23 26  0  0  0  0  0  0  0  0999 V2000
   -6.9955   -6.6177    9.5787 C   0  0  0  0  0  0  0  0  0  0  0  0
   -6.7495   -7.9893    9.0535 C   0  0  0  0  0  0  0  0  0  0  0  0
   -7.7505   -8.3921    8.0339 C   0  0  0  0  0  0  0  0  0  0  0  0
   -9.0820   -7.9404    8.2866 N   0  0  0  0  0  0  0  0  0  0  0  0
  -10.2119   -8.2213    7.6706 N   0  0  0  0  0  0  0  0  0  0  0  0
  -11.2381   -7.5765    8.2399 C   0  0  0  0  0  0  0  0  0  0  0  0
  -10.6957   -6.8729    9.2488 N   0  0  0  0  0  0  0  0  0  0  0  0
   -9.3711   -7.0754    9.3040 C   0  0  0  0  0  0  0  0  0  0  0  0
   -8.3296   -6.5969   10.1455 N   0  0  0  0  0  0  0  0  0  0  0  0
   -8.5847   -6.2702   11.0917 H   0  0  0  0  0  0  0  0  0  0  0  0
   -2.7518   -4.6953   13.3528 Cl  0  0  0  0  0  0  0  0  0  0  0  0
   -3.9991   -5.2607   12.2674 C   0  0  0  0  0  0  0  0  0  0  0  0
   -5.1471   -5.8184   12.7797 C   0  0  0  0  0  0  0  0  0  0  0  0
   -6.1297   -6.2628   11.8858 C   0  0  0  0  0  0  0  0  0  0  0  0
   -5.9743   -6.1558   10.5313 C   0  0  0  0  0  0  0  0  0  0  0  0
   -4.8164   -5.5940   10.0416 C   0  0  0  0  0  0  0  0  0  0  0  0
   -3.8127   -5.1387   10.9071 C   0  0  0  0  0  0  0  0  0  0  0  0
   -2.3356   -4.4226   10.2993 Cl  0  0  0  0  0  0  0  0  0  0  0  0
   -7.3545   -7.9672    6.6398 C   0  0  0  0  0  0  0  0  0  0  0  0
   -7.4626   -6.7228    6.0878 C   0  0  0  0  0  0  0  0  0  0  0  0
   -7.0497   -6.5660    4.8249 C   0  0  0  0  0  0  0  0  0  0  0  0
   -6.5502   -7.6719    4.1863 C   0  0  0  0  0  0  0  0  0  0  0  0
   -6.6760   -8.8881    5.3738 S   0  0  0  0  0  0  0  0  0  0  0  0
 11 12  1  0  0  0
 12 13  2  0  0  0
 13 14  1  0  0  0
 14 15  2  0  0  0
 15  1  1  0  0  0
  1  2  1  0  0  0
  2  3  1  0  0  0
  3 19  1  0  0  0
 19 20  2  0  0  0
 20 21  1  0  0  0
 21 22  2  0  0  0
 22 23  1  0  0  0
  3  4  1  0  0  0
  4  5  1  0  0  0
  5  6  2  0  0  0
  6  7  1  0  0  0
  7  8  2  0  0  0
  8  9  1  0  0  0
 15 16  1  0  0  0
 16 17  2  0  0  0
 17 18  1  0  0  0
 17 12  1  0  0  0
  9  1  1  0  0  0
 23 19  1  0  0  0
  8  4  1  0  0  0
  9 10  1  0  0  0
M  END
> <minimizedAffinity>
4.13733

> <CNNscore>
0.3865914047

> <CNNaffinity>
5.6426744461

> <CNN_VS>
2.1814093590

> <CNNaffinity_variance>
0.7690237164

$$$$
[H]c1nc2n(n1)C([H])(c1sc([H])c([H])c1[H])C([H])([H])C([H])(c1c([H])c([H])c(Cl)c(Cl)c1[H])N2[H]


 23 26  0  0  0  0  0  0  0  0999 V2000
  -12.4281   -6.9843    9.0696 C   0  0  0  0  0  0  0  0  0  0  0  0
  -12.5073   -8.4623    9.2344 C   0  0  0  0  0  0  0  0  0  0  0  0
  -12.5752   -9.1732    7.9329 C   0  0  0  0  0  0  0  0  0  0  0  0
  -13.3449   -8.5136    6.9263 N   0  0  0  0  0  0  0  0  0  0  0  0
  -13.7132   -8.9189    5.7284 N   0  0  0  0  0  0  0  0  0  0  0  0
  -14.4361   -7.9778    5.1083 C   0  0  0  0  0  0  0  0  0  0  0  0
  -14.5047   -6.9558    5.9789 N   0  0  0  0  0  0  0  0  0  0  0  0
  -13.8434   -7.2543    7.1069 C   0  0  0  0  0  0  0  0  0  0  0  0
  -13.5976   -6.5620    8.3243 N   0  0  0  0  0  0  0  0  0  0  0  0
  -14.2565   -5.8144    8.5964 H   0  0  0  0  0  0  0  0  0  0  0  0
  -11.6883   -4.0700   14.2569 Cl  0  0  0  0  0  0  0  0  0  0  0  0
  -11.9204   -4.9109   12.7428 C   0  0  0  0  0  0  0  0  0  0  0  0
  -13.0688   -4.7013   12.0157 C   0  0  0  0  0  0  0  0  0  0  0  0
  -13.2276   -5.3889   10.8057 C   0  0  0  0  0  0  0  0  0  0  0  0
  -12.2773   -6.2538   10.3373 C   0  0  0  0  0  0  0  0  0  0  0  0
  -11.1357   -6.4476   11.0826 C   0  0  0  0  0  0  0  0  0  0  0  0
  -10.9440   -5.7761   12.2976 C   0  0  0  0  0  0  0  0  0  0  0  0
   -9.4983   -6.0124   13.2558 Cl  0  0  0  0  0  0  0  0  0  0  0  0
  -11.2065   -9.4762    7.3709 C   0  0  0  0  0  0  0  0  0  0  0  0
  -10.8732  -10.4505    6.4738 C   0  0  0  0  0  0  0  0  0  0  0  0
   -9.5895  -10.5453    6.1090 C   0  0  0  0  0  0  0  0  0  0  0  0
   -8.7110   -9.6531    6.6678 C   0  0  0  0  0  0  0  0  0  0  0  0
   -9.7109   -8.7160    7.6813 S   0  0  0  0  0  0  0  0  0  0  0  0
 11 12  1  0  0  0
 12 13  2  0  0  0
 13 14  1  0  0  0
 14 15  2  0  0  0
 15  1  1  0  0  0
  1  2  1  0  0  0
  2  3  1  0  0  0
  3 19  1  0  0  0
 19 20  2  0  0  0
 20 21  1  0  0  0
 21 22  2  0  0  0
 22 23  1  0  0  0
  3  4  1  0  0  0
  4  5  1  0  0  0
  5  6  2  0  0  0
  6  7  1  0  0  0
  7  8  2  0  0  0
  8  9  1  0  0  0
 15 16  1  0  0  0
 16 17  2  0  0  0
 17 18  1  0  0  0
 17 12  1  0  0  0
  9  1  1  0  0  0
 23 19  1  0  0  0
  8  4  1  0  0  0
  9 10  1  0  0  0
M  END
> <minimizedAffinity>
1.14669

> <CNNscore>
0.3284263015

> <CNNaffinity>
6.2013115883

> <CNN_VS>
2.0366737843

> <CNNaffinity_variance>
0.2341421545

$$$$
[H]c1nc2n(n1)C([H])(c1sc([H])c([H])c1[H])C([H])([H])C([H])(c1c([H])c([H])c(Cl)c(Cl)c1[H])N2[H]


 23 26  0  0  0  0  0  0  0  0999 V2000
   -6.0695   -6.6003    7.2726 C   0  0  0  0  0  0  0  0  0  0  0  0
   -4.8736   -7.3806    7.6953 C   0  0  0  0  0  0  0  0  0  0  0  0
   -3.6317   -6.5676    7.6737 C   0  0  0  0  0  0  0  0  0  0  0  0
   -3.5437   -5.6317    6.5980 N   0  0  0  0  0  0  0  0  0  0  0  0
   -2.5458   -4.8635    6.2120 N   0  0  0  0  0  0  0  0  0  0  0  0
   -2.8923   -4.1324    5.1451 C   0  0  0  0  0  0  0  0  0  0  0  0
   -4.1631   -4.4800    4.8777 N   0  0  0  0  0  0  0  0  0  0  0  0
   -4.5927   -5.4003    5.7535 C   0  0  0  0  0  0  0  0  0  0  0  0
   -5.8174   -6.0994    5.9357 N   0  0  0  0  0  0  0  0  0  0  0  0
   -6.4398   -6.2046    5.1181 H   0  0  0  0  0  0  0  0  0  0  0  0
  -11.2697   -9.5556    7.6887 Cl  0  0  0  0  0  0  0  0  0  0  0  0
   -9.7462   -8.7094    7.5600 C   0  0  0  0  0  0  0  0  0  0  0  0
   -8.6481   -9.3572    7.0443 C   0  0  0  0  0  0  0  0  0  0  0  0
   -7.4401   -8.6540    6.9531 C   0  0  0  0  0  0  0  0  0  0  0  0
   -7.3300   -7.3532    7.3607 C   0  0  0  0  0  0  0  0  0  0  0  0
   -8.4430   -6.7253    7.8737 C   0  0  0  0  0  0  0  0  0  0  0  0
   -9.6675   -7.3987    7.9794 C   0  0  0  0  0  0  0  0  0  0  0  0
  -11.0906   -6.6138    8.6294 Cl  0  0  0  0  0  0  0  0  0  0  0  0
   -3.4037   -5.8310    8.9724 C   0  0  0  0  0  0  0  0  0  0  0  0
   -4.3291   -5.1643    9.7234 C   0  0  0  0  0  0  0  0  0  0  0  0
   -3.9077   -4.5752   10.8483 C   0  0  0  0  0  0  0  0  0  0  0  0
   -2.5762   -4.6898   11.1555 C   0  0  0  0  0  0  0  0  0  0  0  0
   -1.9639   -5.6157    9.8622 S   0  0  0  0  0  0  0  0  0  0  0  0
 11 12  1  0  0  0
 12 13  2  0  0  0
 13 14  1  0  0  0
 14 15  2  0  0  0
 15  1  1  0  0  0
  1  2  1  0  0  0
  2  3  1  0  0  0
  3 19  1  0  0  0
 19 20  2  0  0  0
 20 21  1  0  0  0
 21 22  2  0  0  0
 22 23  1  0  0  0
  3  4  1  0  0  0
  4  5  1  0  0  0
  5  6  2  0  0  0
  6  7  1  0  0  0
  7  8  2  0  0  0
  8  9  1  0  0  0
 15 16  1  0  0  0
 16 17  2  0  0  0
 17 18  1  0  0  0
 17 12  1  0  0  0
  9  1  1  0  0  0
 23 19  1  0  0  0
  8  4  1  0  0  0
  9 10  1  0  0  0
M  END
> <minimizedAffinity>
-6.55030

> <CNNscore>
0.3280069828

> <CNNaffinity>
5.6382603645

> <CNN_VS>
1.8493887186

> <CNNaffinity_variance>
0.1533507705

$$$$
[H]c1nc2n(n1)C([H])(c1sc([H])c([H])c1[H])C([H])([H])C([H])(c1c([H])c([H])c(Cl)c(Cl)c1[H])N2[H]


 23 26  0  0  0  0  0  0  0  0999 V2000
  -14.4673   -6.3460    6.5351 C   0  0  0  0  0  0  0  0  0  0  0  0
  -15.7527   -7.0640    6.7588 C   0  0  0  0  0  0  0  0  0  0  0  0
  -16.6036   -7.0918    5.5426 C   0  0  0  0  0  0  0  0  0  0  0  0
  -16.5658   -5.9010    4.7543 N   0  0  0  0  0  0  0  0  0  0  0  0
  -17.2819   -5.5449    3.7078 N   0  0  0  0  0  0  0  0  0  0  0  0
  -16.9180   -4.3324    3.2715 C   0  0  0  0  0  0  0  0  0  0  0  0
  -15.9332   -3.9416    4.0989 N   0  0  0  0  0  0  0  0  0  0  0  0
  -15.6930   -4.8844    5.0219 C   0  0  0  0  0  0  0  0  0  0  0  0
  -14.7856   -4.9968    6.1109 N   0  0  0  0  0  0  0  0  0  0  0  0
  -14.4166   -4.1250    6.5241 H   0  0  0  0  0  0  0  0  0  0  0  0
  -10.6904   -6.5073   11.1889 Cl  0  0  0  0  0  0  0  0  0  0  0  0
  -11.8040   -6.4522    9.8433 C   0  0  0  0  0  0  0  0  0  0  0  0
  -13.0599   -5.9200   10.0193 C   0  0  0  0  0  0  0  0  0  0  0  0
  -13.9312   -5.8888    8.9230 C   0  0  0  0  0  0  0  0  0  0  0  0
  -13.5650   -6.3704    7.6964 C   0  0  0  0  0  0  0  0  0  0  0  0
  -12.3024   -6.8985    7.5443 C   0  0  0  0  0  0  0  0  0  0  0  0
  -11.4050   -6.9454    8.6196 C   0  0  0  0  0  0  0  0  0  0  0  0
   -9.7971   -7.6139    8.4413 Cl  0  0  0  0  0  0  0  0  0  0  0  0
  -16.2929   -8.2699    4.6501 C   0  0  0  0  0  0  0  0  0  0  0  0
  -15.0854   -8.6069    4.1084 C   0  0  0  0  0  0  0  0  0  0  0  0
  -15.0337   -9.6999    3.3387 C   0  0  0  0  0  0  0  0  0  0  0  0
  -16.2019  -10.3945    3.1564 C   0  0  0  0  0  0  0  0  0  0  0  0
  -17.3275   -9.4948    4.0667 S   0  0  0  0  0  0  0  0  0  0  0  0
 11 12  1  0  0  0
 12 13  2  0  0  0
 13 14  1  0  0  0
 14 15  2  0  0  0
 15  1  1  0  0  0
  1  2  1  0  0  0
  2  3  1  0  0  0
  3 19  1  0  0  0
 19 20  2  0  0  0
 20 21  1  0  0  0
 21 22  2  0  0  0
 22 23  1  0  0  0
  3  4  1  0  0  0
  4  5  1  0  0  0
  5  6  2  0  0  0
  6  7  1  0  0  0
  7  8  2  0  0  0
  8  9  1  0  0  0
 15 16  1  0  0  0
 16 17  2  0  0  0
 17 18  1  0  0  0
 17 12  1  0  0  0
  9  1  1  0  0  0
 23 19  1  0  0  0
  8  4  1  0  0  0
  9 10  1  0  0  0
M  END
> <minimizedAffinity>
0.90098

> <CNNscore>
0.3215409517

> <CNNaffinity>
6.5232071877

> <CNN_VS>
2.0974781513

> <CNNaffinity_variance>
0.3170358539

$$$$
[H]c1nc2n(n1)C([H])(c1sc([H])c([H])c1[H])C([H])([H])C([H])(c1c([H])c([H])c(Cl)c(Cl)c1[H])N2[H]


 23 26  0  0  0  0  0  0  0  0999 V2000
   -5.6350   -6.7137    6.8711 C   0  0  0  0  0  0  0  0  0  0  0  0
   -4.7009   -7.8270    6.5460 C   0  0  0  0  0  0  0  0  0  0  0  0
   -3.3082   -7.3550    6.3424 C   0  0  0  0  0  0  0  0  0  0  0  0
   -3.1908   -6.0937    5.6819 N   0  0  0  0  0  0  0  0  0  0  0  0
   -2.1273   -5.4579    5.2351 N   0  0  0  0  0  0  0  0  0  0  0  0
   -2.4703   -4.2919    4.6733 C   0  0  0  0  0  0  0  0  0  0  0  0
   -3.8079   -4.2252    4.7892 N   0  0  0  0  0  0  0  0  0  0  0  0
   -4.2813   -5.3183    5.4052 C   0  0  0  0  0  0  0  0  0  0  0  0
   -5.5796   -5.7608    5.7800 N   0  0  0  0  0  0  0  0  0  0  0  0
   -6.3878   -5.3819    5.2601 H   0  0  0  0  0  0  0  0  0  0  0  0
  -11.1923   -8.6524    8.0142 Cl  0  0  0  0  0  0  0  0  0  0  0  0
   -9.5779   -8.0700    7.6852 C   0  0  0  0  0  0  0  0  0  0  0  0
   -9.2968   -6.7301    7.8161 C   0  0  0  0  0  0  0  0  0  0  0  0
   -7.9941   -6.2919    7.5459 C   0  0  0  0  0  0  0  0  0  0  0  0
   -7.0077   -7.1568    7.1593 C   0  0  0  0  0  0  0  0  0  0  0  0
   -7.3128   -8.4938    7.0351 C   0  0  0  0  0  0  0  0  0  0  0  0
   -8.6056   -8.9668    7.2976 C   0  0  0  0  0  0  0  0  0  0  0  0
   -9.0082  -10.6633    7.1438 Cl  0  0  0  0  0  0  0  0  0  0  0  0
   -2.5259   -7.2971    7.6330 C   0  0  0  0  0  0  0  0  0  0  0  0
   -1.6601   -8.2327    8.1230 C   0  0  0  0  0  0  0  0  0  0  0  0
   -1.0708   -7.9785    9.2969 C   0  0  0  0  0  0  0  0  0  0  0  0
   -1.3859   -6.7950    9.9137 C   0  0  0  0  0  0  0  0  0  0  0  0
   -2.4928   -6.0826    8.8310 S   0  0  0  0  0  0  0  0  0  0  0  0
 11 12  1  0  0  0
 12 13  2  0  0  0
 13 14  1  0  0  0
 14 15  2  0  0  0
 15  1  1  0  0  0
  1  2  1  0  0  0
  2  3  1  0  0  0
  3 19  1  0  0  0
 19 20  2  0  0  0
 20 21  1  0  0  0
 21 22  2  0  0  0
 22 23  1  0  0  0
  3  4  1  0  0  0
  4  5  1  0  0  0
  5  6  2  0  0  0
  6  7  1  0  0  0
  7  8  2  0  0  0
  8  9  1  0  0  0
 15 16  1  0  0  0
 16 17  2  0  0  0
 17 18  1  0  0  0
 17 12  1  0  0  0
  9  1  1  0  0  0
 23 19  1  0  0  0
  8  4  1  0  0  0
  9 10  1  0  0  0
M  END
> <minimizedAffinity>
-6.02840

> <CNNscore>
0.3186171949

> <CNNaffinity>
5.6473312378

> <CNN_VS>
1.7993367910

> <CNNaffinity_variance>
0.0582342260

$$$$
[H]c1nc2n(n1)C([H])(c1sc([H])c([H])c1[H])C([H])([H])C([H])(c1c([H])c([H])c(Cl)c(Cl)c1[H])N2[H]


 23 26  0  0  0  0  0  0  0  0999 V2000
  -14.1280   -7.6608    6.5916 C   0  0  0  0  0  0  0  0  0  0  0  0
  -14.3576   -8.1319    7.9855 C   0  0  0  0  0  0  0  0  0  0  0  0
  -13.0970   -8.5238    8.6646 C   0  0  0  0  0  0  0  0  0  0  0  0
  -12.1398   -9.1749    7.8276 N   0  0  0  0  0  0  0  0  0  0  0  0
  -10.9976   -9.7583    8.1277 N   0  0  0  0  0  0  0  0  0  0  0  0
  -10.4096  -10.2481    7.0290 C   0  0  0  0  0  0  0  0  0  0  0  0
  -11.2418   -9.9427    6.0184 N   0  0  0  0  0  0  0  0  0  0  0  0
  -12.3153   -9.2824    6.4768 C   0  0  0  0  0  0  0  0  0  0  0  0
  -13.4767   -8.7342    5.8667 N   0  0  0  0  0  0  0  0  0  0  0  0
  -13.7783   -9.1284    4.9608 H   0  0  0  0  0  0  0  0  0  0  0  0
  -19.1517   -5.8615    3.8581 Cl  0  0  0  0  0  0  0  0  0  0  0  0
  -17.6804   -6.3688    4.6527 C   0  0  0  0  0  0  0  0  0  0  0  0
  -16.6510   -5.4720    4.8181 C   0  0  0  0  0  0  0  0  0  0  0  0
  -15.4836   -5.9066    5.4587 C   0  0  0  0  0  0  0  0  0  0  0  0
  -15.3467   -7.1877    5.9175 C   0  0  0  0  0  0  0  0  0  0  0  0
  -16.3908   -8.0678    5.7405 C   0  0  0  0  0  0  0  0  0  0  0  0
  -17.5732   -7.6668    5.1041 C   0  0  0  0  0  0  0  0  0  0  0  0
  -18.9086   -8.7743    4.8719 Cl  0  0  0  0  0  0  0  0  0  0  0  0
  -12.4244   -7.3563    9.3470 C   0  0  0  0  0  0  0  0  0  0  0  0
  -12.8922   -6.6291   10.4041 C   0  0  0  0  0  0  0  0  0  0  0  0
  -12.1288   -5.6269   10.8544 C   0  0  0  0  0  0  0  0  0  0  0  0
  -10.9350   -5.4117   10.2151 C   0  0  0  0  0  0  0  0  0  0  0  0
  -10.9241   -6.6168    9.0099 S   0  0  0  0  0  0  0  0  0  0  0  0
 11 12  1  0  0  0
 12 13  2  0  0  0
 13 14  1  0  0  0
 14 15  2  0  0  0
 15  1  1  0  0  0
  1  2  1  0  0  0
  2  3  1  0  0  0
  3 19  1  0  0  0
 19 20  2  0  0  0
 20 21  1  0  0  0
 21 22  2  0  0  0
 22 23  1  0  0  0
  3  4  1  0  0  0
  4  5  1  0  0  0
  5  6  2  0  0  0
  6  7  1  0  0  0
  7  8  2  0  0  0
  8  9  1  0  0  0
 15 16  1  0  0  0
 16 17  2  0  0  0
 17 18  1  0  0  0
 17 12  1  0  0  0
  9  1  1  0  0  0
 23 19  1  0  0  0
  8  4  1  0  0  0
  9 10  1  0  0  0
M  END
> <minimizedAffinity>
-6.69326

> <CNNscore>
0.3111477494

> <CNNaffinity>
6.5891427994

> <CNN_VS>
2.0501968861

> <CNNaffinity_variance>
0.1194845214

$$$$
[H]c1nc([H])c2c(c1[H])c1c([H])nc(N([H])c3nnc(N([H])C([H])([H])C4([H])C([H])([H])N([H])C4([H])[H])c([H])c3[H])nc1n2C1([H])C([H])([H])C([H])([H])C([H])([H])C1([H])[H]


 34 39  0  0  0  0  0  0  0  0999 V2000
  -13.1364   -9.8394   12.8469 C   0  0  0  0  0  0  0  0  0  0  0  0
  -13.6804   -9.8861   11.5759 C   0  0  0  0  0  0  0  0  0  0  0  0
  -13.8159   -8.7237   10.8481 C   0  0  0  0  0  0  0  0  0  0  0  0
  -14.3118   -8.4961    9.5950 C   0  0  0  0  0  0  0  0  0  0  0  0
  -14.8542   -9.2955    8.5915 C   0  0  0  0  0  0  0  0  0  0  0  0
  -15.2529   -8.7201    7.4465 N   0  0  0  0  0  0  0  0  0  0  0  0
  -15.1595   -7.3954    7.2033 C   0  0  0  0  0  0  0  0  0  0  0  0
  -14.6403   -6.6029    8.1540 N   0  0  0  0  0  0  0  0  0  0  0  0
  -14.2271   -7.1483    9.3229 C   0  0  0  0  0  0  0  0  0  0  0  0
  -13.6744   -6.5653   10.4266 N   0  0  0  0  0  0  0  0  0  0  0  0
  -13.4238   -7.5018   11.3478 C   0  0  0  0  0  0  0  0  0  0  0  0
  -12.8854   -7.4919   12.6184 C   0  0  0  0  0  0  0  0  0  0  0  0
  -12.7614   -8.6255   13.3089 N   0  0  0  0  0  0  0  0  0  0  0  0
  -13.3965   -5.1566   10.5907 C   0  0  0  0  0  0  0  0  0  0  0  0
  -12.3055   -4.6617    9.6765 C   0  0  0  0  0  0  0  0  0  0  0  0
  -11.5255   -3.6338   10.4459 C   0  0  0  0  0  0  0  0  0  0  0  0
  -11.9543   -3.7035   11.8776 C   0  0  0  0  0  0  0  0  0  0  0  0
  -13.0086   -4.7801   11.9853 C   0  0  0  0  0  0  0  0  0  0  0  0
  -15.6116   -6.8610    5.9463 N   0  0  0  0  0  0  0  0  0  0  0  0
  -16.2272   -6.0193    5.9552 H   0  0  0  0  0  0  0  0  0  0  0  0
  -15.2430   -7.4464    4.7124 C   0  0  0  0  0  0  0  0  0  0  0  0
  -15.9667   -7.2893    3.5526 C   0  0  0  0  0  0  0  0  0  0  0  0
  -15.5770   -7.8777    2.3586 C   0  0  0  0  0  0  0  0  0  0  0  0
  -14.4316   -8.6443    2.3247 C   0  0  0  0  0  0  0  0  0  0  0  0
  -13.7519   -8.7705    3.4911 N   0  0  0  0  0  0  0  0  0  0  0  0
  -14.1378   -8.2024    4.6209 N   0  0  0  0  0  0  0  0  0  0  0  0
  -13.9736   -9.2764    1.1359 N   0  0  0  0  0  0  0  0  0  0  0  0
  -14.0803  -10.2938    1.0223 H   0  0  0  0  0  0  0  0  0  0  0  0
  -13.3595   -8.4926    0.0880 C   0  0  0  0  0  0  0  0  0  0  0  0
  -12.9263   -9.3565   -1.0765 C   0  0  0  0  0  0  0  0  0  0  0  0
  -11.4313   -9.5854   -1.0856 C   0  0  0  0  0  0  0  0  0  0  0  0
  -11.6610  -10.9949   -1.3952 N   0  0  0  0  0  0  0  0  0  0  0  0
  -12.9931  -10.8392   -0.8099 C   0  0  0  0  0  0  0  0  0  0  0  0
  -11.0847  -11.6109   -0.7652 H   0  0  0  0  0  0  0  0  0  0  0  0
  1  2  2  0  0  0
  2  3  1  0  0  0
  3  4  1  0  0  0
  4  5  2  0  0  0
  5  6  1  0  0  0
  6  7  2  0  0  0
  7 19  1  0  0  0
 19 21  1  0  0  0
 21 22  2  0  0  0
 22 23  1  0  0  0
 23 24  2  0  0  0
 24 27  1  0  0  0
 27 29  1  0  0  0
 29 30  1  0  0  0
 30 31  1  0  0  0
 31 32  1  0  0  0
 32 33  1  0  0  0
 24 25  1  0  0  0
 25 26  2  0  0  0
  7  8  1  0  0  0
  8  9  2  0  0  0
  9 10  1  0  0  0
 10 14  1  0  0  0
 14 15  1  0  0  0
 15 16  1  0  0  0
 16 17  1  0  0  0
 17 18  1  0  0  0
 10 11  1  0  0  0
 11 12  1  0  0  0
 12 13  2  0  0  0
 13  1  1  0  0  0
 11  3  2  0  0  0
  9  4  1  0  0  0
 18 14  1  0  0  0
 26 21  1  0  0  0
 33 30  1  0  0  0
 19 20  1  0  0  0
 27 28  1  0  0  0
 32 34  1  0  0  0
M  END
> <minimizedAffinity>
30.15722

> <CNNscore>
0.5300206542

> <CNNaffinity>
7.3005614281

> <CNN_VS>
3.8694484234

> <CNNaffinity_variance>
2.2528052330

$$$$
[H]c1nc([H])c2c(c1[H])c1c([H])nc(N([H])c3nnc(N([H])C([H])([H])C4([H])C([H])([H])N([H])C4([H])[H])c([H])c3[H])nc1n2C1([H])C([H])([H])C([H])([H])C([H])([H])C1([H])[H]


 34 39  0  0  0  0  0  0  0  0999 V2000
  -17.5547   -4.1653    2.4292 C   0  0  0  0  0  0  0  0  0  0  0  0
  -16.4313   -4.5115    3.1584 C   0  0  0  0  0  0  0  0  0  0  0  0
  -16.5476   -5.3841    4.2187 C   0  0  0  0  0  0  0  0  0  0  0  0
  -15.6148   -5.8805    5.0855 C   0  0  0  0  0  0  0  0  0  0  0  0
  -14.2406   -5.7213    5.2490 C   0  0  0  0  0  0  0  0  0  0  0  0
  -13.6230   -6.3833    6.2396 N   0  0  0  0  0  0  0  0  0  0  0  0
  -14.2599   -7.2060    7.1000 C   0  0  0  0  0  0  0  0  0  0  0  0
  -15.5843   -7.3768    6.9640 N   0  0  0  0  0  0  0  0  0  0  0  0
  -16.2417   -6.7248    5.9754 C   0  0  0  0  0  0  0  0  0  0  0  0
  -17.5637   -6.7319    5.6355 N   0  0  0  0  0  0  0  0  0  0  0  0
  -17.7581   -5.9307    4.5826 C   0  0  0  0  0  0  0  0  0  0  0  0
  -18.8577   -5.5638    3.8337 C   0  0  0  0  0  0  0  0  0  0  0  0
  -18.7277   -4.7185    2.8112 N   0  0  0  0  0  0  0  0  0  0  0  0
  -18.6048   -7.4828    6.2995 C   0  0  0  0  0  0  0  0  0  0  0  0
  -18.1602   -8.0686    7.6148 C   0  0  0  0  0  0  0  0  0  0  0  0
  -18.8329   -9.4056    7.7456 C   0  0  0  0  0  0  0  0  0  0  0  0
  -19.4467   -9.7462    6.4243 C   0  0  0  0  0  0  0  0  0  0  0  0
  -19.1512   -8.6068    5.4776 C   0  0  0  0  0  0  0  0  0  0  0  0
  -13.5198   -7.8775    8.1349 N   0  0  0  0  0  0  0  0  0  0  0  0
  -13.4416   -8.9167    8.0974 H   0  0  0  0  0  0  0  0  0  0  0  0
  -12.9027   -7.1662    9.1905 C   0  0  0  0  0  0  0  0  0  0  0  0
  -13.5452   -6.2012    9.9318 C   0  0  0  0  0  0  0  0  0  0  0  0
  -12.9102   -5.5220   10.9609 C   0  0  0  0  0  0  0  0  0  0  0  0
  -11.5961   -5.8167   11.2561 C   0  0  0  0  0  0  0  0  0  0  0  0
  -11.0049   -6.7738   10.4993 N   0  0  0  0  0  0  0  0  0  0  0  0
  -11.6254   -7.4118    9.5215 N   0  0  0  0  0  0  0  0  0  0  0  0
  -10.8841   -5.1598   12.2972 N   0  0  0  0  0  0  0  0  0  0  0  0
  -10.2524   -4.3787   12.0727 H   0  0  0  0  0  0  0  0  0  0  0  0
  -11.0463   -5.5869   13.6685 C   0  0  0  0  0  0  0  0  0  0  0  0
   -9.7210   -5.6485   14.3962 C   0  0  0  0  0  0  0  0  0  0  0  0
   -8.6021   -6.1209   13.4948 C   0  0  0  0  0  0  0  0  0  0  0  0
   -7.7376   -5.0769   14.0405 N   0  0  0  0  0  0  0  0  0  0  0  0
   -8.9545   -4.3499   14.4040 C   0  0  0  0  0  0  0  0  0  0  0  0
   -7.2514   -4.5562   13.2652 H   0  0  0  0  0  0  0  0  0  0  0  0
  1  2  2  0  0  0
  2  3  1  0  0  0
  3  4  1  0  0  0
  4  5  2  0  0  0
  5  6  1  0  0  0
  6  7  2  0  0  0
  7 19  1  0  0  0
 19 21  1  0  0  0
 21 22  2  0  0  0
 22 23  1  0  0  0
 23 24  2  0  0  0
 24 27  1  0  0  0
 27 29  1  0  0  0
 29 30  1  0  0  0
 30 31  1  0  0  0
 31 32  1  0  0  0
 32 33  1  0  0  0
 24 25  1  0  0  0
 25 26  2  0  0  0
  7  8  1  0  0  0
  8  9  2  0  0  0
  9 10  1  0  0  0
 10 14  1  0  0  0
 14 15  1  0  0  0
 15 16  1  0  0  0
 16 17  1  0  0  0
 17 18  1  0  0  0
 10 11  1  0  0  0
 11 12  1  0  0  0
 12 13  2  0  0  0
 13  1  1  0  0  0
 11  3  2  0  0  0
  9  4  1  0  0  0
 18 14  1  0  0  0
 26 21  1  0  0  0
 33 30  1  0  0  0
 19 20  1  0  0  0
 27 28  1  0  0  0
 32 34  1  0  0  0
M  END
> <minimizedAffinity>
10.26901

> <CNNscore>
0.4245399535

> <CNNaffinity>
7.0589294434

> <CNN_VS>
2.9967975616

> <CNNaffinity_variance>
1.4669069052

$$$$
[H]c1nc([H])c2c(c1[H])c1c([H])nc(N([H])c3nnc(N([H])C([H])([H])C4([H])C([H])([H])N([H])C4([H])[H])c([H])c3[H])nc1n2C1([H])C([H])([H])C([H])([H])C([H])([H])C1([H])[H]


 34 39  0  0  0  0  0  0  0  0999 V2000
   -6.9122   -7.9498   10.9953 C   0  0  0  0  0  0  0  0  0  0  0  0
   -6.4512   -7.9246    9.6913 C   0  0  0  0  0  0  0  0  0  0  0  0
   -5.4778   -7.0190    9.3286 C   0  0  0  0  0  0  0  0  0  0  0  0
   -4.8601   -6.7890    8.1314 C   0  0  0  0  0  0  0  0  0  0  0  0
   -4.9511   -7.3407    6.8555 C   0  0  0  0  0  0  0  0  0  0  0  0
   -4.1674   -6.8551    5.8802 N   0  0  0  0  0  0  0  0  0  0  0  0
   -3.2835   -5.8509    6.0614 C   0  0  0  0  0  0  0  0  0  0  0  0
   -3.1763   -5.3020    7.2816 N   0  0  0  0  0  0  0  0  0  0  0  0
   -3.9512   -5.7661    8.2908 C   0  0  0  0  0  0  0  0  0  0  0  0
   -4.0279   -5.3814    9.5983 N   0  0  0  0  0  0  0  0  0  0  0  0
   -4.9410   -6.1269   10.2300 C   0  0  0  0  0  0  0  0  0  0  0  0
   -5.4238   -6.1797   11.5218 C   0  0  0  0  0  0  0  0  0  0  0  0
   -6.3656   -7.0619   11.8560 N   0  0  0  0  0  0  0  0  0  0  0  0
   -3.2505   -4.3334   10.2198 C   0  0  0  0  0  0  0  0  0  0  0  0
   -3.4088   -2.9996    9.5367 C   0  0  0  0  0  0  0  0  0  0  0  0
   -2.0712   -2.3181    9.5967 C   0  0  0  0  0  0  0  0  0  0  0  0
   -1.0604   -3.3221   10.0535 C   0  0  0  0  0  0  0  0  0  0  0  0
   -1.7853   -4.6281   10.2791 C   0  0  0  0  0  0  0  0  0  0  0  0
   -2.4812   -5.3908    4.9593 N   0  0  0  0  0  0  0  0  0  0  0  0
   -2.0589   -6.0988    4.3207 H   0  0  0  0  0  0  0  0  0  0  0  0
   -2.2557   -4.0139    4.7260 C   0  0  0  0  0  0  0  0  0  0  0  0
   -1.8025   -3.1455    5.6925 C   0  0  0  0  0  0  0  0  0  0  0  0
   -1.5918   -1.8001    5.4302 C   0  0  0  0  0  0  0  0  0  0  0  0
   -1.8415   -1.3103    4.1658 C   0  0  0  0  0  0  0  0  0  0  0  0
   -2.2863   -2.2027    3.2471 N   0  0  0  0  0  0  0  0  0  0  0  0
   -2.4819   -3.4828    3.5144 N   0  0  0  0  0  0  0  0  0  0  0  0
   -1.6473    0.0572    3.8271 N   0  0  0  0  0  0  0  0  0  0  0  0
   -0.8699    0.5843    4.2482 H   0  0  0  0  0  0  0  0  0  0  0  0
   -2.5391    0.7069    2.8934 C   0  0  0  0  0  0  0  0  0  0  0  0
   -2.6149   -0.0400    1.5795 C   0  0  0  0  0  0  0  0  0  0  0  0
   -3.2196    0.8065    0.4817 C   0  0  0  0  0  0  0  0  0  0  0  0
   -2.1844    0.3354   -0.4357 N   0  0  0  0  0  0  0  0  0  0  0  0
   -1.3643    0.0467    0.7414 C   0  0  0  0  0  0  0  0  0  0  0  0
   -1.7557    1.1438   -0.9565 H   0  0  0  0  0  0  0  0  0  0  0  0
  1  2  2  0  0  0
  2  3  1  0  0  0
  3  4  1  0  0  0
  4  5  2  0  0  0
  5  6  1  0  0  0
  6  7  2  0  0  0
  7 19  1  0  0  0
 19 21  1  0  0  0
 21 22  2  0  0  0
 22 23  1  0  0  0
 23 24  2  0  0  0
 24 27  1  0  0  0
 27 29  1  0  0  0
 29 30  1  0  0  0
 30 31  1  0  0  0
 31 32  1  0  0  0
 32 33  1  0  0  0
 24 25  1  0  0  0
 25 26  2  0  0  0
  7  8  1  0  0  0
  8  9  2  0  0  0
  9 10  1  0  0  0
 10 14  1  0  0  0
 14 15  1  0  0  0
 15 16  1  0  0  0
 16 17  1  0  0  0
 17 18  1  0  0  0
 10 11  1  0  0  0
 11 12  1  0  0  0
 12 13  2  0  0  0
 13  1  1  0  0  0
 11  3  2  0  0  0
  9  4  1  0  0  0
 18 14  1  0  0  0
 26 21  1  0  0  0
 33 30  1  0  0  0
 19 20  1  0  0  0
 27 28  1  0  0  0
 32 34  1  0  0  0
M  END
> <minimizedAffinity>
3.00137

> <CNNscore>
0.3941603005

> <CNNaffinity>
5.8228311539

> <CNN_VS>
2.2951288223

> <CNNaffinity_variance>
2.0256249905

$$$$
[H]c1nc([H])c2c(c1[H])c1c([H])nc(N([H])c3nnc(N([H])C([H])([H])C4([H])C([H])([H])N([H])C4([H])[H])c([H])c3[H])nc1n2C1([H])C([H])([H])C([H])([H])C([H])([H])C1([H])[H]


 34 39  0  0  0  0  0  0  0  0999 V2000
  -16.6756   -2.9070    2.1830 C   0  0  0  0  0  0  0  0  0  0  0  0
  -15.6370   -3.5120    2.8678 C   0  0  0  0  0  0  0  0  0  0  0  0
  -15.8913   -4.6062    3.6661 C   0  0  0  0  0  0  0  0  0  0  0  0
  -15.0628   -5.3747    4.4348 C   0  0  0  0  0  0  0  0  0  0  0  0
  -13.6983   -5.3729    4.7150 C   0  0  0  0  0  0  0  0  0  0  0  0
  -13.2036   -6.3062    5.5428 N   0  0  0  0  0  0  0  0  0  0  0  0
  -13.9571   -7.2606    6.1294 C   0  0  0  0  0  0  0  0  0  0  0  0
  -15.2749   -7.2844    5.8757 N   0  0  0  0  0  0  0  0  0  0  0  0
  -15.8100   -6.3581    5.0450 C   0  0  0  0  0  0  0  0  0  0  0  0
  -17.0991   -6.1739    4.6357 N   0  0  0  0  0  0  0  0  0  0  0  0
  -17.1590   -5.1252    3.8080 C   0  0  0  0  0  0  0  0  0  0  0  0
  -18.1710   -4.4973    3.1108 C   0  0  0  0  0  0  0  0  0  0  0  0
  -17.9078   -3.4399    2.3429 N   0  0  0  0  0  0  0  0  0  0  0  0
  -18.2348   -6.9779    5.0263 C   0  0  0  0  0  0  0  0  0  0  0  0
  -18.1205   -7.5152    6.4295 C   0  0  0  0  0  0  0  0  0  0  0  0
  -18.7282   -8.8892    6.4206 C   0  0  0  0  0  0  0  0  0  0  0  0
  -18.9521   -9.2870    4.9957 C   0  0  0  0  0  0  0  0  0  0  0  0
  -18.4816   -8.1457    4.1250 C   0  0  0  0  0  0  0  0  0  0  0  0
  -13.3446   -8.2240    7.0049 N   0  0  0  0  0  0  0  0  0  0  0  0
  -12.6514   -8.8919    6.6039 H   0  0  0  0  0  0  0  0  0  0  0  0
  -13.6590   -8.2837    8.3829 C   0  0  0  0  0  0  0  0  0  0  0  0
  -14.9458   -8.2500    8.8690 C   0  0  0  0  0  0  0  0  0  0  0  0
  -15.2194   -8.3105   10.2273 C   0  0  0  0  0  0  0  0  0  0  0  0
  -14.1763   -8.4075   11.1236 C   0  0  0  0  0  0  0  0  0  0  0  0
  -12.9267   -8.4375   10.5984 N   0  0  0  0  0  0  0  0  0  0  0  0
  -12.6837   -8.3787    9.3000 N   0  0  0  0  0  0  0  0  0  0  0  0
  -14.3839   -8.4738   12.5290 N   0  0  0  0  0  0  0  0  0  0  0  0
  -14.6348   -7.6228   13.0509 H   0  0  0  0  0  0  0  0  0  0  0  0
  -14.2435   -9.7331   13.2244 C   0  0  0  0  0  0  0  0  0  0  0  0
  -12.7955  -10.1630   13.3171 C   0  0  0  0  0  0  0  0  0  0  0  0
  -12.3081  -10.2037   14.7483 C   0  0  0  0  0  0  0  0  0  0  0  0
  -11.6477  -11.4782   14.4748 N   0  0  0  0  0  0  0  0  0  0  0  0
  -12.5920  -11.6562   13.3711 C   0  0  0  0  0  0  0  0  0  0  0  0
  -11.8710  -12.1797   15.2274 H   0  0  0  0  0  0  0  0  0  0  0  0
  1  2  2  0  0  0
  2  3  1  0  0  0
  3  4  1  0  0  0
  4  5  2  0  0  0
  5  6  1  0  0  0
  6  7  2  0  0  0
  7 19  1  0  0  0
 19 21  1  0  0  0
 21 22  2  0  0  0
 22 23  1  0  0  0
 23 24  2  0  0  0
 24 27  1  0  0  0
 27 29  1  0  0  0
 29 30  1  0  0  0
 30 31  1  0  0  0
 31 32  1  0  0  0
 32 33  1  0  0  0
 24 25  1  0  0  0
 25 26  2  0  0  0
  7  8  1  0  0  0
  8  9  2  0  0  0
  9 10  1  0  0  0
 10 14  1  0  0  0
 14 15  1  0  0  0
 15 16  1  0  0  0
 16 17  1  0  0  0
 17 18  1  0  0  0
 10 11  1  0  0  0
 11 12  1  0  0  0
 12 13  2  0  0  0
 13  1  1  0  0  0
 11  3  2  0  0  0
  9  4  1  0  0  0
 18 14  1  0  0  0
 26 21  1  0  0  0
 33 30  1  0  0  0
 19 20  1  0  0  0
 27 28  1  0  0  0
 32 34  1  0  0  0
M  END
> <minimizedAffinity>
19.22135

> <CNNscore>
0.3653598428

> <CNNaffinity>
6.6451139450

> <CNN_VS>
2.4278578758

> <CNNaffinity_variance>
0.4185705781

$$$$
[H]c1nc([H])c2c(c1[H])c1c([H])nc(N([H])c3nnc(N([H])C([H])([H])C4([H])C([H])([H])N([H])C4([H])[H])c([H])c3[H])nc1n2C1([H])C([H])([H])C([H])([H])C([H])([H])C1([H])[H]


 34 39  0  0  0  0  0  0  0  0999 V2000
   -9.6134  -10.3320    5.6871 C   0  0  0  0  0  0  0  0  0  0  0  0
   -8.3297   -9.8167    5.7005 C   0  0  0  0  0  0  0  0  0  0  0  0
   -8.0250   -8.7646    6.5368 C   0  0  0  0  0  0  0  0  0  0  0  0
   -6.8585   -8.0823    6.7407 C   0  0  0  0  0  0  0  0  0  0  0  0
   -5.5690   -8.1608    6.2198 C   0  0  0  0  0  0  0  0  0  0  0  0
   -4.6361   -7.3034    6.6621 N   0  0  0  0  0  0  0  0  0  0  0  0
   -4.8731   -6.3558    7.5941 C   0  0  0  0  0  0  0  0  0  0  0  0
   -6.1076   -6.2592    8.1121 N   0  0  0  0  0  0  0  0  0  0  0  0
   -7.0752   -7.1077    7.6899 C   0  0  0  0  0  0  0  0  0  0  0  0
   -8.3861   -7.2098    8.0563 N   0  0  0  0  0  0  0  0  0  0  0  0
   -8.9653   -8.2010    7.3704 C   0  0  0  0  0  0  0  0  0  0  0  0
  -10.2353   -8.7397    7.3314 C   0  0  0  0  0  0  0  0  0  0  0  0
  -10.5133   -9.7574    6.5166 N   0  0  0  0  0  0  0  0  0  0  0  0
   -9.0596   -6.3835    9.0322 C   0  0  0  0  0  0  0  0  0  0  0  0
  -10.0825   -7.1409    9.8389 C   0  0  0  0  0  0  0  0  0  0  0  0
  -11.2259   -6.1985   10.0874 C   0  0  0  0  0  0  0  0  0  0  0  0
  -11.0299   -4.9944    9.2211 C   0  0  0  0  0  0  0  0  0  0  0  0
   -9.7540   -5.1991    8.4387 C   0  0  0  0  0  0  0  0  0  0  0  0
   -3.8138   -5.4766    8.0119 N   0  0  0  0  0  0  0  0  0  0  0  0
   -3.1029   -5.8371    8.6842 H   0  0  0  0  0  0  0  0  0  0  0  0
   -3.7170   -4.1481    7.5354 C   0  0  0  0  0  0  0  0  0  0  0  0
   -3.2872   -3.0946    8.3092 C   0  0  0  0  0  0  0  0  0  0  0  0
   -3.2041   -1.8031    7.8103 C   0  0  0  0  0  0  0  0  0  0  0  0
   -3.5610   -1.5596    6.5010 C   0  0  0  0  0  0  0  0  0  0  0  0
   -3.9780   -2.6279    5.7778 N   0  0  0  0  0  0  0  0  0  0  0  0
   -4.0512   -3.8531    6.2694 N   0  0  0  0  0  0  0  0  0  0  0  0
   -3.5004   -0.2610    5.9245 N   0  0  0  0  0  0  0  0  0  0  0  0
   -4.2777    0.3990    6.0646 H   0  0  0  0  0  0  0  0  0  0  0  0
   -2.3498    0.1328    5.1432 C   0  0  0  0  0  0  0  0  0  0  0  0
   -2.4186   -0.4104    3.7325 C   0  0  0  0  0  0  0  0  0  0  0  0
   -1.1843   -1.2068    3.3721 C   0  0  0  0  0  0  0  0  0  0  0  0
   -2.0345   -2.2237    2.7570 N   0  0  0  0  0  0  0  0  0  0  0  0
   -3.1197   -1.7399    3.6112 C   0  0  0  0  0  0  0  0  0  0  0  0
   -1.7533   -3.1857    3.0796 H   0  0  0  0  0  0  0  0  0  0  0  0
  1  2  2  0  0  0
  2  3  1  0  0  0
  3  4  1  0  0  0
  4  5  2  0  0  0
  5  6  1  0  0  0
  6  7  2  0  0  0
  7 19  1  0  0  0
 19 21  1  0  0  0
 21 22  2  0  0  0
 22 23  1  0  0  0
 23 24  2  0  0  0
 24 27  1  0  0  0
 27 29  1  0  0  0
 29 30  1  0  0  0
 30 31  1  0  0  0
 31 32  1  0  0  0
 32 33  1  0  0  0
 24 25  1  0  0  0
 25 26  2  0  0  0
  7  8  1  0  0  0
  8  9  2  0  0  0
  9 10  1  0  0  0
 10 14  1  0  0  0
 14 15  1  0  0  0
 15 16  1  0  0  0
 16 17  1  0  0  0
 17 18  1  0  0  0
 10 11  1  0  0  0
 11 12  1  0  0  0
 12 13  2  0  0  0
 13  1  1  0  0  0
 11  3  2  0  0  0
  9  4  1  0  0  0
 18 14  1  0  0  0
 26 21  1  0  0  0
 33 30  1  0  0  0
 19 20  1  0  0  0
 27 28  1  0  0  0
 32 34  1  0  0  0
M  END
> <minimizedAffinity>
0.99770

> <CNNscore>
0.3300435841

> <CNNaffinity>
5.9579982758

> <CNN_VS>
1.9663990736

> <CNNaffinity_variance>
1.1559340954

$$$$
[H]c1nc([H])c2c(c1[H])c1c([H])nc(N([H])c3nnc(N([H])C([H])([H])C4([H])C([H])([H])N([H])C4([H])[H])c([H])c3[H])nc1n2C1([H])C([H])([H])C([H])([H])C([H])([H])C1([H])[H]


 34 39  0  0  0  0  0  0  0  0999 V2000
  -11.8993   -5.4651   12.9597 C   0  0  0  0  0  0  0  0  0  0  0  0
  -12.7605   -5.6429   11.8918 C   0  0  0  0  0  0  0  0  0  0  0  0
  -12.2523   -5.9552   10.6495 C   0  0  0  0  0  0  0  0  0  0  0  0
  -12.8709   -6.1789    9.4515 C   0  0  0  0  0  0  0  0  0  0  0  0
  -14.1930   -6.1844    9.0129 C   0  0  0  0  0  0  0  0  0  0  0  0
  -14.4488   -6.4539    7.7233 N   0  0  0  0  0  0  0  0  0  0  0  0
  -13.4905   -6.7239    6.8115 C   0  0  0  0  0  0  0  0  0  0  0  0
  -12.2083   -6.7250    7.2085 N   0  0  0  0  0  0  0  0  0  0  0  0
  -11.9118   -6.4574    8.5026 C   0  0  0  0  0  0  0  0  0  0  0  0
  -10.7072   -6.3989    9.1421 N   0  0  0  0  0  0  0  0  0  0  0  0
  -10.9002   -6.0983   10.4308 C   0  0  0  0  0  0  0  0  0  0  0  0
  -10.0702   -5.9140   11.5179 C   0  0  0  0  0  0  0  0  0  0  0  0
  -10.5783   -5.6123   12.7129 N   0  0  0  0  0  0  0  0  0  0  0  0
   -9.4147   -6.6242    8.5359 C   0  0  0  0  0  0  0  0  0  0  0  0
   -9.2015   -5.8107    7.2854 C   0  0  0  0  0  0  0  0  0  0  0  0
   -8.4088   -6.6667    6.3389 C   0  0  0  0  0  0  0  0  0  0  0  0
   -8.3811   -8.0588    6.8864 C   0  0  0  0  0  0  0  0  0  0  0  0
   -9.1596   -8.0546    8.1809 C   0  0  0  0  0  0  0  0  0  0  0  0
  -13.8533   -7.0025    5.4474 N   0  0  0  0  0  0  0  0  0  0  0  0
  -13.0988   -7.0380    4.7285 H   0  0  0  0  0  0  0  0  0  0  0  0
  -15.1966   -7.2268    5.0649 C   0  0  0  0  0  0  0  0  0  0  0  0
  -16.1158   -6.2167    4.8969 C   0  0  0  0  0  0  0  0  0  0  0  0
  -17.4262   -6.4716    4.5210 C   0  0  0  0  0  0  0  0  0  0  0  0
  -17.8276   -7.7731    4.3075 C   0  0  0  0  0  0  0  0  0  0  0  0
  -16.8878   -8.7341    4.4851 N   0  0  0  0  0  0  0  0  0  0  0  0
  -15.6422   -8.4734    4.8439 N   0  0  0  0  0  0  0  0  0  0  0  0
  -19.1549   -8.1066    3.9206 N   0  0  0  0  0  0  0  0  0  0  0  0
  -19.5511   -7.7131    3.0560 H   0  0  0  0  0  0  0  0  0  0  0  0
  -19.9470   -8.9967    4.7389 C   0  0  0  0  0  0  0  0  0  0  0  0
  -19.8416   -8.6491    6.2079 C   0  0  0  0  0  0  0  0  0  0  0  0
  -20.1704   -9.8301    7.0937 C   0  0  0  0  0  0  0  0  0  0  0  0
  -19.0260   -9.4991    7.9398 N   0  0  0  0  0  0  0  0  0  0  0  0
  -18.4572   -8.8020    6.7857 C   0  0  0  0  0  0  0  0  0  0  0  0
  -18.4488  -10.3579    8.1343 H   0  0  0  0  0  0  0  0  0  0  0  0
  1  2  2  0  0  0
  2  3  1  0  0  0
  3  4  1  0  0  0
  4  5  2  0  0  0
  5  6  1  0  0  0
  6  7  2  0  0  0
  7 19  1  0  0  0
 19 21  1  0  0  0
 21 22  2  0  0  0
 22 23  1  0  0  0
 23 24  2  0  0  0
 24 27  1  0  0  0
 27 29  1  0  0  0
 29 30  1  0  0  0
 30 31  1  0  0  0
 31 32  1  0  0  0
 32 33  1  0  0  0
 24 25  1  0  0  0
 25 26  2  0  0  0
  7  8  1  0  0  0
  8  9  2  0  0  0
  9 10  1  0  0  0
 10 14  1  0  0  0
 14 15  1  0  0  0
 15 16  1  0  0  0
 16 17  1  0  0  0
 17 18  1  0  0  0
 10 11  1  0  0  0
 11 12  1  0  0  0
 12 13  2  0  0  0
 13  1  1  0  0  0
 11  3  2  0  0  0
  9  4  1  0  0  0
 18 14  1  0  0  0
 26 21  1  0  0  0
 33 30  1  0  0  0
 19 20  1  0  0  0
 27 28  1  0  0  0
 32 34  1  0  0  0
M  END
> <minimizedAffinity>
6.14265

> <CNNscore>
0.3099373281

> <CNNaffinity>
7.2630791664

> <CNN_VS>
2.2510993481

> <CNNaffinity_variance>
0.9394384623

$$$$
[H]c1nc([H])c2c(c1[H])c1c([H])nc(N([H])c3nnc(N([H])C([H])([H])C4([H])C([H])([H])N([H])C4([H])[H])c([H])c3[H])nc1n2C1([H])C([H])([H])C([H])([H])C([H])([H])C1([H])[H]


 34 39  0  0  0  0  0  0  0  0999 V2000
  -14.1570   -8.7728   11.9724 C   0  0  0  0  0  0  0  0  0  0  0  0
  -12.9878   -8.1324   11.6030 C   0  0  0  0  0  0  0  0  0  0  0  0
  -12.8220   -7.7112   10.3013 C   0  0  0  0  0  0  0  0  0  0  0  0
  -11.7852   -7.0673    9.6862 C   0  0  0  0  0  0  0  0  0  0  0  0
  -10.5390   -6.5967   10.0936 C   0  0  0  0  0  0  0  0  0  0  0  0
   -9.7473   -5.9915    9.1946 N   0  0  0  0  0  0  0  0  0  0  0  0
  -10.0885   -5.8078    7.9014 C   0  0  0  0  0  0  0  0  0  0  0  0
  -11.2841   -6.2520    7.4833 N   0  0  0  0  0  0  0  0  0  0  0  0
  -12.1102   -6.8679    8.3624 C   0  0  0  0  0  0  0  0  0  0  0  0
  -13.3551   -7.3991    8.1859 N   0  0  0  0  0  0  0  0  0  0  0  0
  -13.7915   -7.9078    9.3432 C   0  0  0  0  0  0  0  0  0  0  0  0
  -14.9447   -8.5496    9.7463 C   0  0  0  0  0  0  0  0  0  0  0  0
  -15.0891   -8.9506   11.0094 N   0  0  0  0  0  0  0  0  0  0  0  0
  -14.1004   -7.4175    6.9478 C   0  0  0  0  0  0  0  0  0  0  0  0
  -15.5903   -7.4967    7.1590 C   0  0  0  0  0  0  0  0  0  0  0  0
  -16.1413   -8.3560    6.0567 C   0  0  0  0  0  0  0  0  0  0  0  0
  -14.9899   -9.0088    5.3591 C   0  0  0  0  0  0  0  0  0  0  0  0
  -13.7230   -8.5423    6.0370 C   0  0  0  0  0  0  0  0  0  0  0  0
   -9.1782   -5.1479    7.0038 N   0  0  0  0  0  0  0  0  0  0  0  0
   -9.4191   -4.1921    6.6633 H   0  0  0  0  0  0  0  0  0  0  0  0
   -7.9766   -5.7610    6.5779 C   0  0  0  0  0  0  0  0  0  0  0  0
   -7.8373   -6.3942    5.3642 C   0  0  0  0  0  0  0  0  0  0  0  0
   -6.6440   -6.9858    4.9774 C   0  0  0  0  0  0  0  0  0  0  0  0
   -5.5605   -6.9425    5.8288 C   0  0  0  0  0  0  0  0  0  0  0  0
   -5.7450   -6.3082    7.0128 N   0  0  0  0  0  0  0  0  0  0  0  0
   -6.8901   -5.7493    7.3659 N   0  0  0  0  0  0  0  0  0  0  0  0
   -4.3076   -7.5278    5.4967 N   0  0  0  0  0  0  0  0  0  0  0  0
   -4.0364   -7.6328    4.5093 H   0  0  0  0  0  0  0  0  0  0  0  0
   -3.4157   -7.9746    6.5427 C   0  0  0  0  0  0  0  0  0  0  0  0
   -4.1728   -8.5940    7.6973 C   0  0  0  0  0  0  0  0  0  0  0  0
   -4.9902   -7.5697    8.4522 C   0  0  0  0  0  0  0  0  0  0  0  0
   -6.1074   -8.5104    8.4955 N   0  0  0  0  0  0  0  0  0  0  0  0
   -5.5190   -9.1624    7.3250 C   0  0  0  0  0  0  0  0  0  0  0  0
   -7.0016   -8.0367    8.2049 H   0  0  0  0  0  0  0  0  0  0  0  0
  1  2  2  0  0  0
  2  3  1  0  0  0
  3  4  1  0  0  0
  4  5  2  0  0  0
  5  6  1  0  0  0
  6  7  2  0  0  0
  7 19  1  0  0  0
 19 21  1  0  0  0
 21 22  2  0  0  0
 22 23  1  0  0  0
 23 24  2  0  0  0
 24 27  1  0  0  0
 27 29  1  0  0  0
 29 30  1  0  0  0
 30 31  1  0  0  0
 31 32  1  0  0  0
 32 33  1  0  0  0
 24 25  1  0  0  0
 25 26  2  0  0  0
  7  8  1  0  0  0
  8  9  2  0  0  0
  9 10  1  0  0  0
 10 14  1  0  0  0
 14 15  1  0  0  0
 15 16  1  0  0  0
 16 17  1  0  0  0
 17 18  1  0  0  0
 10 11  1  0  0  0
 11 12  1  0  0  0
 12 13  2  0  0  0
 13  1  1  0  0  0
 11  3  2  0  0  0
  9  4  1  0  0  0
 18 14  1  0  0  0
 26 21  1  0  0  0
 33 30  1  0  0  0
 19 20  1  0  0  0
 27 28  1  0  0  0
 32 34  1  0  0  0
M  END
> <minimizedAffinity>
8.26565

> <CNNscore>
0.3095681071

> <CNNaffinity>
6.7328505516

> <CNN_VS>
2.0842757225

> <CNNaffinity_variance>
0.7855936289

$$$$
[H]c1nc([H])c2c(c1[H])c1c([H])nc(N([H])c3nnc(N([H])C([H])([H])C4([H])C([H])([H])N([H])C4([H])[H])c([H])c3[H])nc1n2C1([H])C([H])([H])C([H])([H])C([H])([H])C1([H])[H]


 34 39  0  0  0  0  0  0  0  0999 V2000
   -6.1031   -6.9024   12.6799 C   0  0  0  0  0  0  0  0  0  0  0  0
   -5.5455   -7.2959   11.4766 C   0  0  0  0  0  0  0  0  0  0  0  0
   -4.7652   -6.4114   10.7639 C   0  0  0  0  0  0  0  0  0  0  0  0
   -4.1095   -6.5440    9.5721 C   0  0  0  0  0  0  0  0  0  0  0  0
   -3.9650   -7.5665    8.6372 C   0  0  0  0  0  0  0  0  0  0  0  0
   -3.2233   -7.3446    7.5409 N   0  0  0  0  0  0  0  0  0  0  0  0
   -2.5995   -6.1752    7.2842 C   0  0  0  0  0  0  0  0  0  0  0  0
   -2.7228   -5.1737    8.1693 N   0  0  0  0  0  0  0  0  0  0  0  0
   -3.4636   -5.3609    9.2876 C   0  0  0  0  0  0  0  0  0  0  0  0
   -3.7374   -4.5128   10.3216 N   0  0  0  0  0  0  0  0  0  0  0  0
   -4.5177   -5.1333   11.2130 C   0  0  0  0  0  0  0  0  0  0  0  0
   -5.0893   -4.7742   12.4167 C   0  0  0  0  0  0  0  0  0  0  0  0
   -5.8415   -5.6421   13.0935 N   0  0  0  0  0  0  0  0  0  0  0  0
   -3.2655   -3.1528   10.4492 C   0  0  0  0  0  0  0  0  0  0  0  0
   -1.7656   -3.0585   10.5607 C   0  0  0  0  0  0  0  0  0  0  0  0
   -1.4695   -1.9333   11.5112 C   0  0  0  0  0  0  0  0  0  0  0  0
   -2.7513   -1.5378   12.1739 C   0  0  0  0  0  0  0  0  0  0  0  0
   -3.8421   -2.4251   11.6218 C   0  0  0  0  0  0  0  0  0  0  0  0
   -1.8231   -6.0224    6.0826 N   0  0  0  0  0  0  0  0  0  0  0  0
   -1.2605   -6.8335    5.7464 H   0  0  0  0  0  0  0  0  0  0  0  0
   -1.8068   -4.8090    5.3556 C   0  0  0  0  0  0  0  0  0  0  0  0
   -1.2294   -4.6771    4.1135 C   0  0  0  0  0  0  0  0  0  0  0  0
   -1.2310   -3.4718    3.4274 C   0  0  0  0  0  0  0  0  0  0  0  0
   -1.8267   -2.3683    4.0003 C   0  0  0  0  0  0  0  0  0  0  0  0
   -2.3821   -2.5463    5.2242 N   0  0  0  0  0  0  0  0  0  0  0  0
   -2.3716   -3.7030    5.8646 N   0  0  0  0  0  0  0  0  0  0  0  0
   -1.8650   -1.1023    3.3535 N   0  0  0  0  0  0  0  0  0  0  0  0
   -1.5625   -1.0179    2.3733 H   0  0  0  0  0  0  0  0  0  0  0  0
   -2.3279    0.0646    4.0701 C   0  0  0  0  0  0  0  0  0  0  0  0
   -3.4570   -0.2727    5.0194 C   0  0  0  0  0  0  0  0  0  0  0  0
   -4.5666    0.7536    4.9660 C   0  0  0  0  0  0  0  0  0  0  0  0
   -5.5502   -0.3270    4.9697 N   0  0  0  0  0  0  0  0  0  0  0  0
   -4.4989   -1.1981    4.4431 C   0  0  0  0  0  0  0  0  0  0  0  0
   -6.2709   -0.1740    4.2175 H   0  0  0  0  0  0  0  0  0  0  0  0
  1  2  2  0  0  0
  2  3  1  0  0  0
  3  4  1  0  0  0
  4  5  2  0  0  0
  5  6  1  0  0  0
  6  7  2  0  0  0
  7 19  1  0  0  0
 19 21  1  0  0  0
 21 22  2  0  0  0
 22 23  1  0  0  0
 23 24  2  0  0  0
 24 27  1  0  0  0
 27 29  1  0  0  0
 29 30  1  0  0  0
 30 31  1  0  0  0
 31 32  1  0  0  0
 32 33  1  0  0  0
 24 25  1  0  0  0
 25 26  2  0  0  0
  7  8  1  0  0  0
  8  9  2  0  0  0
  9 10  1  0  0  0
 10 14  1  0  0  0
 14 15  1  0  0  0
 15 16  1  0  0  0
 16 17  1  0  0  0
 17 18  1  0  0  0
 10 11  1  0  0  0
 11 12  1  0  0  0
 12 13  2  0  0  0
 13  1  1  0  0  0
 11  3  2  0  0  0
  9  4  1  0  0  0
 18 14  1  0  0  0
 26 21  1  0  0  0
 33 30  1  0  0  0
 19 20  1  0  0  0
 27 28  1  0  0  0
 32 34  1  0  0  0
M  END
> <minimizedAffinity>
3.63608

> <CNNscore>
0.2980118394

> <CNNaffinity>
5.4846878052

> <CNN_VS>
1.6345019341

> <CNNaffinity_variance>
1.5414931774

$$$$
[H]c1nc([H])c2c(c1[H])c1c([H])nc(N([H])c3nnc(N([H])C([H])([H])C4([H])C([H])([H])N([H])C4([H])[H])c([H])c3[H])nc1n2C1([H])C([H])([H])C([H])([H])C([H])([H])C1([H])[H]


 34 39  0  0  0  0  0  0  0  0999 V2000
  -10.4029   -5.2926   13.9542 C   0  0  0  0  0  0  0  0  0  0  0  0
  -11.4633   -5.6666   13.1484 C   0  0  0  0  0  0  0  0  0  0  0  0
  -11.2260   -6.0757   11.8540 C   0  0  0  0  0  0  0  0  0  0  0  0
  -12.0771   -6.4893   10.8678 C   0  0  0  0  0  0  0  0  0  0  0  0
  -13.4559   -6.6595   10.7658 C   0  0  0  0  0  0  0  0  0  0  0  0
  -13.9727   -7.0976    9.6073 N   0  0  0  0  0  0  0  0  0  0  0  0
  -13.2285   -7.3879    8.5189 C   0  0  0  0  0  0  0  0  0  0  0  0
  -11.8973   -7.2325    8.5910 N   0  0  0  0  0  0  0  0  0  0  0  0
  -11.3399   -6.7921    9.7442 C   0  0  0  0  0  0  0  0  0  0  0  0
  -10.0339   -6.5563   10.0639 N   0  0  0  0  0  0  0  0  0  0  0  0
   -9.9544   -6.1261   11.3276 C   0  0  0  0  0  0  0  0  0  0  0  0
   -8.9205   -5.7462   12.1590 C   0  0  0  0  0  0  0  0  0  0  0  0
   -9.1673   -5.3530   13.4086 N   0  0  0  0  0  0  0  0  0  0  0  0
   -8.9008   -6.7381    9.1853 C   0  0  0  0  0  0  0  0  0  0  0  0
   -8.9630   -5.8673    7.9570 C   0  0  0  0  0  0  0  0  0  0  0  0
   -8.3892   -6.6704    6.8244 C   0  0  0  0  0  0  0  0  0  0  0  0
   -8.2407   -8.0850    7.2886 C   0  0  0  0  0  0  0  0  0  0  0  0
   -8.7236   -8.1480    8.7186 C   0  0  0  0  0  0  0  0  0  0  0  0
  -13.8649   -7.8529    7.3153 N   0  0  0  0  0  0  0  0  0  0  0  0
  -13.4848   -8.7038    6.8474 H   0  0  0  0  0  0  0  0  0  0  0  0
  -14.9829   -7.1880    6.7592 C   0  0  0  0  0  0  0  0  0  0  0  0
  -16.2836   -7.5815    6.9752 C   0  0  0  0  0  0  0  0  0  0  0  0
  -17.3576   -6.9066    6.4142 C   0  0  0  0  0  0  0  0  0  0  0  0
  -17.1231   -5.8078    5.6152 C   0  0  0  0  0  0  0  0  0  0  0  0
  -15.8262   -5.4578    5.4313 N   0  0  0  0  0  0  0  0  0  0  0  0
  -14.8139   -6.1127    5.9739 N   0  0  0  0  0  0  0  0  0  0  0  0
  -18.1762   -5.0692    5.0085 N   0  0  0  0  0  0  0  0  0  0  0  0
  -18.5320   -4.2165    5.4622 H   0  0  0  0  0  0  0  0  0  0  0  0
  -18.7466   -5.5138    3.7570 C   0  0  0  0  0  0  0  0  0  0  0  0
  -18.4177   -6.9638    3.4756 C   0  0  0  0  0  0  0  0  0  0  0  0
  -18.2214   -7.2230    1.9986 C   0  0  0  0  0  0  0  0  0  0  0  0
  -17.0483   -8.0370    2.3093 N   0  0  0  0  0  0  0  0  0  0  0  0
  -16.9503   -7.2984    3.5688 C   0  0  0  0  0  0  0  0  0  0  0  0
  -16.2372   -7.7669    1.6949 H   0  0  0  0  0  0  0  0  0  0  0  0
  1  2  2  0  0  0
  2  3  1  0  0  0
  3  4  1  0  0  0
  4  5  2  0  0  0
  5  6  1  0  0  0
  6  7  2  0  0  0
  7 19  1  0  0  0
 19 21  1  0  0  0
 21 22  2  0  0  0
 22 23  1  0  0  0
 23 24  2  0  0  0
 24 27  1  0  0  0
 27 29  1  0  0  0
 29 30  1  0  0  0
 30 31  1  0  0  0
 31 32  1  0  0  0
 32 33  1  0  0  0
 24 25  1  0  0  0
 25 26  2  0  0  0
  7  8  1  0  0  0
  8  9  2  0  0  0
  9 10  1  0  0  0
 10 14  1  0  0  0
 14 15  1  0  0  0
 15 16  1  0  0  0
 16 17  1  0  0  0
 17 18  1  0  0  0
 10 11  1  0  0  0
 11 12  1  0  0  0
 12 13  2  0  0  0
 13  1  1  0  0  0
 11  3  2  0  0  0
  9  4  1  0  0  0
 18 14  1  0  0  0
 26 21  1  0  0  0
 33 30  1  0  0  0
 19 20  1  0  0  0
 27 28  1  0  0  0
 32 34  1  0  0  0
M  END
> <minimizedAffinity>
6.77964

> <CNNscore>
0.2844597995

> <CNNaffinity>
7.3409929276

> <CNN_VS>
2.0882172585

> <CNNaffinity_variance>
1.6441180706

$$$$
[H]Oc1c([H])c([H])c(C([H])([H])[C@@]2([H])C(=O)N(C([H])([H])c3c([H])c([H])c([H])c4c(C(=O)N([H])c5c([H])nc(N6C([H])([H])C([H])([H])C([H])(N7C([H])([H])C([H])([H])C7([H])[H])C([H])([H])C6([H])[H])c([H])c5[H])c([H])n(C([H])([H])[H])c34)C([H])([H])[C@]3([H])N(C(=O)N([H])C([H])([H])c4c([H])c([H])c([H])c([H])c4[H])N(C([H])([H])C([H])=C([H])[H])C([H])([H])C(=O)N23)c([H])c1[H]


 66 74  0  0  0  0  0  0  0  0999 V2000
   -1.0083   -5.2815    3.9175 N   0  0  0  0  0  0  0  0  0  0  0  0
   -0.0986   -4.3886    3.2224 C   0  0  0  0  0  0  0  0  0  0  0  0
   -0.8775   -4.0540    1.9615 C   0  0  0  0  0  0  0  0  0  0  0  0
   -0.2871   -4.2082    0.8770 O   0  0  0  0  0  0  0  0  0  0  0  0
   -2.1896   -3.5942    2.0741 N   0  0  0  0  0  0  0  0  0  0  0  0
   -2.7713   -2.7794    1.0459 C   0  0  0  0  0  0  0  0  0  0  0  0
   -2.7772   -1.4097    1.6832 C   0  0  0  0  0  0  0  0  0  0  0  0
   -2.4557   -0.4182    1.0508 O   0  0  0  0  0  0  0  0  0  0  0  0
   -3.1706   -1.3317    3.0338 N   0  0  0  0  0  0  0  0  0  0  0  0
   -3.4811   -2.5399    3.8363 C   0  0  0  0  0  0  0  0  0  0  0  0
   -2.9714   -3.8192    3.2610 C   0  0  0  0  0  0  0  0  0  0  0  0
   -2.2786   -4.7137    4.1598 N   0  0  0  0  0  0  0  0  0  0  0  0
   -2.8722   -5.1214    5.3946 C   0  0  0  0  0  0  0  0  0  0  0  0
   -2.1630   -5.8642    6.1537 O   0  0  0  0  0  0  0  0  0  0  0  0
   -4.1498   -4.8024    5.8708 N   0  0  0  0  0  0  0  0  0  0  0  0
   -4.7881   -4.2209    5.3275 H   0  0  0  0  0  0  0  0  0  0  0  0
   -1.0782   -6.4528    3.0568 C   0  0  0  0  0  0  0  0  0  0  0  0
   -0.9120   -8.5708    4.2311 C   0  0  0  0  0  0  0  0  0  0  0  0
   -0.3615   -7.6080    3.5416 C   0  0  0  0  0  0  0  0  0  0  0  0
   -4.0962   -3.1320    0.5160 C   0  0  0  0  0  0  0  0  0  0  0  0
   -4.4580   -2.7414   -0.8488 C   0  0  0  0  0  0  0  0  0  0  0  0
   -3.4949   -2.7281   -1.8595 C   0  0  0  0  0  0  0  0  0  0  0  0
   -3.8123   -2.2986   -3.1303 C   0  0  0  0  0  0  0  0  0  0  0  0
   -5.0761   -1.8619   -3.4740 C   0  0  0  0  0  0  0  0  0  0  0  0
   -5.3288   -1.4465   -4.7677 O   0  0  0  0  0  0  0  0  0  0  0  0
   -6.0219   -1.8717   -2.4871 C   0  0  0  0  0  0  0  0  0  0  0  0
   -5.7160   -2.3036   -1.1967 C   0  0  0  0  0  0  0  0  0  0  0  0
   -4.6192   -1.4459   -5.4922 H   0  0  0  0  0  0  0  0  0  0  0  0
   -3.2779   -0.0786    3.7829 C   0  0  0  0  0  0  0  0  0  0  0  0
   -2.0835    0.0896    4.6163 C   0  0  0  0  0  0  0  0  0  0  0  0
   -0.8989   -0.5287    4.3121 C   0  0  0  0  0  0  0  0  0  0  0  0
    0.2173   -0.4212    5.1238 C   0  0  0  0  0  0  0  0  0  0  0  0
    0.1561    0.3305    6.2828 C   0  0  0  0  0  0  0  0  0  0  0  0
   -1.0491    0.9685    6.6028 C   0  0  0  0  0  0  0  0  0  0  0  0
   -1.3963    1.7720    7.6366 C   0  0  0  0  0  0  0  0  0  0  0  0
   -2.6967    2.1356    7.4335 C   0  0  0  0  0  0  0  0  0  0  0  0
   -3.1822    1.5853    6.3067 N   0  0  0  0  0  0  0  0  0  0  0  0
   -4.5130    1.7487    5.7765 C   0  0  0  0  0  0  0  0  0  0  0  0
   -2.1618    0.8507    5.7786 C   0  0  0  0  0  0  0  0  0  0  0  0
   -0.5886    2.2007    8.8299 C   0  0  0  0  0  0  0  0  0  0  0  0
    0.6582    2.2190    8.7484 O   0  0  0  0  0  0  0  0  0  0  0  0
   -1.3226    2.5660    9.9733 N   0  0  0  0  0  0  0  0  0  0  0  0
   -0.1514    3.0891   10.4837 H   0  0  0  0  0  0  0  0  0  0  0  0
   -1.9866    2.9087   11.0426 C   0  0  0  0  0  0  0  0  0  0  0  0
   -3.2699    2.3741   11.2794 C   0  0  0  0  0  0  0  0  0  0  0  0
   -4.0273    2.6769   12.3492 C   0  0  0  0  0  0  0  0  0  0  0  0
   -3.5317    3.5673   13.2742 C   0  0  0  0  0  0  0  0  0  0  0  0
   -2.3092    4.1239   13.1171 N   0  0  0  0  0  0  0  0  0  0  0  0
   -1.5527    3.8077   12.0408 C   0  0  0  0  0  0  0  0  0  0  0  0
   -4.3056    3.9749   14.4064 N   0  0  0  0  0  0  0  0  0  0  0  0
   -4.9096    5.2844   14.3999 C   0  0  0  0  0  0  0  0  0  0  0  0
   -6.2595    5.3832   15.0085 C   0  0  0  0  0  0  0  0  0  0  0  0
   -6.7200    4.1851   15.7613 C   0  0  0  0  0  0  0  0  0  0  0  0
   -5.5786    3.4222   16.4259 C   0  0  0  0  0  0  0  0  0  0  0  0
   -4.4450    3.0975   15.5347 C   0  0  0  0  0  0  0  0  0  0  0  0
   -7.6935    4.4211   16.7675 N   0  0  0  0  0  0  0  0  0  0  0  0
   -7.4738    3.8271   18.0469 C   0  0  0  0  0  0  0  0  0  0  0  0
   -8.9784    3.8061   18.2271 C   0  0  0  0  0  0  0  0  0  0  0  0
   -8.9899    3.8593   16.7007 C   0  0  0  0  0  0  0  0  0  0  0  0
   -4.6262   -5.2991    7.1588 C   0  0  0  0  0  0  0  0  0  0  0  0
   -5.5565   -6.4705    6.9593 C   0  0  0  0  0  0  0  0  0  0  0  0
   -5.9939   -6.7819    5.7146 C   0  0  0  0  0  0  0  0  0  0  0  0
   -6.9000   -7.8594    5.5491 C   0  0  0  0  0  0  0  0  0  0  0  0
   -7.3266   -8.5793    6.6645 C   0  0  0  0  0  0  0  0  0  0  0  0
   -6.8085   -8.1647    7.9079 C   0  0  0  0  0  0  0  0  0  0  0  0
   -5.9572   -7.1605    8.0744 C   0  0  0  0  0  0  0  0  0  0  0  0
 18 19  2  0  0  0
 19 17  1  0  0  0
 17  1  1  0  0  0
  1  2  1  0  0  0
  2  3  1  0  0  0
  3  4  2  0  0  0
  3  5  1  0  0  0
  5  6  1  0  0  0
  6 20  1  0  0  0
 20 21  1  0  0  0
 21 22  2  0  0  0
 22 23  1  0  0  0
 23 24  2  0  0  0
 24 25  1  0  0  0
 24 26  1  0  0  0
 26 27  2  0  0  0
  6  7  1  0  0  0
  7  8  2  0  0  0
  7  9  1  0  0  0
  9 29  1  0  0  0
 29 30  1  0  0  0
 30 31  2  0  0  0
 31 32  1  0  0  0
 32 33  2  0  0  0
 33 34  1  0  0  0
 34 35  1  0  0  0
 35 40  1  0  0  0
 40 41  2  0  0  0
 40 42  1  0  0  0
 42 44  1  0  0  0
 44 45  2  0  0  0
 45 46  1  0  0  0
 46 47  2  0  0  0
 47 50  1  0  0  0
 50 51  1  0  0  0
 51 52  1  0  0  0
 52 53  1  0  0  0
 53 56  1  0  0  0
 56 57  1  0  0  0
 57 58  1  0  0  0
 58 59  1  0  0  0
 53 54  1  0  0  0
 54 55  1  0  0  0
 47 48  1  0  0  0
 48 49  2  0  0  0
 35 36  2  0  0  0
 36 37  1  0  0  0
 37 38  1  0  0  0
 37 39  1  0  0  0
  9 10  1  0  0  0
 10 11  1  0  0  0
 11 12  1  0  0  0
 12 13  1  0  0  0
 13 14  2  0  0  0
 13 15  1  0  0  0
 15 60  1  0  0  0
 60 61  1  0  0  0
 61 62  2  0  0  0
 62 63  1  0  0  0
 63 64  2  0  0  0
 64 65  1  0  0  0
 65 66  2  0  0  0
 12  1  1  0  0  0
 66 61  1  0  0  0
 11  5  1  0  0  0
 27 21  1  0  0  0
 39 30  1  0  0  0
 39 34  2  0  0  0
 49 44  1  0  0  0
 55 50  1  0  0  0
 59 56  1  0  0  0
 25 28  1  0  0  0
 42 43  1  0  0  0
 15 16  1  0  0  0
M  END
> <minimizedAffinity>
-6.48301

> <CNNscore>
0.1372685134

> <CNNaffinity>
6.5098061562

> <CNN_VS>
0.8935914040

> <CNNaffinity_variance>
0.4478686750

$$$$
[H]Oc1c([H])c([H])c(C([H])([H])[C@@]2([H])C(=O)N(C([H])([H])c3c([H])c([H])c([H])c4c(C(=O)N([H])c5c([H])nc(N6C([H])([H])C([H])([H])C([H])(N7C([H])([H])C([H])([H])C7([H])[H])C([H])([H])C6([H])[H])c([H])c5[H])c([H])n(C([H])([H])[H])c34)C([H])([H])[C@]3([H])N(C(=O)N([H])C([H])([H])c4c([H])c([H])c([H])c([H])c4[H])N(C([H])([H])C([H])=C([H])[H])C([H])([H])C(=O)N23)c([H])c1[H]


 66 74  0  0  0  0  0  0  0  0999 V2000
   -4.0950   -6.9853   14.4216 N   0  0  0  0  0  0  0  0  0  0  0  0
   -4.8971   -6.0236   13.6870 C   0  0  0  0  0  0  0  0  0  0  0  0
   -4.3460   -4.6982   14.1851 C   0  0  0  0  0  0  0  0  0  0  0  0
   -5.1714   -3.8669   14.6048 O   0  0  0  0  0  0  0  0  0  0  0  0
   -2.9696   -4.4758   14.1458 N   0  0  0  0  0  0  0  0  0  0  0  0
   -2.4446   -3.1420   14.0756 C   0  0  0  0  0  0  0  0  0  0  0  0
   -1.9851   -3.0503   12.6394 C   0  0  0  0  0  0  0  0  0  0  0  0
   -2.1928   -2.0506   11.9733 O   0  0  0  0  0  0  0  0  0  0  0  0
   -1.3083   -4.1665   12.1095 N   0  0  0  0  0  0  0  0  0  0  0  0
   -1.1257   -5.4191   12.8827 C   0  0  0  0  0  0  0  0  0  0  0  0
   -2.0293   -5.5617   14.0619 C   0  0  0  0  0  0  0  0  0  0  0  0
   -2.7057   -6.8286   14.2218 N   0  0  0  0  0  0  0  0  0  0  0  0
   -1.9765   -8.0580   14.2150 C   0  0  0  0  0  0  0  0  0  0  0  0
   -2.6626   -9.1317   14.3015 O   0  0  0  0  0  0  0  0  0  0  0  0
   -0.5889   -8.2239   14.1276 N   0  0  0  0  0  0  0  0  0  0  0  0
    0.0379   -7.4215   14.0632 H   0  0  0  0  0  0  0  0  0  0  0  0
   -4.4834   -6.7811   15.8090 C   0  0  0  0  0  0  0  0  0  0  0  0
   -3.7143   -8.0134   17.7538 C   0  0  0  0  0  0  0  0  0  0  0  0
   -3.4911   -7.1695   16.7824 C   0  0  0  0  0  0  0  0  0  0  0  0
   -1.3810   -2.7408   15.0075 C   0  0  0  0  0  0  0  0  0  0  0  0
   -1.7232   -1.9863   16.2158 C   0  0  0  0  0  0  0  0  0  0  0  0
   -2.8646   -1.1831   16.2485 C   0  0  0  0  0  0  0  0  0  0  0  0
   -3.1575   -0.4190   17.3578 C   0  0  0  0  0  0  0  0  0  0  0  0
   -2.3549   -0.3998   18.4810 C   0  0  0  0  0  0  0  0  0  0  0  0
   -2.7073    0.3871   19.5611 O   0  0  0  0  0  0  0  0  0  0  0  0
   -1.2354   -1.1835   18.4527 C   0  0  0  0  0  0  0  0  0  0  0  0
   -0.9257   -1.9623   17.3377 C   0  0  0  0  0  0  0  0  0  0  0  0
   -3.5421    0.9629   19.5713 H   0  0  0  0  0  0  0  0  0  0  0  0
   -0.7561   -4.2202   10.7547 C   0  0  0  0  0  0  0  0  0  0  0  0
   -1.0643   -5.5239   10.1589 C   0  0  0  0  0  0  0  0  0  0  0  0
   -0.3045   -6.6340   10.4204 C   0  0  0  0  0  0  0  0  0  0  0  0
   -0.5539   -7.8553    9.8183 C   0  0  0  0  0  0  0  0  0  0  0  0
   -1.5995   -7.9804    8.9219 C   0  0  0  0  0  0  0  0  0  0  0  0
   -2.3839   -6.8527    8.6485 C   0  0  0  0  0  0  0  0  0  0  0  0
   -3.4645   -6.6790    7.8503 C   0  0  0  0  0  0  0  0  0  0  0  0
   -3.8479   -5.3753    7.9845 C   0  0  0  0  0  0  0  0  0  0  0  0
   -3.0426   -4.7201    8.8391 N   0  0  0  0  0  0  0  0  0  0  0  0
   -3.1457   -3.3344    9.2237 C   0  0  0  0  0  0  0  0  0  0  0  0
   -2.1210   -5.6328    9.2600 C   0  0  0  0  0  0  0  0  0  0  0  0
   -4.1491   -7.6585    6.9381 C   0  0  0  0  0  0  0  0  0  0  0  0
   -3.4687   -8.2964    6.1066 O   0  0  0  0  0  0  0  0  0  0  0  0
   -5.5401   -7.7887    7.1043 N   0  0  0  0  0  0  0  0  0  0  0  0
   -5.4686   -8.9153    6.3099 H   0  0  0  0  0  0  0  0  0  0  0  0
   -6.8301   -7.9227    7.2446 C   0  0  0  0  0  0  0  0  0  0  0  0
   -7.3875   -9.1974    7.4756 C   0  0  0  0  0  0  0  0  0  0  0  0
   -8.7043   -9.4290    7.6244 C   0  0  0  0  0  0  0  0  0  0  0  0
   -9.5720   -8.3640    7.5421 C   0  0  0  0  0  0  0  0  0  0  0  0
   -9.1147   -7.1105    7.3214 N   0  0  0  0  0  0  0  0  0  0  0  0
   -7.7877   -6.8874    7.1796 C   0  0  0  0  0  0  0  0  0  0  0  0
  -10.9879   -8.5463    7.6368 N   0  0  0  0  0  0  0  0  0  0  0  0
  -11.7771   -7.5299    8.2878 C   0  0  0  0  0  0  0  0  0  0  0  0
  -13.1060   -7.2521    7.6881 C   0  0  0  0  0  0  0  0  0  0  0  0
  -13.5606   -8.2133    6.6472 C   0  0  0  0  0  0  0  0  0  0  0  0
  -13.0504   -9.6317    6.8801 C   0  0  0  0  0  0  0  0  0  0  0  0
  -11.5951   -9.7387    7.1156 C   0  0  0  0  0  0  0  0  0  0  0  0
  -14.9651   -8.3099    6.4631 N   0  0  0  0  0  0  0  0  0  0  0  0
  -15.5769   -7.3774    5.5719 C   0  0  0  0  0  0  0  0  0  0  0  0
  -16.8433   -7.5180    6.3924 C   0  0  0  0  0  0  0  0  0  0  0  0
  -15.8792   -7.9698    7.4875 C   0  0  0  0  0  0  0  0  0  0  0  0
    0.0195   -9.5514   14.1377 C   0  0  0  0  0  0  0  0  0  0  0  0
    0.2648  -10.0284   12.7271 C   0  0  0  0  0  0  0  0  0  0  0  0
   -0.6981  -10.7209   12.0707 C   0  0  0  0  0  0  0  0  0  0  0  0
   -0.4368  -11.1976   10.7615 C   0  0  0  0  0  0  0  0  0  0  0  0
    0.8018  -10.9489   10.1714 C   0  0  0  0  0  0  0  0  0  0  0  0
    1.7262  -10.2219   10.9481 C   0  0  0  0  0  0  0  0  0  0  0  0
    1.4914   -9.7674   12.1725 C   0  0  0  0  0  0  0  0  0  0  0  0
 18 19  2  0  0  0
 19 17  1  0  0  0
 17  1  1  0  0  0
  1  2  1  0  0  0
  2  3  1  0  0  0
  3  4  2  0  0  0
  3  5  1  0  0  0
  5  6  1  0  0  0
  6 20  1  0  0  0
 20 21  1  0  0  0
 21 22  2  0  0  0
 22 23  1  0  0  0
 23 24  2  0  0  0
 24 25  1  0  0  0
 24 26  1  0  0  0
 26 27  2  0  0  0
  6  7  1  0  0  0
  7  8  2  0  0  0
  7  9  1  0  0  0
  9 29  1  0  0  0
 29 30  1  0  0  0
 30 31  2  0  0  0
 31 32  1  0  0  0
 32 33  2  0  0  0
 33 34  1  0  0  0
 34 35  1  0  0  0
 35 40  1  0  0  0
 40 41  2  0  0  0
 40 42  1  0  0  0
 42 44  1  0  0  0
 44 45  2  0  0  0
 45 46  1  0  0  0
 46 47  2  0  0  0
 47 50  1  0  0  0
 50 51  1  0  0  0
 51 52  1  0  0  0
 52 53  1  0  0  0
 53 56  1  0  0  0
 56 57  1  0  0  0
 57 58  1  0  0  0
 58 59  1  0  0  0
 53 54  1  0  0  0
 54 55  1  0  0  0
 47 48  1  0  0  0
 48 49  2  0  0  0
 35 36  2  0  0  0
 36 37  1  0  0  0
 37 38  1  0  0  0
 37 39  1  0  0  0
  9 10  1  0  0  0
 10 11  1  0  0  0
 11 12  1  0  0  0
 12 13  1  0  0  0
 13 14  2  0  0  0
 13 15  1  0  0  0
 15 60  1  0  0  0
 60 61  1  0  0  0
 61 62  2  0  0  0
 62 63  1  0  0  0
 63 64  2  0  0  0
 64 65  1  0  0  0
 65 66  2  0  0  0
 12  1  1  0  0  0
 66 61  1  0  0  0
 11  5  1  0  0  0
 27 21  1  0  0  0
 39 30  1  0  0  0
 39 34  2  0  0  0
 49 44  1  0  0  0
 55 50  1  0  0  0
 59 56  1  0  0  0
 25 28  1  0  0  0
 42 43  1  0  0  0
 15 16  1  0  0  0
M  END
> <minimizedAffinity>
-7.96899

> <CNNscore>
0.1174208969

> <CNNaffinity>
7.3670334816

> <CNN_VS>
0.8650436997

> <CNNaffinity_variance>
0.1579302847

$$$$
[H]Oc1c([H])c([H])c(C([H])([H])[C@@]2([H])C(=O)N(C([H])([H])c3c([H])c([H])c([H])c4c(C(=O)N([H])c5c([H])nc(N6C([H])([H])C([H])([H])C([H])(N7C([H])([H])C([H])([H])C7([H])[H])C([H])([H])C6([H])[H])c([H])c5[H])c([H])n(C([H])([H])[H])c34)C([H])([H])[C@]3([H])N(C(=O)N([H])C([H])([H])c4c([H])c([H])c([H])c([H])c4[H])N(C([H])([H])C([H])=C([H])[H])C([H])([H])C(=O)N23)c([H])c1[H]


 66 74  0  0  0  0  0  0  0  0999 V2000
   -3.2736   -3.5205   14.1052 N   0  0  0  0  0  0  0  0  0  0  0  0
   -3.0288   -2.3721   13.2513 C   0  0  0  0  0  0  0  0  0  0  0  0
   -1.6377   -1.9406   13.6838 C   0  0  0  0  0  0  0  0  0  0  0  0
   -1.4880   -0.7430   13.9868 O   0  0  0  0  0  0  0  0  0  0  0  0
   -0.6118   -2.8850   13.7164 N   0  0  0  0  0  0  0  0  0  0  0  0
    0.7591   -2.4827   13.5810 C   0  0  0  0  0  0  0  0  0  0  0  0
    1.0886   -2.9243   12.1744 C   0  0  0  0  0  0  0  0  0  0  0  0
    1.7325   -2.2113   11.4238 O   0  0  0  0  0  0  0  0  0  0  0  0
    0.6212   -4.1914   11.7733 N   0  0  0  0  0  0  0  0  0  0  0  0
   -0.2347   -5.0300   12.6476 C   0  0  0  0  0  0  0  0  0  0  0  0
   -0.8839   -4.2968   13.7738 C   0  0  0  0  0  0  0  0  0  0  0  0
   -2.2943   -4.5309   13.9838 N   0  0  0  0  0  0  0  0  0  0  0  0
   -2.8083   -5.8582   14.1151 C   0  0  0  0  0  0  0  0  0  0  0  0
   -4.0744   -5.9730   14.2370 O   0  0  0  0  0  0  0  0  0  0  0  0
   -2.0813   -7.0548   14.1293 N   0  0  0  0  0  0  0  0  0  0  0  0
   -1.0645   -7.0583   14.0458 H   0  0  0  0  0  0  0  0  0  0  0  0
   -3.3276   -2.9573   15.4459 C   0  0  0  0  0  0  0  0  0  0  0  0
   -5.7474   -3.1079   15.5654 C   0  0  0  0  0  0  0  0  0  0  0  0
   -4.6313   -2.4976   15.8610 C   0  0  0  0  0  0  0  0  0  0  0  0
    1.7501   -2.9788   14.5467 C   0  0  0  0  0  0  0  0  0  0  0  0
    1.5943   -2.6666   15.9696 C   0  0  0  0  0  0  0  0  0  0  0  0
    1.6066   -3.6864   16.9229 C   0  0  0  0  0  0  0  0  0  0  0  0
    1.3945   -3.4078   18.2562 C   0  0  0  0  0  0  0  0  0  0  0  0
    1.1595   -2.1292   18.7208 C   0  0  0  0  0  0  0  0  0  0  0  0
    0.9570   -1.9177   20.0715 O   0  0  0  0  0  0  0  0  0  0  0  0
    1.1452   -1.1277   17.7906 C   0  0  0  0  0  0  0  0  0  0  0  0
    1.3582   -1.3938   16.4381 C   0  0  0  0  0  0  0  0  0  0  0  0
    0.9723   -2.6689   20.7527 H   0  0  0  0  0  0  0  0  0  0  0  0
    0.8954   -4.7871   10.4644 C   0  0  0  0  0  0  0  0  0  0  0  0
   -0.2340   -4.5231    9.5675 C   0  0  0  0  0  0  0  0  0  0  0  0
   -1.0127   -3.4031    9.6989 C   0  0  0  0  0  0  0  0  0  0  0  0
   -2.1149   -3.1741    8.8932 C   0  0  0  0  0  0  0  0  0  0  0  0
   -2.4573   -4.0923    7.9176 C   0  0  0  0  0  0  0  0  0  0  0  0
   -1.6673   -5.2399    7.7731 C   0  0  0  0  0  0  0  0  0  0  0  0
   -1.7413   -6.2817    6.9104 C   0  0  0  0  0  0  0  0  0  0  0  0
   -0.6949   -7.1093    7.2017 C   0  0  0  0  0  0  0  0  0  0  0  0
    0.0351   -6.6251    8.2219 N   0  0  0  0  0  0  0  0  0  0  0  0
    1.2107   -7.2289    8.7980 C   0  0  0  0  0  0  0  0  0  0  0  0
   -0.5642   -5.4567    8.5900 C   0  0  0  0  0  0  0  0  0  0  0  0
   -2.7570   -6.5689    5.8400 C   0  0  0  0  0  0  0  0  0  0  0  0
   -2.4113   -6.5161    4.6405 O   0  0  0  0  0  0  0  0  0  0  0  0
   -4.0511   -6.8922    6.2878 N   0  0  0  0  0  0  0  0  0  0  0  0
   -4.3290   -7.3020    4.9992 H   0  0  0  0  0  0  0  0  0  0  0  0
   -5.2566   -7.1941    6.6846 C   0  0  0  0  0  0  0  0  0  0  0  0
   -5.9127   -8.3247    6.1553 C   0  0  0  0  0  0  0  0  0  0  0  0
   -7.1559   -8.7055    6.5006 C   0  0  0  0  0  0  0  0  0  0  0  0
   -7.8423   -7.9491    7.4228 C   0  0  0  0  0  0  0  0  0  0  0  0
   -7.2814   -6.8495    7.9753 N   0  0  0  0  0  0  0  0  0  0  0  0
   -6.0279   -6.4787    7.6259 C   0  0  0  0  0  0  0  0  0  0  0  0
   -9.1871   -8.2657    7.7947 N   0  0  0  0  0  0  0  0  0  0  0  0
   -9.8958   -7.3655    8.6705 C   0  0  0  0  0  0  0  0  0  0  0  0
  -11.3393   -7.1764    8.3821 C   0  0  0  0  0  0  0  0  0  0  0  0
  -11.9294   -8.1132    7.3879 C   0  0  0  0  0  0  0  0  0  0  0  0
  -11.2731   -9.4899    7.4014 C   0  0  0  0  0  0  0  0  0  0  0  0
   -9.7972   -9.4765    7.3214 C   0  0  0  0  0  0  0  0  0  0  0  0
  -13.3291   -8.3273    7.4921 N   0  0  0  0  0  0  0  0  0  0  0  0
  -14.0472   -8.5790    6.2841 C   0  0  0  0  0  0  0  0  0  0  0  0
  -15.2633   -7.9698    6.9526 C   0  0  0  0  0  0  0  0  0  0  0  0
  -14.2219   -7.2855    7.8360 C   0  0  0  0  0  0  0  0  0  0  0  0
   -2.7467   -8.3462   14.2770 C   0  0  0  0  0  0  0  0  0  0  0  0
   -2.2411   -9.0610   15.5062 C   0  0  0  0  0  0  0  0  0  0  0  0
   -2.3586   -8.4771   16.7239 C   0  0  0  0  0  0  0  0  0  0  0  0
   -1.8416   -9.1432   17.8634 C   0  0  0  0  0  0  0  0  0  0  0  0
   -1.2216  -10.3833   17.7151 C   0  0  0  0  0  0  0  0  0  0  0  0
   -1.1542  -10.8921   16.4025 C   0  0  0  0  0  0  0  0  0  0  0  0
   -1.6379  -10.2797   15.3293 C   0  0  0  0  0  0  0  0  0  0  0  0
 18 19  2  0  0  0
 19 17  1  0  0  0
 17  1  1  0  0  0
  1  2  1  0  0  0
  2  3  1  0  0  0
  3  4  2  0  0  0
  3  5  1  0  0  0
  5  6  1  0  0  0
  6 20  1  0  0  0
 20 21  1  0  0  0
 21 22  2  0  0  0
 22 23  1  0  0  0
 23 24  2  0  0  0
 24 25  1  0  0  0
 24 26  1  0  0  0
 26 27  2  0  0  0
  6  7  1  0  0  0
  7  8  2  0  0  0
  7  9  1  0  0  0
  9 29  1  0  0  0
 29 30  1  0  0  0
 30 31  2  0  0  0
 31 32  1  0  0  0
 32 33  2  0  0  0
 33 34  1  0  0  0
 34 35  1  0  0  0
 35 40  1  0  0  0
 40 41  2  0  0  0
 40 42  1  0  0  0
 42 44  1  0  0  0
 44 45  2  0  0  0
 45 46  1  0  0  0
 46 47  2  0  0  0
 47 50  1  0  0  0
 50 51  1  0  0  0
 51 52  1  0  0  0
 52 53  1  0  0  0
 53 56  1  0  0  0
 56 57  1  0  0  0
 57 58  1  0  0  0
 58 59  1  0  0  0
 53 54  1  0  0  0
 54 55  1  0  0  0
 47 48  1  0  0  0
 48 49  2  0  0  0
 35 36  2  0  0  0
 36 37  1  0  0  0
 37 38  1  0  0  0
 37 39  1  0  0  0
  9 10  1  0  0  0
 10 11  1  0  0  0
 11 12  1  0  0  0
 12 13  1  0  0  0
 13 14  2  0  0  0
 13 15  1  0  0  0
 15 60  1  0  0  0
 60 61  1  0  0  0
 61 62  2  0  0  0
 62 63  1  0  0  0
 63 64  2  0  0  0
 64 65  1  0  0  0
 65 66  2  0  0  0
 12  1  1  0  0  0
 66 61  1  0  0  0
 11  5  1  0  0  0
 27 21  1  0  0  0
 39 30  1  0  0  0
 39 34  2  0  0  0
 49 44  1  0  0  0
 55 50  1  0  0  0
 59 56  1  0  0  0
 25 28  1  0  0  0
 42 43  1  0  0  0
 15 16  1  0  0  0
M  END
> <minimizedAffinity>
-6.07414

> <CNNscore>
0.0986106396

> <CNNaffinity>
7.3849768639

> <CNN_VS>
0.7282372713

> <CNNaffinity_variance>
0.5091041327

$$$$
[H]Oc1c([H])c([H])c(C([H])([H])[C@@]2([H])C(=O)N(C([H])([H])c3c([H])c([H])c([H])c4c(C(=O)N([H])c5c([H])nc(N6C([H])([H])C([H])([H])C([H])(N7C([H])([H])C([H])([H])C7([H])[H])C([H])([H])C6([H])[H])c([H])c5[H])c([H])n(C([H])([H])[H])c34)C([H])([H])[C@]3([H])N(C(=O)N([H])C([H])([H])c4c([H])c([H])c([H])c([H])c4[H])N(C([H])([H])C([H])=C([H])[H])C([H])([H])C(=O)N23)c([H])c1[H]


 66 74  0  0  0  0  0  0  0  0999 V2000
   -2.7174   -2.5600   -2.5353 N   0  0  0  0  0  0  0  0  0  0  0  0
   -1.5567   -3.1793   -1.9213 C   0  0  0  0  0  0  0  0  0  0  0  0
   -0.7106   -1.9746   -1.5454 C   0  0  0  0  0  0  0  0  0  0  0  0
    0.4765   -1.9813   -1.9183 O   0  0  0  0  0  0  0  0  0  0  0  0
   -1.2890   -0.9396   -0.8107 N   0  0  0  0  0  0  0  0  0  0  0  0
   -0.4816   -0.0849    0.0121 C   0  0  0  0  0  0  0  0  0  0  0  0
   -0.8100   -0.5713    1.4041 C   0  0  0  0  0  0  0  0  0  0  0  0
    0.0618   -0.7161    2.2438 O   0  0  0  0  0  0  0  0  0  0  0  0
   -2.1628   -0.8466    1.6853 N   0  0  0  0  0  0  0  0  0  0  0  0
   -3.2189   -0.7560    0.6478 C   0  0  0  0  0  0  0  0  0  0  0  0
   -2.7150   -0.7543   -0.7570 C   0  0  0  0  0  0  0  0  0  0  0  0
   -3.3742   -1.6364   -1.6925 N   0  0  0  0  0  0  0  0  0  0  0  0
   -4.7945   -1.6111   -1.8521 C   0  0  0  0  0  0  0  0  0  0  0  0
   -5.2962   -2.4672   -2.6561 O   0  0  0  0  0  0  0  0  0  0  0  0
   -5.7056   -0.7497   -1.2288 N   0  0  0  0  0  0  0  0  0  0  0  0
   -5.3935   -0.0293   -0.5773 H   0  0  0  0  0  0  0  0  0  0  0  0
   -2.1882   -1.9355   -3.7385 C   0  0  0  0  0  0  0  0  0  0  0  0
   -1.9267   -2.4464   -6.0971 C   0  0  0  0  0  0  0  0  0  0  0  0
   -2.5854   -2.5640   -4.9756 C   0  0  0  0  0  0  0  0  0  0  0  0
   -0.6373    1.3725   -0.0994 C   0  0  0  0  0  0  0  0  0  0  0  0
   -0.1040    2.0704   -1.2719 C   0  0  0  0  0  0  0  0  0  0  0  0
   -0.7609    3.1888   -1.7886 C   0  0  0  0  0  0  0  0  0  0  0  0
   -0.3024    3.8108   -2.9301 C   0  0  0  0  0  0  0  0  0  0  0  0
    0.8108    3.3734   -3.6197 C   0  0  0  0  0  0  0  0  0  0  0  0
    1.2193    4.0443   -4.7569 O   0  0  0  0  0  0  0  0  0  0  0  0
    1.4562    2.2778   -3.1182 C   0  0  0  0  0  0  0  0  0  0  0  0
    1.0045    1.6378   -1.9641 C   0  0  0  0  0  0  0  0  0  0  0  0
    0.7334    4.8578   -5.1182 H   0  0  0  0  0  0  0  0  0  0  0  0
   -2.6542   -1.2770    2.9955 C   0  0  0  0  0  0  0  0  0  0  0  0
   -2.4343   -2.7190    3.1439 C   0  0  0  0  0  0  0  0  0  0  0  0
   -1.7765   -3.4501    2.1895 C   0  0  0  0  0  0  0  0  0  0  0  0
   -1.6143   -4.8209    2.2944 C   0  0  0  0  0  0  0  0  0  0  0  0
   -2.1239   -5.4928    3.3903 C   0  0  0  0  0  0  0  0  0  0  0  0
   -2.7965   -4.7552    4.3729 C   0  0  0  0  0  0  0  0  0  0  0  0
   -3.3708   -5.1262    5.5425 C   0  0  0  0  0  0  0  0  0  0  0  0
   -3.8597   -3.9892    6.1193 C   0  0  0  0  0  0  0  0  0  0  0  0
   -3.6153   -2.9134    5.3504 N   0  0  0  0  0  0  0  0  0  0  0  0
   -3.9840   -1.5500    5.6404 C   0  0  0  0  0  0  0  0  0  0  0  0
   -2.9525   -3.3795    4.2536 C   0  0  0  0  0  0  0  0  0  0  0  0
   -3.5183   -6.4954    6.1454 C   0  0  0  0  0  0  0  0  0  0  0  0
   -2.4971   -7.1862    6.3483 O   0  0  0  0  0  0  0  0  0  0  0  0
   -4.8317   -6.8977    6.4499 N   0  0  0  0  0  0  0  0  0  0  0  0
   -4.2812   -7.9401    7.1681 H   0  0  0  0  0  0  0  0  0  0  0  0
   -6.0426   -7.2873    6.7390 C   0  0  0  0  0  0  0  0  0  0  0  0
   -7.1031   -6.3577    6.7401 C   0  0  0  0  0  0  0  0  0  0  0  0
   -8.3786   -6.6691    7.0329 C   0  0  0  0  0  0  0  0  0  0  0  0
   -8.6785   -7.9721    7.3590 C   0  0  0  0  0  0  0  0  0  0  0  0
   -7.7160   -8.9220    7.3811 N   0  0  0  0  0  0  0  0  0  0  0  0
   -6.4372   -8.5995    7.0787 C   0  0  0  0  0  0  0  0  0  0  0  0
  -10.0033   -8.3614    7.7334 N   0  0  0  0  0  0  0  0  0  0  0  0
  -10.7311   -7.5389    8.6679 C   0  0  0  0  0  0  0  0  0  0  0  0
  -12.1856   -7.3918    8.4124 C   0  0  0  0  0  0  0  0  0  0  0  0
  -12.7561   -8.2960    7.3774 C   0  0  0  0  0  0  0  0  0  0  0  0
  -12.0468   -9.6443    7.3053 C   0  0  0  0  0  0  0  0  0  0  0  0
  -10.5741   -9.5681    7.2037 C   0  0  0  0  0  0  0  0  0  0  0  0
  -14.1444   -8.5707    7.4909 N   0  0  0  0  0  0  0  0  0  0  0  0
  -15.0207   -7.9203    6.5704 C   0  0  0  0  0  0  0  0  0  0  0  0
  -16.0991   -8.0058    7.6317 C   0  0  0  0  0  0  0  0  0  0  0  0
  -14.9114   -8.1098    8.5864 C   0  0  0  0  0  0  0  0  0  0  0  0
   -7.1387   -0.8382   -1.4950 C   0  0  0  0  0  0  0  0  0  0  0  0
   -7.8345    0.4267   -1.0552 C   0  0  0  0  0  0  0  0  0  0  0  0
   -7.1882    1.6157   -1.1332 C   0  0  0  0  0  0  0  0  0  0  0  0
   -7.8406    2.7889   -0.6777 C   0  0  0  0  0  0  0  0  0  0  0  0
   -9.1314    2.7025   -0.1574 C   0  0  0  0  0  0  0  0  0  0  0  0
   -9.7032    1.4149   -0.1228 C   0  0  0  0  0  0  0  0  0  0  0  0
   -9.1039    0.3106   -0.5498 C   0  0  0  0  0  0  0  0  0  0  0  0
 18 19  2  0  0  0
 19 17  1  0  0  0
 17  1  1  0  0  0
  1  2  1  0  0  0
  2  3  1  0  0  0
  3  4  2  0  0  0
  3  5  1  0  0  0
  5  6  1  0  0  0
  6 20  1  0  0  0
 20 21  1  0  0  0
 21 22  2  0  0  0
 22 23  1  0  0  0
 23 24  2  0  0  0
 24 25  1  0  0  0
 24 26  1  0  0  0
 26 27  2  0  0  0
  6  7  1  0  0  0
  7  8  2  0  0  0
  7  9  1  0  0  0
  9 29  1  0  0  0
 29 30  1  0  0  0
 30 31  2  0  0  0
 31 32  1  0  0  0
 32 33  2  0  0  0
 33 34  1  0  0  0
 34 35  1  0  0  0
 35 40  1  0  0  0
 40 41  2  0  0  0
 40 42  1  0  0  0
 42 44  1  0  0  0
 44 45  2  0  0  0
 45 46  1  0  0  0
 46 47  2  0  0  0
 47 50  1  0  0  0
 50 51  1  0  0  0
 51 52  1  0  0  0
 52 53  1  0  0  0
 53 56  1  0  0  0
 56 57  1  0  0  0
 57 58  1  0  0  0
 58 59  1  0  0  0
 53 54  1  0  0  0
 54 55  1  0  0  0
 47 48  1  0  0  0
 48 49  2  0  0  0
 35 36  2  0  0  0
 36 37  1  0  0  0
 37 38  1  0  0  0
 37 39  1  0  0  0
  9 10  1  0  0  0
 10 11  1  0  0  0
 11 12  1  0  0  0
 12 13  1  0  0  0
 13 14  2  0  0  0
 13 15  1  0  0  0
 15 60  1  0  0  0
 60 61  1  0  0  0
 61 62  2  0  0  0
 62 63  1  0  0  0
 63 64  2  0  0  0
 64 65  1  0  0  0
 65 66  2  0  0  0
 12  1  1  0  0  0
 66 61  1  0  0  0
 11  5  1  0  0  0
 27 21  1  0  0  0
 39 30  1  0  0  0
 39 34  2  0  0  0
 49 44  1  0  0  0
 55 50  1  0  0  0
 59 56  1  0  0  0
 25 28  1  0  0  0
 42 43  1  0  0  0
 15 16  1  0  0  0
M  END
> <minimizedAffinity>
-8.00233

> <CNNscore>
0.0965622589

> <CNNaffinity>
7.3833723068

> <CNN_VS>
0.7129551172

> <CNNaffinity_variance>
0.3438511491

$$$$
[H]Oc1c([H])c([H])c(C([H])([H])[C@@]2([H])C(=O)N(C([H])([H])c3c([H])c([H])c([H])c4c(C(=O)N([H])c5c([H])nc(N6C([H])([H])C([H])([H])C([H])(N7C([H])([H])C([H])([H])C7([H])[H])C([H])([H])C6([H])[H])c([H])c5[H])c([H])n(C([H])([H])[H])c34)C([H])([H])[C@]3([H])N(C(=O)N([H])C([H])([H])c4c([H])c([H])c([H])c([H])c4[H])N(C([H])([H])C([H])=C([H])[H])C([H])([H])C(=O)N23)c([H])c1[H]


 66 74  0  0  0  0  0  0  0  0999 V2000
   -4.3461    1.2046    3.4807 N   0  0  0  0  0  0  0  0  0  0  0  0
   -5.0834    0.6658    2.3519 C   0  0  0  0  0  0  0  0  0  0  0  0
   -4.0916    0.8295    1.2126 C   0  0  0  0  0  0  0  0  0  0  0  0
   -4.5019    1.4010    0.1862 O   0  0  0  0  0  0  0  0  0  0  0  0
   -2.7949    0.3381    1.3633 N   0  0  0  0  0  0  0  0  0  0  0  0
   -2.0120   -0.0273    0.2175 C   0  0  0  0  0  0  0  0  0  0  0  0
   -2.0434   -1.5367    0.2722 C   0  0  0  0  0  0  0  0  0  0  0  0
   -2.2067   -2.2013   -0.7368 O   0  0  0  0  0  0  0  0  0  0  0  0
   -1.8747   -2.1369    1.5356 N   0  0  0  0  0  0  0  0  0  0  0  0
   -1.7610   -1.3379    2.7801 C   0  0  0  0  0  0  0  0  0  0  0  0
   -2.2317    0.0733    2.6607 C   0  0  0  0  0  0  0  0  0  0  0  0
   -3.1066    0.5642    3.7006 N   0  0  0  0  0  0  0  0  0  0  0  0
   -2.7458    0.4530    5.0792 C   0  0  0  0  0  0  0  0  0  0  0  0
   -3.6064    0.8581    5.9314 O   0  0  0  0  0  0  0  0  0  0  0  0
   -1.5501   -0.0483    5.6081 N   0  0  0  0  0  0  0  0  0  0  0  0
   -0.8028   -0.3866    5.0014 H   0  0  0  0  0  0  0  0  0  0  0  0
   -4.1934    2.6158    3.1602 C   0  0  0  0  0  0  0  0  0  0  0  0
   -5.2365    3.8478    4.9731 C   0  0  0  0  0  0  0  0  0  0  0  0
   -5.2045    3.4801    3.7204 C   0  0  0  0  0  0  0  0  0  0  0  0
   -0.6369    0.4783    0.0985 C   0  0  0  0  0  0  0  0  0  0  0  0
   -0.3826    1.7196   -0.6368 C   0  0  0  0  0  0  0  0  0  0  0  0
   -0.4380    2.9524    0.0161 C   0  0  0  0  0  0  0  0  0  0  0  0
   -0.2655    4.1284   -0.6821 C   0  0  0  0  0  0  0  0  0  0  0  0
   -0.0341    4.1587   -2.0428 C   0  0  0  0  0  0  0  0  0  0  0  0
    0.1329    5.3724   -2.6823 O   0  0  0  0  0  0  0  0  0  0  0  0
    0.0195    2.9539   -2.6865 C   0  0  0  0  0  0  0  0  0  0  0  0
   -0.1530    1.7557   -1.9938 C   0  0  0  0  0  0  0  0  0  0  0  0
    0.0933    6.2601   -2.1934 H   0  0  0  0  0  0  0  0  0  0  0  0
   -1.8305   -3.5838    1.7538 C   0  0  0  0  0  0  0  0  0  0  0  0
   -2.5572   -3.9090    2.9850 C   0  0  0  0  0  0  0  0  0  0  0  0
   -3.5595   -3.1066    3.4640 C   0  0  0  0  0  0  0  0  0  0  0  0
   -4.2121   -3.3754    4.6549 C   0  0  0  0  0  0  0  0  0  0  0  0
   -3.8570   -4.4853    5.3994 C   0  0  0  0  0  0  0  0  0  0  0  0
   -2.8350   -5.3136    4.9184 C   0  0  0  0  0  0  0  0  0  0  0  0
   -2.2975   -6.4573    5.4065 C   0  0  0  0  0  0  0  0  0  0  0  0
   -1.3456   -6.8577    4.5132 C   0  0  0  0  0  0  0  0  0  0  0  0
   -1.2629   -6.0024    3.4789 N   0  0  0  0  0  0  0  0  0  0  0  0
   -0.3727   -6.1056    2.3494 C   0  0  0  0  0  0  0  0  0  0  0  0
   -2.1881   -5.0304    3.7215 C   0  0  0  0  0  0  0  0  0  0  0  0
   -2.6013   -7.1896    6.6837 C   0  0  0  0  0  0  0  0  0  0  0  0
   -1.6590   -7.5366    7.4273 O   0  0  0  0  0  0  0  0  0  0  0  0
   -3.9623   -7.4249    6.9518 N   0  0  0  0  0  0  0  0  0  0  0  0
   -3.5870   -7.7751    8.2333 H   0  0  0  0  0  0  0  0  0  0  0  0
   -5.2193   -7.6516    7.2169 C   0  0  0  0  0  0  0  0  0  0  0  0
   -6.0210   -8.3546    6.2938 C   0  0  0  0  0  0  0  0  0  0  0  0
   -7.3252   -8.6259    6.4810 C   0  0  0  0  0  0  0  0  0  0  0  0
   -7.9272   -8.1903    7.6393 C   0  0  0  0  0  0  0  0  0  0  0  0
   -7.2256   -7.5085    8.5731 N   0  0  0  0  0  0  0  0  0  0  0  0
   -5.9126   -7.2463    8.3780 C   0  0  0  0  0  0  0  0  0  0  0  0
   -9.3226   -8.3971    7.8781 N   0  0  0  0  0  0  0  0  0  0  0  0
  -10.0257   -7.4719    8.7321 C   0  0  0  0  0  0  0  0  0  0  0  0
  -11.4151   -7.1397    8.3299 C   0  0  0  0  0  0  0  0  0  0  0  0
  -11.9930   -7.9773    7.2443 C   0  0  0  0  0  0  0  0  0  0  0  0
  -11.4639   -9.4079    7.2476 C   0  0  0  0  0  0  0  0  0  0  0  0
   -9.9914   -9.5267    7.2959 C   0  0  0  0  0  0  0  0  0  0  0  0
  -13.4098   -8.0663    7.2169 N   0  0  0  0  0  0  0  0  0  0  0  0
  -14.1395   -7.2032    8.0891 C   0  0  0  0  0  0  0  0  0  0  0  0
  -15.2326   -8.2528    8.1126 C   0  0  0  0  0  0  0  0  0  0  0  0
  -14.0984   -9.1961    7.7167 C   0  0  0  0  0  0  0  0  0  0  0  0
   -1.3178   -0.0959    7.0490 C   0  0  0  0  0  0  0  0  0  0  0  0
   -1.5688   -1.4873    7.5767 C   0  0  0  0  0  0  0  0  0  0  0  0
   -0.7000   -2.4868    7.2874 C   0  0  0  0  0  0  0  0  0  0  0  0
   -0.9717   -3.7968    7.7559 C   0  0  0  0  0  0  0  0  0  0  0  0
   -2.1241   -4.0368    8.5033 C   0  0  0  0  0  0  0  0  0  0  0  0
   -2.9551   -2.9235    8.7401 C   0  0  0  0  0  0  0  0  0  0  0  0
   -2.7091   -1.6924    8.3101 C   0  0  0  0  0  0  0  0  0  0  0  0
 18 19  2  0  0  0
 19 17  1  0  0  0
 17  1  1  0  0  0
  1  2  1  0  0  0
  2  3  1  0  0  0
  3  4  2  0  0  0
  3  5  1  0  0  0
  5  6  1  0  0  0
  6 20  1  0  0  0
 20 21  1  0  0  0
 21 22  2  0  0  0
 22 23  1  0  0  0
 23 24  2  0  0  0
 24 25  1  0  0  0
 24 26  1  0  0  0
 26 27  2  0  0  0
  6  7  1  0  0  0
  7  8  2  0  0  0
  7  9  1  0  0  0
  9 29  1  0  0  0
 29 30  1  0  0  0
 30 31  2  0  0  0
 31 32  1  0  0  0
 32 33  2  0  0  0
 33 34  1  0  0  0
 34 35  1  0  0  0
 35 40  1  0  0  0
 40 41  2  0  0  0
 40 42  1  0  0  0
 42 44  1  0  0  0
 44 45  2  0  0  0
 45 46  1  0  0  0
 46 47  2  0  0  0
 47 50  1  0  0  0
 50 51  1  0  0  0
 51 52  1  0  0  0
 52 53  1  0  0  0
 53 56  1  0  0  0
 56 57  1  0  0  0
 57 58  1  0  0  0
 58 59  1  0  0  0
 53 54  1  0  0  0
 54 55  1  0  0  0
 47 48  1  0  0  0
 48 49  2  0  0  0
 35 36  2  0  0  0
 36 37  1  0  0  0
 37 38  1  0  0  0
 37 39  1  0  0  0
  9 10  1  0  0  0
 10 11  1  0  0  0
 11 12  1  0  0  0
 12 13  1  0  0  0
 13 14  2  0  0  0
 13 15  1  0  0  0
 15 60  1  0  0  0
 60 61  1  0  0  0
 61 62  2  0  0  0
 62 63  1  0  0  0
 63 64  2  0  0  0
 64 65  1  0  0  0
 65 66  2  0  0  0
 12  1  1  0  0  0
 66 61  1  0  0  0
 11  5  1  0  0  0
 27 21  1  0  0  0
 39 30  1  0  0  0
 39 34  2  0  0  0
 49 44  1  0  0  0
 55 50  1  0  0  0
 59 56  1  0  0  0
 25 28  1  0  0  0
 42 43  1  0  0  0
 15 16  1  0  0  0
M  END
> <minimizedAffinity>
-7.62817

> <CNNscore>
0.0809469074

> <CNNaffinity>
7.1919174194

> <CNN_VS>
0.5821634531

> <CNNaffinity_variance>
0.1731765568

$$$$
[H]Oc1c([H])c([H])c(C([H])([H])[C@@]2([H])C(=O)N(C([H])([H])c3c([H])c([H])c([H])c4c(C(=O)N([H])c5c([H])nc(N6C([H])([H])C([H])([H])C([H])(N7C([H])([H])C([H])([H])C7([H])[H])C([H])([H])C6([H])[H])c([H])c5[H])c([H])n(C([H])([H])[H])c34)C([H])([H])[C@]3([H])N(C(=O)N([H])C([H])([H])c4c([H])c([H])c([H])c([H])c4[H])N(C([H])([H])C([H])=C([H])[H])C([H])([H])C(=O)N23)c([H])c1[H]


 66 74  0  0  0  0  0  0  0  0999 V2000
   -0.4087   -8.6757   16.2148 N   0  0  0  0  0  0  0  0  0  0  0  0
    0.8820   -9.2891   15.9588 C   0  0  0  0  0  0  0  0  0  0  0  0
    0.4887  -10.6127   15.3247 C   0  0  0  0  0  0  0  0  0  0  0  0
    0.9896  -11.6421   15.8125 O   0  0  0  0  0  0  0  0  0  0  0  0
   -0.3936  -10.6141   14.2444 N   0  0  0  0  0  0  0  0  0  0  0  0
   -0.3856  -11.6886   13.2931 C   0  0  0  0  0  0  0  0  0  0  0  0
    0.2784  -11.0539   12.0937 C   0  0  0  0  0  0  0  0  0  0  0  0
    1.1164  -11.6559   11.4445 O   0  0  0  0  0  0  0  0  0  0  0  0
   -0.1149   -9.7425   11.7614 N   0  0  0  0  0  0  0  0  0  0  0  0
   -1.0695   -8.9701   12.5934 C   0  0  0  0  0  0  0  0  0  0  0  0
   -1.2628   -9.4994   13.9754 C   0  0  0  0  0  0  0  0  0  0  0  0
   -1.2086   -8.5441   15.0583 N   0  0  0  0  0  0  0  0  0  0  0  0
   -2.0171   -7.3655   15.0409 C   0  0  0  0  0  0  0  0  0  0  0  0
   -1.8593   -6.5480   16.0093 O   0  0  0  0  0  0  0  0  0  0  0  0
   -2.9705   -7.0016   14.0822 N   0  0  0  0  0  0  0  0  0  0  0  0
   -3.1685   -7.5980   13.2785 H   0  0  0  0  0  0  0  0  0  0  0  0
   -1.0168   -9.5394   17.2157 C   0  0  0  0  0  0  0  0  0  0  0  0
   -0.6639   -7.9291   18.9976 C   0  0  0  0  0  0  0  0  0  0  0  0
   -0.7528   -9.1647   18.5843 C   0  0  0  0  0  0  0  0  0  0  0  0
   -1.6560  -12.3313   12.9276 C   0  0  0  0  0  0  0  0  0  0  0  0
   -1.6625  -13.4136   11.9403 C   0  0  0  0  0  0  0  0  0  0  0  0
   -2.2793  -13.2363   10.7005 C   0  0  0  0  0  0  0  0  0  0  0  0
   -2.3474  -14.2711    9.7924 C   0  0  0  0  0  0  0  0  0  0  0  0
   -1.8222  -15.5219   10.0490 C   0  0  0  0  0  0  0  0  0  0  0  0
   -1.9219  -16.5157    9.0938 O   0  0  0  0  0  0  0  0  0  0  0  0
   -1.2186  -15.7005   11.2624 C   0  0  0  0  0  0  0  0  0  0  0  0
   -1.1417  -14.6630   12.1915 C   0  0  0  0  0  0  0  0  0  0  0  0
   -2.3703  -16.3705    8.1958 H   0  0  0  0  0  0  0  0  0  0  0  0
    0.3937   -9.0052   10.6035 C   0  0  0  0  0  0  0  0  0  0  0  0
   -0.5198   -9.1928    9.4722 C   0  0  0  0  0  0  0  0  0  0  0  0
   -0.6062  -10.3869    8.8054 C   0  0  0  0  0  0  0  0  0  0  0  0
   -1.4238  -10.5560    7.7011 C   0  0  0  0  0  0  0  0  0  0  0  0
   -2.1868   -9.4985    7.2409 C   0  0  0  0  0  0  0  0  0  0  0  0
   -2.1078   -8.2738    7.9159 C   0  0  0  0  0  0  0  0  0  0  0  0
   -2.7394   -7.0923    7.7154 C   0  0  0  0  0  0  0  0  0  0  0  0
   -2.3029   -6.2419    8.6905 C   0  0  0  0  0  0  0  0  0  0  0  0
   -1.4143   -6.8474    9.4979 N   0  0  0  0  0  0  0  0  0  0  0  0
   -0.7465   -6.2597   10.6326 C   0  0  0  0  0  0  0  0  0  0  0  0
   -1.2817   -8.1187    9.0226 C   0  0  0  0  0  0  0  0  0  0  0  0
   -3.7126   -6.6966    6.6401 C   0  0  0  0  0  0  0  0  0  0  0  0
   -3.2859   -6.1428    5.6044 O   0  0  0  0  0  0  0  0  0  0  0  0
   -5.0641   -6.9982    6.8891 N   0  0  0  0  0  0  0  0  0  0  0  0
   -5.3092   -6.7158    5.5603 H   0  0  0  0  0  0  0  0  0  0  0  0
   -6.3219   -7.2704    7.1028 C   0  0  0  0  0  0  0  0  0  0  0  0
   -6.6864   -8.4758    7.7376 C   0  0  0  0  0  0  0  0  0  0  0  0
   -7.9562   -8.8408    7.9907 C   0  0  0  0  0  0  0  0  0  0  0  0
   -8.9718   -7.9958    7.6055 C   0  0  0  0  0  0  0  0  0  0  0  0
   -8.7032   -6.8217    6.9903 N   0  0  0  0  0  0  0  0  0  0  0  0
   -7.4221   -6.4610    6.7461 C   0  0  0  0  0  0  0  0  0  0  0  0
  -10.3460   -8.3461    7.7949 N   0  0  0  0  0  0  0  0  0  0  0  0
  -11.1739   -7.4936    8.6119 C   0  0  0  0  0  0  0  0  0  0  0  0
  -12.5742   -7.3121    8.1549 C   0  0  0  0  0  0  0  0  0  0  0  0
  -13.0197   -8.2137    7.0582 C   0  0  0  0  0  0  0  0  0  0  0  0
  -12.3444   -9.5807    7.0972 C   0  0  0  0  0  0  0  0  0  0  0  0
  -10.8704   -9.5439    7.2011 C   0  0  0  0  0  0  0  0  0  0  0  0
  -14.4173   -8.4510    6.9795 N   0  0  0  0  0  0  0  0  0  0  0  0
  -15.1741   -7.6310    6.0890 C   0  0  0  0  0  0  0  0  0  0  0  0
  -16.3640   -7.8430    7.0034 C   0  0  0  0  0  0  0  0  0  0  0  0
  -15.2904   -8.1408    8.0482 C   0  0  0  0  0  0  0  0  0  0  0  0
   -3.7300   -5.7598   14.1994 C   0  0  0  0  0  0  0  0  0  0  0  0
   -3.5025   -4.8879   12.9888 C   0  0  0  0  0  0  0  0  0  0  0  0
   -2.4970   -3.9788   12.9899 C   0  0  0  0  0  0  0  0  0  0  0  0
   -2.3224   -3.1389   11.8614 C   0  0  0  0  0  0  0  0  0  0  0  0
   -3.1844   -3.2594   10.7721 C   0  0  0  0  0  0  0  0  0  0  0  0
   -4.1943   -4.2361   10.8830 C   0  0  0  0  0  0  0  0  0  0  0  0
   -4.3650   -5.0303   11.9323 C   0  0  0  0  0  0  0  0  0  0  0  0
 18 19  2  0  0  0
 19 17  1  0  0  0
 17  1  1  0  0  0
  1  2  1  0  0  0
  2  3  1  0  0  0
  3  4  2  0  0  0
  3  5  1  0  0  0
  5  6  1  0  0  0
  6 20  1  0  0  0
 20 21  1  0  0  0
 21 22  2  0  0  0
 22 23  1  0  0  0
 23 24  2  0  0  0
 24 25  1  0  0  0
 24 26  1  0  0  0
 26 27  2  0  0  0
  6  7  1  0  0  0
  7  8  2  0  0  0
  7  9  1  0  0  0
  9 29  1  0  0  0
 29 30  1  0  0  0
 30 31  2  0  0  0
 31 32  1  0  0  0
 32 33  2  0  0  0
 33 34  1  0  0  0
 34 35  1  0  0  0
 35 40  1  0  0  0
 40 41  2  0  0  0
 40 42  1  0  0  0
 42 44  1  0  0  0
 44 45  2  0  0  0
 45 46  1  0  0  0
 46 47  2  0  0  0
 47 50  1  0  0  0
 50 51  1  0  0  0
 51 52  1  0  0  0
 52 53  1  0  0  0
 53 56  1  0  0  0
 56 57  1  0  0  0
 57 58  1  0  0  0
 58 59  1  0  0  0
 53 54  1  0  0  0
 54 55  1  0  0  0
 47 48  1  0  0  0
 48 49  2  0  0  0
 35 36  2  0  0  0
 36 37  1  0  0  0
 37 38  1  0  0  0
 37 39  1  0  0  0
  9 10  1  0  0  0
 10 11  1  0  0  0
 11 12  1  0  0  0
 12 13  1  0  0  0
 13 14  2  0  0  0
 13 15  1  0  0  0
 15 60  1  0  0  0
 60 61  1  0  0  0
 61 62  2  0  0  0
 62 63  1  0  0  0
 63 64  2  0  0  0
 64 65  1  0  0  0
 65 66  2  0  0  0
 12  1  1  0  0  0
 66 61  1  0  0  0
 11  5  1  0  0  0
 27 21  1  0  0  0
 39 30  1  0  0  0
 39 34  2  0  0  0
 49 44  1  0  0  0
 55 50  1  0  0  0
 59 56  1  0  0  0
 25 28  1  0  0  0
 42 43  1  0  0  0
 15 16  1  0  0  0
M  END
> <minimizedAffinity>
-8.55036

> <CNNscore>
0.0787470862

> <CNNaffinity>
7.2418127060

> <CNN_VS>
0.5702716708

> <CNNaffinity_variance>
0.4773695469

$$$$
[H]Oc1c([H])c([H])c(C([H])([H])[C@@]2([H])C(=O)N(C([H])([H])c3c([H])c([H])c([H])c4c(C(=O)N([H])c5c([H])nc(N6C([H])([H])C([H])([H])C([H])(N7C([H])([H])C([H])([H])C7([H])[H])C([H])([H])C6([H])[H])c([H])c5[H])c([H])n(C([H])([H])[H])c34)C([H])([H])[C@]3([H])N(C(=O)N([H])C([H])([H])c4c([H])c([H])c([H])c([H])c4[H])N(C([H])([H])C([H])=C([H])[H])C([H])([H])C(=O)N23)c([H])c1[H]


 66 74  0  0  0  0  0  0  0  0999 V2000
   -2.4012    2.5706   -1.5481 N   0  0  0  0  0  0  0  0  0  0  0  0
   -1.9626    3.7767   -0.8691 C   0  0  0  0  0  0  0  0  0  0  0  0
   -3.1553    4.0995    0.0152 C   0  0  0  0  0  0  0  0  0  0  0  0
   -3.6079    5.2568   -0.0497 O   0  0  0  0  0  0  0  0  0  0  0  0
   -3.6749    3.1068    0.8458 N   0  0  0  0  0  0  0  0  0  0  0  0
   -4.3912    3.4518    2.0405 C   0  0  0  0  0  0  0  0  0  0  0  0
   -3.3919    3.1207    3.1240 C   0  0  0  0  0  0  0  0  0  0  0  0
   -3.2224    3.8649    4.0746 O   0  0  0  0  0  0  0  0  0  0  0  0
   -2.6704    1.9185    2.9862 N   0  0  0  0  0  0  0  0  0  0  0  0
   -2.8063    1.0489    1.7923 C   0  0  0  0  0  0  0  0  0  0  0  0
   -3.4237    1.7105    0.6055 C   0  0  0  0  0  0  0  0  0  0  0  0
   -2.7623    1.5281   -0.6663 N   0  0  0  0  0  0  0  0  0  0  0  0
   -2.4409    0.2212   -1.1478 C   0  0  0  0  0  0  0  0  0  0  0  0
   -1.8027    0.1583   -2.2522 O   0  0  0  0  0  0  0  0  0  0  0  0
   -2.7490   -1.0062   -0.5484 N   0  0  0  0  0  0  0  0  0  0  0  0
   -3.2636   -1.0520    0.3313 H   0  0  0  0  0  0  0  0  0  0  0  0
   -3.5170    3.0150   -2.3696 C   0  0  0  0  0  0  0  0  0  0  0  0
   -5.4906    1.7050   -2.9002 C   0  0  0  0  0  0  0  0  0  0  0  0
   -4.2205    1.9619   -3.0620 C   0  0  0  0  0  0  0  0  0  0  0  0
   -5.6947    2.8242    2.3008 C   0  0  0  0  0  0  0  0  0  0  0  0
   -6.6844    2.7366    1.2242 C   0  0  0  0  0  0  0  0  0  0  0  0
   -7.2130    1.5004    0.8484 C   0  0  0  0  0  0  0  0  0  0  0  0
   -8.0943    1.4018   -0.2070 C   0  0  0  0  0  0  0  0  0  0  0  0
   -8.4984    2.4973   -0.9436 C   0  0  0  0  0  0  0  0  0  0  0  0
   -9.3871    2.3299   -1.9887 O   0  0  0  0  0  0  0  0  0  0  0  0
   -7.9821    3.7097   -0.5800 C   0  0  0  0  0  0  0  0  0  0  0  0
   -7.0896    3.8254    0.4855 C   0  0  0  0  0  0  0  0  0  0  0  0
   -9.7653    1.4253   -2.2476 H   0  0  0  0  0  0  0  0  0  0  0  0
   -1.7033    1.4282    3.9699 C   0  0  0  0  0  0  0  0  0  0  0  0
   -2.3395    0.4032    4.8031 C   0  0  0  0  0  0  0  0  0  0  0  0
   -3.6194    0.5466    5.2714 C   0  0  0  0  0  0  0  0  0  0  0  0
   -4.2075   -0.3891    6.1050 C   0  0  0  0  0  0  0  0  0  0  0  0
   -3.4978   -1.5124    6.4883 C   0  0  0  0  0  0  0  0  0  0  0  0
   -2.1893   -1.6702    6.0141 C   0  0  0  0  0  0  0  0  0  0  0  0
   -1.2778   -2.6556    6.1966 C   0  0  0  0  0  0  0  0  0  0  0  0
   -0.1711   -2.3065    5.4770 C   0  0  0  0  0  0  0  0  0  0  0  0
   -0.3536   -1.1317    4.8487 N   0  0  0  0  0  0  0  0  0  0  0  0
    0.5966   -0.4555    4.0010 C   0  0  0  0  0  0  0  0  0  0  0  0
   -1.6118   -0.7219    5.1785 C   0  0  0  0  0  0  0  0  0  0  0  0
   -1.3676   -3.9005    7.0345 C   0  0  0  0  0  0  0  0  0  0  0  0
   -0.3736   -4.2613    7.7001 O   0  0  0  0  0  0  0  0  0  0  0  0
   -2.6023   -4.5747    7.0082 N   0  0  0  0  0  0  0  0  0  0  0  0
   -2.1555   -5.3091    8.0883 H   0  0  0  0  0  0  0  0  0  0  0  0
   -3.7400   -5.2127    6.9962 C   0  0  0  0  0  0  0  0  0  0  0  0
   -4.3967   -5.4643    5.7738 C   0  0  0  0  0  0  0  0  0  0  0  0
   -5.5739   -6.1068    5.6684 C   0  0  0  0  0  0  0  0  0  0  0  0
   -6.1882   -6.5455    6.8191 C   0  0  0  0  0  0  0  0  0  0  0  0
   -5.6219   -6.3414    8.0302 N   0  0  0  0  0  0  0  0  0  0  0  0
   -4.4345   -5.6997    8.1247 C   0  0  0  0  0  0  0  0  0  0  0  0
   -7.4663   -7.1875    6.7842 N   0  0  0  0  0  0  0  0  0  0  0  0
   -7.5235   -8.6090    6.5485 C   0  0  0  0  0  0  0  0  0  0  0  0
   -8.5574   -9.3551    7.3079 C   0  0  0  0  0  0  0  0  0  0  0  0
   -9.5587   -8.5229    8.0283 C   0  0  0  0  0  0  0  0  0  0  0  0
   -9.8566   -7.2033    7.3238 C   0  0  0  0  0  0  0  0  0  0  0  0
   -8.6639   -6.4130    6.9525 C   0  0  0  0  0  0  0  0  0  0  0  0
  -10.8111   -9.1412    8.2833 N   0  0  0  0  0  0  0  0  0  0  0  0
  -11.4359   -9.8313    7.2010 C   0  0  0  0  0  0  0  0  0  0  0  0
  -12.7684   -9.5184    7.8516 C   0  0  0  0  0  0  0  0  0  0  0  0
  -11.9850   -8.3866    8.5137 C   0  0  0  0  0  0  0  0  0  0  0  0
   -2.3577   -2.2714   -1.1636 C   0  0  0  0  0  0  0  0  0  0  0  0
   -3.1671   -2.5215   -2.4125 C   0  0  0  0  0  0  0  0  0  0  0  0
   -2.5452   -2.8965   -3.5572 C   0  0  0  0  0  0  0  0  0  0  0  0
   -3.3148   -3.0874   -4.7322 C   0  0  0  0  0  0  0  0  0  0  0  0
   -4.6941   -2.8865   -4.6933 C   0  0  0  0  0  0  0  0  0  0  0  0
   -5.2311   -2.4956   -3.4503 C   0  0  0  0  0  0  0  0  0  0  0  0
   -4.5213   -2.3177   -2.3433 C   0  0  0  0  0  0  0  0  0  0  0  0
 18 19  2  0  0  0
 19 17  1  0  0  0
 17  1  1  0  0  0
  1  2  1  0  0  0
  2  3  1  0  0  0
  3  4  2  0  0  0
  3  5  1  0  0  0
  5  6  1  0  0  0
  6 20  1  0  0  0
 20 21  1  0  0  0
 21 22  2  0  0  0
 22 23  1  0  0  0
 23 24  2  0  0  0
 24 25  1  0  0  0
 24 26  1  0  0  0
 26 27  2  0  0  0
  6  7  1  0  0  0
  7  8  2  0  0  0
  7  9  1  0  0  0
  9 29  1  0  0  0
 29 30  1  0  0  0
 30 31  2  0  0  0
 31 32  1  0  0  0
 32 33  2  0  0  0
 33 34  1  0  0  0
 34 35  1  0  0  0
 35 40  1  0  0  0
 40 41  2  0  0  0
 40 42  1  0  0  0
 42 44  1  0  0  0
 44 45  2  0  0  0
 45 46  1  0  0  0
 46 47  2  0  0  0
 47 50  1  0  0  0
 50 51  1  0  0  0
 51 52  1  0  0  0
 52 53  1  0  0  0
 53 56  1  0  0  0
 56 57  1  0  0  0
 57 58  1  0  0  0
 58 59  1  0  0  0
 53 54  1  0  0  0
 54 55  1  0  0  0
 47 48  1  0  0  0
 48 49  2  0  0  0
 35 36  2  0  0  0
 36 37  1  0  0  0
 37 38  1  0  0  0
 37 39  1  0  0  0
  9 10  1  0  0  0
 10 11  1  0  0  0
 11 12  1  0  0  0
 12 13  1  0  0  0
 13 14  2  0  0  0
 13 15  1  0  0  0
 15 60  1  0  0  0
 60 61  1  0  0  0
 61 62  2  0  0  0
 62 63  1  0  0  0
 63 64  2  0  0  0
 64 65  1  0  0  0
 65 66  2  0  0  0
 12  1  1  0  0  0
 66 61  1  0  0  0
 11  5  1  0  0  0
 27 21  1  0  0  0
 39 30  1  0  0  0
 39 34  2  0  0  0
 49 44  1  0  0  0
 55 50  1  0  0  0
 59 56  1  0  0  0
 25 28  1  0  0  0
 42 43  1  0  0  0
 15 16  1  0  0  0
M  END
> <minimizedAffinity>
-6.70744

> <CNNscore>
0.0763639137

> <CNNaffinity>
7.2334351540

> <CNN_VS>
0.5523734093

> <CNNaffinity_variance>
0.1036954969

$$$$
[H]Oc1c([H])c([H])c(C([H])([H])[C@@]2([H])C(=O)N(C([H])([H])c3c([H])c([H])c([H])c4c(C(=O)N([H])c5c([H])nc(N6C([H])([H])C([H])([H])C([H])(N7C([H])([H])C([H])([H])C7([H])[H])C([H])([H])C6([H])[H])c([H])c5[H])c([H])n(C([H])([H])[H])c34)C([H])([H])[C@]3([H])N(C(=O)N([H])C([H])([H])c4c([H])c([H])c([H])c([H])c4[H])N(C([H])([H])C([H])=C([H])[H])C([H])([H])C(=O)N23)c([H])c1[H]


 66 74  0  0  0  0  0  0  0  0999 V2000
   -0.9594   -7.3544    8.5540 N   0  0  0  0  0  0  0  0  0  0  0  0
   -0.3933   -7.3819    7.2173 C   0  0  0  0  0  0  0  0  0  0  0  0
   -1.6294   -7.2600    6.3422 C   0  0  0  0  0  0  0  0  0  0  0  0
   -1.7660   -8.1052    5.4391 O   0  0  0  0  0  0  0  0  0  0  0  0
   -2.5337   -6.2256    6.5823 N   0  0  0  0  0  0  0  0  0  0  0  0
   -3.3771   -5.7311    5.5318 C   0  0  0  0  0  0  0  0  0  0  0  0
   -2.7340   -4.4057    5.1972 C   0  0  0  0  0  0  0  0  0  0  0  0
   -2.5908   -4.0481    4.0405 O   0  0  0  0  0  0  0  0  0  0  0  0
   -2.3114   -3.6063    6.2777 N   0  0  0  0  0  0  0  0  0  0  0  0
   -2.4026   -4.0682    7.6842 C   0  0  0  0  0  0  0  0  0  0  0  0
   -2.5825   -5.5409    7.8470 C   0  0  0  0  0  0  0  0  0  0  0  0
   -1.7359   -6.2033    8.8126 N   0  0  0  0  0  0  0  0  0  0  0  0
   -1.6467   -5.7317   10.1590 C   0  0  0  0  0  0  0  0  0  0  0  0
   -0.8279   -6.3410   10.9266 O   0  0  0  0  0  0  0  0  0  0  0  0
   -2.3590   -4.6751   10.7395 N   0  0  0  0  0  0  0  0  0  0  0  0
   -3.0403   -4.1373   10.2034 H   0  0  0  0  0  0  0  0  0  0  0  0
   -1.7399   -8.5801    8.6313 C   0  0  0  0  0  0  0  0  0  0  0  0
   -1.1064  -10.8608    8.0935 C   0  0  0  0  0  0  0  0  0  0  0  0
   -0.9658   -9.7838    8.8185 C   0  0  0  0  0  0  0  0  0  0  0  0
   -4.8183   -5.5824    5.7801 C   0  0  0  0  0  0  0  0  0  0  0  0
   -5.5667   -6.6868    6.3854 C   0  0  0  0  0  0  0  0  0  0  0  0
   -6.0543   -7.7283    5.5939 C   0  0  0  0  0  0  0  0  0  0  0  0
   -6.8157   -8.7363    6.1456 C   0  0  0  0  0  0  0  0  0  0  0  0
   -7.1381   -8.7757    7.4875 C   0  0  0  0  0  0  0  0  0  0  0  0
   -7.9036   -9.8167    7.9776 O   0  0  0  0  0  0  0  0  0  0  0  0
   -6.6640   -7.7570    8.2660 C   0  0  0  0  0  0  0  0  0  0  0  0
   -5.8923   -6.7302    7.7223 C   0  0  0  0  0  0  0  0  0  0  0  0
   -8.2479  -10.5684    7.3903 H   0  0  0  0  0  0  0  0  0  0  0  0
   -1.7166   -2.2771    6.1275 C   0  0  0  0  0  0  0  0  0  0  0  0
   -2.7633   -1.2606    6.2717 C   0  0  0  0  0  0  0  0  0  0  0  0
   -3.9932   -1.4035    5.6842 C   0  0  0  0  0  0  0  0  0  0  0  0
   -4.9672   -0.4234    5.7677 C   0  0  0  0  0  0  0  0  0  0  0  0
   -4.7112    0.7444    6.4626 C   0  0  0  0  0  0  0  0  0  0  0  0
   -3.4581    0.9005    7.0686 C   0  0  0  0  0  0  0  0  0  0  0  0
   -2.9381    1.9024    7.8175 C   0  0  0  0  0  0  0  0  0  0  0  0
   -1.6779    1.5152    8.1731 C   0  0  0  0  0  0  0  0  0  0  0  0
   -1.3848    0.3028    7.6706 N   0  0  0  0  0  0  0  0  0  0  0  0
   -0.1495   -0.4209    7.8414 C   0  0  0  0  0  0  0  0  0  0  0  0
   -2.4897   -0.0918    6.9755 C   0  0  0  0  0  0  0  0  0  0  0  0
   -3.5416    3.2252    8.1996 C   0  0  0  0  0  0  0  0  0  0  0  0
   -3.6875    4.1052    7.3246 O   0  0  0  0  0  0  0  0  0  0  0  0
   -3.9126    3.3677    9.5493 N   0  0  0  0  0  0  0  0  0  0  0  0
   -4.5962    4.5081    9.1781 H   0  0  0  0  0  0  0  0  0  0  0  0
   -4.2630    3.5176   10.7969 C   0  0  0  0  0  0  0  0  0  0  0  0
   -3.5279    2.8820   11.8190 C   0  0  0  0  0  0  0  0  0  0  0  0
   -3.8216    2.9749   13.1285 C   0  0  0  0  0  0  0  0  0  0  0  0
   -4.9086    3.7297   13.5060 C   0  0  0  0  0  0  0  0  0  0  0  0
   -5.6642    4.3693   12.5846 N   0  0  0  0  0  0  0  0  0  0  0  0
   -5.3564    4.2746   11.2704 C   0  0  0  0  0  0  0  0  0  0  0  0
   -5.3094    3.8273   14.8760 N   0  0  0  0  0  0  0  0  0  0  0  0
   -6.4622    4.6280   15.2071 C   0  0  0  0  0  0  0  0  0  0  0  0
   -7.3360    4.0996   16.2840 C   0  0  0  0  0  0  0  0  0  0  0  0
   -6.7933    2.9457   17.0509 C   0  0  0  0  0  0  0  0  0  0  0  0
   -5.2730    2.9706   17.1715 C   0  0  0  0  0  0  0  0  0  0  0  0
   -4.5505    3.1593   15.8959 C   0  0  0  0  0  0  0  0  0  0  0  0
   -7.3043    2.7787   18.3650 N   0  0  0  0  0  0  0  0  0  0  0  0
   -7.9020    1.5219   18.6830 C   0  0  0  0  0  0  0  0  0  0  0  0
   -8.7640    2.2564   19.6901 C   0  0  0  0  0  0  0  0  0  0  0  0
   -8.4547    3.4685   18.8137 C   0  0  0  0  0  0  0  0  0  0  0  0
   -2.1657   -4.3074   12.1395 C   0  0  0  0  0  0  0  0  0  0  0  0
   -3.4698   -4.4020   12.8930 C   0  0  0  0  0  0  0  0  0  0  0  0
   -3.5635   -3.8980   14.1480 C   0  0  0  0  0  0  0  0  0  0  0  0
   -4.7831   -4.0316   14.8580 C   0  0  0  0  0  0  0  0  0  0  0  0
   -5.8633   -4.6775   14.2578 C   0  0  0  0  0  0  0  0  0  0  0  0
   -5.6503   -5.1635   12.9521 C   0  0  0  0  0  0  0  0  0  0  0  0
   -4.5148   -5.0409   12.2765 C   0  0  0  0  0  0  0  0  0  0  0  0
 18 19  2  0  0  0
 19 17  1  0  0  0
 17  1  1  0  0  0
  1  2  1  0  0  0
  2  3  1  0  0  0
  3  4  2  0  0  0
  3  5  1  0  0  0
  5  6  1  0  0  0
  6 20  1  0  0  0
 20 21  1  0  0  0
 21 22  2  0  0  0
 22 23  1  0  0  0
 23 24  2  0  0  0
 24 25  1  0  0  0
 24 26  1  0  0  0
 26 27  2  0  0  0
  6  7  1  0  0  0
  7  8  2  0  0  0
  7  9  1  0  0  0
  9 29  1  0  0  0
 29 30  1  0  0  0
 30 31  2  0  0  0
 31 32  1  0  0  0
 32 33  2  0  0  0
 33 34  1  0  0  0
 34 35  1  0  0  0
 35 40  1  0  0  0
 40 41  2  0  0  0
 40 42  1  0  0  0
 42 44  1  0  0  0
 44 45  2  0  0  0
 45 46  1  0  0  0
 46 47  2  0  0  0
 47 50  1  0  0  0
 50 51  1  0  0  0
 51 52  1  0  0  0
 52 53  1  0  0  0
 53 56  1  0  0  0
 56 57  1  0  0  0
 57 58  1  0  0  0
 58 59  1  0  0  0
 53 54  1  0  0  0
 54 55  1  0  0  0
 47 48  1  0  0  0
 48 49  2  0  0  0
 35 36  2  0  0  0
 36 37  1  0  0  0
 37 38  1  0  0  0
 37 39  1  0  0  0
  9 10  1  0  0  0
 10 11  1  0  0  0
 11 12  1  0  0  0
 12 13  1  0  0  0
 13 14  2  0  0  0
 13 15  1  0  0  0
 15 60  1  0  0  0
 60 61  1  0  0  0
 61 62  2  0  0  0
 62 63  1  0  0  0
 63 64  2  0  0  0
 64 65  1  0  0  0
 65 66  2  0  0  0
 12  1  1  0  0  0
 66 61  1  0  0  0
 11  5  1  0  0  0
 27 21  1  0  0  0
 39 30  1  0  0  0
 39 34  2  0  0  0
 49 44  1  0  0  0
 55 50  1  0  0  0
 59 56  1  0  0  0
 25 28  1  0  0  0
 42 43  1  0  0  0
 15 16  1  0  0  0
M  END
> <minimizedAffinity>
-7.53971

> <CNNscore>
0.0744817480

> <CNNaffinity>
6.6386766434

> <CNN_VS>
0.4944602549

> <CNNaffinity_variance>
0.7254157662

$$$$
[H]Oc1c([H])c([H])c(C([H])([H])[C@@]2([H])C(=O)N(C([H])([H])c3c([H])c([H])c([H])c4c(C(=O)N([H])c5c([H])nc(N6C([H])([H])C([H])([H])C([H])(N7C([H])([H])C([H])([H])C7([H])[H])C([H])([H])C6([H])[H])c([H])c5[H])c([H])n(C([H])([H])[H])c34)C([H])([H])[C@]3([H])N(C(=O)N([H])C([H])([H])c4c([H])c([H])c([H])c([H])c4[H])N(C([H])([H])C([H])=C([H])[H])C([H])([H])C(=O)N23)c([H])c1[H]


 66 74  0  0  0  0  0  0  0  0999 V2000
   -3.0878   -4.7020   15.0144 N   0  0  0  0  0  0  0  0  0  0  0  0
   -4.0013   -3.6313   14.6579 C   0  0  0  0  0  0  0  0  0  0  0  0
   -3.0835   -2.4207   14.6331 C   0  0  0  0  0  0  0  0  0  0  0  0
   -3.4413   -1.4289   15.2940 O   0  0  0  0  0  0  0  0  0  0  0  0
   -1.9088   -2.4727   13.8829 N   0  0  0  0  0  0  0  0  0  0  0  0
   -1.3046   -1.2707   13.3834 C   0  0  0  0  0  0  0  0  0  0  0  0
   -1.6429   -1.3256   11.9121 C   0  0  0  0  0  0  0  0  0  0  0  0
   -2.0136   -0.3310   11.3125 O   0  0  0  0  0  0  0  0  0  0  0  0
   -1.5095   -2.5720   11.2689 N   0  0  0  0  0  0  0  0  0  0  0  0
   -1.1422   -3.8054   12.0063 C   0  0  0  0  0  0  0  0  0  0  0  0
   -1.3187   -3.7236   13.4861 C   0  0  0  0  0  0  0  0  0  0  0  0
   -1.9946   -4.8271   14.1290 N   0  0  0  0  0  0  0  0  0  0  0  0
   -1.5642   -6.1745   13.9227 C   0  0  0  0  0  0  0  0  0  0  0  0
   -2.2576   -7.0896   14.4819 O   0  0  0  0  0  0  0  0  0  0  0  0
   -0.4623   -6.6111   13.1772 N   0  0  0  0  0  0  0  0  0  0  0  0
    0.1523   -5.9494   12.7025 H   0  0  0  0  0  0  0  0  0  0  0  0
   -2.6709   -4.3728   16.3691 C   0  0  0  0  0  0  0  0  0  0  0  0
   -4.1115   -6.1136   17.2561 C   0  0  0  0  0  0  0  0  0  0  0  0
   -3.4419   -5.0035   17.4136 C   0  0  0  0  0  0  0  0  0  0  0  0
    0.1327   -1.0491   13.5971 C   0  0  0  0  0  0  0  0  0  0  0  0
    0.5807   -0.2557   14.7443 C   0  0  0  0  0  0  0  0  0  0  0  0
    0.6017   -0.8126   16.0244 C   0  0  0  0  0  0  0  0  0  0  0  0
    0.9585   -0.0531   17.1180 C   0  0  0  0  0  0  0  0  0  0  0  0
    1.3079    1.2788   17.0167 C   0  0  0  0  0  0  0  0  0  0  0  0
    1.6582    1.9832   18.1530 O   0  0  0  0  0  0  0  0  0  0  0  0
    1.2873    1.8286   15.7654 C   0  0  0  0  0  0  0  0  0  0  0  0
    0.9286    1.0729   14.6493 C   0  0  0  0  0  0  0  0  0  0  0  0
    1.6720    1.5635   19.0762 H   0  0  0  0  0  0  0  0  0  0  0  0
   -1.7491   -2.7844    9.8404 C   0  0  0  0  0  0  0  0  0  0  0  0
   -2.7570   -3.8356    9.6709 C   0  0  0  0  0  0  0  0  0  0  0  0
   -3.7730   -4.0128   10.5733 C   0  0  0  0  0  0  0  0  0  0  0  0
   -4.6953   -5.0379   10.4515 C   0  0  0  0  0  0  0  0  0  0  0  0
   -4.6068   -5.9216    9.3916 C   0  0  0  0  0  0  0  0  0  0  0  0
   -3.5733   -5.7489    8.4621 C   0  0  0  0  0  0  0  0  0  0  0  0
   -3.2530   -6.4280    7.3346 C   0  0  0  0  0  0  0  0  0  0  0  0
   -2.1606   -5.8084    6.7985 C   0  0  0  0  0  0  0  0  0  0  0  0
   -1.7796   -4.7623    7.5525 N   0  0  0  0  0  0  0  0  0  0  0  0
   -0.6703   -3.8780    7.2950 C   0  0  0  0  0  0  0  0  0  0  0  0
   -2.6541   -4.7156    8.5978 C   0  0  0  0  0  0  0  0  0  0  0  0
   -3.8933   -7.6504    6.7379 C   0  0  0  0  0  0  0  0  0  0  0  0
   -3.1837   -8.4685    6.1146 O   0  0  0  0  0  0  0  0  0  0  0  0
   -5.2789   -7.7837    6.9425 N   0  0  0  0  0  0  0  0  0  0  0  0
   -5.1584   -9.0842    6.4955 H   0  0  0  0  0  0  0  0  0  0  0  0
   -6.5633   -7.9240    7.1225 C   0  0  0  0  0  0  0  0  0  0  0  0
   -7.1014   -9.1941    7.4162 C   0  0  0  0  0  0  0  0  0  0  0  0
   -8.4114   -9.4318    7.6091 C   0  0  0  0  0  0  0  0  0  0  0  0
   -9.2916   -8.3786    7.5105 C   0  0  0  0  0  0  0  0  0  0  0  0
   -8.8530   -7.1302    7.2308 N   0  0  0  0  0  0  0  0  0  0  0  0
   -7.5326   -6.9006    7.0448 C   0  0  0  0  0  0  0  0  0  0  0  0
  -10.7026   -8.5700    7.6504 N   0  0  0  0  0  0  0  0  0  0  0  0
  -11.4755   -7.5640    8.3361 C   0  0  0  0  0  0  0  0  0  0  0  0
  -12.8249   -7.2887    7.7832 C   0  0  0  0  0  0  0  0  0  0  0  0
  -13.3085   -8.2434    6.7493 C   0  0  0  0  0  0  0  0  0  0  0  0
  -12.7829   -9.6608    6.9525 C   0  0  0  0  0  0  0  0  0  0  0  0
  -11.3201   -9.7613    7.1388 C   0  0  0  0  0  0  0  0  0  0  0  0
  -14.7177   -8.3465    6.6108 N   0  0  0  0  0  0  0  0  0  0  0  0
  -15.3612   -7.4231    5.7327 C   0  0  0  0  0  0  0  0  0  0  0  0
  -16.6003   -7.5622    6.5941 C   0  0  0  0  0  0  0  0  0  0  0  0
  -15.6000   -8.0020    7.6613 C   0  0  0  0  0  0  0  0  0  0  0  0
   -0.1396   -8.0304   13.0586 C   0  0  0  0  0  0  0  0  0  0  0  0
   -0.4339   -8.5219   11.6624 C   0  0  0  0  0  0  0  0  0  0  0  0
   -0.5000   -9.8529   11.4143 C   0  0  0  0  0  0  0  0  0  0  0  0
   -0.7363  -10.2989   10.0897 C   0  0  0  0  0  0  0  0  0  0  0  0
   -0.8956   -9.3657    9.0659 C   0  0  0  0  0  0  0  0  0  0  0  0
   -0.8046   -8.0100    9.4402 C   0  0  0  0  0  0  0  0  0  0  0  0
   -0.5877   -7.5808   10.6770 C   0  0  0  0  0  0  0  0  0  0  0  0
 18 19  2  0  0  0
 19 17  1  0  0  0
 17  1  1  0  0  0
  1  2  1  0  0  0
  2  3  1  0  0  0
  3  4  2  0  0  0
  3  5  1  0  0  0
  5  6  1  0  0  0
  6 20  1  0  0  0
 20 21  1  0  0  0
 21 22  2  0  0  0
 22 23  1  0  0  0
 23 24  2  0  0  0
 24 25  1  0  0  0
 24 26  1  0  0  0
 26 27  2  0  0  0
  6  7  1  0  0  0
  7  8  2  0  0  0
  7  9  1  0  0  0
  9 29  1  0  0  0
 29 30  1  0  0  0
 30 31  2  0  0  0
 31 32  1  0  0  0
 32 33  2  0  0  0
 33 34  1  0  0  0
 34 35  1  0  0  0
 35 40  1  0  0  0
 40 41  2  0  0  0
 40 42  1  0  0  0
 42 44  1  0  0  0
 44 45  2  0  0  0
 45 46  1  0  0  0
 46 47  2  0  0  0
 47 50  1  0  0  0
 50 51  1  0  0  0
 51 52  1  0  0  0
 52 53  1  0  0  0
 53 56  1  0  0  0
 56 57  1  0  0  0
 57 58  1  0  0  0
 58 59  1  0  0  0
 53 54  1  0  0  0
 54 55  1  0  0  0
 47 48  1  0  0  0
 48 49  2  0  0  0
 35 36  2  0  0  0
 36 37  1  0  0  0
 37 38  1  0  0  0
 37 39  1  0  0  0
  9 10  1  0  0  0
 10 11  1  0  0  0
 11 12  1  0  0  0
 12 13  1  0  0  0
 13 14  2  0  0  0
 13 15  1  0  0  0
 15 60  1  0  0  0
 60 61  1  0  0  0
 61 62  2  0  0  0
 62 63  1  0  0  0
 63 64  2  0  0  0
 64 65  1  0  0  0
 65 66  2  0  0  0
 12  1  1  0  0  0
 66 61  1  0  0  0
 11  5  1  0  0  0
 27 21  1  0  0  0
 39 30  1  0  0  0
 39 34  2  0  0  0
 49 44  1  0  0  0
 55 50  1  0  0  0
 59 56  1  0  0  0
 25 28  1  0  0  0
 42 43  1  0  0  0
 15 16  1  0  0  0
M  END
> <minimizedAffinity>
-7.38893

> <CNNscore>
0.0730720311

> <CNNaffinity>
7.2563447952

> <CNN_VS>
0.5302358270

> <CNNaffinity_variance>
0.1611460000

$$$$
[H]c1nc(Oc2c([H])c([H])c(C(=O)N([H])C([H])([H])C([H])([H])N3C([H])([H])C([H])([H])C([H])([H])C3([H])[H])c([H])c2[H])c(N([H])S(=O)(=O)c2c([H])c([H])c(Cl)c(Cl)c2[H])c([H])c1Cl


 38 41  0  0  0  0  0  0  0  0999 V2000
  -10.7901   -7.4307    8.8232 C   0  0  0  0  0  0  0  0  0  0  0  0
  -10.4094   -6.1634    9.0657 N   0  0  0  0  0  0  0  0  0  0  0  0
  -11.1982   -5.3090    9.7237 C   0  0  0  0  0  0  0  0  0  0  0  0
  -12.4151   -5.7360   10.1575 C   0  0  0  0  0  0  0  0  0  0  0  0
  -13.4438   -4.6057   11.0205 Cl  0  0  0  0  0  0  0  0  0  0  0  0
  -12.8321   -7.0537    9.9157 C   0  0  0  0  0  0  0  0  0  0  0  0
  -12.0069   -7.9164    9.2369 C   0  0  0  0  0  0  0  0  0  0  0  0
  -12.3295   -9.2662    8.9668 N   0  0  0  0  0  0  0  0  0  0  0  0
  -12.0861  -10.0316    9.6623 H   0  0  0  0  0  0  0  0  0  0  0  0
  -13.1219   -9.6786    7.5032 S   0  0  0  0  0  0  0  0  0  0  0  0
  -12.0675   -9.8557    6.4182 O   0  0  0  0  0  0  0  0  0  0  0  0
  -13.8189  -11.0184    7.7284 O   0  0  0  0  0  0  0  0  0  0  0  0
  -14.2951   -8.5415    6.9541 C   0  0  0  0  0  0  0  0  0  0  0  0
  -15.5940   -8.5399    7.4741 C   0  0  0  0  0  0  0  0  0  0  0  0
  -16.4869   -7.6206    7.0036 C   0  0  0  0  0  0  0  0  0  0  0  0
  -16.1235   -6.7041    6.0311 C   0  0  0  0  0  0  0  0  0  0  0  0
  -17.2766   -5.5367    5.4393 Cl  0  0  0  0  0  0  0  0  0  0  0  0
  -14.8353   -6.7024    5.5121 C   0  0  0  0  0  0  0  0  0  0  0  0
  -14.4193   -5.5311    4.2889 Cl  0  0  0  0  0  0  0  0  0  0  0  0
  -13.9253   -7.6366    5.9895 C   0  0  0  0  0  0  0  0  0  0  0  0
   -9.9072   -8.2638    8.1281 O   0  0  0  0  0  0  0  0  0  0  0  0
   -6.1642   -6.8699    6.8433 C   0  0  0  0  0  0  0  0  0  0  0  0
   -6.2729   -7.7044    7.9658 C   0  0  0  0  0  0  0  0  0  0  0  0
   -7.5122   -8.1579    8.3814 C   0  0  0  0  0  0  0  0  0  0  0  0
   -8.6653   -7.8120    7.7181 C   0  0  0  0  0  0  0  0  0  0  0  0
   -8.5323   -6.9942    6.6233 C   0  0  0  0  0  0  0  0  0  0  0  0
   -7.3044   -6.5267    6.1869 C   0  0  0  0  0  0  0  0  0  0  0  0
   -3.8334   -7.1837    6.5742 O   0  0  0  0  0  0  0  0  0  0  0  0
   -4.8505   -6.4150    6.4149 C   0  0  0  0  0  0  0  0  0  0  0  0
   -4.6317   -5.1542    5.8243 N   0  0  0  0  0  0  0  0  0  0  0  0
   -5.4776   -4.5440    5.7064 H   0  0  0  0  0  0  0  0  0  0  0  0
   -3.3748   -4.6264    5.3757 C   0  0  0  0  0  0  0  0  0  0  0  0
   -3.6124   -3.6462    4.2601 C   0  0  0  0  0  0  0  0  0  0  0  0
   -2.4186   -3.4797    3.4825 N   0  0  0  0  0  0  0  0  0  0  0  0
   -2.5856   -2.8491    2.2181 C   0  0  0  0  0  0  0  0  0  0  0  0
   -2.4430   -3.9237    1.1531 C   0  0  0  0  0  0  0  0  0  0  0  0
   -1.5705   -4.9397    1.8333 C   0  0  0  0  0  0  0  0  0  0  0  0
   -1.6342   -4.6612    3.3123 C   0  0  0  0  0  0  0  0  0  0  0  0
 28 29  2  0  0  0
 29 30  1  0  0  0
 30 32  1  0  0  0
 32 33  1  0  0  0
 33 34  1  0  0  0
 34 35  1  0  0  0
 35 36  1  0  0  0
 36 37  1  0  0  0
 37 38  1  0  0  0
 29 22  1  0  0  0
 22 23  2  0  0  0
 23 24  1  0  0  0
 24 25  2  0  0  0
 25 21  1  0  0  0
 21  1  1  0  0  0
  1  2  2  0  0  0
  2  3  1  0  0  0
  3  4  2  0  0  0
  4  5  1  0  0  0
  4  6  1  0  0  0
  6  7  2  0  0  0
  7  8  1  0  0  0
  8 10  1  0  0  0
 10 11  2  0  0  0
 10 12  2  0  0  0
 10 13  1  0  0  0
 13 14  2  0  0  0
 14 15  1  0  0  0
 15 16  2  0  0  0
 16 17  1  0  0  0
 16 18  1  0  0  0
 18 19  1  0  0  0
 18 20  2  0  0  0
 25 26  1  0  0  0
 26 27  2  0  0  0
 38 34  1  0  0  0
 27 22  1  0  0  0
  7  1  1  0  0  0
 20 13  1  0  0  0
 30 31  1  0  0  0
  8  9  1  0  0  0
M  END
> <minimizedAffinity>
-8.79648

> <CNNscore>
0.6135233641

> <CNNaffinity>
7.6611738205

> <CNN_VS>
4.7003092766

> <CNNaffinity_variance>
0.1987729371

$$$$
[H]c1nc(Oc2c([H])c([H])c(C(=O)N([H])C([H])([H])C([H])([H])N3C([H])([H])C([H])([H])C([H])([H])C3([H])[H])c([H])c2[H])c(N([H])S(=O)(=O)c2c([H])c([H])c(Cl)c(Cl)c2[H])c([H])c1Cl


 38 41  0  0  0  0  0  0  0  0999 V2000
  -10.7779   -7.4583    8.8379 C   0  0  0  0  0  0  0  0  0  0  0  0
  -10.4081   -6.1908    9.0956 N   0  0  0  0  0  0  0  0  0  0  0  0
  -11.2157   -5.3427    9.7388 C   0  0  0  0  0  0  0  0  0  0  0  0
  -12.4409   -5.7765   10.1412 C   0  0  0  0  0  0  0  0  0  0  0  0
  -13.4944   -4.6545   10.9849 Cl  0  0  0  0  0  0  0  0  0  0  0  0
  -12.8469   -7.0945    9.8831 C   0  0  0  0  0  0  0  0  0  0  0  0
  -12.0024   -7.9507    9.2199 C   0  0  0  0  0  0  0  0  0  0  0  0
  -12.3131   -9.3003    8.9356 N   0  0  0  0  0  0  0  0  0  0  0  0
  -12.0522  -10.0721    9.6175 H   0  0  0  0  0  0  0  0  0  0  0  0
  -13.1193   -9.7020    7.4766 S   0  0  0  0  0  0  0  0  0  0  0  0
  -12.0743   -9.8825    6.3830 O   0  0  0  0  0  0  0  0  0  0  0  0
  -13.8237  -11.0378    7.7022 O   0  0  0  0  0  0  0  0  0  0  0  0
  -14.2888   -8.5550    6.9403 C   0  0  0  0  0  0  0  0  0  0  0  0
  -15.5814   -8.5415    7.4754 C   0  0  0  0  0  0  0  0  0  0  0  0
  -16.4716   -7.6147    7.0147 C   0  0  0  0  0  0  0  0  0  0  0  0
  -16.1115   -6.7021    6.0374 C   0  0  0  0  0  0  0  0  0  0  0  0
  -17.2611   -5.5250    5.4582 Cl  0  0  0  0  0  0  0  0  0  0  0  0
  -14.8295   -6.7121    5.5034 C   0  0  0  0  0  0  0  0  0  0  0  0
  -14.4175   -5.5453    4.2745 Cl  0  0  0  0  0  0  0  0  0  0  0  0
  -13.9223   -7.6540    5.9708 C   0  0  0  0  0  0  0  0  0  0  0  0
   -9.8754   -8.2845    8.1599 O   0  0  0  0  0  0  0  0  0  0  0  0
   -6.1488   -6.8553    6.8663 C   0  0  0  0  0  0  0  0  0  0  0  0
   -7.3237   -6.5267    6.1735 C   0  0  0  0  0  0  0  0  0  0  0  0
   -8.5474   -7.0039    6.6082 C   0  0  0  0  0  0  0  0  0  0  0  0
   -8.6543   -7.8057    7.7195 C   0  0  0  0  0  0  0  0  0  0  0  0
   -7.4902   -8.1132    8.3795 C   0  0  0  0  0  0  0  0  0  0  0  0
   -6.2534   -7.6489    7.9653 C   0  0  0  0  0  0  0  0  0  0  0  0
   -3.7971   -6.9930    6.6342 O   0  0  0  0  0  0  0  0  0  0  0  0
   -4.8739   -6.3322    6.4004 C   0  0  0  0  0  0  0  0  0  0  0  0
   -4.7562   -5.1183    5.6941 N   0  0  0  0  0  0  0  0  0  0  0  0
   -5.6494   -4.5963    5.5169 H   0  0  0  0  0  0  0  0  0  0  0  0
   -3.5437   -4.5296    5.2011 C   0  0  0  0  0  0  0  0  0  0  0  0
   -3.0368   -3.5206    6.1945 C   0  0  0  0  0  0  0  0  0  0  0  0
   -2.9658   -2.2214    5.5906 N   0  0  0  0  0  0  0  0  0  0  0  0
   -3.1233   -1.1178    6.4745 C   0  0  0  0  0  0  0  0  0  0  0  0
   -4.5013   -0.5285    6.2231 C   0  0  0  0  0  0  0  0  0  0  0  0
   -4.7623   -0.9137    4.7949 C   0  0  0  0  0  0  0  0  0  0  0  0
   -3.8115   -2.0317    4.4553 C   0  0  0  0  0  0  0  0  0  0  0  0
 28 29  2  0  0  0
 29 30  1  0  0  0
 30 32  1  0  0  0
 32 33  1  0  0  0
 33 34  1  0  0  0
 34 35  1  0  0  0
 35 36  1  0  0  0
 36 37  1  0  0  0
 37 38  1  0  0  0
 29 22  1  0  0  0
 22 23  2  0  0  0
 23 24  1  0  0  0
 24 25  2  0  0  0
 25 21  1  0  0  0
 21  1  1  0  0  0
  1  2  2  0  0  0
  2  3  1  0  0  0
  3  4  2  0  0  0
  4  5  1  0  0  0
  4  6  1  0  0  0
  6  7  2  0  0  0
  7  8  1  0  0  0
  8 10  1  0  0  0
 10 11  2  0  0  0
 10 12  2  0  0  0
 10 13  1  0  0  0
 13 14  2  0  0  0
 14 15  1  0  0  0
 15 16  2  0  0  0
 16 17  1  0  0  0
 16 18  1  0  0  0
 18 19  1  0  0  0
 18 20  2  0  0  0
 25 26  1  0  0  0
 26 27  2  0  0  0
 38 34  1  0  0  0
 27 22  1  0  0  0
  7  1  1  0  0  0
 20 13  1  0  0  0
 30 31  1  0  0  0
  8  9  1  0  0  0
M  END
> <minimizedAffinity>
-8.78556

> <CNNscore>
0.5987975597

> <CNNaffinity>
7.7919034958

> <CNN_VS>
4.6657729149

> <CNNaffinity_variance>
0.1837544739

$$$$
[H]c1nc(Oc2c([H])c([H])c(C(=O)N([H])C([H])([H])C([H])([H])N3C([H])([H])C([H])([H])C([H])([H])C3([H])[H])c([H])c2[H])c(N([H])S(=O)(=O)c2c([H])c([H])c(Cl)c(Cl)c2[H])c([H])c1Cl


 38 41  0  0  0  0  0  0  0  0999 V2000
  -10.4905   -7.4423    8.2291 C   0  0  0  0  0  0  0  0  0  0  0  0
  -10.0672   -6.6905    9.2612 N   0  0  0  0  0  0  0  0  0  0  0  0
  -10.9169   -5.9657    9.9946 C   0  0  0  0  0  0  0  0  0  0  0  0
  -12.2418   -5.9923    9.6863 C   0  0  0  0  0  0  0  0  0  0  0  0
  -13.3497   -5.0364   10.6555 Cl  0  0  0  0  0  0  0  0  0  0  0  0
  -12.7052   -6.7698    8.6141 C   0  0  0  0  0  0  0  0  0  0  0  0
  -11.8157   -7.5072    7.8719 C   0  0  0  0  0  0  0  0  0  0  0  0
  -12.1901   -8.3371    6.7903 N   0  0  0  0  0  0  0  0  0  0  0  0
  -11.4859   -8.6002    6.0395 H   0  0  0  0  0  0  0  0  0  0  0  0
  -13.7960   -8.9284    6.6836 S   0  0  0  0  0  0  0  0  0  0  0  0
  -13.8068  -10.1246    5.7404 O   0  0  0  0  0  0  0  0  0  0  0  0
  -14.1963   -9.4042    8.0782 O   0  0  0  0  0  0  0  0  0  0  0  0
  -14.9679   -7.7864    6.1420 C   0  0  0  0  0  0  0  0  0  0  0  0
  -16.3333   -7.9965    6.3636 C   0  0  0  0  0  0  0  0  0  0  0  0
  -17.2215   -7.0633    5.9122 C   0  0  0  0  0  0  0  0  0  0  0  0
  -16.7892   -5.9281    5.2472 C   0  0  0  0  0  0  0  0  0  0  0  0
  -17.9370   -4.7457    4.6753 Cl  0  0  0  0  0  0  0  0  0  0  0  0
  -15.4348   -5.7158    5.0250 C   0  0  0  0  0  0  0  0  0  0  0  0
  -14.9333   -4.2729    4.1836 Cl  0  0  0  0  0  0  0  0  0  0  0  0
  -14.5296   -6.6638    5.4835 C   0  0  0  0  0  0  0  0  0  0  0  0
   -9.5386   -8.1728    7.5101 O   0  0  0  0  0  0  0  0  0  0  0  0
   -5.6364   -6.7284    6.9716 C   0  0  0  0  0  0  0  0  0  0  0  0
   -5.9406   -7.5973    8.0303 C   0  0  0  0  0  0  0  0  0  0  0  0
   -7.2309   -8.0672    8.1992 C   0  0  0  0  0  0  0  0  0  0  0  0
   -8.2467   -7.7048    7.3472 C   0  0  0  0  0  0  0  0  0  0  0  0
   -7.9234   -6.8534    6.3196 C   0  0  0  0  0  0  0  0  0  0  0  0
   -6.6407   -6.3689    6.1287 C   0  0  0  0  0  0  0  0  0  0  0  0
   -3.3668   -7.0723    6.3931 O   0  0  0  0  0  0  0  0  0  0  0  0
   -4.2706   -6.2565    6.8038 C   0  0  0  0  0  0  0  0  0  0  0  0
   -3.8806   -4.9291    7.0723 N   0  0  0  0  0  0  0  0  0  0  0  0
   -4.6361   -4.2824    7.4080 H   0  0  0  0  0  0  0  0  0  0  0  0
   -2.5611   -4.3812    6.9364 C   0  0  0  0  0  0  0  0  0  0  0  0
   -2.2687   -3.4827    8.1065 C   0  0  0  0  0  0  0  0  0  0  0  0
   -2.8989   -3.9893    9.2913 N   0  0  0  0  0  0  0  0  0  0  0  0
   -3.5679   -3.0264   10.0973 C   0  0  0  0  0  0  0  0  0  0  0  0
   -2.7174   -2.8032   11.3368 C   0  0  0  0  0  0  0  0  0  0  0  0
   -1.9799   -4.1057   11.4621 C   0  0  0  0  0  0  0  0  0  0  0  0
   -2.0659   -4.7954   10.1257 C   0  0  0  0  0  0  0  0  0  0  0  0
 28 29  2  0  0  0
 29 30  1  0  0  0
 30 32  1  0  0  0
 32 33  1  0  0  0
 33 34  1  0  0  0
 34 35  1  0  0  0
 35 36  1  0  0  0
 36 37  1  0  0  0
 37 38  1  0  0  0
 29 22  1  0  0  0
 22 23  2  0  0  0
 23 24  1  0  0  0
 24 25  2  0  0  0
 25 21  1  0  0  0
 21  1  1  0  0  0
  1  2  2  0  0  0
  2  3  1  0  0  0
  3  4  2  0  0  0
  4  5  1  0  0  0
  4  6  1  0  0  0
  6  7  2  0  0  0
  7  8  1  0  0  0
  8 10  1  0  0  0
 10 11  2  0  0  0
 10 12  2  0  0  0
 10 13  1  0  0  0
 13 14  2  0  0  0
 14 15  1  0  0  0
 15 16  2  0  0  0
 16 17  1  0  0  0
 16 18  1  0  0  0
 18 19  1  0  0  0
 18 20  2  0  0  0
 25 26  1  0  0  0
 26 27  2  0  0  0
 38 34  1  0  0  0
 27 22  1  0  0  0
  7  1  1  0  0  0
 20 13  1  0  0  0
 30 31  1  0  0  0
  8  9  1  0  0  0
M  END
> <minimizedAffinity>
-8.21905

> <CNNscore>
0.5761680007

> <CNNaffinity>
7.6896080971

> <CNN_VS>
4.4305062294

> <CNNaffinity_variance>
0.1645655036

$$$$
[H]c1nc(Oc2c([H])c([H])c(C(=O)N([H])C([H])([H])C([H])([H])N3C([H])([H])C([H])([H])C([H])([H])C3([H])[H])c([H])c2[H])c(N([H])S(=O)(=O)c2c([H])c([H])c(Cl)c(Cl)c2[H])c([H])c1Cl


 38 41  0  0  0  0  0  0  0  0999 V2000
  -10.7812   -7.4986    8.8217 C   0  0  0  0  0  0  0  0  0  0  0  0
  -10.3903   -6.2367    9.0761 N   0  0  0  0  0  0  0  0  0  0  0  0
  -11.1842   -5.3732    9.7159 C   0  0  0  0  0  0  0  0  0  0  0  0
  -12.4169   -5.7851   10.1184 C   0  0  0  0  0  0  0  0  0  0  0  0
  -13.4521   -4.6430   10.9577 Cl  0  0  0  0  0  0  0  0  0  0  0  0
  -12.8448   -7.0969    9.8637 C   0  0  0  0  0  0  0  0  0  0  0  0
  -12.0142   -7.9691    9.2040 C   0  0  0  0  0  0  0  0  0  0  0  0
  -12.3473   -9.3142    8.9233 N   0  0  0  0  0  0  0  0  0  0  0  0
  -12.1056  -10.0875    9.6106 H   0  0  0  0  0  0  0  0  0  0  0  0
  -13.1500   -9.7079    7.4602 S   0  0  0  0  0  0  0  0  0  0  0  0
  -12.1020   -9.8871    6.3693 O   0  0  0  0  0  0  0  0  0  0  0  0
  -13.8590  -11.0425    7.6784 O   0  0  0  0  0  0  0  0  0  0  0  0
  -14.3144   -8.5554    6.9247 C   0  0  0  0  0  0  0  0  0  0  0  0
  -15.6064   -8.5353    7.4613 C   0  0  0  0  0  0  0  0  0  0  0  0
  -16.4925   -7.6043    7.0011 C   0  0  0  0  0  0  0  0  0  0  0  0
  -16.1290   -6.6940    6.0229 C   0  0  0  0  0  0  0  0  0  0  0  0
  -17.2735   -5.5115    5.4445 Cl  0  0  0  0  0  0  0  0  0  0  0  0
  -14.8478   -6.7105    5.4875 C   0  0  0  0  0  0  0  0  0  0  0  0
  -14.4314   -5.5464    4.2576 Cl  0  0  0  0  0  0  0  0  0  0  0  0
  -13.9447   -7.6566    5.9544 C   0  0  0  0  0  0  0  0  0  0  0  0
   -9.8921   -8.3419    8.1471 O   0  0  0  0  0  0  0  0  0  0  0  0
   -6.1992   -6.9242    6.7487 C   0  0  0  0  0  0  0  0  0  0  0  0
   -6.2645   -7.7981    7.8443 C   0  0  0  0  0  0  0  0  0  0  0  0
   -7.4876   -8.2591    8.2978 C   0  0  0  0  0  0  0  0  0  0  0  0
   -8.6662   -7.8828    7.6990 C   0  0  0  0  0  0  0  0  0  0  0  0
   -8.5754   -7.0268    6.6294 C   0  0  0  0  0  0  0  0  0  0  0  0
   -7.3645   -6.5510    6.1561 C   0  0  0  0  0  0  0  0  0  0  0  0
   -3.8686   -7.2066    6.4449 O   0  0  0  0  0  0  0  0  0  0  0  0
   -4.9023   -6.4618    6.2792 C   0  0  0  0  0  0  0  0  0  0  0  0
   -4.7175   -5.2187    5.6412 N   0  0  0  0  0  0  0  0  0  0  0  0
   -5.5764   -4.6278    5.5189 H   0  0  0  0  0  0  0  0  0  0  0  0
   -3.4791   -4.6851    5.1501 C   0  0  0  0  0  0  0  0  0  0  0  0
   -3.3421   -3.2528    5.5877 C   0  0  0  0  0  0  0  0  0  0  0  0
   -2.3911   -3.1488    6.6565 N   0  0  0  0  0  0  0  0  0  0  0  0
   -1.2241   -3.9525    6.5279 C   0  0  0  0  0  0  0  0  0  0  0  0
   -1.3509   -5.0976    7.5189 C   0  0  0  0  0  0  0  0  0  0  0  0
   -2.2425   -4.5130    8.5769 C   0  0  0  0  0  0  0  0  0  0  0  0
   -2.9298   -3.3186    7.9684 C   0  0  0  0  0  0  0  0  0  0  0  0
 28 29  2  0  0  0
 29 30  1  0  0  0
 30 32  1  0  0  0
 32 33  1  0  0  0
 33 34  1  0  0  0
 34 35  1  0  0  0
 35 36  1  0  0  0
 36 37  1  0  0  0
 37 38  1  0  0  0
 29 22  1  0  0  0
 22 23  2  0  0  0
 23 24  1  0  0  0
 24 25  2  0  0  0
 25 21  1  0  0  0
 21  1  1  0  0  0
  1  2  2  0  0  0
  2  3  1  0  0  0
  3  4  2  0  0  0
  4  5  1  0  0  0
  4  6  1  0  0  0
  6  7  2  0  0  0
  7  8  1  0  0  0
  8 10  1  0  0  0
 10 11  2  0  0  0
 10 12  2  0  0  0
 10 13  1  0  0  0
 13 14  2  0  0  0
 14 15  1  0  0  0
 15 16  2  0  0  0
 16 17  1  0  0  0
 16 18  1  0  0  0
 18 19  1  0  0  0
 18 20  2  0  0  0
 25 26  1  0  0  0
 26 27  2  0  0  0
 38 34  1  0  0  0
 27 22  1  0  0  0
  7  1  1  0  0  0
 20 13  1  0  0  0
 30 31  1  0  0  0
  8  9  1  0  0  0
M  END
> <minimizedAffinity>
-8.45370

> <CNNscore>
0.5355134010

> <CNNaffinity>
7.6638541222

> <CNN_VS>
4.1040964127

> <CNNaffinity_variance>
0.1394417882

$$$$
[H]c1nc(Oc2c([H])c([H])c(C(=O)N([H])C([H])([H])C([H])([H])N3C([H])([H])C([H])([H])C([H])([H])C3([H])[H])c([H])c2[H])c(N([H])S(=O)(=O)c2c([H])c([H])c(Cl)c(Cl)c2[H])c([H])c1Cl


 38 41  0  0  0  0  0  0  0  0999 V2000
  -10.5900   -7.5459    8.2132 C   0  0  0  0  0  0  0  0  0  0  0  0
  -10.1557   -6.8205    9.2596 N   0  0  0  0  0  0  0  0  0  0  0  0
  -10.9950   -6.0996   10.0086 C   0  0  0  0  0  0  0  0  0  0  0  0
  -12.3205   -6.1027    9.7016 C   0  0  0  0  0  0  0  0  0  0  0  0
  -13.4147   -5.1521   10.6914 Cl  0  0  0  0  0  0  0  0  0  0  0  0
  -12.7953   -6.8524    8.6147 C   0  0  0  0  0  0  0  0  0  0  0  0
  -11.9163   -7.5863    7.8567 C   0  0  0  0  0  0  0  0  0  0  0  0
  -12.3028   -8.3894    6.7592 N   0  0  0  0  0  0  0  0  0  0  0  0
  -11.6015   -8.6513    6.0053 H   0  0  0  0  0  0  0  0  0  0  0  0
  -13.9188   -8.9498    6.6381 S   0  0  0  0  0  0  0  0  0  0  0  0
  -13.9482  -10.1297    5.6751 O   0  0  0  0  0  0  0  0  0  0  0  0
  -14.3319   -9.4415    8.0234 O   0  0  0  0  0  0  0  0  0  0  0  0
  -15.0683   -7.7780    6.1125 C   0  0  0  0  0  0  0  0  0  0  0  0
  -16.4373   -7.9635    6.3335 C   0  0  0  0  0  0  0  0  0  0  0  0
  -17.3072   -7.0071    5.8951 C   0  0  0  0  0  0  0  0  0  0  0  0
  -16.8531   -5.8727    5.2435 C   0  0  0  0  0  0  0  0  0  0  0  0
  -17.9777   -4.6605    4.6879 Cl  0  0  0  0  0  0  0  0  0  0  0  0
  -15.4950   -5.6847    5.0219 C   0  0  0  0  0  0  0  0  0  0  0  0
  -14.9658   -4.2419    4.1975 Cl  0  0  0  0  0  0  0  0  0  0  0  0
  -14.6083   -6.6563    5.4673 C   0  0  0  0  0  0  0  0  0  0  0  0
   -9.6485   -8.2742    7.4784 O   0  0  0  0  0  0  0  0  0  0  0  0
   -5.6727   -6.9749    7.1499 C   0  0  0  0  0  0  0  0  0  0  0  0
   -6.0202   -8.0060    8.0356 C   0  0  0  0  0  0  0  0  0  0  0  0
   -7.3344   -8.4264    8.1366 C   0  0  0  0  0  0  0  0  0  0  0  0
   -8.3328   -7.8568    7.3828 C   0  0  0  0  0  0  0  0  0  0  0  0
   -7.9671   -6.8497    6.5242 C   0  0  0  0  0  0  0  0  0  0  0  0
   -6.6596   -6.4105    6.4043 C   0  0  0  0  0  0  0  0  0  0  0  0
   -3.7749   -5.8254    7.9750 O   0  0  0  0  0  0  0  0  0  0  0  0
   -4.2829   -6.5570    7.0489 C   0  0  0  0  0  0  0  0  0  0  0  0
   -3.4508   -6.9189    5.9706 N   0  0  0  0  0  0  0  0  0  0  0  0
   -3.8890   -7.5152    5.2262 H   0  0  0  0  0  0  0  0  0  0  0  0
   -2.0752   -6.5512    5.7908 C   0  0  0  0  0  0  0  0  0  0  0  0
   -1.1951   -7.7227    6.1295 C   0  0  0  0  0  0  0  0  0  0  0  0
   -1.9332   -8.9475    6.0168 N   0  0  0  0  0  0  0  0  0  0  0  0
   -1.9687   -9.7593    7.1846 C   0  0  0  0  0  0  0  0  0  0  0  0
   -1.0612  -10.9525    6.9350 C   0  0  0  0  0  0  0  0  0  0  0  0
   -1.0932  -11.0759    5.4384 C   0  0  0  0  0  0  0  0  0  0  0  0
   -1.5913   -9.7624    4.8947 C   0  0  0  0  0  0  0  0  0  0  0  0
 28 29  2  0  0  0
 29 30  1  0  0  0
 30 32  1  0  0  0
 32 33  1  0  0  0
 33 34  1  0  0  0
 34 35  1  0  0  0
 35 36  1  0  0  0
 36 37  1  0  0  0
 37 38  1  0  0  0
 29 22  1  0  0  0
 22 23  2  0  0  0
 23 24  1  0  0  0
 24 25  2  0  0  0
 25 21  1  0  0  0
 21  1  1  0  0  0
  1  2  2  0  0  0
  2  3  1  0  0  0
  3  4  2  0  0  0
  4  5  1  0  0  0
  4  6  1  0  0  0
  6  7  2  0  0  0
  7  8  1  0  0  0
  8 10  1  0  0  0
 10 11  2  0  0  0
 10 12  2  0  0  0
 10 13  1  0  0  0
 13 14  2  0  0  0
 14 15  1  0  0  0
 15 16  2  0  0  0
 16 17  1  0  0  0
 16 18  1  0  0  0
 18 19  1  0  0  0
 18 20  2  0  0  0
 25 26  1  0  0  0
 26 27  2  0  0  0
 38 34  1  0  0  0
 27 22  1  0  0  0
  7  1  1  0  0  0
 20 13  1  0  0  0
 30 31  1  0  0  0
  8  9  1  0  0  0
M  END
> <minimizedAffinity>
-8.33039

> <CNNscore>
0.4628222287

> <CNNaffinity>
7.5060181618

> <CNN_VS>
3.4739520550

> <CNNaffinity_variance>
0.3369040191

$$$$
[H]c1nc(Oc2c([H])c([H])c(C(=O)N([H])C([H])([H])C([H])([H])N3C([H])([H])C([H])([H])C([H])([H])C3([H])[H])c([H])c2[H])c(N([H])S(=O)(=O)c2c([H])c([H])c(Cl)c(Cl)c2[H])c([H])c1Cl


 38 41  0  0  0  0  0  0  0  0999 V2000
  -10.5631   -7.4848    8.5340 C   0  0  0  0  0  0  0  0  0  0  0  0
  -10.1868   -6.7769    9.6142 N   0  0  0  0  0  0  0  0  0  0  0  0
  -11.0431   -5.9844   10.2653 C   0  0  0  0  0  0  0  0  0  0  0  0
  -12.3261   -5.8949    9.8212 C   0  0  0  0  0  0  0  0  0  0  0  0
  -13.4430   -4.8508   10.6832 Cl  0  0  0  0  0  0  0  0  0  0  0  0
  -12.7401   -6.6248    8.6967 C   0  0  0  0  0  0  0  0  0  0  0  0
  -11.8444   -7.4333    8.0408 C   0  0  0  0  0  0  0  0  0  0  0  0
  -12.1738   -8.2231    6.9154 N   0  0  0  0  0  0  0  0  0  0  0  0
  -11.4496   -8.4268    6.1651 H   0  0  0  0  0  0  0  0  0  0  0  0
  -13.7569   -8.8618    6.7540 S   0  0  0  0  0  0  0  0  0  0  0  0
  -13.7026  -10.0469    5.7984 O   0  0  0  0  0  0  0  0  0  0  0  0
  -14.1838   -9.3655    8.1308 O   0  0  0  0  0  0  0  0  0  0  0  0
  -14.9467   -7.7499    6.1893 C   0  0  0  0  0  0  0  0  0  0  0  0
  -16.3095   -7.9854    6.4011 C   0  0  0  0  0  0  0  0  0  0  0  0
  -17.2123   -7.0754    5.9315 C   0  0  0  0  0  0  0  0  0  0  0  0
  -16.7970   -5.9390    5.2577 C   0  0  0  0  0  0  0  0  0  0  0  0
  -17.9632   -4.7865    4.6624 Cl  0  0  0  0  0  0  0  0  0  0  0  0
  -15.4453   -5.7016    5.0452 C   0  0  0  0  0  0  0  0  0  0  0  0
  -14.9654   -4.2581    4.1922 Cl  0  0  0  0  0  0  0  0  0  0  0  0
  -14.5252   -6.6259    5.5223 C   0  0  0  0  0  0  0  0  0  0  0  0
   -9.6075   -8.2919    7.9078 O   0  0  0  0  0  0  0  0  0  0  0  0
   -5.9276   -6.7143    6.6536 C   0  0  0  0  0  0  0  0  0  0  0  0
   -5.9939   -7.6161    7.7262 C   0  0  0  0  0  0  0  0  0  0  0  0
   -7.2127   -8.1299    8.1321 C   0  0  0  0  0  0  0  0  0  0  0  0
   -8.3859   -7.7801    7.5073 C   0  0  0  0  0  0  0  0  0  0  0  0
   -8.2943   -6.8958    6.4609 C   0  0  0  0  0  0  0  0  0  0  0  0
   -7.0876   -6.3672    6.0353 C   0  0  0  0  0  0  0  0  0  0  0  0
   -3.5699   -6.8632    6.5024 O   0  0  0  0  0  0  0  0  0  0  0  0
   -4.6347   -6.1961    6.2339 C   0  0  0  0  0  0  0  0  0  0  0  0
   -4.4866   -4.9805    5.5363 N   0  0  0  0  0  0  0  0  0  0  0  0
   -5.3706   -4.4533    5.3302 H   0  0  0  0  0  0  0  0  0  0  0  0
   -3.2549   -4.3964    5.0875 C   0  0  0  0  0  0  0  0  0  0  0  0
   -3.2736   -2.9173    5.3594 C   0  0  0  0  0  0  0  0  0  0  0  0
   -4.1961   -2.2619    4.4779 N   0  0  0  0  0  0  0  0  0  0  0  0
   -3.7443   -2.0650    3.1432 C   0  0  0  0  0  0  0  0  0  0  0  0
   -3.4304   -0.5866    2.9843 C   0  0  0  0  0  0  0  0  0  0  0  0
   -4.3299    0.0470    4.0069 C   0  0  0  0  0  0  0  0  0  0  0  0
   -4.7405   -1.0364    4.9696 C   0  0  0  0  0  0  0  0  0  0  0  0
 28 29  2  0  0  0
 29 30  1  0  0  0
 30 32  1  0  0  0
 32 33  1  0  0  0
 33 34  1  0  0  0
 34 35  1  0  0  0
 35 36  1  0  0  0
 36 37  1  0  0  0
 37 38  1  0  0  0
 29 22  1  0  0  0
 22 23  2  0  0  0
 23 24  1  0  0  0
 24 25  2  0  0  0
 25 21  1  0  0  0
 21  1  1  0  0  0
  1  2  2  0  0  0
  2  3  1  0  0  0
  3  4  2  0  0  0
  4  5  1  0  0  0
  4  6  1  0  0  0
  6  7  2  0  0  0
  7  8  1  0  0  0
  8 10  1  0  0  0
 10 11  2  0  0  0
 10 12  2  0  0  0
 10 13  1  0  0  0
 13 14  2  0  0  0
 14 15  1  0  0  0
 15 16  2  0  0  0
 16 17  1  0  0  0
 16 18  1  0  0  0
 18 19  1  0  0  0
 18 20  2  0  0  0
 25 26  1  0  0  0
 26 27  2  0  0  0
 38 34  1  0  0  0
 27 22  1  0  0  0
  7  1  1  0  0  0
 20 13  1  0  0  0
 30 31  1  0  0  0
  8  9  1  0  0  0
M  END
> <minimizedAffinity>
-8.64292

> <CNNscore>
0.4117802680

> <CNNaffinity>
7.4956727028

> <CNN_VS>
3.0865700245

> <CNNaffinity_variance>
0.1836275309

$$$$
[H]c1nc(Oc2c([H])c([H])c(C(=O)N([H])C([H])([H])C([H])([H])N3C([H])([H])C([H])([H])C([H])([H])C3([H])[H])c([H])c2[H])c(N([H])S(=O)(=O)c2c([H])c([H])c(Cl)c(Cl)c2[H])c([H])c1Cl


 38 41  0  0  0  0  0  0  0  0999 V2000
   -7.4440   -7.5110    8.1270 C   0  0  0  0  0  0  0  0  0  0  0  0
   -8.3577   -7.2946    7.1636 N   0  0  0  0  0  0  0  0  0  0  0  0
   -9.6074   -6.9223    7.4547 C   0  0  0  0  0  0  0  0  0  0  0  0
   -9.9596   -6.7591    8.7587 C   0  0  0  0  0  0  0  0  0  0  0  0
  -11.6039   -6.2703    9.1304 Cl  0  0  0  0  0  0  0  0  0  0  0  0
   -9.0225   -6.9793    9.7795 C   0  0  0  0  0  0  0  0  0  0  0  0
   -7.7430   -7.3622    9.4597 C   0  0  0  0  0  0  0  0  0  0  0  0
   -6.7252   -7.5842   10.4155 N   0  0  0  0  0  0  0  0  0  0  0  0
   -6.7045   -8.4790   10.9879 H   0  0  0  0  0  0  0  0  0  0  0  0
   -5.5083   -6.4007   10.6579 S   0  0  0  0  0  0  0  0  0  0  0  0
   -4.2935   -6.7809    9.8210 O   0  0  0  0  0  0  0  0  0  0  0  0
   -6.0592   -5.0735   10.1416 O   0  0  0  0  0  0  0  0  0  0  0  0
   -5.0074   -6.1820   12.2925 C   0  0  0  0  0  0  0  0  0  0  0  0
   -3.7028   -6.4906   12.6927 C   0  0  0  0  0  0  0  0  0  0  0  0
   -3.3566   -6.3023   13.9998 C   0  0  0  0  0  0  0  0  0  0  0  0
   -4.2716   -5.8161   14.9185 C   0  0  0  0  0  0  0  0  0  0  0  0
   -3.8140   -5.5824   16.5854 Cl  0  0  0  0  0  0  0  0  0  0  0  0
   -5.5676   -5.5086   14.5255 C   0  0  0  0  0  0  0  0  0  0  0  0
   -6.6882   -4.8986   15.7144 Cl  0  0  0  0  0  0  0  0  0  0  0  0
   -5.9219   -5.6992   13.1963 C   0  0  0  0  0  0  0  0  0  0  0  0
   -6.1565   -7.8984    7.7409 O   0  0  0  0  0  0  0  0  0  0  0  0
   -3.8705   -5.4732    5.1921 C   0  0  0  0  0  0  0  0  0  0  0  0
   -3.2657   -6.4826    5.9560 C   0  0  0  0  0  0  0  0  0  0  0  0
   -4.0287   -7.2763    6.7938 C   0  0  0  0  0  0  0  0  0  0  0  0
   -5.3881   -7.1067    6.9059 C   0  0  0  0  0  0  0  0  0  0  0  0
   -5.9558   -6.1121    6.1485 C   0  0  0  0  0  0  0  0  0  0  0  0
   -5.2150   -5.3042    5.3027 C   0  0  0  0  0  0  0  0  0  0  0  0
   -3.2969   -4.6558    3.0458 O   0  0  0  0  0  0  0  0  0  0  0  0
   -3.0522   -4.6586    4.3072 C   0  0  0  0  0  0  0  0  0  0  0  0
   -1.9875   -3.8589    4.7689 N   0  0  0  0  0  0  0  0  0  0  0  0
   -1.8064   -3.8794    5.8026 H   0  0  0  0  0  0  0  0  0  0  0  0
   -1.1316   -3.0295    3.9694 C   0  0  0  0  0  0  0  0  0  0  0  0
   -1.0637   -1.6528    4.5711 C   0  0  0  0  0  0  0  0  0  0  0  0
   -1.8354   -0.7305    3.7892 N   0  0  0  0  0  0  0  0  0  0  0  0
   -2.9133   -0.0948    4.4663 C   0  0  0  0  0  0  0  0  0  0  0  0
   -4.2011   -0.7181    3.9541 C   0  0  0  0  0  0  0  0  0  0  0  0
   -3.8112   -1.1838    2.5803 C   0  0  0  0  0  0  0  0  0  0  0  0
   -2.3064   -1.2380    2.5399 C   0  0  0  0  0  0  0  0  0  0  0  0
 28 29  2  0  0  0
 29 30  1  0  0  0
 30 32  1  0  0  0
 32 33  1  0  0  0
 33 34  1  0  0  0
 34 35  1  0  0  0
 35 36  1  0  0  0
 36 37  1  0  0  0
 37 38  1  0  0  0
 29 22  1  0  0  0
 22 23  2  0  0  0
 23 24  1  0  0  0
 24 25  2  0  0  0
 25 21  1  0  0  0
 21  1  1  0  0  0
  1  2  2  0  0  0
  2  3  1  0  0  0
  3  4  2  0  0  0
  4  5  1  0  0  0
  4  6  1  0  0  0
  6  7  2  0  0  0
  7  8  1  0  0  0
  8 10  1  0  0  0
 10 11  2  0  0  0
 10 12  2  0  0  0
 10 13  1  0  0  0
 13 14  2  0  0  0
 14 15  1  0  0  0
 15 16  2  0  0  0
 16 17  1  0  0  0
 16 18  1  0  0  0
 18 19  1  0  0  0
 18 20  2  0  0  0
 25 26  1  0  0  0
 26 27  2  0  0  0
 38 34  1  0  0  0
 27 22  1  0  0  0
  7  1  1  0  0  0
 20 13  1  0  0  0
 30 31  1  0  0  0
  8  9  1  0  0  0
M  END
> <minimizedAffinity>
4.95488

> <CNNscore>
0.3799765408

> <CNNaffinity>
6.2696766853

> <CNN_VS>
2.3823299408

> <CNNaffinity_variance>
0.8378431201

$$$$
[H]c1nc(Oc2c([H])c([H])c(C(=O)N([H])C([H])([H])C([H])([H])N3C([H])([H])C([H])([H])C([H])([H])C3([H])[H])c([H])c2[H])c(N([H])S(=O)(=O)c2c([H])c([H])c(Cl)c(Cl)c2[H])c([H])c1Cl


 38 41  0  0  0  0  0  0  0  0999 V2000
  -13.8744   -6.8067    6.9997 C   0  0  0  0  0  0  0  0  0  0  0  0
  -13.8095   -6.0733    5.8738 N   0  0  0  0  0  0  0  0  0  0  0  0
  -14.4602   -6.4347    4.7642 C   0  0  0  0  0  0  0  0  0  0  0  0
  -15.2056   -7.5728    4.7785 C   0  0  0  0  0  0  0  0  0  0  0  0
  -16.0560   -8.0389    3.3156 Cl  0  0  0  0  0  0  0  0  0  0  0  0
  -15.2874   -8.3527    5.9420 C   0  0  0  0  0  0  0  0  0  0  0  0
  -14.6106   -7.9645    7.0721 C   0  0  0  0  0  0  0  0  0  0  0  0
  -14.6510   -8.6710    8.2961 N   0  0  0  0  0  0  0  0  0  0  0  0
  -15.3494   -8.4069    9.0520 H   0  0  0  0  0  0  0  0  0  0  0  0
  -13.5642   -9.9688    8.5695 S   0  0  0  0  0  0  0  0  0  0  0  0
  -13.0788   -9.8946   10.0115 O   0  0  0  0  0  0  0  0  0  0  0  0
  -14.3517  -11.2642    8.3868 O   0  0  0  0  0  0  0  0  0  0  0  0
  -12.1932  -10.0149    7.5259 C   0  0  0  0  0  0  0  0  0  0  0  0
  -12.3452   -9.9692    6.1359 C   0  0  0  0  0  0  0  0  0  0  0  0
  -11.2276  -10.0115    5.3529 C   0  0  0  0  0  0  0  0  0  0  0  0
   -9.9647  -10.0980    5.9142 C   0  0  0  0  0  0  0  0  0  0  0  0
   -8.5466  -10.1527    4.8999 Cl  0  0  0  0  0  0  0  0  0  0  0  0
   -9.8094  -10.1438    7.2935 C   0  0  0  0  0  0  0  0  0  0  0  0
   -8.2010  -10.2525    7.9590 Cl  0  0  0  0  0  0  0  0  0  0  0  0
  -10.9448  -10.1006    8.0919 C   0  0  0  0  0  0  0  0  0  0  0  0
  -13.1647   -6.3612    8.1198 O   0  0  0  0  0  0  0  0  0  0  0  0
   -8.9935   -6.7733    8.3071 C   0  0  0  0  0  0  0  0  0  0  0  0
   -9.7504   -6.5944    9.4747 C   0  0  0  0  0  0  0  0  0  0  0  0
  -11.1254   -6.4589    9.4016 C   0  0  0  0  0  0  0  0  0  0  0  0
  -11.7897   -6.4946    8.1989 C   0  0  0  0  0  0  0  0  0  0  0  0
  -11.0266   -6.6702    7.0711 C   0  0  0  0  0  0  0  0  0  0  0  0
   -9.6497   -6.8082    7.1168 C   0  0  0  0  0  0  0  0  0  0  0  0
   -7.0623   -7.7762    9.2388 O   0  0  0  0  0  0  0  0  0  0  0  0
   -7.5504   -6.9274    8.4069 C   0  0  0  0  0  0  0  0  0  0  0  0
   -6.6448   -6.1819    7.6256 N   0  0  0  0  0  0  0  0  0  0  0  0
   -7.0677   -5.4941    6.9549 H   0  0  0  0  0  0  0  0  0  0  0  0
   -5.2127   -6.2682    7.6604 C   0  0  0  0  0  0  0  0  0  0  0  0
   -4.6838   -6.3892    6.2577 C   0  0  0  0  0  0  0  0  0  0  0  0
   -3.4306   -5.7016    6.1383 N   0  0  0  0  0  0  0  0  0  0  0  0
   -3.0609   -4.8905    7.2472 C   0  0  0  0  0  0  0  0  0  0  0  0
   -3.2422   -3.4408    6.8289 C   0  0  0  0  0  0  0  0  0  0  0  0
   -3.0718   -3.5104    5.3382 C   0  0  0  0  0  0  0  0  0  0  0  0
   -3.2619   -4.9495    4.9359 C   0  0  0  0  0  0  0  0  0  0  0  0
 28 29  2  0  0  0
 29 30  1  0  0  0
 30 32  1  0  0  0
 32 33  1  0  0  0
 33 34  1  0  0  0
 34 35  1  0  0  0
 35 36  1  0  0  0
 36 37  1  0  0  0
 37 38  1  0  0  0
 29 22  1  0  0  0
 22 23  2  0  0  0
 23 24  1  0  0  0
 24 25  2  0  0  0
 25 21  1  0  0  0
 21  1  1  0  0  0
  1  2  2  0  0  0
  2  3  1  0  0  0
  3  4  2  0  0  0
  4  5  1  0  0  0
  4  6  1  0  0  0
  6  7  2  0  0  0
  7  8  1  0  0  0
  8 10  1  0  0  0
 10 11  2  0  0  0
 10 12  2  0  0  0
 10 13  1  0  0  0
 13 14  2  0  0  0
 14 15  1  0  0  0
 15 16  2  0  0  0
 16 17  1  0  0  0
 16 18  1  0  0  0
 18 19  1  0  0  0
 18 20  2  0  0  0
 25 26  1  0  0  0
 26 27  2  0  0  0
 38 34  1  0  0  0
 27 22  1  0  0  0
  7  1  1  0  0  0
 20 13  1  0  0  0
 30 31  1  0  0  0
  8  9  1  0  0  0
M  END
> <minimizedAffinity>
1.42132

> <CNNscore>
0.3215546906

> <CNNaffinity>
7.1735396385

> <CNN_VS>
2.3066852093

> <CNNaffinity_variance>
0.1751581132

$$$$
[H]c1nc(Oc2c([H])c([H])c(C(=O)N([H])C([H])([H])C([H])([H])N3C([H])([H])C([H])([H])C([H])([H])C3([H])[H])c([H])c2[H])c(N([H])S(=O)(=O)c2c([H])c([H])c(Cl)c(Cl)c2[H])c([H])c1Cl


 38 41  0  0  0  0  0  0  0  0999 V2000
  -13.5255   -7.1671   10.1432 C   0  0  0  0  0  0  0  0  0  0  0  0
  -13.9429   -7.6677   11.3200 N   0  0  0  0  0  0  0  0  0  0  0  0
  -15.0254   -8.4462   11.4055 C   0  0  0  0  0  0  0  0  0  0  0  0
  -15.7189   -8.7372   10.2717 C   0  0  0  0  0  0  0  0  0  0  0  0
  -17.1397   -9.7604   10.3948 Cl  0  0  0  0  0  0  0  0  0  0  0  0
  -15.3012   -8.2259    9.0336 C   0  0  0  0  0  0  0  0  0  0  0  0
  -14.1863   -7.4269    8.9669 C   0  0  0  0  0  0  0  0  0  0  0  0
  -13.6760   -6.8856    7.7646 N   0  0  0  0  0  0  0  0  0  0  0  0
  -13.0318   -6.0409    7.7806 H   0  0  0  0  0  0  0  0  0  0  0  0
  -14.0974   -7.5955    6.2618 S   0  0  0  0  0  0  0  0  0  0  0  0
  -12.8210   -7.8217    5.4616 O   0  0  0  0  0  0  0  0  0  0  0  0
  -14.7296   -8.9521    6.5640 O   0  0  0  0  0  0  0  0  0  0  0  0
  -15.1996   -6.6848    5.2992 C   0  0  0  0  0  0  0  0  0  0  0  0
  -16.4343   -7.2208    4.9175 C   0  0  0  0  0  0  0  0  0  0  0  0
  -17.2705   -6.4599    4.1524 C   0  0  0  0  0  0  0  0  0  0  0  0
  -16.9124   -5.1820    3.7569 C   0  0  0  0  0  0  0  0  0  0  0  0
  -17.9916   -4.2229    2.7780 Cl  0  0  0  0  0  0  0  0  0  0  0  0
  -15.6878   -4.6462    4.1335 C   0  0  0  0  0  0  0  0  0  0  0  0
  -15.2764   -3.0330    3.6141 Cl  0  0  0  0  0  0  0  0  0  0  0  0
  -14.8357   -5.4184    4.9120 C   0  0  0  0  0  0  0  0  0  0  0  0
  -12.3829   -6.3602   10.1368 O   0  0  0  0  0  0  0  0  0  0  0  0
   -9.0813   -7.3499    7.7444 C   0  0  0  0  0  0  0  0  0  0  0  0
   -9.2642   -6.0387    8.2087 C   0  0  0  0  0  0  0  0  0  0  0  0
  -10.3568   -5.7229    8.9965 C   0  0  0  0  0  0  0  0  0  0  0  0
  -11.2891   -6.6698    9.3479 C   0  0  0  0  0  0  0  0  0  0  0  0
  -11.0878   -7.9451    8.8806 C   0  0  0  0  0  0  0  0  0  0  0  0
  -10.0033   -8.2871    8.0909 C   0  0  0  0  0  0  0  0  0  0  0  0
   -7.6605   -8.8898    6.6427 O   0  0  0  0  0  0  0  0  0  0  0  0
   -7.9186   -7.6640    6.9285 C   0  0  0  0  0  0  0  0  0  0  0  0
   -7.0462   -6.6774    6.4266 N   0  0  0  0  0  0  0  0  0  0  0  0
   -7.2771   -5.6841    6.6749 H   0  0  0  0  0  0  0  0  0  0  0  0
   -5.8803   -6.8974    5.6191 C   0  0  0  0  0  0  0  0  0  0  0  0
   -4.8748   -5.8109    5.8844 C   0  0  0  0  0  0  0  0  0  0  0  0
   -3.8754   -6.2728    6.8038 N   0  0  0  0  0  0  0  0  0  0  0  0
   -4.3161   -6.4943    8.1384 C   0  0  0  0  0  0  0  0  0  0  0  0
   -3.7605   -5.3667    8.9923 C   0  0  0  0  0  0  0  0  0  0  0  0
   -2.5300   -4.9612    8.2322 C   0  0  0  0  0  0  0  0  0  0  0  0
   -2.6736   -5.5016    6.8335 C   0  0  0  0  0  0  0  0  0  0  0  0
 28 29  2  0  0  0
 29 30  1  0  0  0
 30 32  1  0  0  0
 32 33  1  0  0  0
 33 34  1  0  0  0
 34 35  1  0  0  0
 35 36  1  0  0  0
 36 37  1  0  0  0
 37 38  1  0  0  0
 29 22  1  0  0  0
 22 23  2  0  0  0
 23 24  1  0  0  0
 24 25  2  0  0  0
 25 21  1  0  0  0
 21  1  1  0  0  0
  1  2  2  0  0  0
  2  3  1  0  0  0
  3  4  2  0  0  0
  4  5  1  0  0  0
  4  6  1  0  0  0
  6  7  2  0  0  0
  7  8  1  0  0  0
  8 10  1  0  0  0
 10 11  2  0  0  0
 10 12  2  0  0  0
 10 13  1  0  0  0
 13 14  2  0  0  0
 14 15  1  0  0  0
 15 16  2  0  0  0
 16 17  1  0  0  0
 16 18  1  0  0  0
 18 19  1  0  0  0
 18 20  2  0  0  0
 25 26  1  0  0  0
 26 27  2  0  0  0
 38 34  1  0  0  0
 27 22  1  0  0  0
  7  1  1  0  0  0
 20 13  1  0  0  0
 30 31  1  0  0  0
  8  9  1  0  0  0
M  END
> <minimizedAffinity>
0.66350

> <CNNscore>
0.2495549619

> <CNNaffinity>
6.9623041153

> <CNN_VS>
1.7374775410

> <CNNaffinity_variance>
0.2265926600

$$$$
[H]c1c([H])c(N([H])c2nc(N([H])[H])nc(C([H])([H])Cl)n2)c([H])c([H])c1OC([H])([H])[H]


 21 22  0  0  0  0  0  0  0  0999 V2000
  -10.3318   -7.1109    8.2037 C   0  0  0  0  0  0  0  0  0  0  0  0
  -10.5730   -8.3250    7.6970 N   0  0  0  0  0  0  0  0  0  0  0  0
  -11.6691   -9.0594    7.8971 C   0  0  0  0  0  0  0  0  0  0  0  0
  -11.8541  -10.3459    7.3225 N   0  0  0  0  0  0  0  0  0  0  0  0
  -12.6469   -8.5368    8.6917 N   0  0  0  0  0  0  0  0  0  0  0  0
  -12.4702   -7.3132    9.2378 C   0  0  0  0  0  0  0  0  0  0  0  0
  -11.3485   -6.6321    8.9962 N   0  0  0  0  0  0  0  0  0  0  0  0
  -11.2951  -10.6286    6.4901 H   0  0  0  0  0  0  0  0  0  0  0  0
  -12.5457  -11.0073    7.7295 H   0  0  0  0  0  0  0  0  0  0  0  0
   -9.1773   -6.3302    7.9966 N   0  0  0  0  0  0  0  0  0  0  0  0
   -9.2671   -5.3154    8.2820 H   0  0  0  0  0  0  0  0  0  0  0  0
   -5.4858   -7.7774    6.6552 C   0  0  0  0  0  0  0  0  0  0  0  0
   -6.3274   -7.1945    5.7418 C   0  0  0  0  0  0  0  0  0  0  0  0
   -7.5723   -6.6864    6.1381 C   0  0  0  0  0  0  0  0  0  0  0  0
   -7.9662   -6.7678    7.4557 C   0  0  0  0  0  0  0  0  0  0  0  0
   -7.0795   -7.3728    8.3745 C   0  0  0  0  0  0  0  0  0  0  0  0
   -5.8598   -7.8680    7.9751 C   0  0  0  0  0  0  0  0  0  0  0  0
   -3.0881   -7.7459    6.7605 C   0  0  0  0  0  0  0  0  0  0  0  0
   -4.2705   -8.2683    6.2430 O   0  0  0  0  0  0  0  0  0  0  0  0
  -13.5157   -6.7031   10.1143 C   0  0  0  0  0  0  0  0  0  0  0  0
  -13.0391   -5.0400   10.5233 Cl  0  0  0  0  0  0  0  0  0  0  0  0
 18 19  1  0  0  0
 19 12  1  0  0  0
 12 13  2  0  0  0
 13 14  1  0  0  0
 14 15  2  0  0  0
 15 10  1  0  0  0
 10  1  1  0  0  0
  1  2  2  0  0  0
  2  3  1  0  0  0
  3  4  1  0  0  0
  3  5  2  0  0  0
  5  6  1  0  0  0
  6 20  1  0  0  0
 20 21  1  0  0  0
  6  7  2  0  0  0
 15 16  1  0  0  0
 16 17  2  0  0  0
 17 12  1  0  0  0
  7  1  1  0  0  0
 10 11  1  0  0  0
  4  8  1  0  0  0
  4  9  1  0  0  0
M  END
> <minimizedAffinity>
-6.25921

> <CNNscore>
0.8032192588

> <CNNaffinity>
5.6572499275

> <CNN_VS>
4.5440120697

> <CNNaffinity_variance>
0.0515380204

$$$$
[H]c1c([H])c(N([H])c2nc(N([H])[H])nc(C([H])([H])Cl)n2)c([H])c([H])c1OC([H])([H])[H]


 21 22  0  0  0  0  0  0  0  0999 V2000
  -12.8242   -8.9298    7.3682 C   0  0  0  0  0  0  0  0  0  0  0  0
  -11.6699   -9.5425    7.0833 N   0  0  0  0  0  0  0  0  0  0  0  0
  -10.4592   -9.1834    7.5146 C   0  0  0  0  0  0  0  0  0  0  0  0
   -9.2741   -9.8869    7.1678 N   0  0  0  0  0  0  0  0  0  0  0  0
  -10.3726   -8.0891    8.3243 N   0  0  0  0  0  0  0  0  0  0  0  0
  -11.5001   -7.4206    8.6536 C   0  0  0  0  0  0  0  0  0  0  0  0
  -12.6798   -7.8343    8.1869 N   0  0  0  0  0  0  0  0  0  0  0  0
   -9.3338  -10.8700    6.8285 H   0  0  0  0  0  0  0  0  0  0  0  0
   -8.3465   -9.4243    7.2514 H   0  0  0  0  0  0  0  0  0  0  0  0
  -14.1055   -9.3035    6.9166 N   0  0  0  0  0  0  0  0  0  0  0  0
  -14.3927  -10.2931    7.1564 H   0  0  0  0  0  0  0  0  0  0  0  0
  -16.6389   -7.0212    4.4889 C   0  0  0  0  0  0  0  0  0  0  0  0
  -16.8905   -7.0604    5.8371 C   0  0  0  0  0  0  0  0  0  0  0  0
  -16.0694   -7.8029    6.6969 C   0  0  0  0  0  0  0  0  0  0  0  0
  -14.9959   -8.5053    6.1949 C   0  0  0  0  0  0  0  0  0  0  0  0
  -14.7604   -8.4466    4.8029 C   0  0  0  0  0  0  0  0  0  0  0  0
  -15.5723   -7.7146    3.9678 C   0  0  0  0  0  0  0  0  0  0  0  0
  -18.3584   -5.3709    4.2040 C   0  0  0  0  0  0  0  0  0  0  0  0
  -17.4578   -6.2864    3.6659 O   0  0  0  0  0  0  0  0  0  0  0  0
  -11.4510   -6.2168    9.5380 C   0  0  0  0  0  0  0  0  0  0  0  0
  -13.1020   -5.7940   10.0435 Cl  0  0  0  0  0  0  0  0  0  0  0  0
 18 19  1  0  0  0
 19 12  1  0  0  0
 12 13  2  0  0  0
 13 14  1  0  0  0
 14 15  2  0  0  0
 15 10  1  0  0  0
 10  1  1  0  0  0
  1  2  2  0  0  0
  2  3  1  0  0  0
  3  4  1  0  0  0
  3  5  2  0  0  0
  5  6  1  0  0  0
  6 20  1  0  0  0
 20 21  1  0  0  0
  6  7  2  0  0  0
 15 16  1  0  0  0
 16 17  2  0  0  0
 17 12  1  0  0  0
  7  1  1  0  0  0
 10 11  1  0  0  0
  4  8  1  0  0  0
  4  9  1  0  0  0
M  END
> <minimizedAffinity>
-7.05400

> <CNNscore>
0.7260963321

> <CNNaffinity>
6.2720708847

> <CNN_VS>
4.5541276932

> <CNNaffinity_variance>
0.1938633472

$$$$
[H]c1c([H])c(N([H])c2nc(N([H])[H])nc(C([H])([H])Cl)n2)c([H])c([H])c1OC([H])([H])[H]


 21 22  0  0  0  0  0  0  0  0999 V2000
   -9.5500   -6.6539    8.0179 C   0  0  0  0  0  0  0  0  0  0  0  0
  -10.2978   -6.1642    9.0127 N   0  0  0  0  0  0  0  0  0  0  0  0
  -11.4051   -6.7164    9.5123 C   0  0  0  0  0  0  0  0  0  0  0  0
  -12.1488   -6.1343   10.5742 N   0  0  0  0  0  0  0  0  0  0  0  0
  -11.8288   -7.8931    8.9678 N   0  0  0  0  0  0  0  0  0  0  0  0
  -11.1209   -8.4460    7.9580 C   0  0  0  0  0  0  0  0  0  0  0  0
  -10.0214   -7.8400    7.5059 N   0  0  0  0  0  0  0  0  0  0  0  0
  -11.6992   -5.4340   11.2007 H   0  0  0  0  0  0  0  0  0  0  0  0
  -13.1411   -6.4045   10.7289 H   0  0  0  0  0  0  0  0  0  0  0  0
   -8.3801   -6.0764    7.4857 N   0  0  0  0  0  0  0  0  0  0  0  0
   -8.4385   -5.0358    7.3038 H   0  0  0  0  0  0  0  0  0  0  0  0
   -4.6962   -7.9556    6.8390 C   0  0  0  0  0  0  0  0  0  0  0  0
   -5.7390   -8.2614    6.0014 C   0  0  0  0  0  0  0  0  0  0  0  0
   -6.9921   -7.6557    6.1682 C   0  0  0  0  0  0  0  0  0  0  0  0
   -7.1911   -6.7427    7.1804 C   0  0  0  0  0  0  0  0  0  0  0  0
   -6.0997   -6.4467    8.0276 C   0  0  0  0  0  0  0  0  0  0  0  0
   -4.8738   -7.0466    7.8550 C   0  0  0  0  0  0  0  0  0  0  0  0
   -2.3431   -7.7982    6.3925 C   0  0  0  0  0  0  0  0  0  0  0  0
   -3.4770   -8.5622    6.6558 O   0  0  0  0  0  0  0  0  0  0  0  0
  -11.5492   -9.7340    7.3325 C   0  0  0  0  0  0  0  0  0  0  0  0
  -10.1499  -10.4959    6.5441 Cl  0  0  0  0  0  0  0  0  0  0  0  0
 18 19  1  0  0  0
 19 12  1  0  0  0
 12 13  2  0  0  0
 13 14  1  0  0  0
 14 15  2  0  0  0
 15 10  1  0  0  0
 10  1  1  0  0  0
  1  2  2  0  0  0
  2  3  1  0  0  0
  3  4  1  0  0  0
  3  5  2  0  0  0
  5  6  1  0  0  0
  6 20  1  0  0  0
 20 21  1  0  0  0
  6  7  2  0  0  0
 15 16  1  0  0  0
 16 17  2  0  0  0
 17 12  1  0  0  0
  7  1  1  0  0  0
 10 11  1  0  0  0
  4  8  1  0  0  0
  4  9  1  0  0  0
M  END
> <minimizedAffinity>
-6.17041

> <CNNscore>
0.6162608266

> <CNNaffinity>
5.4240326881

> <CNN_VS>
3.3426189423

> <CNNaffinity_variance>
0.0949546099

$$$$
[H]c1c([H])c(N([H])c2nc(N([H])[H])nc(C([H])([H])Cl)n2)c([H])c([H])c1OC([H])([H])[H]


 21 22  0  0  0  0  0  0  0  0999 V2000
  -10.2084   -9.1664    7.5026 C   0  0  0  0  0  0  0  0  0  0  0  0
  -11.3078   -9.7566    7.0212 N   0  0  0  0  0  0  0  0  0  0  0  0
  -12.5651   -9.3455    7.1977 C   0  0  0  0  0  0  0  0  0  0  0  0
  -13.6861  -10.0281    6.6527 N   0  0  0  0  0  0  0  0  0  0  0  0
  -12.7659   -8.2171    7.9373 N   0  0  0  0  0  0  0  0  0  0  0  0
  -11.6993   -7.5685    8.4551 C   0  0  0  0  0  0  0  0  0  0  0  0
  -10.4677   -8.0347    8.2397 N   0  0  0  0  0  0  0  0  0  0  0  0
  -13.5576  -10.6818    5.8519 H   0  0  0  0  0  0  0  0  0  0  0  0
  -14.6353   -9.8779    7.0502 H   0  0  0  0  0  0  0  0  0  0  0  0
   -8.8785   -9.5948    7.3201 N   0  0  0  0  0  0  0  0  0  0  0  0
   -8.7639  -10.6305    7.1370 H   0  0  0  0  0  0  0  0  0  0  0  0
   -5.4458   -7.2059    7.1454 C   0  0  0  0  0  0  0  0  0  0  0  0
   -6.0623   -7.3720    8.3598 C   0  0  0  0  0  0  0  0  0  0  0  0
   -7.2106   -8.1674    8.4765 C   0  0  0  0  0  0  0  0  0  0  0  0
   -7.7353   -8.7937    7.3674 C   0  0  0  0  0  0  0  0  0  0  0  0
   -7.0798   -8.6054    6.1300 C   0  0  0  0  0  0  0  0  0  0  0  0
   -5.9531   -7.8228    6.0264 C   0  0  0  0  0  0  0  0  0  0  0  0
   -4.0131   -5.7661    5.8665 C   0  0  0  0  0  0  0  0  0  0  0  0
   -4.3214   -6.4214    7.0557 O   0  0  0  0  0  0  0  0  0  0  0  0
  -11.8738   -6.3287    9.2713 C   0  0  0  0  0  0  0  0  0  0  0  0
  -13.5985   -6.1106    9.6431 Cl  0  0  0  0  0  0  0  0  0  0  0  0
 18 19  1  0  0  0
 19 12  1  0  0  0
 12 13  2  0  0  0
 13 14  1  0  0  0
 14 15  2  0  0  0
 15 10  1  0  0  0
 10  1  1  0  0  0
  1  2  2  0  0  0
  2  3  1  0  0  0
  3  4  1  0  0  0
  3  5  2  0  0  0
  5  6  1  0  0  0
  6 20  1  0  0  0
 20 21  1  0  0  0
  6  7  2  0  0  0
 15 16  1  0  0  0
 16 17  2  0  0  0
 17 12  1  0  0  0
  7  1  1  0  0  0
 10 11  1  0  0  0
  4  8  1  0  0  0
  4  9  1  0  0  0
M  END
> <minimizedAffinity>
-6.62487

> <CNNscore>
0.5788744092

> <CNNaffinity>
5.7282881737

> <CNN_VS>
3.3159594536

> <CNNaffinity_variance>
0.1485905051

$$$$
[H]c1c([H])c(N([H])c2nc(N([H])[H])nc(C([H])([H])Cl)n2)c([H])c([H])c1OC([H])([H])[H]


 21 22  0  0  0  0  0  0  0  0999 V2000
  -11.7755   -9.3479    7.5258 C   0  0  0  0  0  0  0  0  0  0  0  0
  -12.6592   -9.4389    6.5259 N   0  0  0  0  0  0  0  0  0  0  0  0
  -13.9250   -9.0170    6.5514 C   0  0  0  0  0  0  0  0  0  0  0  0
  -14.8069   -9.1489    5.4449 N   0  0  0  0  0  0  0  0  0  0  0  0
  -14.3770   -8.4350    7.6992 N   0  0  0  0  0  0  0  0  0  0  0  0
  -13.5376   -8.3100    8.7510 C   0  0  0  0  0  0  0  0  0  0  0  0
  -12.2827   -8.7540    8.6577 N   0  0  0  0  0  0  0  0  0  0  0  0
  -14.4219   -9.2909    4.4874 H   0  0  0  0  0  0  0  0  0  0  0  0
  -15.8362   -9.1042    5.5868 H   0  0  0  0  0  0  0  0  0  0  0  0
  -10.4381   -9.7909    7.5057 N   0  0  0  0  0  0  0  0  0  0  0  0
  -10.3157  -10.8417    7.4914 H   0  0  0  0  0  0  0  0  0  0  0  0
   -7.2119   -7.1241    7.5263 C   0  0  0  0  0  0  0  0  0  0  0  0
   -6.9510   -8.4628    7.6756 C   0  0  0  0  0  0  0  0  0  0  0  0
   -7.9932   -9.4001    7.6686 C   0  0  0  0  0  0  0  0  0  0  0  0
   -9.2974   -8.9850    7.5115 C   0  0  0  0  0  0  0  0  0  0  0  0
   -9.5366   -7.6008    7.3595 C   0  0  0  0  0  0  0  0  0  0  0  0
   -8.5064   -6.6892    7.3675 C   0  0  0  0  0  0  0  0  0  0  0  0
   -4.9447   -6.5733    8.0899 C   0  0  0  0  0  0  0  0  0  0  0  0
   -6.1737   -6.2242    7.5363 O   0  0  0  0  0  0  0  0  0  0  0  0
  -13.9913   -7.6787   10.0274 C   0  0  0  0  0  0  0  0  0  0  0  0
  -13.3469   -6.0247   10.1240 Cl  0  0  0  0  0  0  0  0  0  0  0  0
 18 19  1  0  0  0
 19 12  1  0  0  0
 12 13  2  0  0  0
 13 14  1  0  0  0
 14 15  2  0  0  0
 15 10  1  0  0  0
 10  1  1  0  0  0
  1  2  2  0  0  0
  2  3  1  0  0  0
  3  4  1  0  0  0
  3  5  2  0  0  0
  5  6  1  0  0  0
  6 20  1  0  0  0
 20 21  1  0  0  0
  6  7  2  0  0  0
 15 16  1  0  0  0
 16 17  2  0  0  0
 17 12  1  0  0  0
  7  1  1  0  0  0
 10 11  1  0  0  0
  4  8  1  0  0  0
  4  9  1  0  0  0
M  END
> <minimizedAffinity>
-6.87799

> <CNNscore>
0.5729373097

> <CNNaffinity>
6.0185747147

> <CNN_VS>
3.4482660294

> <CNNaffinity_variance>
0.1591656953

$$$$
[H]c1c([H])c(N([H])c2nc(N([H])[H])nc(C([H])([H])Cl)n2)c([H])c([H])c1OC([H])([H])[H]


 21 22  0  0  0  0  0  0  0  0999 V2000
  -12.4326   -8.5540    7.9445 C   0  0  0  0  0  0  0  0  0  0  0  0
  -12.0520   -7.4153    8.5339 N   0  0  0  0  0  0  0  0  0  0  0  0
  -10.7958   -7.0046    8.7186 C   0  0  0  0  0  0  0  0  0  0  0  0
  -10.4688   -5.7772    9.3559 N   0  0  0  0  0  0  0  0  0  0  0  0
   -9.7918   -7.8113    8.2694 N   0  0  0  0  0  0  0  0  0  0  0  0
  -10.1037   -8.9784    7.6634 C   0  0  0  0  0  0  0  0  0  0  0  0
  -11.3823   -9.3286    7.5111 N   0  0  0  0  0  0  0  0  0  0  0  0
  -11.1811   -5.0200    9.4219 H   0  0  0  0  0  0  0  0  0  0  0  0
   -9.5205   -5.6313    9.7571 H   0  0  0  0  0  0  0  0  0  0  0  0
  -13.7565   -8.9936    7.7462 N   0  0  0  0  0  0  0  0  0  0  0  0
  -14.0824   -9.7459    8.4150 H   0  0  0  0  0  0  0  0  0  0  0  0
  -16.2369   -7.7875    4.5976 C   0  0  0  0  0  0  0  0  0  0  0  0
  -16.6373   -7.5176    5.8819 C   0  0  0  0  0  0  0  0  0  0  0  0
  -15.8415   -7.8926    6.9732 C   0  0  0  0  0  0  0  0  0  0  0  0
  -14.6431   -8.5400    6.7669 C   0  0  0  0  0  0  0  0  0  0  0  0
  -14.2558   -8.8047    5.4341 C   0  0  0  0  0  0  0  0  0  0  0  0
  -15.0441   -8.4321    4.3701 C   0  0  0  0  0  0  0  0  0  0  0  0
  -18.3658   -7.0645    3.7570 C   0  0  0  0  0  0  0  0  0  0  0  0
  -17.0339   -7.4101    3.5439 O   0  0  0  0  0  0  0  0  0  0  0  0
   -9.0353   -9.8922    7.1562 C   0  0  0  0  0  0  0  0  0  0  0  0
   -7.5641   -9.6695    8.1291 Cl  0  0  0  0  0  0  0  0  0  0  0  0
 18 19  1  0  0  0
 19 12  1  0  0  0
 12 13  2  0  0  0
 13 14  1  0  0  0
 14 15  2  0  0  0
 15 10  1  0  0  0
 10  1  1  0  0  0
  1  2  2  0  0  0
  2  3  1  0  0  0
  3  4  1  0  0  0
  3  5  2  0  0  0
  5  6  1  0  0  0
  6 20  1  0  0  0
 20 21  1  0  0  0
  6  7  2  0  0  0
 15 16  1  0  0  0
 16 17  2  0  0  0
 17 12  1  0  0  0
  7  1  1  0  0  0
 10 11  1  0  0  0
  4  8  1  0  0  0
  4  9  1  0  0  0
M  END
> <minimizedAffinity>
-7.04872

> <CNNscore>
0.5284404755

> <CNNaffinity>
6.0219368935

> <CNN_VS>
3.1822352409

> <CNNaffinity_variance>
0.2563645542

$$$$
[H]c1c([H])c(N([H])c2nc(N([H])[H])nc(C([H])([H])Cl)n2)c([H])c([H])c1OC([H])([H])[H]


 21 22  0  0  0  0  0  0  0  0999 V2000
  -13.2932   -9.2313    6.5245 C   0  0  0  0  0  0  0  0  0  0  0  0
  -13.5779   -8.7774    7.7499 N   0  0  0  0  0  0  0  0  0  0  0  0
  -12.7305   -8.6972    8.7777 C   0  0  0  0  0  0  0  0  0  0  0  0
  -13.1081   -8.2015   10.0549 N   0  0  0  0  0  0  0  0  0  0  0  0
  -11.4474   -9.1138    8.5763 N   0  0  0  0  0  0  0  0  0  0  0  0
  -11.0892   -9.5850    7.3613 C   0  0  0  0  0  0  0  0  0  0  0  0
  -11.9879   -9.6379    6.3763 N   0  0  0  0  0  0  0  0  0  0  0  0
  -13.9552   -7.6029   10.1504 H   0  0  0  0  0  0  0  0  0  0  0  0
  -12.5419   -8.4339   10.8957 H   0  0  0  0  0  0  0  0  0  0  0  0
  -14.1826   -9.3187    5.4351 N   0  0  0  0  0  0  0  0  0  0  0  0
  -14.1917  -10.2535    4.9396 H   0  0  0  0  0  0  0  0  0  0  0  0
  -16.9088   -6.5028    3.9657 C   0  0  0  0  0  0  0  0  0  0  0  0
  -15.7568   -6.0474    4.5558 C   0  0  0  0  0  0  0  0  0  0  0  0
  -14.8063   -6.9469    5.0581 C   0  0  0  0  0  0  0  0  0  0  0  0
  -15.0199   -8.3046    4.9647 C   0  0  0  0  0  0  0  0  0  0  0  0
  -16.2145   -8.7451    4.3520 C   0  0  0  0  0  0  0  0  0  0  0  0
  -17.1408   -7.8539    3.8620 C   0  0  0  0  0  0  0  0  0  0  0  0
  -18.6407   -4.8871    4.3546 C   0  0  0  0  0  0  0  0  0  0  0  0
  -17.8259   -5.6019    3.4807 O   0  0  0  0  0  0  0  0  0  0  0  0
   -9.6942  -10.0519    7.0972 C   0  0  0  0  0  0  0  0  0  0  0  0
   -8.5454   -8.8702    7.7636 Cl  0  0  0  0  0  0  0  0  0  0  0  0
 18 19  1  0  0  0
 19 12  1  0  0  0
 12 13  2  0  0  0
 13 14  1  0  0  0
 14 15  2  0  0  0
 15 10  1  0  0  0
 10  1  1  0  0  0
  1  2  2  0  0  0
  2  3  1  0  0  0
  3  4  1  0  0  0
  3  5  2  0  0  0
  5  6  1  0  0  0
  6 20  1  0  0  0
 20 21  1  0  0  0
  6  7  2  0  0  0
 15 16  1  0  0  0
 16 17  2  0  0  0
 17 12  1  0  0  0
  7  1  1  0  0  0
 10 11  1  0  0  0
  4  8  1  0  0  0
  4  9  1  0  0  0
M  END
> <minimizedAffinity>
-6.32514

> <CNNscore>
0.4963997602

> <CNNaffinity>
6.0966424942

> <CNN_VS>
3.0263719559

> <CNNaffinity_variance>
0.2393736094

$$$$
[H]c1c([H])c(N([H])c2nc(N([H])[H])nc(C([H])([H])Cl)n2)c([H])c([H])c1OC([H])([H])[H]


 21 22  0  0  0  0  0  0  0  0999 V2000
   -8.7588   -7.7599    8.2366 C   0  0  0  0  0  0  0  0  0  0  0  0
   -8.9125   -8.9577    7.6619 N   0  0  0  0  0  0  0  0  0  0  0  0
  -10.0713   -9.5296    7.3285 C   0  0  0  0  0  0  0  0  0  0  0  0
  -10.1548  -10.8103    6.7183 N   0  0  0  0  0  0  0  0  0  0  0  0
  -11.2183   -8.8400    7.5922 N   0  0  0  0  0  0  0  0  0  0  0  0
  -11.1379   -7.6221    8.1725 C   0  0  0  0  0  0  0  0  0  0  0  0
   -9.9453   -7.1086    8.4802 N   0  0  0  0  0  0  0  0  0  0  0  0
   -9.3246  -11.2093    6.2319 H   0  0  0  0  0  0  0  0  0  0  0  0
  -11.0420  -11.3516    6.7552 H   0  0  0  0  0  0  0  0  0  0  0  0
   -7.5389   -7.1503    8.5911 N   0  0  0  0  0  0  0  0  0  0  0  0
   -7.4108   -6.9761    9.6268 H   0  0  0  0  0  0  0  0  0  0  0  0
   -4.2893   -5.9994    6.2171 C   0  0  0  0  0  0  0  0  0  0  0  0
   -5.4829   -6.2730    5.5983 C   0  0  0  0  0  0  0  0  0  0  0  0
   -6.6053   -6.6555    6.3460 C   0  0  0  0  0  0  0  0  0  0  0  0
   -6.5212   -6.7617    7.7170 C   0  0  0  0  0  0  0  0  0  0  0  0
   -5.2798   -6.4737    8.3273 C   0  0  0  0  0  0  0  0  0  0  0  0
   -4.1845   -6.0989    7.5842 C   0  0  0  0  0  0  0  0  0  0  0  0
   -3.1626   -4.3726    4.8585 C   0  0  0  0  0  0  0  0  0  0  0  0
   -3.2029   -5.6263    5.4631 O   0  0  0  0  0  0  0  0  0  0  0  0
  -12.3692   -6.8325    8.4790 C   0  0  0  0  0  0  0  0  0  0  0  0
  -12.7175   -6.9427   10.2188 Cl  0  0  0  0  0  0  0  0  0  0  0  0
 18 19  1  0  0  0
 19 12  1  0  0  0
 12 13  2  0  0  0
 13 14  1  0  0  0
 14 15  2  0  0  0
 15 10  1  0  0  0
 10  1  1  0  0  0
  1  2  2  0  0  0
  2  3  1  0  0  0
  3  4  1  0  0  0
  3  5  2  0  0  0
  5  6  1  0  0  0
  6 20  1  0  0  0
 20 21  1  0  0  0
  6  7  2  0  0  0
 15 16  1  0  0  0
 16 17  2  0  0  0
 17 12  1  0  0  0
  7  1  1  0  0  0
 10 11  1  0  0  0
  4  8  1  0  0  0
  4  9  1  0  0  0
M  END
> <minimizedAffinity>
-5.75993

> <CNNscore>
0.4923312068

> <CNNaffinity>
5.1177668571

> <CNN_VS>
2.5196363926

> <CNNaffinity_variance>
0.0826521665

$$$$
[H]c1c([H])c(N([H])c2nc(N([H])[H])nc(C([H])([H])Cl)n2)c([H])c([H])c1OC([H])([H])[H]


 21 22  0  0  0  0  0  0  0  0999 V2000
  -13.3224   -9.4696    6.9312 C   0  0  0  0  0  0  0  0  0  0  0  0
  -14.2882   -9.1315    7.7925 N   0  0  0  0  0  0  0  0  0  0  0  0
  -15.4449   -8.5400    7.4877 C   0  0  0  0  0  0  0  0  0  0  0  0
  -16.4257   -8.2106    8.4618 N   0  0  0  0  0  0  0  0  0  0  0  0
  -15.6808   -8.2449    6.1770 N   0  0  0  0  0  0  0  0  0  0  0  0
  -14.7474   -8.5586    5.2512 C   0  0  0  0  0  0  0  0  0  0  0  0
  -13.6113   -9.1501    5.6252 N   0  0  0  0  0  0  0  0  0  0  0  0
  -16.4197   -8.6881    9.3875 H   0  0  0  0  0  0  0  0  0  0  0  0
  -17.1504   -7.4941    8.2545 H   0  0  0  0  0  0  0  0  0  0  0  0
  -12.0992  -10.0943    7.2460 N   0  0  0  0  0  0  0  0  0  0  0  0
  -12.1524  -11.1436    7.3703 H   0  0  0  0  0  0  0  0  0  0  0  0
   -8.5522   -7.9627    7.8753 C   0  0  0  0  0  0  0  0  0  0  0  0
   -8.4638   -9.2531    7.4175 C   0  0  0  0  0  0  0  0  0  0  0  0
   -9.6202  -10.0098    7.1826 C   0  0  0  0  0  0  0  0  0  0  0  0
  -10.8640   -9.4633    7.4106 C   0  0  0  0  0  0  0  0  0  0  0  0
  -10.9250   -8.1326    7.8815 C   0  0  0  0  0  0  0  0  0  0  0  0
   -9.7840   -7.3985    8.1085 C   0  0  0  0  0  0  0  0  0  0  0  0
   -6.7389   -6.6317    7.0376 C   0  0  0  0  0  0  0  0  0  0  0  0
   -7.4047   -7.2406    8.0982 O   0  0  0  0  0  0  0  0  0  0  0  0
  -14.9650   -8.2534    3.8045 C   0  0  0  0  0  0  0  0  0  0  0  0
  -16.4046   -7.2246    3.6332 Cl  0  0  0  0  0  0  0  0  0  0  0  0
 18 19  1  0  0  0
 19 12  1  0  0  0
 12 13  2  0  0  0
 13 14  1  0  0  0
 14 15  2  0  0  0
 15 10  1  0  0  0
 10  1  1  0  0  0
  1  2  2  0  0  0
  2  3  1  0  0  0
  3  4  1  0  0  0
  3  5  2  0  0  0
  5  6  1  0  0  0
  6 20  1  0  0  0
 20 21  1  0  0  0
  6  7  2  0  0  0
 15 16  1  0  0  0
 16 17  2  0  0  0
 17 12  1  0  0  0
  7  1  1  0  0  0
 10 11  1  0  0  0
  4  8  1  0  0  0
  4  9  1  0  0  0
M  END
> <minimizedAffinity>
-7.26988

> <CNNscore>
0.4728752375

> <CNNaffinity>
6.1809911728

> <CNN_VS>
2.9228377342

> <CNNaffinity_variance>
0.2724255919

$$$$
[H]c1nc2sc3c(=O)n(C4([H])C([H])([H])C([H])([H])C([H])([H])C([H])([H])C4([H])[H])c([H])nc3c2c(N(C([H])([H])[H])C([H])([H])[H])c1[H]


 23 26  0  0  0  0  0  0  0  0999 V2000
  -10.7823   -9.1444    6.8228 C   0  0  0  0  0  0  0  0  0  0  0  0
  -11.3093   -9.8376    5.7518 C   0  0  0  0  0  0  0  0  0  0  0  0
  -12.6395   -9.8495    5.4012 C   0  0  0  0  0  0  0  0  0  0  0  0
  -13.4432   -9.1172    6.1906 N   0  0  0  0  0  0  0  0  0  0  0  0
  -12.9728   -8.4099    7.2676 C   0  0  0  0  0  0  0  0  0  0  0  0
  -13.7269   -7.4210    8.4361 S   0  0  0  0  0  0  0  0  0  0  0  0
  -12.3614   -6.9984    9.3631 C   0  0  0  0  0  0  0  0  0  0  0  0
  -12.1393   -6.2128   10.5109 C   0  0  0  0  0  0  0  0  0  0  0  0
  -13.1591   -5.6777   10.9865 O   0  0  0  0  0  0  0  0  0  0  0  0
  -10.9131   -6.0669   11.0337 N   0  0  0  0  0  0  0  0  0  0  0  0
   -9.9222   -6.7111   10.3988 C   0  0  0  0  0  0  0  0  0  0  0  0
  -10.1133   -7.4555    9.3159 N   0  0  0  0  0  0  0  0  0  0  0  0
  -11.3389   -7.6468    8.7294 C   0  0  0  0  0  0  0  0  0  0  0  0
  -11.6545   -8.3838    7.6353 C   0  0  0  0  0  0  0  0  0  0  0  0
  -10.7276   -5.2547   12.2088 C   0  0  0  0  0  0  0  0  0  0  0  0
  -11.9232   -5.2899   13.1281 C   0  0  0  0  0  0  0  0  0  0  0  0
  -11.6750   -4.3171   14.2441 C   0  0  0  0  0  0  0  0  0  0  0  0
  -10.3201   -3.7067   14.2417 C   0  0  0  0  0  0  0  0  0  0  0  0
   -9.1953   -4.6630   14.0027 C   0  0  0  0  0  0  0  0  0  0  0  0
   -9.5552   -5.7788   13.0493 C   0  0  0  0  0  0  0  0  0  0  0  0
   -8.6879  -10.2604    7.7407 C   0  0  0  0  0  0  0  0  0  0  0  0
   -9.3821   -9.2127    7.0231 N   0  0  0  0  0  0  0  0  0  0  0  0
   -8.5805   -8.1423    6.4609 C   0  0  0  0  0  0  0  0  0  0  0  0
 21 22  1  0  0  0
 22 23  1  0  0  0
 22  1  1  0  0  0
  1  2  2  0  0  0
  2  3  1  0  0  0
  3  4  2  0  0  0
  4  5  1  0  0  0
  5  6  1  0  0  0
  6  7  1  0  0  0
  7  8  1  0  0  0
  8  9  2  0  0  0
  8 10  1  0  0  0
 10 15  1  0  0  0
 15 16  1  0  0  0
 16 17  1  0  0  0
 17 18  1  0  0  0
 18 19  1  0  0  0
 19 20  1  0  0  0
 10 11  1  0  0  0
 11 12  2  0  0  0
 12 13  1  0  0  0
 13 14  1  0  0  0
 14  1  1  0  0  0
 14  5  2  0  0  0
 13  7  2  0  0  0
 20 15  1  0  0  0
M  END
> <minimizedAffinity>
9.78283

> <CNNscore>
0.4821889102

> <CNNaffinity>
6.2519478798

> <CNN_VS>
3.0146198273

> <CNNaffinity_variance>
0.6701712012

$$$$
[H]c1nc2sc3c(=O)n(C4([H])C([H])([H])C([H])([H])C([H])([H])C([H])([H])C4([H])[H])c([H])nc3c2c(N(C([H])([H])[H])C([H])([H])[H])c1[H]


 23 26  0  0  0  0  0  0  0  0999 V2000
   -2.7402   -3.3664    9.0973 C   0  0  0  0  0  0  0  0  0  0  0  0
   -2.8588   -3.9310   10.3513 C   0  0  0  0  0  0  0  0  0  0  0  0
   -2.9755   -5.2793   10.5982 C   0  0  0  0  0  0  0  0  0  0  0  0
   -2.9684   -6.0612    9.5055 N   0  0  0  0  0  0  0  0  0  0  0  0
   -2.8540   -5.5532    8.2366 C   0  0  0  0  0  0  0  0  0  0  0  0
   -2.8258   -6.2706    6.6885 S   0  0  0  0  0  0  0  0  0  0  0  0
   -2.6689   -4.8666    5.7363 C   0  0  0  0  0  0  0  0  0  0  0  0
   -2.5821   -4.6025    4.3555 C   0  0  0  0  0  0  0  0  0  0  0  0
   -2.6186   -5.6109    3.6245 O   0  0  0  0  0  0  0  0  0  0  0  0
   -2.4693   -3.3511    3.8871 N   0  0  0  0  0  0  0  0  0  0  0  0
   -2.4446   -2.3774    4.8098 C   0  0  0  0  0  0  0  0  0  0  0  0
   -2.5250   -2.6080    6.1150 N   0  0  0  0  0  0  0  0  0  0  0  0
   -2.6414   -3.8612    6.6615 C   0  0  0  0  0  0  0  0  0  0  0  0
   -2.7372   -4.2162    7.9671 C   0  0  0  0  0  0  0  0  0  0  0  0
   -2.3831   -3.1227    2.4674 C   0  0  0  0  0  0  0  0  0  0  0  0
   -1.4392   -4.0820    1.7859 C   0  0  0  0  0  0  0  0  0  0  0  0
   -1.3286   -3.6742    0.3454 C   0  0  0  0  0  0  0  0  0  0  0  0
   -2.2450   -2.5761   -0.0578 C   0  0  0  0  0  0  0  0  0  0  0  0
   -3.6512   -2.7126    0.4328 C   0  0  0  0  0  0  0  0  0  0  0  0
   -3.7455   -3.3518    1.7988 C   0  0  0  0  0  0  0  0  0  0  0  0
   -2.6480   -1.0506   10.1473 C   0  0  0  0  0  0  0  0  0  0  0  0
   -2.5944   -1.9598    9.0226 N   0  0  0  0  0  0  0  0  0  0  0  0
   -2.3731   -1.3865    7.7086 C   0  0  0  0  0  0  0  0  0  0  0  0
 21 22  1  0  0  0
 22 23  1  0  0  0
 22  1  1  0  0  0
  1  2  2  0  0  0
  2  3  1  0  0  0
  3  4  2  0  0  0
  4  5  1  0  0  0
  5  6  1  0  0  0
  6  7  1  0  0  0
  7  8  1  0  0  0
  8  9  2  0  0  0
  8 10  1  0  0  0
 10 15  1  0  0  0
 15 16  1  0  0  0
 16 17  1  0  0  0
 17 18  1  0  0  0
 18 19  1  0  0  0
 19 20  1  0  0  0
 10 11  1  0  0  0
 11 12  2  0  0  0
 12 13  1  0  0  0
 13 14  1  0  0  0
 14  1  1  0  0  0
 14  5  2  0  0  0
 13  7  2  0  0  0
 20 15  1  0  0  0
M  END
> <minimizedAffinity>
-2.14785

> <CNNscore>
0.2998337150

> <CNNaffinity>
4.9384975433

> <CNN_VS>
1.4807280302

> <CNNaffinity_variance>
0.5588225126

$$$$
[H]c1nc2sc3c(=O)n(C4([H])C([H])([H])C([H])([H])C([H])([H])C([H])([H])C4([H])[H])c([H])nc3c2c(N(C([H])([H])[H])C([H])([H])[H])c1[H]


 23 26  0  0  0  0  0  0  0  0999 V2000
  -10.4945   -6.7662    9.0457 C   0  0  0  0  0  0  0  0  0  0  0  0
   -9.7916   -6.3514   10.1589 C   0  0  0  0  0  0  0  0  0  0  0  0
  -10.3628   -5.9450   11.3426 C   0  0  0  0  0  0  0  0  0  0  0  0
  -11.7059   -5.9722   11.3658 N   0  0  0  0  0  0  0  0  0  0  0  0
  -12.4535   -6.3746   10.2886 C   0  0  0  0  0  0  0  0  0  0  0  0
  -14.1328   -6.5046   10.0143 S   0  0  0  0  0  0  0  0  0  0  0  0
  -14.1073   -7.0689    8.4070 C   0  0  0  0  0  0  0  0  0  0  0  0
  -15.0868   -7.4156    7.4560 C   0  0  0  0  0  0  0  0  0  0  0  0
  -16.2637   -7.3020    7.8488 O   0  0  0  0  0  0  0  0  0  0  0  0
  -14.7526   -7.8339    6.2266 N   0  0  0  0  0  0  0  0  0  0  0  0
  -13.4386   -7.9000    5.9643 C   0  0  0  0  0  0  0  0  0  0  0  0
  -12.5018   -7.5775    6.8485 N   0  0  0  0  0  0  0  0  0  0  0  0
  -12.7730   -7.1434    8.1216 C   0  0  0  0  0  0  0  0  0  0  0  0
  -11.9073   -6.7824    9.1014 C   0  0  0  0  0  0  0  0  0  0  0  0
  -15.7844   -8.1792    5.2825 C   0  0  0  0  0  0  0  0  0  0  0  0
  -16.5156   -6.9677    4.7596 C   0  0  0  0  0  0  0  0  0  0  0  0
  -17.6423   -7.4486    3.8919 C   0  0  0  0  0  0  0  0  0  0  0  0
  -17.6601   -8.9162    3.6598 C   0  0  0  0  0  0  0  0  0  0  0  0
  -16.3329   -9.5213    3.3296 C   0  0  0  0  0  0  0  0  0  0  0  0
  -15.1803   -8.8535    4.0431 C   0  0  0  0  0  0  0  0  0  0  0  0
   -9.5516   -8.5586    7.5054 C   0  0  0  0  0  0  0  0  0  0  0  0
   -9.7482   -7.1852    7.9176 N   0  0  0  0  0  0  0  0  0  0  0  0
   -9.1313   -6.1495    7.1107 C   0  0  0  0  0  0  0  0  0  0  0  0
 21 22  1  0  0  0
 22 23  1  0  0  0
 22  1  1  0  0  0
  1  2  2  0  0  0
  2  3  1  0  0  0
  3  4  2  0  0  0
  4  5  1  0  0  0
  5  6  1  0  0  0
  6  7  1  0  0  0
  7  8  1  0  0  0
  8  9  2  0  0  0
  8 10  1  0  0  0
 10 15  1  0  0  0
 15 16  1  0  0  0
 16 17  1  0  0  0
 17 18  1  0  0  0
 18 19  1  0  0  0
 19 20  1  0  0  0
 10 11  1  0  0  0
 11 12  2  0  0  0
 12 13  1  0  0  0
 13 14  1  0  0  0
 14  1  1  0  0  0
 14  5  2  0  0  0
 13  7  2  0  0  0
 20 15  1  0  0  0
M  END
> <minimizedAffinity>
-1.35886

> <CNNscore>
0.2941783667

> <CNNaffinity>
6.4173827171

> <CNN_VS>
1.8878551722

> <CNNaffinity_variance>
0.1299334913

$$$$
[H]c1nc2sc3c(=O)n(C4([H])C([H])([H])C([H])([H])C([H])([H])C([H])([H])C4([H])[H])c([H])nc3c2c(N(C([H])([H])[H])C([H])([H])[H])c1[H]


 23 26  0  0  0  0  0  0  0  0999 V2000
  -17.8394   -7.3053    4.6038 C   0  0  0  0  0  0  0  0  0  0  0  0
  -18.9093   -6.5257    4.2126 C   0  0  0  0  0  0  0  0  0  0  0  0
  -18.9091   -5.1504    4.1799 C   0  0  0  0  0  0  0  0  0  0  0  0
  -17.7598   -4.5717    4.5666 N   0  0  0  0  0  0  0  0  0  0  0  0
  -16.6667   -5.2979    4.9654 C   0  0  0  0  0  0  0  0  0  0  0  0
  -15.1092   -4.8623    5.5097 S   0  0  0  0  0  0  0  0  0  0  0  0
  -14.4655   -6.4167    5.7780 C   0  0  0  0  0  0  0  0  0  0  0  0
  -13.2328   -6.9201    6.2372 C   0  0  0  0  0  0  0  0  0  0  0  0
  -12.3830   -6.0531    6.5174 O   0  0  0  0  0  0  0  0  0  0  0  0
  -13.0143   -8.2379    6.3551 N   0  0  0  0  0  0  0  0  0  0  0  0
  -14.0356   -9.0369    6.0110 C   0  0  0  0  0  0  0  0  0  0  0  0
  -15.2040   -8.5798    5.5761 N   0  0  0  0  0  0  0  0  0  0  0  0
  -15.4944   -7.2466    5.4313 C   0  0  0  0  0  0  0  0  0  0  0  0
  -16.6442   -6.6660    5.0063 C   0  0  0  0  0  0  0  0  0  0  0  0
  -11.7394   -8.7129    6.8286 C   0  0  0  0  0  0  0  0  0  0  0  0
  -11.5570   -8.4938    8.3100 C   0  0  0  0  0  0  0  0  0  0  0  0
  -10.1577   -8.9033    8.6674 C   0  0  0  0  0  0  0  0  0  0  0  0
   -9.3943   -9.5285    7.5563 C   0  0  0  0  0  0  0  0  0  0  0  0
  -10.1479  -10.5511    6.7669 C   0  0  0  0  0  0  0  0  0  0  0  0
  -11.6176  -10.2293    6.6257 C   0  0  0  0  0  0  0  0  0  0  0  0
  -17.1537   -9.6190    3.7969 C   0  0  0  0  0  0  0  0  0  0  0  0
  -17.9968   -8.7115    4.5454 N   0  0  0  0  0  0  0  0  0  0  0  0
  -19.0946   -9.2861    5.2996 C   0  0  0  0  0  0  0  0  0  0  0  0
 21 22  1  0  0  0
 22 23  1  0  0  0
 22  1  1  0  0  0
  1  2  2  0  0  0
  2  3  1  0  0  0
  3  4  2  0  0  0
  4  5  1  0  0  0
  5  6  1  0  0  0
  6  7  1  0  0  0
  7  8  1  0  0  0
  8  9  2  0  0  0
  8 10  1  0  0  0
 10 15  1  0  0  0
 15 16  1  0  0  0
 16 17  1  0  0  0
 17 18  1  0  0  0
 18 19  1  0  0  0
 19 20  1  0  0  0
 10 11  1  0  0  0
 11 12  2  0  0  0
 12 13  1  0  0  0
 13 14  1  0  0  0
 14  1  1  0  0  0
 14  5  2  0  0  0
 13  7  2  0  0  0
 20 15  1  0  0  0
M  END
> <minimizedAffinity>
-0.30984

> <CNNscore>
0.2769673765

> <CNNaffinity>
6.3161492348

> <CNN_VS>
1.7493672371

> <CNNaffinity_variance>
0.2132540047

$$$$
[H]c1nc2sc3c(=O)n(C4([H])C([H])([H])C([H])([H])C([H])([H])C([H])([H])C4([H])[H])c([H])nc3c2c(N(C([H])([H])[H])C([H])([H])[H])c1[H]


 23 26  0  0  0  0  0  0  0  0999 V2000
  -13.1782   -7.1927    9.4550 C   0  0  0  0  0  0  0  0  0  0  0  0
  -14.5080   -7.5434    9.5732 C   0  0  0  0  0  0  0  0  0  0  0  0
  -15.0976   -8.6138    8.9414 C   0  0  0  0  0  0  0  0  0  0  0  0
  -14.2763   -9.3393    8.1640 N   0  0  0  0  0  0  0  0  0  0  0  0
  -12.9477   -9.0353    8.0102 C   0  0  0  0  0  0  0  0  0  0  0  0
  -11.6841   -9.7413    7.1064 S   0  0  0  0  0  0  0  0  0  0  0  0
  -10.4179   -8.6821    7.5277 C   0  0  0  0  0  0  0  0  0  0  0  0
   -9.0534   -8.5766    7.1948 C   0  0  0  0  0  0  0  0  0  0  0  0
   -8.6339   -9.4524    6.4141 O   0  0  0  0  0  0  0  0  0  0  0  0
   -8.2840   -7.5982    7.6937 N   0  0  0  0  0  0  0  0  0  0  0  0
   -8.8924   -6.7354    8.5217 C   0  0  0  0  0  0  0  0  0  0  0  0
  -10.1771   -6.8199    8.8465 N   0  0  0  0  0  0  0  0  0  0  0  0
  -11.0201   -7.7939    8.3738 C   0  0  0  0  0  0  0  0  0  0  0  0
  -12.3399   -7.9758    8.6282 C   0  0  0  0  0  0  0  0  0  0  0  0
   -6.8924   -7.5247    7.3287 C   0  0  0  0  0  0  0  0  0  0  0  0
   -6.6576   -6.6421    6.1281 C   0  0  0  0  0  0  0  0  0  0  0  0
   -5.2054   -6.7405    5.7610 C   0  0  0  0  0  0  0  0  0  0  0  0
   -4.3790   -7.5256    6.7145 C   0  0  0  0  0  0  0  0  0  0  0  0
   -4.6257   -7.2288    8.1594 C   0  0  0  0  0  0  0  0  0  0  0  0
   -6.0686   -6.8959    8.4607 C   0  0  0  0  0  0  0  0  0  0  0  0
  -11.8308   -6.1401   11.3394 C   0  0  0  0  0  0  0  0  0  0  0  0
  -12.7248   -6.0790   10.2029 N   0  0  0  0  0  0  0  0  0  0  0  0
  -13.1975   -4.7702    9.7929 C   0  0  0  0  0  0  0  0  0  0  0  0
 21 22  1  0  0  0
 22 23  1  0  0  0
 22  1  1  0  0  0
  1  2  2  0  0  0
  2  3  1  0  0  0
  3  4  2  0  0  0
  4  5  1  0  0  0
  5  6  1  0  0  0
  6  7  1  0  0  0
  7  8  1  0  0  0
  8  9  2  0  0  0
  8 10  1  0  0  0
 10 15  1  0  0  0
 15 16  1  0  0  0
 16 17  1  0  0  0
 17 18  1  0  0  0
 18 19  1  0  0  0
 19 20  1  0  0  0
 10 11  1  0  0  0
 11 12  2  0  0  0
 12 13  1  0  0  0
 13 14  1  0  0  0
 14  1  1  0  0  0
 14  5  2  0  0  0
 13  7  2  0  0  0
 20 15  1  0  0  0
M  END
> <minimizedAffinity>
-5.43663

> <CNNscore>
0.2701328695

> <CNNaffinity>
6.4741125107

> <CNN_VS>
1.7488706112

> <CNNaffinity_variance>
0.0196900405

$$$$
[H]c1nc2sc3c(=O)n(C4([H])C([H])([H])C([H])([H])C([H])([H])C([H])([H])C4([H])[H])c([H])nc3c2c(N(C([H])([H])[H])C([H])([H])[H])c1[H]


 23 26  0  0  0  0  0  0  0  0999 V2000
   -6.7788   -8.0572    6.9282 C   0  0  0  0  0  0  0  0  0  0  0  0
   -7.7196   -8.9773    6.5116 C   0  0  0  0  0  0  0  0  0  0  0  0
   -8.6286   -9.5999    7.3355 C   0  0  0  0  0  0  0  0  0  0  0  0
   -8.5539   -9.2526    8.6313 N   0  0  0  0  0  0  0  0  0  0  0  0
   -7.6384   -8.3448    9.0994 C   0  0  0  0  0  0  0  0  0  0  0  0
   -7.2976   -7.7226   10.6514 S   0  0  0  0  0  0  0  0  0  0  0  0
   -6.0088   -6.6814   10.2548 C   0  0  0  0  0  0  0  0  0  0  0  0
   -5.1723   -5.8093   10.9783 C   0  0  0  0  0  0  0  0  0  0  0  0
   -5.4036   -5.7538   12.2014 O   0  0  0  0  0  0  0  0  0  0  0  0
   -4.2065   -5.1024   10.3737 N   0  0  0  0  0  0  0  0  0  0  0  0
   -4.0902   -5.2782    9.0487 C   0  0  0  0  0  0  0  0  0  0  0  0
   -4.8699   -6.0956    8.3508 N   0  0  0  0  0  0  0  0  0  0  0  0
   -5.8756   -6.8469    8.9048 C   0  0  0  0  0  0  0  0  0  0  0  0
   -6.7248   -7.7137    8.2988 C   0  0  0  0  0  0  0  0  0  0  0  0
   -3.3717   -4.2209   11.1492 C   0  0  0  0  0  0  0  0  0  0  0  0
   -4.0594   -3.7267   12.3976 C   0  0  0  0  0  0  0  0  0  0  0  0
   -3.1557   -2.7245   13.0553 C   0  0  0  0  0  0  0  0  0  0  0  0
   -1.8178   -2.5904   12.4226 C   0  0  0  0  0  0  0  0  0  0  0  0
   -1.1487   -3.8824   12.0764 C   0  0  0  0  0  0  0  0  0  0  0  0
   -2.1183   -4.9570   11.6419 C   0  0  0  0  0  0  0  0  0  0  0  0
   -4.5021   -7.3505    6.0385 C   0  0  0  0  0  0  0  0  0  0  0  0
   -5.9399   -7.4846    5.9414 N   0  0  0  0  0  0  0  0  0  0  0  0
   -6.5779   -6.9931    4.7349 C   0  0  0  0  0  0  0  0  0  0  0  0
 21 22  1  0  0  0
 22 23  1  0  0  0
 22  1  1  0  0  0
  1  2  2  0  0  0
  2  3  1  0  0  0
  3  4  2  0  0  0
  4  5  1  0  0  0
  5  6  1  0  0  0
  6  7  1  0  0  0
  7  8  1  0  0  0
  8  9  2  0  0  0
  8 10  1  0  0  0
 10 15  1  0  0  0
 15 16  1  0  0  0
 16 17  1  0  0  0
 17 18  1  0  0  0
 18 19  1  0  0  0
 19 20  1  0  0  0
 10 11  1  0  0  0
 11 12  2  0  0  0
 12 13  1  0  0  0
 13 14  1  0  0  0
 14  1  1  0  0  0
 14  5  2  0  0  0
 13  7  2  0  0  0
 20 15  1  0  0  0
M  END
> <minimizedAffinity>
2.66912

> <CNNscore>
0.2327157259

> <CNNaffinity>
5.0730657578

> <CNN_VS>
1.1805821657

> <CNNaffinity_variance>
0.3810397089

$$$$
[H]c1nc2sc3c(=O)n(C4([H])C([H])([H])C([H])([H])C([H])([H])C([H])([H])C4([H])[H])c([H])nc3c2c(N(C([H])([H])[H])C([H])([H])[H])c1[H]


 23 26  0  0  0  0  0  0  0  0999 V2000
   -8.5837   -8.8127    7.5335 C   0  0  0  0  0  0  0  0  0  0  0  0
   -7.3062   -8.6423    8.0276 C   0  0  0  0  0  0  0  0  0  0  0  0
   -6.9476   -7.7112    8.9747 C   0  0  0  0  0  0  0  0  0  0  0  0
   -7.9505   -6.9353    9.4190 N   0  0  0  0  0  0  0  0  0  0  0  0
   -9.2376   -7.0612    8.9619 C   0  0  0  0  0  0  0  0  0  0  0  0
  -10.6895   -6.2374    9.3158 S   0  0  0  0  0  0  0  0  0  0  0  0
  -11.7423   -7.0695    8.2662 C   0  0  0  0  0  0  0  0  0  0  0  0
  -13.1138   -6.9859    7.9565 C   0  0  0  0  0  0  0  0  0  0  0  0
  -13.7415   -6.1115    8.5841 O   0  0  0  0  0  0  0  0  0  0  0  0
  -13.6783   -7.7974    7.0506 N   0  0  0  0  0  0  0  0  0  0  0  0
  -12.8603   -8.6849    6.4647 C   0  0  0  0  0  0  0  0  0  0  0  0
  -11.5656   -8.7779    6.7445 N   0  0  0  0  0  0  0  0  0  0  0  0
  -10.9246   -7.9809    7.6592 C   0  0  0  0  0  0  0  0  0  0  0  0
   -9.6173   -7.9796    8.0204 C   0  0  0  0  0  0  0  0  0  0  0  0
  -15.0848   -7.6802    6.7620 C   0  0  0  0  0  0  0  0  0  0  0  0
  -15.4753   -8.4028    5.4966 C   0  0  0  0  0  0  0  0  0  0  0  0
  -16.9224   -8.1088    5.2262 C   0  0  0  0  0  0  0  0  0  0  0  0
  -17.6076   -7.3412    6.2983 C   0  0  0  0  0  0  0  0  0  0  0  0
  -17.3290   -7.8111    7.6905 C   0  0  0  0  0  0  0  0  0  0  0  0
  -15.9212   -8.3290    7.8733 C   0  0  0  0  0  0  0  0  0  0  0  0
   -9.7295  -10.9340    6.7201 C   0  0  0  0  0  0  0  0  0  0  0  0
   -8.7875   -9.8437    6.5843 N   0  0  0  0  0  0  0  0  0  0  0  0
   -7.9840   -9.7999    5.3773 C   0  0  0  0  0  0  0  0  0  0  0  0
 21 22  1  0  0  0
 22 23  1  0  0  0
 22  1  1  0  0  0
  1  2  2  0  0  0
  2  3  1  0  0  0
  3  4  2  0  0  0
  4  5  1  0  0  0
  5  6  1  0  0  0
  6  7  1  0  0  0
  7  8  1  0  0  0
  8  9  2  0  0  0
  8 10  1  0  0  0
 10 15  1  0  0  0
 15 16  1  0  0  0
 16 17  1  0  0  0
 17 18  1  0  0  0
 18 19  1  0  0  0
 19 20  1  0  0  0
 10 11  1  0  0  0
 11 12  2  0  0  0
 12 13  1  0  0  0
 13 14  1  0  0  0
 14  1  1  0  0  0
 14  5  2  0  0  0
 13  7  2  0  0  0
 20 15  1  0  0  0
M  END
> <minimizedAffinity>
-2.64174

> <CNNscore>
0.2169774622

> <CNNaffinity>
6.2015771866

> <CNN_VS>
1.3456025124

> <CNNaffinity_variance>
0.1565280408

$$$$
[H]c1nc2sc3c(=O)n(C4([H])C([H])([H])C([H])([H])C([H])([H])C([H])([H])C4([H])[H])c([H])nc3c2c(N(C([H])([H])[H])C([H])([H])[H])c1[H]


 23 26  0  0  0  0  0  0  0  0999 V2000
  -13.6334   -3.8965   11.2267 C   0  0  0  0  0  0  0  0  0  0  0  0
  -14.1007   -3.1820   12.3114 C   0  0  0  0  0  0  0  0  0  0  0  0
  -14.8857   -3.7006   13.3150 C   0  0  0  0  0  0  0  0  0  0  0  0
  -15.1922   -5.0022   13.1833 N   0  0  0  0  0  0  0  0  0  0  0  0
  -14.7555   -5.7588   12.1258 C   0  0  0  0  0  0  0  0  0  0  0  0
  -14.9808   -7.3919   11.6851 S   0  0  0  0  0  0  0  0  0  0  0  0
  -14.0856   -7.4129   10.2358 C   0  0  0  0  0  0  0  0  0  0  0  0
  -13.7859   -8.3860    9.2625 C   0  0  0  0  0  0  0  0  0  0  0  0
  -14.2668   -9.5142    9.4824 O   0  0  0  0  0  0  0  0  0  0  0  0
  -13.0372   -8.0958    8.1887 N   0  0  0  0  0  0  0  0  0  0  0  0
  -12.5967   -6.8314    8.1027 C   0  0  0  0  0  0  0  0  0  0  0  0
  -12.8691   -5.9015    9.0106 N   0  0  0  0  0  0  0  0  0  0  0  0
  -13.6272   -6.1298   10.1313 C   0  0  0  0  0  0  0  0  0  0  0  0
  -13.9744   -5.2643   11.1162 C   0  0  0  0  0  0  0  0  0  0  0  0
  -12.7531   -9.1194    7.2157 C   0  0  0  0  0  0  0  0  0  0  0  0
  -13.9763   -9.5231    6.4305 C   0  0  0  0  0  0  0  0  0  0  0  0
  -13.5962  -10.6743    5.5453 C   0  0  0  0  0  0  0  0  0  0  0  0
  -12.1488  -11.0107    5.5567 C   0  0  0  0  0  0  0  0  0  0  0  0
  -11.2254   -9.8379    5.4648 C   0  0  0  0  0  0  0  0  0  0  0  0
  -11.7513   -8.6096    6.1706 C   0  0  0  0  0  0  0  0  0  0  0  0
  -12.9663   -1.8382    9.8878 C   0  0  0  0  0  0  0  0  0  0  0  0
  -12.8060   -3.2161   10.3005 N   0  0  0  0  0  0  0  0  0  0  0  0
  -11.7080   -3.9652    9.7196 C   0  0  0  0  0  0  0  0  0  0  0  0
 21 22  1  0  0  0
 22 23  1  0  0  0
 22  1  1  0  0  0
  1  2  2  0  0  0
  2  3  1  0  0  0
  3  4  2  0  0  0
  4  5  1  0  0  0
  5  6  1  0  0  0
  6  7  1  0  0  0
  7  8  1  0  0  0
  8  9  2  0  0  0
  8 10  1  0  0  0
 10 15  1  0  0  0
 15 16  1  0  0  0
 16 17  1  0  0  0
 17 18  1  0  0  0
 18 19  1  0  0  0
 19 20  1  0  0  0
 10 11  1  0  0  0
 11 12  2  0  0  0
 12 13  1  0  0  0
 13 14  1  0  0  0
 14  1  1  0  0  0
 14  5  2  0  0  0
 13  7  2  0  0  0
 20 15  1  0  0  0
M  END
> <minimizedAffinity>
49.16604

> <CNNscore>
0.1756564081

> <CNNaffinity>
5.5669546127

> <CNN_VS>
0.9778712392

> <CNNaffinity_variance>
0.6405653954

$$$$
[H]c1nc2sc3c(=O)n(C4([H])C([H])([H])C([H])([H])C([H])([H])C([H])([H])C4([H])[H])c([H])nc3c2c(N(C([H])([H])[H])C([H])([H])[H])c1[H]


 23 26  0  0  0  0  0  0  0  0999 V2000
  -15.6473   -3.1701    3.6598 C   0  0  0  0  0  0  0  0  0  0  0  0
  -14.5750   -2.3110    3.5274 C   0  0  0  0  0  0  0  0  0  0  0  0
  -13.4027   -2.4014    4.2417 C   0  0  0  0  0  0  0  0  0  0  0  0
  -13.3475   -3.4173    5.1194 N   0  0  0  0  0  0  0  0  0  0  0  0
  -14.3836   -4.2994    5.2918 C   0  0  0  0  0  0  0  0  0  0  0  0
  -14.6119   -5.6497    6.3100 S   0  0  0  0  0  0  0  0  0  0  0  0
  -16.1858   -6.0932    5.8318 C   0  0  0  0  0  0  0  0  0  0  0  0
  -17.0937   -7.1038    6.2038 C   0  0  0  0  0  0  0  0  0  0  0  0
  -16.6811   -7.8823    7.0847 O   0  0  0  0  0  0  0  0  0  0  0  0
  -18.3055   -7.2001    5.6377 N   0  0  0  0  0  0  0  0  0  0  0  0
  -18.5936   -6.2809    4.7039 C   0  0  0  0  0  0  0  0  0  0  0  0
  -17.7502   -5.3217    4.3408 N   0  0  0  0  0  0  0  0  0  0  0  0
  -16.4970   -5.1657    4.8776 C   0  0  0  0  0  0  0  0  0  0  0  0
  -15.5586   -4.2287    4.5931 C   0  0  0  0  0  0  0  0  0  0  0  0
  -19.2054   -8.2483    6.0459 C   0  0  0  0  0  0  0  0  0  0  0  0
  -19.0130   -9.5151    5.2496 C   0  0  0  0  0  0  0  0  0  0  0  0
  -20.0783  -10.4872    5.6662 C   0  0  0  0  0  0  0  0  0  0  0  0
  -20.9178  -10.0331    6.8053 C   0  0  0  0  0  0  0  0  0  0  0  0
  -20.1635   -9.4269    7.9456 C   0  0  0  0  0  0  0  0  0  0  0  0
  -18.9475   -8.6449    7.5060 C   0  0  0  0  0  0  0  0  0  0  0  0
  -17.8575   -2.0433    3.0946 C   0  0  0  0  0  0  0  0  0  0  0  0
  -16.7673   -2.9549    2.8205 N   0  0  0  0  0  0  0  0  0  0  0  0
  -16.8231   -3.7124    1.5846 C   0  0  0  0  0  0  0  0  0  0  0  0
 21 22  1  0  0  0
 22 23  1  0  0  0
 22  1  1  0  0  0
  1  2  2  0  0  0
  2  3  1  0  0  0
  3  4  2  0  0  0
  4  5  1  0  0  0
  5  6  1  0  0  0
  6  7  1  0  0  0
  7  8  1  0  0  0
  8  9  2  0  0  0
  8 10  1  0  0  0
 10 15  1  0  0  0
 15 16  1  0  0  0
 16 17  1  0  0  0
 17 18  1  0  0  0
 18 19  1  0  0  0
 19 20  1  0  0  0
 10 11  1  0  0  0
 11 12  2  0  0  0
 12 13  1  0  0  0
 13 14  1  0  0  0
 14  1  1  0  0  0
 14  5  2  0  0  0
 13  7  2  0  0  0
 20 15  1  0  0  0
M  END
> <minimizedAffinity>
39.51051

> <CNNscore>
0.1513239294

> <CNNaffinity>
5.7068586349

> <CNN_VS>
0.8635842800

> <CNNaffinity_variance>
0.5011049509

$$$$
[H]c1c([H])c(-c2c(C([H])([H])C([H])([H])[H])c(C3=NC4(C(=O)N3[H])C([H])([H])C([H])([H])C4([H])[H])nn2-c2c([H])c([H])c(Cl)c([H])c2Cl)c([H])c([H])c1Cl


 32 36  0  0  0  0  0  0  0  0999 V2000
  -11.4890   -8.0722    7.3024 C   0  0  0  0  0  0  0  0  0  0  0  0
  -12.7971   -7.7190    7.4390 C   0  0  0  0  0  0  0  0  0  0  0  0
  -12.8120   -6.9985    8.6053 N   0  0  0  0  0  0  0  0  0  0  0  0
  -11.6101   -6.9091    9.1438 N   0  0  0  0  0  0  0  0  0  0  0  0
  -10.7373   -7.5546    8.3774 C   0  0  0  0  0  0  0  0  0  0  0  0
  -13.9828   -7.9241    6.6245 C   0  0  0  0  0  0  0  0  0  0  0  0
  -14.0513   -7.4530    5.3790 N   0  0  0  0  0  0  0  0  0  0  0  0
  -15.2865   -7.7588    4.7597 C   0  0  0  0  0  0  0  0  0  0  0  0
  -15.2136   -8.4080    3.3962 C   0  0  0  0  0  0  0  0  0  0  0  0
  -15.6279   -7.1027    2.7854 C   0  0  0  0  0  0  0  0  0  0  0  0
  -16.0466   -6.6071    4.1491 C   0  0  0  0  0  0  0  0  0  0  0  0
  -16.0541   -8.5517    5.7320 C   0  0  0  0  0  0  0  0  0  0  0  0
  -17.1848   -9.0789    5.6444 O   0  0  0  0  0  0  0  0  0  0  0  0
  -15.1759   -8.6025    6.8918 N   0  0  0  0  0  0  0  0  0  0  0  0
  -15.4847   -9.1054    7.7493 H   0  0  0  0  0  0  0  0  0  0  0  0
  -11.3288   -6.2087   10.3563 C   0  0  0  0  0  0  0  0  0  0  0  0
  -10.3321   -6.5908   11.2503 C   0  0  0  0  0  0  0  0  0  0  0  0
  -10.1123   -5.9057   12.4179 C   0  0  0  0  0  0  0  0  0  0  0  0
  -10.8754   -4.8172   12.7374 C   0  0  0  0  0  0  0  0  0  0  0  0
  -10.6481   -3.8964   14.2110 Cl  0  0  0  0  0  0  0  0  0  0  0  0
  -11.8672   -4.4124   11.8804 C   0  0  0  0  0  0  0  0  0  0  0  0
  -12.0867   -5.1199   10.6862 C   0  0  0  0  0  0  0  0  0  0  0  0
  -13.4052   -4.5712    9.6536 Cl  0  0  0  0  0  0  0  0  0  0  0  0
   -9.2912   -7.5877    8.4617 C   0  0  0  0  0  0  0  0  0  0  0  0
   -8.5421   -6.4669    8.2223 C   0  0  0  0  0  0  0  0  0  0  0  0
   -7.1549   -6.5245    8.1803 C   0  0  0  0  0  0  0  0  0  0  0  0
   -6.4663   -7.6995    8.3760 C   0  0  0  0  0  0  0  0  0  0  0  0
   -4.7178   -7.7883    8.3274 Cl  0  0  0  0  0  0  0  0  0  0  0  0
   -7.2091   -8.8357    8.6177 C   0  0  0  0  0  0  0  0  0  0  0  0
   -8.5880   -8.7621    8.6548 C   0  0  0  0  0  0  0  0  0  0  0  0
   -9.4613   -8.7688    6.0872 C   0  0  0  0  0  0  0  0  0  0  0  0
  -10.9984   -8.9871    6.2207 C   0  0  0  0  0  0  0  0  0  0  0  0
 31 32  1  0  0  0
 32  1  1  0  0  0
  1  2  1  0  0  0
  2  6  1  0  0  0
  6  7  2  0  0  0
  7  8  1  0  0  0
  8  9  1  0  0  0
  9 10  1  0  0  0
 10 11  1  0  0  0
  8 12  1  0  0  0
 12 13  2  0  0  0
 12 14  1  0  0  0
  2  3  2  0  0  0
  3  4  1  0  0  0
  4 16  1  0  0  0
 16 17  2  0  0  0
 17 18  1  0  0  0
 18 19  2  0  0  0
 19 20  1  0  0  0
 19 21  1  0  0  0
 21 22  2  0  0  0
 22 23  1  0  0  0
  4  5  1  0  0  0
  5 24  1  0  0  0
 24 25  2  0  0  0
 25 26  1  0  0  0
 26 27  2  0  0  0
 27 28  1  0  0  0
 27 29  1  0  0  0
 29 30  2  0  0  0
  5  1  2  0  0  0
 30 24  1  0  0  0
 14  6  1  0  0  0
 22 16  1  0  0  0
 11  8  1  0  0  0
 14 15  1  0  0  0
M  END
> <minimizedAffinity>
8.86505

> <CNNscore>
0.4070810080

> <CNNaffinity>
7.3684082031

> <CNN_VS>
2.9995391369

> <CNNaffinity_variance>
0.9649664164

$$$$
[H]c1c([H])c(-c2c(C([H])([H])C([H])([H])[H])c(C3=NC4(C(=O)N3[H])C([H])([H])C([H])([H])C4([H])[H])nn2-c2c([H])c([H])c(Cl)c([H])c2Cl)c([H])c([H])c1Cl


 32 36  0  0  0  0  0  0  0  0999 V2000
   -5.1667   -9.4706    7.4842 C   0  0  0  0  0  0  0  0  0  0  0  0
   -3.8480   -9.7686    7.3206 C   0  0  0  0  0  0  0  0  0  0  0  0
   -3.2837   -8.5573    7.0144 N   0  0  0  0  0  0  0  0  0  0  0  0
   -4.1796   -7.5879    6.9949 N   0  0  0  0  0  0  0  0  0  0  0  0
   -5.3752   -8.0903    7.2843 C   0  0  0  0  0  0  0  0  0  0  0  0
   -3.0704  -10.9889    7.4533 C   0  0  0  0  0  0  0  0  0  0  0  0
   -2.9814  -11.6237    8.6224 N   0  0  0  0  0  0  0  0  0  0  0  0
   -2.1797  -12.7869    8.5386 C   0  0  0  0  0  0  0  0  0  0  0  0
   -2.7854  -14.0626    9.0787 C   0  0  0  0  0  0  0  0  0  0  0  0
   -1.8848  -13.9498   10.2723 C   0  0  0  0  0  0  0  0  0  0  0  0
   -1.0600  -12.9169    9.5418 C   0  0  0  0  0  0  0  0  0  0  0  0
   -1.7591  -12.9018    7.1339 C   0  0  0  0  0  0  0  0  0  0  0  0
   -1.0696  -13.7709    6.5566 O   0  0  0  0  0  0  0  0  0  0  0  0
   -2.3448  -11.7238    6.5107 N   0  0  0  0  0  0  0  0  0  0  0  0
   -2.1908  -11.5482    5.4963 H   0  0  0  0  0  0  0  0  0  0  0  0
   -3.8717   -6.2218    6.7141 C   0  0  0  0  0  0  0  0  0  0  0  0
   -4.3746   -5.1538    7.4523 C   0  0  0  0  0  0  0  0  0  0  0  0
   -4.0753   -3.8543    7.1322 C   0  0  0  0  0  0  0  0  0  0  0  0
   -3.2658   -3.5712    6.0674 C   0  0  0  0  0  0  0  0  0  0  0  0
   -2.8426   -1.9350    5.6036 Cl  0  0  0  0  0  0  0  0  0  0  0  0
   -2.7527   -4.5985    5.3168 C   0  0  0  0  0  0  0  0  0  0  0  0
   -3.0645   -5.9275    5.6508 C   0  0  0  0  0  0  0  0  0  0  0  0
   -2.4066   -7.1949    4.6180 Cl  0  0  0  0  0  0  0  0  0  0  0  0
   -6.6207   -7.3993    7.5501 C   0  0  0  0  0  0  0  0  0  0  0  0
   -7.1874   -6.5760    6.6144 C   0  0  0  0  0  0  0  0  0  0  0  0
   -8.3126   -5.8174    6.9109 C   0  0  0  0  0  0  0  0  0  0  0  0
   -8.9123   -5.8532    8.1488 C   0  0  0  0  0  0  0  0  0  0  0  0
  -10.3317   -4.9039    8.5379 Cl  0  0  0  0  0  0  0  0  0  0  0  0
   -8.3511   -6.6782    9.1004 C   0  0  0  0  0  0  0  0  0  0  0  0
   -7.2312   -7.4252    8.7902 C   0  0  0  0  0  0  0  0  0  0  0  0
   -7.5164  -10.0328    6.9984 C   0  0  0  0  0  0  0  0  0  0  0  0
   -6.2180  -10.5148    7.7126 C   0  0  0  0  0  0  0  0  0  0  0  0
 31 32  1  0  0  0
 32  1  1  0  0  0
  1  2  1  0  0  0
  2  6  1  0  0  0
  6  7  2  0  0  0
  7  8  1  0  0  0
  8  9  1  0  0  0
  9 10  1  0  0  0
 10 11  1  0  0  0
  8 12  1  0  0  0
 12 13  2  0  0  0
 12 14  1  0  0  0
  2  3  2  0  0  0
  3  4  1  0  0  0
  4 16  1  0  0  0
 16 17  2  0  0  0
 17 18  1  0  0  0
 18 19  2  0  0  0
 19 20  1  0  0  0
 19 21  1  0  0  0
 21 22  2  0  0  0
 22 23  1  0  0  0
  4  5  1  0  0  0
  5 24  1  0  0  0
 24 25  2  0  0  0
 25 26  1  0  0  0
 26 27  2  0  0  0
 27 28  1  0  0  0
 27 29  1  0  0  0
 29 30  2  0  0  0
  5  1  2  0  0  0
 30 24  1  0  0  0
 14  6  1  0  0  0
 22 16  1  0  0  0
 11  8  1  0  0  0
 14 15  1  0  0  0
M  END
> <minimizedAffinity>
11.61166

> <CNNscore>
0.3741951287

> <CNNaffinity>
6.2855997086

> <CNN_VS>
2.3520407677

> <CNNaffinity_variance>
1.1701294184

$$$$
[H]c1c([H])c(-c2c(C([H])([H])C([H])([H])[H])c(C3=NC4(C(=O)N3[H])C([H])([H])C([H])([H])C4([H])[H])nn2-c2c([H])c([H])c(Cl)c([H])c2Cl)c([H])c([H])c1Cl


 32 36  0  0  0  0  0  0  0  0999 V2000
  -13.2231   -7.8116    6.6474 C   0  0  0  0  0  0  0  0  0  0  0  0
  -13.1864   -6.8194    7.5794 C   0  0  0  0  0  0  0  0  0  0  0  0
  -14.2720   -6.0445    7.2622 N   0  0  0  0  0  0  0  0  0  0  0  0
  -14.9296   -6.5213    6.2216 N   0  0  0  0  0  0  0  0  0  0  0  0
  -14.3293   -7.6264    5.7926 C   0  0  0  0  0  0  0  0  0  0  0  0
  -12.3231   -6.5391    8.7142 C   0  0  0  0  0  0  0  0  0  0  0  0
  -12.8251   -6.0945    9.8666 N   0  0  0  0  0  0  0  0  0  0  0  0
  -11.8203   -5.8844   10.8408 C   0  0  0  0  0  0  0  0  0  0  0  0
  -12.0483   -6.5234   12.1920 C   0  0  0  0  0  0  0  0  0  0  0  0
  -12.3783   -5.1688   12.7438 C   0  0  0  0  0  0  0  0  0  0  0  0
  -11.7898   -4.5312   11.5078 C   0  0  0  0  0  0  0  0  0  0  0  0
  -10.5494   -6.2903   10.2217 C   0  0  0  0  0  0  0  0  0  0  0  0
   -9.3880   -6.3189   10.6849 O   0  0  0  0  0  0  0  0  0  0  0  0
  -10.9409   -6.6771    8.8741 N   0  0  0  0  0  0  0  0  0  0  0  0
  -10.2164   -7.0034    8.2016 H   0  0  0  0  0  0  0  0  0  0  0  0
  -16.1062   -5.9215    5.6777 C   0  0  0  0  0  0  0  0  0  0  0  0
  -17.3972   -6.3048    6.0313 C   0  0  0  0  0  0  0  0  0  0  0  0
  -18.5012   -5.7209    5.4646 C   0  0  0  0  0  0  0  0  0  0  0  0
  -18.3603   -4.7359    4.5270 C   0  0  0  0  0  0  0  0  0  0  0  0
  -19.7268   -3.9474    3.7639 Cl  0  0  0  0  0  0  0  0  0  0  0  0
  -17.1031   -4.3332    4.1536 C   0  0  0  0  0  0  0  0  0  0  0  0
  -15.9768   -4.9368    4.7384 C   0  0  0  0  0  0  0  0  0  0  0  0
  -14.3932   -4.4014    4.1804 Cl  0  0  0  0  0  0  0  0  0  0  0  0
  -14.7731   -8.5857    4.8016 C   0  0  0  0  0  0  0  0  0  0  0  0
  -14.0892   -8.7597    3.6283 C   0  0  0  0  0  0  0  0  0  0  0  0
  -14.5799   -9.5862    2.6255 C   0  0  0  0  0  0  0  0  0  0  0  0
  -15.7677  -10.2681    2.7569 C   0  0  0  0  0  0  0  0  0  0  0  0
  -16.3992  -11.3146    1.5026 Cl  0  0  0  0  0  0  0  0  0  0  0  0
  -16.4665  -10.1012    3.9338 C   0  0  0  0  0  0  0  0  0  0  0  0
  -15.9657   -9.2746    4.9209 C   0  0  0  0  0  0  0  0  0  0  0  0
  -10.8172   -8.2045    7.0090 C   0  0  0  0  0  0  0  0  0  0  0  0
  -12.1476   -8.8476    6.5141 C   0  0  0  0  0  0  0  0  0  0  0  0
 31 32  1  0  0  0
 32  1  1  0  0  0
  1  2  1  0  0  0
  2  6  1  0  0  0
  6  7  2  0  0  0
  7  8  1  0  0  0
  8  9  1  0  0  0
  9 10  1  0  0  0
 10 11  1  0  0  0
  8 12  1  0  0  0
 12 13  2  0  0  0
 12 14  1  0  0  0
  2  3  2  0  0  0
  3  4  1  0  0  0
  4 16  1  0  0  0
 16 17  2  0  0  0
 17 18  1  0  0  0
 18 19  2  0  0  0
 19 20  1  0  0  0
 19 21  1  0  0  0
 21 22  2  0  0  0
 22 23  1  0  0  0
  4  5  1  0  0  0
  5 24  1  0  0  0
 24 25  2  0  0  0
 25 26  1  0  0  0
 26 27  2  0  0  0
 27 28  1  0  0  0
 27 29  1  0  0  0
 29 30  2  0  0  0
  5  1  2  0  0  0
 30 24  1  0  0  0
 14  6  1  0  0  0
 22 16  1  0  0  0
 11  8  1  0  0  0
 14 15  1  0  0  0
M  END
> <minimizedAffinity>
12.00728

> <CNNscore>
0.3715209961

> <CNNaffinity>
7.1754593849

> <CNN_VS>
2.6658337116

> <CNNaffinity_variance>
0.8449207544

$$$$
[H]c1c([H])c(-c2c(C([H])([H])C([H])([H])[H])c(C3=NC4(C(=O)N3[H])C([H])([H])C([H])([H])C4([H])[H])nn2-c2c([H])c([H])c(Cl)c([H])c2Cl)c([H])c([H])c1Cl


 32 36  0  0  0  0  0  0  0  0999 V2000
  -13.1663   -8.1602    5.9357 C   0  0  0  0  0  0  0  0  0  0  0  0
  -12.9178   -7.1887    6.8572 C   0  0  0  0  0  0  0  0  0  0  0  0
  -13.9859   -6.3400    6.7208 N   0  0  0  0  0  0  0  0  0  0  0  0
  -14.8291   -6.7554    5.7939 N   0  0  0  0  0  0  0  0  0  0  0  0
  -14.3783   -7.8892    5.2677 C   0  0  0  0  0  0  0  0  0  0  0  0
  -11.8703   -6.9844    7.8433 C   0  0  0  0  0  0  0  0  0  0  0  0
  -10.5926   -7.2269    7.5493 N   0  0  0  0  0  0  0  0  0  0  0  0
   -9.7342   -6.9656    8.6436 C   0  0  0  0  0  0  0  0  0  0  0  0
   -8.5430   -6.0763    8.3677 C   0  0  0  0  0  0  0  0  0  0  0  0
   -7.6634   -7.2897    8.4159 C   0  0  0  0  0  0  0  0  0  0  0  0
   -8.7902   -8.0710    9.0488 C   0  0  0  0  0  0  0  0  0  0  0  0
  -10.5873   -6.4605    9.7301 C   0  0  0  0  0  0  0  0  0  0  0  0
  -10.2962   -6.0668   10.8809 O   0  0  0  0  0  0  0  0  0  0  0  0
  -11.9252   -6.5149    9.1592 N   0  0  0  0  0  0  0  0  0  0  0  0
  -12.7415   -6.2167    9.7322 H   0  0  0  0  0  0  0  0  0  0  0  0
  -16.0341   -6.0717    5.4468 C   0  0  0  0  0  0  0  0  0  0  0  0
  -17.2973   -6.4813    5.8654 C   0  0  0  0  0  0  0  0  0  0  0  0
  -18.4325   -5.8112    5.4869 C   0  0  0  0  0  0  0  0  0  0  0  0
  -18.3516   -4.7110    4.6795 C   0  0  0  0  0  0  0  0  0  0  0  0
  -19.7606   -3.8082    4.1590 Cl  0  0  0  0  0  0  0  0  0  0  0  0
  -17.1233   -4.2790    4.2471 C   0  0  0  0  0  0  0  0  0  0  0  0
  -15.9647   -4.9712    4.6387 C   0  0  0  0  0  0  0  0  0  0  0  0
  -14.4248   -4.3875    4.0113 Cl  0  0  0  0  0  0  0  0  0  0  0  0
  -15.0350   -8.8006    4.3525 C   0  0  0  0  0  0  0  0  0  0  0  0
  -16.0616   -9.6051    4.7692 C   0  0  0  0  0  0  0  0  0  0  0  0
  -16.6089  -10.5660    3.9287 C   0  0  0  0  0  0  0  0  0  0  0  0
  -16.1535  -10.7583    2.6447 C   0  0  0  0  0  0  0  0  0  0  0  0
  -16.8336  -11.9645    1.5724 Cl  0  0  0  0  0  0  0  0  0  0  0  0
  -15.1195   -9.9547    2.2129 C   0  0  0  0  0  0  0  0  0  0  0  0
  -14.5851   -9.0046    3.0614 C   0  0  0  0  0  0  0  0  0  0  0  0
  -12.1585  -10.2090    6.8631 C   0  0  0  0  0  0  0  0  0  0  0  0
  -12.1963   -9.2608    5.6271 C   0  0  0  0  0  0  0  0  0  0  0  0
 31 32  1  0  0  0
 32  1  1  0  0  0
  1  2  1  0  0  0
  2  6  1  0  0  0
  6  7  2  0  0  0
  7  8  1  0  0  0
  8  9  1  0  0  0
  9 10  1  0  0  0
 10 11  1  0  0  0
  8 12  1  0  0  0
 12 13  2  0  0  0
 12 14  1  0  0  0
  2  3  2  0  0  0
  3  4  1  0  0  0
  4 16  1  0  0  0
 16 17  2  0  0  0
 17 18  1  0  0  0
 18 19  2  0  0  0
 19 20  1  0  0  0
 19 21  1  0  0  0
 21 22  2  0  0  0
 22 23  1  0  0  0
  4  5  1  0  0  0
  5 24  1  0  0  0
 24 25  2  0  0  0
 25 26  1  0  0  0
 26 27  2  0  0  0
 27 28  1  0  0  0
 27 29  1  0  0  0
 29 30  2  0  0  0
  5  1  2  0  0  0
 30 24  1  0  0  0
 14  6  1  0  0  0
 22 16  1  0  0  0
 11  8  1  0  0  0
 14 15  1  0  0  0
M  END
> <minimizedAffinity>
11.86024

> <CNNscore>
0.3702553809

> <CNNaffinity>
7.2136864662

> <CNN_VS>
2.6709063053

> <CNNaffinity_variance>
0.9576512575

$$$$
[H]c1c([H])c(-c2c(C([H])([H])C([H])([H])[H])c(C3=NC4(C(=O)N3[H])C([H])([H])C([H])([H])C4([H])[H])nn2-c2c([H])c([H])c(Cl)c([H])c2Cl)c([H])c([H])c1Cl


 32 36  0  0  0  0  0  0  0  0999 V2000
  -13.5184   -8.3598    6.5808 C   0  0  0  0  0  0  0  0  0  0  0  0
  -14.7295   -7.7867    6.8243 C   0  0  0  0  0  0  0  0  0  0  0  0
  -14.5590   -7.1893    8.0464 N   0  0  0  0  0  0  0  0  0  0  0  0
  -13.3399   -7.3736    8.5183 N   0  0  0  0  0  0  0  0  0  0  0  0
  -12.6377   -8.0931    7.6494 C   0  0  0  0  0  0  0  0  0  0  0  0
  -15.9662   -7.6924    6.0671 C   0  0  0  0  0  0  0  0  0  0  0  0
  -16.2023   -6.6558    5.2625 N   0  0  0  0  0  0  0  0  0  0  0  0
  -17.4590   -6.7547    4.6194 C   0  0  0  0  0  0  0  0  0  0  0  0
  -17.4621   -6.5829    3.1172 C   0  0  0  0  0  0  0  0  0  0  0  0
  -18.0556   -5.2187    3.3042 C   0  0  0  0  0  0  0  0  0  0  0  0
  -18.3808   -5.5658    4.7375 C   0  0  0  0  0  0  0  0  0  0  0  0
  -18.0482   -8.0311    5.0517 C   0  0  0  0  0  0  0  0  0  0  0  0
  -19.1276   -8.5797    4.7386 O   0  0  0  0  0  0  0  0  0  0  0  0
  -17.0578   -8.5616    5.9773 N   0  0  0  0  0  0  0  0  0  0  0  0
  -17.2311   -9.4730    6.4494 H   0  0  0  0  0  0  0  0  0  0  0  0
  -12.8805   -6.8547    9.7671 C   0  0  0  0  0  0  0  0  0  0  0  0
  -12.4099   -7.6550   10.8048 C   0  0  0  0  0  0  0  0  0  0  0  0
  -12.0030   -7.1178   11.9993 C   0  0  0  0  0  0  0  0  0  0  0  0
  -12.0495   -5.7668   12.2037 C   0  0  0  0  0  0  0  0  0  0  0  0
  -11.5447   -5.0146   13.7039 Cl  0  0  0  0  0  0  0  0  0  0  0  0
  -12.5082   -4.9475   11.2036 C   0  0  0  0  0  0  0  0  0  0  0  0
  -12.9240   -5.5055    9.9826 C   0  0  0  0  0  0  0  0  0  0  0  0
  -13.5424   -4.3988    8.7584 Cl  0  0  0  0  0  0  0  0  0  0  0  0
  -11.2215   -8.3992    7.6445 C   0  0  0  0  0  0  0  0  0  0  0  0
  -10.2833   -7.4128    7.7911 C   0  0  0  0  0  0  0  0  0  0  0  0
   -8.9273   -7.6852    7.6628 C   0  0  0  0  0  0  0  0  0  0  0  0
   -8.4591   -8.9488    7.3851 C   0  0  0  0  0  0  0  0  0  0  0  0
   -6.7529   -9.3087    7.2215 Cl  0  0  0  0  0  0  0  0  0  0  0  0
   -9.3938   -9.9513    7.2348 C   0  0  0  0  0  0  0  0  0  0  0  0
  -10.7388   -9.6639    7.3640 C   0  0  0  0  0  0  0  0  0  0  0  0
  -14.2193   -8.7950    4.2586 C   0  0  0  0  0  0  0  0  0  0  0  0
  -13.2554   -9.2428    5.3981 C   0  0  0  0  0  0  0  0  0  0  0  0
 31 32  1  0  0  0
 32  1  1  0  0  0
  1  2  1  0  0  0
  2  6  1  0  0  0
  6  7  2  0  0  0
  7  8  1  0  0  0
  8  9  1  0  0  0
  9 10  1  0  0  0
 10 11  1  0  0  0
  8 12  1  0  0  0
 12 13  2  0  0  0
 12 14  1  0  0  0
  2  3  2  0  0  0
  3  4  1  0  0  0
  4 16  1  0  0  0
 16 17  2  0  0  0
 17 18  1  0  0  0
 18 19  2  0  0  0
 19 20  1  0  0  0
 19 21  1  0  0  0
 21 22  2  0  0  0
 22 23  1  0  0  0
  4  5  1  0  0  0
  5 24  1  0  0  0
 24 25  2  0  0  0
 25 26  1  0  0  0
 26 27  2  0  0  0
 27 28  1  0  0  0
 27 29  1  0  0  0
 29 30  2  0  0  0
  5  1  2  0  0  0
 30 24  1  0  0  0
 14  6  1  0  0  0
 22 16  1  0  0  0
 11  8  1  0  0  0
 14 15  1  0  0  0
M  END
> <minimizedAffinity>
-2.93662

> <CNNscore>
0.3657996058

> <CNNaffinity>
7.5085816383

> <CNN_VS>
2.7466361523

> <CNNaffinity_variance>
0.1596020758

$$$$
[H]c1c([H])c(-c2c(C([H])([H])C([H])([H])[H])c(C3=NC4(C(=O)N3[H])C([H])([H])C([H])([H])C4([H])[H])nn2-c2c([H])c([H])c(Cl)c([H])c2Cl)c([H])c([H])c1Cl


 32 36  0  0  0  0  0  0  0  0999 V2000
   -9.8342   -7.8636    8.1280 C   0  0  0  0  0  0  0  0  0  0  0  0
   -9.2019   -7.4325    7.0016 C   0  0  0  0  0  0  0  0  0  0  0  0
  -10.2292   -6.9864    6.2109 N   0  0  0  0  0  0  0  0  0  0  0  0
  -11.4013   -7.1258    6.8020 N   0  0  0  0  0  0  0  0  0  0  0  0
  -11.2247   -7.6639    8.0041 C   0  0  0  0  0  0  0  0  0  0  0  0
   -7.8070   -7.3465    6.6037 C   0  0  0  0  0  0  0  0  0  0  0  0
   -7.0646   -6.2865    6.9245 N   0  0  0  0  0  0  0  0  0  0  0  0
   -5.7382   -6.3986    6.4442 C   0  0  0  0  0  0  0  0  0  0  0  0
   -4.6352   -6.1673    7.4521 C   0  0  0  0  0  0  0  0  0  0  0  0
   -4.3803   -4.8307    6.8221 C   0  0  0  0  0  0  0  0  0  0  0  0
   -5.2085   -5.2446    5.6289 C   0  0  0  0  0  0  0  0  0  0  0  0
   -5.6448   -7.7089    5.7826 C   0  0  0  0  0  0  0  0  0  0  0  0
   -4.6773   -8.2778    5.2308 O   0  0  0  0  0  0  0  0  0  0  0  0
   -6.9924   -8.2449    5.9075 N   0  0  0  0  0  0  0  0  0  0  0  0
   -7.2138   -9.1793    5.5057 H   0  0  0  0  0  0  0  0  0  0  0  0
  -12.6432   -6.7362    6.2139 C   0  0  0  0  0  0  0  0  0  0  0  0
  -13.8780   -7.2236    6.6336 C   0  0  0  0  0  0  0  0  0  0  0  0
  -15.0461   -6.8438    6.0235 C   0  0  0  0  0  0  0  0  0  0  0  0
  -15.0273   -5.9665    4.9751 C   0  0  0  0  0  0  0  0  0  0  0  0
  -16.4812   -5.4388    4.1511 Cl  0  0  0  0  0  0  0  0  0  0  0  0
  -13.8284   -5.4661    4.5341 C   0  0  0  0  0  0  0  0  0  0  0  0
  -12.6358   -5.8606    5.1642 C   0  0  0  0  0  0  0  0  0  0  0  0
  -11.1294   -5.2129    4.5183 Cl  0  0  0  0  0  0  0  0  0  0  0  0
  -12.1809   -7.8448    9.0775 C   0  0  0  0  0  0  0  0  0  0  0  0
  -12.6981   -9.0796    9.3645 C   0  0  0  0  0  0  0  0  0  0  0  0
  -13.7052   -9.2358   10.3084 C   0  0  0  0  0  0  0  0  0  0  0  0
  -14.2310   -8.1683   10.9991 C   0  0  0  0  0  0  0  0  0  0  0  0
  -15.4998   -8.3489   12.1928 Cl  0  0  0  0  0  0  0  0  0  0  0  0
  -13.7189   -6.9191   10.7192 C   0  0  0  0  0  0  0  0  0  0  0  0
  -12.7185   -6.7802    9.7767 C   0  0  0  0  0  0  0  0  0  0  0  0
   -8.1344   -9.5816    8.6100 C   0  0  0  0  0  0  0  0  0  0  0  0
   -9.1225   -8.5600    9.2488 C   0  0  0  0  0  0  0  0  0  0  0  0
 31 32  1  0  0  0
 32  1  1  0  0  0
  1  2  1  0  0  0
  2  6  1  0  0  0
  6  7  2  0  0  0
  7  8  1  0  0  0
  8  9  1  0  0  0
  9 10  1  0  0  0
 10 11  1  0  0  0
  8 12  1  0  0  0
 12 13  2  0  0  0
 12 14  1  0  0  0
  2  3  2  0  0  0
  3  4  1  0  0  0
  4 16  1  0  0  0
 16 17  2  0  0  0
 17 18  1  0  0  0
 18 19  2  0  0  0
 19 20  1  0  0  0
 19 21  1  0  0  0
 21 22  2  0  0  0
 22 23  1  0  0  0
  4  5  1  0  0  0
  5 24  1  0  0  0
 24 25  2  0  0  0
 25 26  1  0  0  0
 26 27  2  0  0  0
 27 28  1  0  0  0
 27 29  1  0  0  0
 29 30  2  0  0  0
  5  1  2  0  0  0
 30 24  1  0  0  0
 14  6  1  0  0  0
 22 16  1  0  0  0
 11  8  1  0  0  0
 14 15  1  0  0  0
M  END
> <minimizedAffinity>
12.37105

> <CNNscore>
0.3491098583

> <CNNaffinity>
6.9877839088

> <CNN_VS>
2.4395041466

> <CNNaffinity_variance>
0.8835470080

$$$$
[H]c1c([H])c(-c2c(C([H])([H])C([H])([H])[H])c(C3=NC4(C(=O)N3[H])C([H])([H])C([H])([H])C4([H])[H])nn2-c2c([H])c([H])c(Cl)c([H])c2Cl)c([H])c([H])c1Cl


 32 36  0  0  0  0  0  0  0  0999 V2000
  -13.8136   -8.3363    6.0669 C   0  0  0  0  0  0  0  0  0  0  0  0
  -15.0910   -8.0050    6.4032 C   0  0  0  0  0  0  0  0  0  0  0  0
  -15.0717   -8.0139    7.7740 N   0  0  0  0  0  0  0  0  0  0  0  0
  -13.8782   -8.3209    8.2472 N   0  0  0  0  0  0  0  0  0  0  0  0
  -13.0451   -8.5299    7.2333 C   0  0  0  0  0  0  0  0  0  0  0  0
  -16.2719   -7.6506    5.6343 C   0  0  0  0  0  0  0  0  0  0  0  0
  -16.3581   -6.4764    5.0086 N   0  0  0  0  0  0  0  0  0  0  0  0
  -17.5849   -6.3277    4.3189 C   0  0  0  0  0  0  0  0  0  0  0  0
  -17.4956   -5.9129    2.8677 C   0  0  0  0  0  0  0  0  0  0  0  0
  -17.9515   -4.5402    3.2629 C   0  0  0  0  0  0  0  0  0  0  0  0
  -18.3817   -5.0790    4.6065 C   0  0  0  0  0  0  0  0  0  0  0  0
  -18.3252   -7.5839    4.5116 C   0  0  0  0  0  0  0  0  0  0  0  0
  -19.4394   -7.9500    4.0771 O   0  0  0  0  0  0  0  0  0  0  0  0
  -17.4428   -8.3660    5.3654 N   0  0  0  0  0  0  0  0  0  0  0  0
  -17.7338   -9.3173    5.6718 H   0  0  0  0  0  0  0  0  0  0  0  0
  -13.5662   -8.3952    9.6391 C   0  0  0  0  0  0  0  0  0  0  0  0
  -13.4953   -9.5918   10.3473 C   0  0  0  0  0  0  0  0  0  0  0  0
  -13.2189   -9.6171   11.6904 C   0  0  0  0  0  0  0  0  0  0  0  0
  -13.0035   -8.4541   12.3760 C   0  0  0  0  0  0  0  0  0  0  0  0
  -12.6453   -8.4141   14.0910 Cl  0  0  0  0  0  0  0  0  0  0  0  0
  -13.0662   -7.2560   11.7107 C   0  0  0  0  0  0  0  0  0  0  0  0
  -13.3505   -7.2382   10.3345 C   0  0  0  0  0  0  0  0  0  0  0  0
  -13.4587   -5.6625    9.5529 Cl  0  0  0  0  0  0  0  0  0  0  0  0
  -11.6087   -8.7192    7.2503 C   0  0  0  0  0  0  0  0  0  0  0  0
  -11.0512   -9.9352    6.9583 C   0  0  0  0  0  0  0  0  0  0  0  0
   -9.6859  -10.1516    7.0945 C   0  0  0  0  0  0  0  0  0  0  0  0
   -8.8291   -9.1649    7.5252 C   0  0  0  0  0  0  0  0  0  0  0  0
   -7.1056   -9.4216    7.7009 Cl  0  0  0  0  0  0  0  0  0  0  0  0
   -9.3781   -7.9356    7.8229 C   0  0  0  0  0  0  0  0  0  0  0  0
  -10.7380   -7.7367    7.6837 C   0  0  0  0  0  0  0  0  0  0  0  0
  -14.5863   -9.1932    3.8893 C   0  0  0  0  0  0  0  0  0  0  0  0
  -13.3768   -8.5747    4.6527 C   0  0  0  0  0  0  0  0  0  0  0  0
 31 32  1  0  0  0
 32  1  1  0  0  0
  1  2  1  0  0  0
  2  6  1  0  0  0
  6  7  2  0  0  0
  7  8  1  0  0  0
  8  9  1  0  0  0
  9 10  1  0  0  0
 10 11  1  0  0  0
  8 12  1  0  0  0
 12 13  2  0  0  0
 12 14  1  0  0  0
  2  3  2  0  0  0
  3  4  1  0  0  0
  4 16  1  0  0  0
 16 17  2  0  0  0
 17 18  1  0  0  0
 18 19  2  0  0  0
 19 20  1  0  0  0
 19 21  1  0  0  0
 21 22  2  0  0  0
 22 23  1  0  0  0
  4  5  1  0  0  0
  5 24  1  0  0  0
 24 25  2  0  0  0
 25 26  1  0  0  0
 26 27  2  0  0  0
 27 28  1  0  0  0
 27 29  1  0  0  0
 29 30  2  0  0  0
  5  1  2  0  0  0
 30 24  1  0  0  0
 14  6  1  0  0  0
 22 16  1  0  0  0
 11  8  1  0  0  0
 14 15  1  0  0  0
M  END
> <minimizedAffinity>
3.60500

> <CNNscore>
0.3406307697

> <CNNaffinity>
7.4008255005

> <CNN_VS>
2.5209488869

> <CNNaffinity_variance>
0.1643951386

$$$$
[H]c1c([H])c(-c2c(C([H])([H])C([H])([H])[H])c(C3=NC4(C(=O)N3[H])C([H])([H])C([H])([H])C4([H])[H])nn2-c2c([H])c([H])c(Cl)c([H])c2Cl)c([H])c([H])c1Cl


 32 36  0  0  0  0  0  0  0  0999 V2000
  -16.2007   -8.0442    7.8830 C   0  0  0  0  0  0  0  0  0  0  0  0
  -17.2916   -8.1495    7.0747 C   0  0  0  0  0  0  0  0  0  0  0  0
  -17.0235   -7.2656    6.0615 N   0  0  0  0  0  0  0  0  0  0  0  0
  -15.8592   -6.6659    6.2272 N   0  0  0  0  0  0  0  0  0  0  0  0
  -15.2921   -7.1104    7.3437 C   0  0  0  0  0  0  0  0  0  0  0  0
  -18.4878   -8.9739    7.1048 C   0  0  0  0  0  0  0  0  0  0  0  0
  -18.7435   -9.7770    8.1379 N   0  0  0  0  0  0  0  0  0  0  0  0
  -19.9538  -10.4914    7.9720 C   0  0  0  0  0  0  0  0  0  0  0  0
  -20.9353  -10.4292    9.1205 C   0  0  0  0  0  0  0  0  0  0  0  0
  -20.5595  -11.8360    9.4788 C   0  0  0  0  0  0  0  0  0  0  0  0
  -19.8886  -11.9902    8.1346 C   0  0  0  0  0  0  0  0  0  0  0  0
  -20.5326  -10.0388    6.6980 C   0  0  0  0  0  0  0  0  0  0  0  0
  -21.6026  -10.3509    6.1307 O   0  0  0  0  0  0  0  0  0  0  0  0
  -19.5454   -9.0932    6.1978 N   0  0  0  0  0  0  0  0  0  0  0  0
  -19.7029   -8.6200    5.2841 H   0  0  0  0  0  0  0  0  0  0  0  0
  -15.3209   -5.7032    5.3197 C   0  0  0  0  0  0  0  0  0  0  0  0
  -13.9864   -5.6838    4.9232 C   0  0  0  0  0  0  0  0  0  0  0  0
  -13.5037   -4.7247    4.0700 C   0  0  0  0  0  0  0  0  0  0  0  0
  -14.3305   -3.7516    3.5815 C   0  0  0  0  0  0  0  0  0  0  0  0
  -13.7803   -2.4974    2.4881 Cl  0  0  0  0  0  0  0  0  0  0  0  0
  -15.6515   -3.7391    3.9513 C   0  0  0  0  0  0  0  0  0  0  0  0
  -16.1386   -4.7250    4.8264 C   0  0  0  0  0  0  0  0  0  0  0  0
  -17.8348   -4.6230    5.2936 Cl  0  0  0  0  0  0  0  0  0  0  0  0
  -13.9531   -6.8800    7.8470 C   0  0  0  0  0  0  0  0  0  0  0  0
  -13.7105   -5.9350    8.8076 C   0  0  0  0  0  0  0  0  0  0  0  0
  -12.4148   -5.6261    9.2016 C   0  0  0  0  0  0  0  0  0  0  0  0
  -11.3167   -6.2479    8.6533 C   0  0  0  0  0  0  0  0  0  0  0  0
   -9.6771   -5.8707    9.1400 Cl  0  0  0  0  0  0  0  0  0  0  0  0
  -11.5474   -7.2015    7.6844 C   0  0  0  0  0  0  0  0  0  0  0  0
  -12.8418   -7.4963    7.3025 C   0  0  0  0  0  0  0  0  0  0  0  0
  -16.2851  -10.2667    8.9444 C   0  0  0  0  0  0  0  0  0  0  0  0
  -16.0933   -8.7425    9.2054 C   0  0  0  0  0  0  0  0  0  0  0  0
 31 32  1  0  0  0
 32  1  1  0  0  0
  1  2  1  0  0  0
  2  6  1  0  0  0
  6  7  2  0  0  0
  7  8  1  0  0  0
  8  9  1  0  0  0
  9 10  1  0  0  0
 10 11  1  0  0  0
  8 12  1  0  0  0
 12 13  2  0  0  0
 12 14  1  0  0  0
  2  3  2  0  0  0
  3  4  1  0  0  0
  4 16  1  0  0  0
 16 17  2  0  0  0
 17 18  1  0  0  0
 18 19  2  0  0  0
 19 20  1  0  0  0
 19 21  1  0  0  0
 21 22  2  0  0  0
 22 23  1  0  0  0
  4  5  1  0  0  0
  5 24  1  0  0  0
 24 25  2  0  0  0
 25 26  1  0  0  0
 26 27  2  0  0  0
 27 28  1  0  0  0
 27 29  1  0  0  0
 29 30  2  0  0  0
  5  1  2  0  0  0
 30 24  1  0  0  0
 14  6  1  0  0  0
 22 16  1  0  0  0
 11  8  1  0  0  0
 14 15  1  0  0  0
M  END
> <minimizedAffinity>
17.41958

> <CNNscore>
0.3333572745

> <CNNaffinity>
7.1860170364

> <CNN_VS>
2.3955111504

> <CNNaffinity_variance>
0.8015546799

$$$$
[H]c1c([H])c(-c2c(C([H])([H])C([H])([H])[H])c(C3=NC4(C(=O)N3[H])C([H])([H])C([H])([H])C4([H])[H])nn2-c2c([H])c([H])c(Cl)c([H])c2Cl)c([H])c([H])c1Cl


 32 36  0  0  0  0  0  0  0  0999 V2000
  -10.1855   -7.3311    8.3518 C   0  0  0  0  0  0  0  0  0  0  0  0
   -9.6042   -7.0945    7.1432 C   0  0  0  0  0  0  0  0  0  0  0  0
  -10.6448   -7.2201    6.2595 N   0  0  0  0  0  0  0  0  0  0  0  0
  -11.7786   -7.5063    6.8720 N   0  0  0  0  0  0  0  0  0  0  0  0
  -11.5620   -7.5854    8.1807 C   0  0  0  0  0  0  0  0  0  0  0  0
   -8.2584   -6.7351    6.7295 C   0  0  0  0  0  0  0  0  0  0  0  0
   -7.1972   -7.1012    7.4489 N   0  0  0  0  0  0  0  0  0  0  0  0
   -5.9833   -6.6528    6.8760 C   0  0  0  0  0  0  0  0  0  0  0  0
   -4.9045   -7.6944    6.6832 C   0  0  0  0  0  0  0  0  0  0  0  0
   -4.1680   -7.1044    7.8485 C   0  0  0  0  0  0  0  0  0  0  0  0
   -5.0495   -5.8803    7.7749 C   0  0  0  0  0  0  0  0  0  0  0  0
   -6.3427   -5.9618    5.6283 C   0  0  0  0  0  0  0  0  0  0  0  0
   -5.6248   -5.4214    4.7583 O   0  0  0  0  0  0  0  0  0  0  0  0
   -7.7962   -6.0385    5.6087 N   0  0  0  0  0  0  0  0  0  0  0  0
   -8.3235   -5.6081    4.8211 H   0  0  0  0  0  0  0  0  0  0  0  0
  -13.0262   -7.6841    6.1998 C   0  0  0  0  0  0  0  0  0  0  0  0
  -13.8217   -6.6274    5.7650 C   0  0  0  0  0  0  0  0  0  0  0  0
  -15.0271   -6.8417    5.1470 C   0  0  0  0  0  0  0  0  0  0  0  0
  -15.4835   -8.1136    4.9396 C   0  0  0  0  0  0  0  0  0  0  0  0
  -17.0127   -8.4589    4.1563 Cl  0  0  0  0  0  0  0  0  0  0  0  0
  -14.7265   -9.1794    5.3556 C   0  0  0  0  0  0  0  0  0  0  0  0
  -13.4927   -8.9516    5.9887 C   0  0  0  0  0  0  0  0  0  0  0  0
  -12.5932  -10.3649    6.5359 Cl  0  0  0  0  0  0  0  0  0  0  0  0
  -12.5178   -7.7031    9.2632 C   0  0  0  0  0  0  0  0  0  0  0  0
  -12.8005   -8.9172    9.8294 C   0  0  0  0  0  0  0  0  0  0  0  0
  -13.8045   -9.0512   10.7799 C   0  0  0  0  0  0  0  0  0  0  0  0
  -14.5605   -7.9810   11.1997 C   0  0  0  0  0  0  0  0  0  0  0  0
  -15.8288   -8.1332   12.3979 Cl  0  0  0  0  0  0  0  0  0  0  0  0
  -14.2860   -6.7526   10.6370 C   0  0  0  0  0  0  0  0  0  0  0  0
  -13.2853   -6.6362    9.6918 C   0  0  0  0  0  0  0  0  0  0  0  0
   -9.8155   -6.2105   10.5153 C   0  0  0  0  0  0  0  0  0  0  0  0
   -9.4060   -7.4250    9.6289 C   0  0  0  0  0  0  0  0  0  0  0  0
 31 32  1  0  0  0
 32  1  1  0  0  0
  1  2  1  0  0  0
  2  6  1  0  0  0
  6  7  2  0  0  0
  7  8  1  0  0  0
  8  9  1  0  0  0
  9 10  1  0  0  0
 10 11  1  0  0  0
  8 12  1  0  0  0
 12 13  2  0  0  0
 12 14  1  0  0  0
  2  3  2  0  0  0
  3  4  1  0  0  0
  4 16  1  0  0  0
 16 17  2  0  0  0
 17 18  1  0  0  0
 18 19  2  0  0  0
 19 20  1  0  0  0
 19 21  1  0  0  0
 21 22  2  0  0  0
 22 23  1  0  0  0
  4  5  1  0  0  0
  5 24  1  0  0  0
 24 25  2  0  0  0
 25 26  1  0  0  0
 26 27  2  0  0  0
 27 28  1  0  0  0
 27 29  1  0  0  0
 29 30  2  0  0  0
  5  1  2  0  0  0
 30 24  1  0  0  0
 14  6  1  0  0  0
 22 16  1  0  0  0
 11  8  1  0  0  0
 14 15  1  0  0  0
M  END
> <minimizedAffinity>
3.60671

> <CNNscore>
0.3328390121

> <CNNaffinity>
7.0008707047

> <CNN_VS>
2.3301630020

> <CNNaffinity_variance>
0.4853895605

$$$$
[H]c1nc(OC([H])([H])C([H])([H])Oc2nc([H])c(Br)c([H])n2)c(-c2c([H])c([H])c(C([H])([H])[H])c([H])c2[H])c(N([H])S(=O)(=O)c2c([H])c([H])c(Cl)c([H])c2[H])n1


 36 39  0  0  0  0  0  0  0  0999 V2000
  -13.0162   -8.8057    6.9359 C   0  0  0  0  0  0  0  0  0  0  0  0
  -13.5487   -9.8288    7.6406 C   0  0  0  0  0  0  0  0  0  0  0  0
  -12.6302  -10.8435    8.1429 N   0  0  0  0  0  0  0  0  0  0  0  0
  -11.3480  -10.7826    7.9341 C   0  0  0  0  0  0  0  0  0  0  0  0
  -10.8084   -9.7745    7.2385 N   0  0  0  0  0  0  0  0  0  0  0  0
  -11.5552   -8.8563    6.7594 C   0  0  0  0  0  0  0  0  0  0  0  0
  -14.3343   -4.1679    3.9412 C   0  0  0  0  0  0  0  0  0  0  0  0
  -14.2015   -5.3081    4.8703 C   0  0  0  0  0  0  0  0  0  0  0  0
  -13.4416   -5.3071    5.9780 C   0  0  0  0  0  0  0  0  0  0  0  0
  -13.1407   -6.3796    6.7645 C   0  0  0  0  0  0  0  0  0  0  0  0
  -13.6699   -7.6492    6.4252 C   0  0  0  0  0  0  0  0  0  0  0  0
  -14.4874   -7.6709    5.3052 C   0  0  0  0  0  0  0  0  0  0  0  0
  -14.7988   -6.5722    4.4984 C   0  0  0  0  0  0  0  0  0  0  0  0
  -14.8980  -10.0179    7.8493 N   0  0  0  0  0  0  0  0  0  0  0  0
  -15.5076  -10.6722    7.4581 H   0  0  0  0  0  0  0  0  0  0  0  0
  -15.6639   -8.8292    8.9489 S   0  0  0  0  0  0  0  0  0  0  0  0
  -16.5037   -7.9784    7.9223 O   0  0  0  0  0  0  0  0  0  0  0  0
  -16.6856   -9.4850    9.8027 O   0  0  0  0  0  0  0  0  0  0  0  0
  -14.6205   -7.7694    9.7412 C   0  0  0  0  0  0  0  0  0  0  0  0
  -13.9967   -8.1219   10.8732 C   0  0  0  0  0  0  0  0  0  0  0  0
  -13.2210   -7.3942   11.6798 C   0  0  0  0  0  0  0  0  0  0  0  0
  -13.0261   -6.0748   11.3333 C   0  0  0  0  0  0  0  0  0  0  0  0
  -12.0351   -4.9998   12.3175 Cl  0  0  0  0  0  0  0  0  0  0  0  0
  -13.6352   -5.5222   10.1728 C   0  0  0  0  0  0  0  0  0  0  0  0
  -14.4276   -6.3970    9.3881 C   0  0  0  0  0  0  0  0  0  0  0  0
  -11.1489   -7.8148    5.9794 O   0  0  0  0  0  0  0  0  0  0  0  0
  -10.3011   -6.8869    5.9492 C   0  0  0  0  0  0  0  0  0  0  0  0
   -9.1552   -6.3199    6.6363 C   0  0  0  0  0  0  0  0  0  0  0  0
   -7.8853   -6.5087    6.6055 O   0  0  0  0  0  0  0  0  0  0  0  0
   -6.6311   -6.7007    6.5692 C   0  0  0  0  0  0  0  0  0  0  0  0
   -6.0998   -7.9753    7.0745 N   0  0  0  0  0  0  0  0  0  0  0  0
   -4.8044   -8.2825    7.0443 C   0  0  0  0  0  0  0  0  0  0  0  0
   -3.8891   -7.3656    6.5116 C   0  0  0  0  0  0  0  0  0  0  0  0
   -2.0358   -7.7892    6.5136 Br  0  0  0  0  0  0  0  0  0  0  0  0
   -4.3539   -6.1639    6.0461 C   0  0  0  0  0  0  0  0  0  0  0  0
   -5.6001   -5.9337    6.1148 N   0  0  0  0  0  0  0  0  0  0  0  0
  7  8  1  0  0  0
  8  9  2  0  0  0
  9 10  1  0  0  0
 10 11  2  0  0  0
 11  1  1  0  0  0
  1  2  1  0  0  0
  2 14  1  0  0  0
 14 16  1  0  0  0
 16 17  2  0  0  0
 16 18  2  0  0  0
 16 19  1  0  0  0
 19 20  2  0  0  0
 20 21  1  0  0  0
 21 22  2  0  0  0
 22 23  1  0  0  0
 22 24  1  0  0  0
 24 25  2  0  0  0
  2  3  2  0  0  0
  3  4  1  0  0  0
  4  5  2  0  0  0
  5  6  1  0  0  0
  6 26  1  0  0  0
 26 27  1  0  0  0
 27 28  1  0  0  0
 28 29  1  0  0  0
 29 30  1  0  0  0
 30 31  2  0  0  0
 31 32  1  0  0  0
 32 33  2  0  0  0
 33 34  1  0  0  0
 33 35  1  0  0  0
 35 36  2  0  0  0
 11 12  1  0  0  0
 12 13  2  0  0  0
 13  8  1  0  0  0
  6  1  2  0  0  0
 36 30  1  0  0  0
 25 19  1  0  0  0
 14 15  1  0  0  0
M  END
> <minimizedAffinity>
9.59149

> <CNNscore>
0.4463165402

> <CNNaffinity>
6.9796500206

> <CNN_VS>
3.1151332855

> <CNNaffinity_variance>
1.0030539036

$$$$
[H]c1nc(OC([H])([H])C([H])([H])Oc2nc([H])c(Br)c([H])n2)c(-c2c([H])c([H])c(C([H])([H])[H])c([H])c2[H])c(N([H])S(=O)(=O)c2c([H])c([H])c(Cl)c([H])c2[H])n1


 36 39  0  0  0  0  0  0  0  0999 V2000
  -15.1934   -6.2645    4.7755 C   0  0  0  0  0  0  0  0  0  0  0  0
  -16.0530   -5.3565    4.2622 C   0  0  0  0  0  0  0  0  0  0  0  0
  -15.9628   -3.9915    4.7665 N   0  0  0  0  0  0  0  0  0  0  0  0
  -15.0958   -3.6422    5.6708 C   0  0  0  0  0  0  0  0  0  0  0  0
  -14.2388   -4.5317    6.1864 N   0  0  0  0  0  0  0  0  0  0  0  0
  -14.2691   -5.7479    5.7988 C   0  0  0  0  0  0  0  0  0  0  0  0
  -16.0588  -11.6348    3.1550 C   0  0  0  0  0  0  0  0  0  0  0  0
  -15.5800  -10.3133    3.6083 C   0  0  0  0  0  0  0  0  0  0  0  0
  -15.5881   -9.8937    4.8843 C   0  0  0  0  0  0  0  0  0  0  0  0
  -15.3322   -8.6313    5.3319 C   0  0  0  0  0  0  0  0  0  0  0  0
  -15.0084   -7.6224    4.3916 C   0  0  0  0  0  0  0  0  0  0  0  0
  -14.9583   -8.0380    3.0694 C   0  0  0  0  0  0  0  0  0  0  0  0
  -15.2185   -9.3322    2.6084 C   0  0  0  0  0  0  0  0  0  0  0  0
  -17.0523   -5.6470    3.3584 N   0  0  0  0  0  0  0  0  0  0  0  0
  -17.0069   -5.7698    2.3911 H   0  0  0  0  0  0  0  0  0  0  0  0
  -18.6988   -5.7352    4.0584 S   0  0  0  0  0  0  0  0  0  0  0  0
  -18.5801   -4.6788    5.2215 O   0  0  0  0  0  0  0  0  0  0  0  0
  -19.6968   -5.1472    3.1305 O   0  0  0  0  0  0  0  0  0  0  0  0
  -19.1306   -7.2052    4.7601 C   0  0  0  0  0  0  0  0  0  0  0  0
  -18.3849   -8.3049    4.5885 C   0  0  0  0  0  0  0  0  0  0  0  0
  -18.6156   -9.5597    4.9813 C   0  0  0  0  0  0  0  0  0  0  0  0
  -19.7962   -9.7957    5.6516 C   0  0  0  0  0  0  0  0  0  0  0  0
  -20.2305  -11.4086    6.2140 Cl  0  0  0  0  0  0  0  0  0  0  0  0
  -20.7227   -8.7454    5.9002 C   0  0  0  0  0  0  0  0  0  0  0  0
  -20.3612   -7.4526    5.4454 C   0  0  0  0  0  0  0  0  0  0  0  0
  -13.5048   -6.7662    6.2856 O   0  0  0  0  0  0  0  0  0  0  0  0
  -12.7127   -7.0331    7.2248 C   0  0  0  0  0  0  0  0  0  0  0  0
  -11.3604   -6.8347    7.7131 C   0  0  0  0  0  0  0  0  0  0  0  0
  -10.3178   -7.5732    7.8432 O   0  0  0  0  0  0  0  0  0  0  0  0
   -9.2832   -8.2983    7.9665 C   0  0  0  0  0  0  0  0  0  0  0  0
   -9.3118   -9.6632    7.4205 N   0  0  0  0  0  0  0  0  0  0  0  0
   -8.2647  -10.4845    7.4691 C   0  0  0  0  0  0  0  0  0  0  0  0
   -7.0724  -10.0496    8.0622 C   0  0  0  0  0  0  0  0  0  0  0  0
   -5.5956  -11.2418    8.1711 Br  0  0  0  0  0  0  0  0  0  0  0  0
   -7.0211   -8.7873    8.5920 C   0  0  0  0  0  0  0  0  0  0  0  0
   -8.0599   -8.0618    8.5191 N   0  0  0  0  0  0  0  0  0  0  0  0
  7  8  1  0  0  0
  8  9  2  0  0  0
  9 10  1  0  0  0
 10 11  2  0  0  0
 11  1  1  0  0  0
  1  2  1  0  0  0
  2 14  1  0  0  0
 14 16  1  0  0  0
 16 17  2  0  0  0
 16 18  2  0  0  0
 16 19  1  0  0  0
 19 20  2  0  0  0
 20 21  1  0  0  0
 21 22  2  0  0  0
 22 23  1  0  0  0
 22 24  1  0  0  0
 24 25  2  0  0  0
  2  3  2  0  0  0
  3  4  1  0  0  0
  4  5  2  0  0  0
  5  6  1  0  0  0
  6 26  1  0  0  0
 26 27  1  0  0  0
 27 28  1  0  0  0
 28 29  1  0  0  0
 29 30  1  0  0  0
 30 31  2  0  0  0
 31 32  1  0  0  0
 32 33  2  0  0  0
 33 34  1  0  0  0
 33 35  1  0  0  0
 35 36  2  0  0  0
 11 12  1  0  0  0
 12 13  2  0  0  0
 13  8  1  0  0  0
  6  1  2  0  0  0
 36 30  1  0  0  0
 25 19  1  0  0  0
 14 15  1  0  0  0
M  END
> <minimizedAffinity>
19.02254

> <CNNscore>
0.4138756692

> <CNNaffinity>
6.6913681030

> <CNN_VS>
2.7693943977

> <CNNaffinity_variance>
1.2515146732

$$$$
[H]c1nc(OC([H])([H])C([H])([H])Oc2nc([H])c(Br)c([H])n2)c(-c2c([H])c([H])c(C([H])([H])[H])c([H])c2[H])c(N([H])S(=O)(=O)c2c([H])c([H])c(Cl)c([H])c2[H])n1


 36 39  0  0  0  0  0  0  0  0999 V2000
  -14.1480   -7.3984    6.4710 C   0  0  0  0  0  0  0  0  0  0  0  0
  -14.5467   -6.1098    6.5568 C   0  0  0  0  0  0  0  0  0  0  0  0
  -14.1986   -5.3822    7.7713 N   0  0  0  0  0  0  0  0  0  0  0  0
  -13.5302   -5.9324    8.7418 C   0  0  0  0  0  0  0  0  0  0  0  0
  -13.1291   -7.2072    8.6686 N   0  0  0  0  0  0  0  0  0  0  0  0
  -13.4089   -7.9076    7.6383 C   0  0  0  0  0  0  0  0  0  0  0  0
  -16.0385  -10.1863    1.9028 C   0  0  0  0  0  0  0  0  0  0  0  0
  -15.3515   -9.6427    3.0917 C   0  0  0  0  0  0  0  0  0  0  0  0
  -15.6358   -9.9810    4.3603 C   0  0  0  0  0  0  0  0  0  0  0  0
  -15.1653   -9.3825    5.4915 C   0  0  0  0  0  0  0  0  0  0  0  0
  -14.2712   -8.2904    5.3689 C   0  0  0  0  0  0  0  0  0  0  0  0
  -13.9334   -7.9436    4.0693 C   0  0  0  0  0  0  0  0  0  0  0  0
  -14.4131   -8.5571    2.9080 C   0  0  0  0  0  0  0  0  0  0  0  0
  -15.3203   -5.4646    5.6159 N   0  0  0  0  0  0  0  0  0  0  0  0
  -15.1154   -4.6883    5.0608 H   0  0  0  0  0  0  0  0  0  0  0  0
  -16.9850   -6.1031    5.4434 S   0  0  0  0  0  0  0  0  0  0  0  0
  -16.9042   -6.7495    4.0087 O   0  0  0  0  0  0  0  0  0  0  0  0
  -17.2027   -7.2561    6.3524 O   0  0  0  0  0  0  0  0  0  0  0  0
  -18.2206   -4.9578    5.4071 C   0  0  0  0  0  0  0  0  0  0  0  0
  -19.1187   -4.9331    4.4134 C   0  0  0  0  0  0  0  0  0  0  0  0
  -20.0945   -4.0554    4.1696 C   0  0  0  0  0  0  0  0  0  0  0  0
  -20.2119   -2.9956    5.0426 C   0  0  0  0  0  0  0  0  0  0  0  0
  -21.4486   -1.7582    4.8294 Cl  0  0  0  0  0  0  0  0  0  0  0  0
  -19.3237   -2.8489    6.1438 C   0  0  0  0  0  0  0  0  0  0  0  0
  -18.3352   -3.8516    6.3063 C   0  0  0  0  0  0  0  0  0  0  0  0
  -13.1231   -9.2288    7.4624 O   0  0  0  0  0  0  0  0  0  0  0  0
  -12.1494  -10.0232    7.4251 C   0  0  0  0  0  0  0  0  0  0  0  0
  -10.7753  -10.1771    6.9840 C   0  0  0  0  0  0  0  0  0  0  0  0
   -9.7017   -9.4784    7.0763 O   0  0  0  0  0  0  0  0  0  0  0  0
   -8.6362   -8.7946    7.1681 C   0  0  0  0  0  0  0  0  0  0  0  0
   -8.7326   -7.3291    7.0964 N   0  0  0  0  0  0  0  0  0  0  0  0
   -7.6766   -6.5272    7.2193 C   0  0  0  0  0  0  0  0  0  0  0  0
   -6.4075   -7.0829    7.4268 C   0  0  0  0  0  0  0  0  0  0  0  0
   -4.8966   -5.9362    7.5547 Br  0  0  0  0  0  0  0  0  0  0  0  0
   -6.2854   -8.4462    7.4840 C   0  0  0  0  0  0  0  0  0  0  0  0
   -7.3329   -9.1500    7.3493 N   0  0  0  0  0  0  0  0  0  0  0  0
  7  8  1  0  0  0
  8  9  2  0  0  0
  9 10  1  0  0  0
 10 11  2  0  0  0
 11  1  1  0  0  0
  1  2  1  0  0  0
  2 14  1  0  0  0
 14 16  1  0  0  0
 16 17  2  0  0  0
 16 18  2  0  0  0
 16 19  1  0  0  0
 19 20  2  0  0  0
 20 21  1  0  0  0
 21 22  2  0  0  0
 22 23  1  0  0  0
 22 24  1  0  0  0
 24 25  2  0  0  0
  2  3  2  0  0  0
  3  4  1  0  0  0
  4  5  2  0  0  0
  5  6  1  0  0  0
  6 26  1  0  0  0
 26 27  1  0  0  0
 27 28  1  0  0  0
 28 29  1  0  0  0
 29 30  1  0  0  0
 30 31  2  0  0  0
 31 32  1  0  0  0
 32 33  2  0  0  0
 33 34  1  0  0  0
 33 35  1  0  0  0
 35 36  2  0  0  0
 11 12  1  0  0  0
 12 13  2  0  0  0
 13  8  1  0  0  0
  6  1  2  0  0  0
 36 30  1  0  0  0
 25 19  1  0  0  0
 14 15  1  0  0  0
M  END
> <minimizedAffinity>
6.96168

> <CNNscore>
0.3924419284

> <CNNaffinity>
6.9892892838

> <CNN_VS>
2.7428901196

> <CNNaffinity_variance>
0.7459061146

$$$$
[H]c1nc(OC([H])([H])C([H])([H])Oc2nc([H])c(Br)c([H])n2)c(-c2c([H])c([H])c(C([H])([H])[H])c([H])c2[H])c(N([H])S(=O)(=O)c2c([H])c([H])c(Cl)c([H])c2[H])n1


 36 39  0  0  0  0  0  0  0  0999 V2000
  -12.8141   -8.2691    7.6809 C   0  0  0  0  0  0  0  0  0  0  0  0
  -14.0743   -8.5806    7.3042 C   0  0  0  0  0  0  0  0  0  0  0  0
  -14.2299   -9.5812    6.2553 N   0  0  0  0  0  0  0  0  0  0  0  0
  -13.2106  -10.1630    5.6951 C   0  0  0  0  0  0  0  0  0  0  0  0
  -11.9580   -9.8638    6.0597 N   0  0  0  0  0  0  0  0  0  0  0  0
  -11.7472   -8.9881    6.9647 C   0  0  0  0  0  0  0  0  0  0  0  0
  -12.7054   -4.8660   12.2221 C   0  0  0  0  0  0  0  0  0  0  0  0
  -12.4778   -5.6820   11.0123 C   0  0  0  0  0  0  0  0  0  0  0  0
  -12.7042   -5.2654    9.7555 C   0  0  0  0  0  0  0  0  0  0  0  0
  -12.6865   -6.0280    8.6253 C   0  0  0  0  0  0  0  0  0  0  0  0
  -12.3933   -7.4097    8.7344 C   0  0  0  0  0  0  0  0  0  0  0  0
  -12.1205   -7.8585   10.0179 C   0  0  0  0  0  0  0  0  0  0  0  0
  -12.1362   -7.0780   11.1779 C   0  0  0  0  0  0  0  0  0  0  0  0
  -15.2105   -7.9662    7.7854 N   0  0  0  0  0  0  0  0  0  0  0  0
  -15.7364   -8.1579    8.5850 H   0  0  0  0  0  0  0  0  0  0  0  0
  -15.8647   -6.6673    6.7397 S   0  0  0  0  0  0  0  0  0  0  0  0
  -17.1195   -6.2180    7.5801 O   0  0  0  0  0  0  0  0  0  0  0  0
  -14.9718   -5.4818    6.7530 O   0  0  0  0  0  0  0  0  0  0  0  0
  -16.4233   -7.1444    5.2231 C   0  0  0  0  0  0  0  0  0  0  0  0
  -17.2785   -6.3852    4.5251 C   0  0  0  0  0  0  0  0  0  0  0  0
  -17.8942   -6.6401    3.3684 C   0  0  0  0  0  0  0  0  0  0  0  0
  -17.6473   -7.8652    2.7877 C   0  0  0  0  0  0  0  0  0  0  0  0
  -18.4052   -8.3343    1.2673 Cl  0  0  0  0  0  0  0  0  0  0  0  0
  -16.7818   -8.8100    3.4054 C   0  0  0  0  0  0  0  0  0  0  0  0
  -16.1764   -8.4204    4.6262 C   0  0  0  0  0  0  0  0  0  0  0  0
  -10.5292   -8.5407    7.3824 O   0  0  0  0  0  0  0  0  0  0  0  0
   -9.3285   -8.9042    7.4654 C   0  0  0  0  0  0  0  0  0  0  0  0
   -8.0694   -8.6533    8.1423 C   0  0  0  0  0  0  0  0  0  0  0  0
   -7.0413   -7.9173    7.9176 O   0  0  0  0  0  0  0  0  0  0  0  0
   -6.0299   -7.1841    7.6921 C   0  0  0  0  0  0  0  0  0  0  0  0
   -5.1247   -7.5531    6.5937 N   0  0  0  0  0  0  0  0  0  0  0  0
   -4.0599   -6.8270    6.2582 C   0  0  0  0  0  0  0  0  0  0  0  0
   -3.7702   -5.6557    6.9698 C   0  0  0  0  0  0  0  0  0  0  0  0
   -2.2230   -4.6479    6.5176 Br  0  0  0  0  0  0  0  0  0  0  0  0
   -4.5885   -5.2946    8.0075 C   0  0  0  0  0  0  0  0  0  0  0  0
   -5.5803   -6.0388    8.2784 N   0  0  0  0  0  0  0  0  0  0  0  0
  7  8  1  0  0  0
  8  9  2  0  0  0
  9 10  1  0  0  0
 10 11  2  0  0  0
 11  1  1  0  0  0
  1  2  1  0  0  0
  2 14  1  0  0  0
 14 16  1  0  0  0
 16 17  2  0  0  0
 16 18  2  0  0  0
 16 19  1  0  0  0
 19 20  2  0  0  0
 20 21  1  0  0  0
 21 22  2  0  0  0
 22 23  1  0  0  0
 22 24  1  0  0  0
 24 25  2  0  0  0
  2  3  2  0  0  0
  3  4  1  0  0  0
  4  5  2  0  0  0
  5  6  1  0  0  0
  6 26  1  0  0  0
 26 27  1  0  0  0
 27 28  1  0  0  0
 28 29  1  0  0  0
 29 30  1  0  0  0
 30 31  2  0  0  0
 31 32  1  0  0  0
 32 33  2  0  0  0
 33 34  1  0  0  0
 33 35  1  0  0  0
 35 36  2  0  0  0
 11 12  1  0  0  0
 12 13  2  0  0  0
 13  8  1  0  0  0
  6  1  2  0  0  0
 36 30  1  0  0  0
 25 19  1  0  0  0
 14 15  1  0  0  0
M  END
> <minimizedAffinity>
2.59359

> <CNNscore>
0.3836551607

> <CNNaffinity>
6.9933304787

> <CNN_VS>
2.6830272675

> <CNNaffinity_variance>
0.5274998546

$$$$
[H]c1nc(OC([H])([H])C([H])([H])Oc2nc([H])c(Br)c([H])n2)c(-c2c([H])c([H])c(C([H])([H])[H])c([H])c2[H])c(N([H])S(=O)(=O)c2c([H])c([H])c(Cl)c([H])c2[H])n1


 36 39  0  0  0  0  0  0  0  0999 V2000
  -14.1700   -8.2274    5.9682 C   0  0  0  0  0  0  0  0  0  0  0  0
  -15.1193   -7.6216    5.2206 C   0  0  0  0  0  0  0  0  0  0  0  0
  -15.4773   -8.2526    3.9560 N   0  0  0  0  0  0  0  0  0  0  0  0
  -14.9195   -9.3544    3.5483 C   0  0  0  0  0  0  0  0  0  0  0  0
  -13.9789   -9.9643    4.2796 N   0  0  0  0  0  0  0  0  0  0  0  0
  -13.6084   -9.4611    5.3931 C   0  0  0  0  0  0  0  0  0  0  0  0
  -13.5957   -5.8243   11.0780 C   0  0  0  0  0  0  0  0  0  0  0  0
  -13.5112   -6.5651    9.8032 C   0  0  0  0  0  0  0  0  0  0  0  0
  -12.9781   -6.0787    8.6702 C   0  0  0  0  0  0  0  0  0  0  0  0
  -13.0377   -6.6428    7.4302 C   0  0  0  0  0  0  0  0  0  0  0  0
  -13.7132   -7.8777    7.2699 C   0  0  0  0  0  0  0  0  0  0  0  0
  -14.2424   -8.4194    8.4317 C   0  0  0  0  0  0  0  0  0  0  0  0
  -14.1809   -7.8437    9.7045 C   0  0  0  0  0  0  0  0  0  0  0  0
  -15.7119   -6.4168    5.5326 N   0  0  0  0  0  0  0  0  0  0  0  0
  -15.4476   -5.5077    5.2951 H   0  0  0  0  0  0  0  0  0  0  0  0
  -17.1425   -6.5363    6.6039 S   0  0  0  0  0  0  0  0  0  0  0  0
  -16.4512   -6.8657    7.9811 O   0  0  0  0  0  0  0  0  0  0  0  0
  -17.7560   -5.2010    6.8126 O   0  0  0  0  0  0  0  0  0  0  0  0
  -18.2177   -7.7906    6.2714 C   0  0  0  0  0  0  0  0  0  0  0  0
  -18.9353   -8.3692    7.2435 C   0  0  0  0  0  0  0  0  0  0  0  0
  -19.7528   -9.4229    7.1858 C   0  0  0  0  0  0  0  0  0  0  0  0
  -19.8880  -10.0406    5.9614 C   0  0  0  0  0  0  0  0  0  0  0  0
  -20.9253  -11.4495    5.7490 Cl  0  0  0  0  0  0  0  0  0  0  0  0
  -19.1778   -9.5740    4.8207 C   0  0  0  0  0  0  0  0  0  0  0  0
  -18.3490   -8.4389    5.0034 C   0  0  0  0  0  0  0  0  0  0  0  0
  -12.6196   -9.9378    6.2014 O   0  0  0  0  0  0  0  0  0  0  0  0
  -11.3924  -10.2109    6.1901 C   0  0  0  0  0  0  0  0  0  0  0  0
  -10.2338  -10.3764    5.3318 C   0  0  0  0  0  0  0  0  0  0  0  0
   -9.6020  -11.3763    4.8314 O   0  0  0  0  0  0  0  0  0  0  0  0
   -8.9821  -12.3640    4.3299 C   0  0  0  0  0  0  0  0  0  0  0  0
   -8.7722  -13.5584    5.1615 N   0  0  0  0  0  0  0  0  0  0  0  0
   -8.1662  -14.6559    4.7124 C   0  0  0  0  0  0  0  0  0  0  0  0
   -7.7000  -14.6965    3.3921 C   0  0  0  0  0  0  0  0  0  0  0  0
   -6.7940  -16.2477    2.7699 Br  0  0  0  0  0  0  0  0  0  0  0  0
   -7.8692  -13.5929    2.5982 C   0  0  0  0  0  0  0  0  0  0  0  0
   -8.4470  -12.5777    3.0948 N   0  0  0  0  0  0  0  0  0  0  0  0
  7  8  1  0  0  0
  8  9  2  0  0  0
  9 10  1  0  0  0
 10 11  2  0  0  0
 11  1  1  0  0  0
  1  2  1  0  0  0
  2 14  1  0  0  0
 14 16  1  0  0  0
 16 17  2  0  0  0
 16 18  2  0  0  0
 16 19  1  0  0  0
 19 20  2  0  0  0
 20 21  1  0  0  0
 21 22  2  0  0  0
 22 23  1  0  0  0
 22 24  1  0  0  0
 24 25  2  0  0  0
  2  3  2  0  0  0
  3  4  1  0  0  0
  4  5  2  0  0  0
  5  6  1  0  0  0
  6 26  1  0  0  0
 26 27  1  0  0  0
 27 28  1  0  0  0
 28 29  1  0  0  0
 29 30  1  0  0  0
 30 31  2  0  0  0
 31 32  1  0  0  0
 32 33  2  0  0  0
 33 34  1  0  0  0
 33 35  1  0  0  0
 35 36  2  0  0  0
 11 12  1  0  0  0
 12 13  2  0  0  0
 13  8  1  0  0  0
  6  1  2  0  0  0
 36 30  1  0  0  0
 25 19  1  0  0  0
 14 15  1  0  0  0
M  END
> <minimizedAffinity>
14.01441

> <CNNscore>
0.3824053407

> <CNNaffinity>
6.5299043655

> <CNN_VS>
2.4970703125

> <CNNaffinity_variance>
0.8437384367

$$$$
[H]c1nc(OC([H])([H])C([H])([H])Oc2nc([H])c(Br)c([H])n2)c(-c2c([H])c([H])c(C([H])([H])[H])c([H])c2[H])c(N([H])S(=O)(=O)c2c([H])c([H])c(Cl)c([H])c2[H])n1


 36 39  0  0  0  0  0  0  0  0999 V2000
   -9.5555   -7.9808    7.2291 C   0  0  0  0  0  0  0  0  0  0  0  0
   -8.2286   -8.1231    7.0147 C   0  0  0  0  0  0  0  0  0  0  0  0
   -7.3806   -6.9683    7.2846 N   0  0  0  0  0  0  0  0  0  0  0  0
   -7.8622   -5.8402    7.7168 C   0  0  0  0  0  0  0  0  0  0  0  0
   -9.1740   -5.6868    7.9336 N   0  0  0  0  0  0  0  0  0  0  0  0
   -9.9769   -6.6535    7.7077 C   0  0  0  0  0  0  0  0  0  0  0  0
  -14.4971  -10.7540    7.5535 C   0  0  0  0  0  0  0  0  0  0  0  0
  -13.1120  -10.2675    7.3920 C   0  0  0  0  0  0  0  0  0  0  0  0
  -12.1957  -10.2299    8.3734 C   0  0  0  0  0  0  0  0  0  0  0  0
  -10.9730   -9.6281    8.3282 C   0  0  0  0  0  0  0  0  0  0  0  0
  -10.5766   -8.9681    7.1389 C   0  0  0  0  0  0  0  0  0  0  0  0
  -11.4907   -9.0229    6.0975 C   0  0  0  0  0  0  0  0  0  0  0  0
  -12.7441   -9.6411    6.1409 C   0  0  0  0  0  0  0  0  0  0  0  0
   -7.6364   -9.2515    6.4892 N   0  0  0  0  0  0  0  0  0  0  0  0
   -7.5853  -10.1579    6.8477 H   0  0  0  0  0  0  0  0  0  0  0  0
   -6.7594   -8.9937    4.9487 S   0  0  0  0  0  0  0  0  0  0  0  0
   -7.2722   -7.5565    4.5559 O   0  0  0  0  0  0  0  0  0  0  0  0
   -5.3074   -8.8094    5.1949 O   0  0  0  0  0  0  0  0  0  0  0  0
   -7.1600  -10.0311    3.6825 C   0  0  0  0  0  0  0  0  0  0  0  0
   -6.6967   -9.8278    2.4420 C   0  0  0  0  0  0  0  0  0  0  0  0
   -6.9787  -10.4780    1.3108 C   0  0  0  0  0  0  0  0  0  0  0  0
   -7.8918  -11.5068    1.3944 C   0  0  0  0  0  0  0  0  0  0  0  0
   -8.3634  -12.4384   -0.0253 Cl  0  0  0  0  0  0  0  0  0  0  0  0
   -8.5055  -11.8458    2.6320 C   0  0  0  0  0  0  0  0  0  0  0  0
   -8.1163  -11.0911    3.7669 C   0  0  0  0  0  0  0  0  0  0  0  0
  -11.3348   -6.6138    7.8200 O   0  0  0  0  0  0  0  0  0  0  0  0
  -12.2594   -6.8974    8.6233 C   0  0  0  0  0  0  0  0  0  0  0  0
  -12.7161   -6.7391    9.9919 C   0  0  0  0  0  0  0  0  0  0  0  0
  -12.2782   -6.1362   11.0379 O   0  0  0  0  0  0  0  0  0  0  0  0
  -11.8495   -5.5336   12.0696 C   0  0  0  0  0  0  0  0  0  0  0  0
  -11.8347   -4.0632   12.0699 N   0  0  0  0  0  0  0  0  0  0  0  0
  -11.4378   -3.3435   13.1177 C   0  0  0  0  0  0  0  0  0  0  0  0
  -11.0116   -3.9953   14.2821 C   0  0  0  0  0  0  0  0  0  0  0  0
  -10.4017   -2.9642   15.7583 Br  0  0  0  0  0  0  0  0  0  0  0  0
  -11.0015   -5.3650   14.3056 C   0  0  0  0  0  0  0  0  0  0  0  0
  -11.3839   -5.9871   13.2676 N   0  0  0  0  0  0  0  0  0  0  0  0
  7  8  1  0  0  0
  8  9  2  0  0  0
  9 10  1  0  0  0
 10 11  2  0  0  0
 11  1  1  0  0  0
  1  2  1  0  0  0
  2 14  1  0  0  0
 14 16  1  0  0  0
 16 17  2  0  0  0
 16 18  2  0  0  0
 16 19  1  0  0  0
 19 20  2  0  0  0
 20 21  1  0  0  0
 21 22  2  0  0  0
 22 23  1  0  0  0
 22 24  1  0  0  0
 24 25  2  0  0  0
  2  3  2  0  0  0
  3  4  1  0  0  0
  4  5  2  0  0  0
  5  6  1  0  0  0
  6 26  1  0  0  0
 26 27  1  0  0  0
 27 28  1  0  0  0
 28 29  1  0  0  0
 29 30  1  0  0  0
 30 31  2  0  0  0
 31 32  1  0  0  0
 32 33  2  0  0  0
 33 34  1  0  0  0
 33 35  1  0  0  0
 35 36  2  0  0  0
 11 12  1  0  0  0
 12 13  2  0  0  0
 13  8  1  0  0  0
  6  1  2  0  0  0
 36 30  1  0  0  0
 25 19  1  0  0  0
 14 15  1  0  0  0
M  END
> <minimizedAffinity>
16.15016

> <CNNscore>
0.3573955894

> <CNNaffinity>
6.1526880264

> <CNN_VS>
2.1989436150

> <CNNaffinity_variance>
0.8172121048

$$$$
[H]c1nc(OC([H])([H])C([H])([H])Oc2nc([H])c(Br)c([H])n2)c(-c2c([H])c([H])c(C([H])([H])[H])c([H])c2[H])c(N([H])S(=O)(=O)c2c([H])c([H])c(Cl)c([H])c2[H])n1


 36 39  0  0  0  0  0  0  0  0999 V2000
  -12.7606   -8.4817    6.3313 C   0  0  0  0  0  0  0  0  0  0  0  0
  -14.0604   -8.2143    6.0746 C   0  0  0  0  0  0  0  0  0  0  0  0
  -14.6880   -8.9411    4.9776 N   0  0  0  0  0  0  0  0  0  0  0  0
  -14.0410   -9.8163    4.2657 C   0  0  0  0  0  0  0  0  0  0  0  0
  -12.7540  -10.0905    4.5103 N   0  0  0  0  0  0  0  0  0  0  0  0
  -12.1380   -9.4830    5.4493 C   0  0  0  0  0  0  0  0  0  0  0  0
   -8.3560   -7.1179    9.6411 C   0  0  0  0  0  0  0  0  0  0  0  0
   -9.6509   -7.3911    8.9855 C   0  0  0  0  0  0  0  0  0  0  0  0
  -10.2921   -8.5709    9.0215 C   0  0  0  0  0  0  0  0  0  0  0  0
  -11.3862   -8.9298    8.2912 C   0  0  0  0  0  0  0  0  0  0  0  0
  -11.9499   -7.9904    7.3929 C   0  0  0  0  0  0  0  0  0  0  0  0
  -11.3276   -6.7514    7.3629 C   0  0  0  0  0  0  0  0  0  0  0  0
  -10.2068   -6.3806    8.1122 C   0  0  0  0  0  0  0  0  0  0  0  0
  -14.8057   -7.2534    6.7236 N   0  0  0  0  0  0  0  0  0  0  0  0
  -15.1509   -6.4008    6.3970 H   0  0  0  0  0  0  0  0  0  0  0  0
  -15.1212   -7.5871    8.4550 S   0  0  0  0  0  0  0  0  0  0  0  0
  -16.4771   -6.8113    8.6611 O   0  0  0  0  0  0  0  0  0  0  0  0
  -15.4808   -9.0127    8.6586 O   0  0  0  0  0  0  0  0  0  0  0  0
  -14.0093   -6.9505    9.5496 C   0  0  0  0  0  0  0  0  0  0  0  0
  -13.5672   -7.6684   10.5907 C   0  0  0  0  0  0  0  0  0  0  0  0
  -12.7722   -7.3044   11.5994 C   0  0  0  0  0  0  0  0  0  0  0  0
  -12.3372   -5.9969   11.6095 C   0  0  0  0  0  0  0  0  0  0  0  0
  -11.2940   -5.3822   12.8901 Cl  0  0  0  0  0  0  0  0  0  0  0  0
  -12.7304   -5.0839   10.5922 C   0  0  0  0  0  0  0  0  0  0  0  0
  -13.5673   -5.5905    9.5666 C   0  0  0  0  0  0  0  0  0  0  0  0
  -10.8176   -9.6147    5.7615 O   0  0  0  0  0  0  0  0  0  0  0  0
   -9.8011  -10.2873    5.4532 C   0  0  0  0  0  0  0  0  0  0  0  0
   -8.3549  -10.2444    5.3376 C   0  0  0  0  0  0  0  0  0  0  0  0
   -7.4331   -9.4247    5.6948 O   0  0  0  0  0  0  0  0  0  0  0  0
   -6.5268   -8.6115    6.0535 C   0  0  0  0  0  0  0  0  0  0  0  0
   -6.8648   -7.1844    6.1609 N   0  0  0  0  0  0  0  0  0  0  0  0
   -5.9926   -6.2623    6.5639 C   0  0  0  0  0  0  0  0  0  0  0  0
   -4.6897   -6.6463    6.9061 C   0  0  0  0  0  0  0  0  0  0  0  0
   -3.4349   -5.3200    7.4358 Br  0  0  0  0  0  0  0  0  0  0  0  0
   -4.3424   -7.9675    6.8024 C   0  0  0  0  0  0  0  0  0  0  0  0
   -5.2215   -8.7907    6.4021 N   0  0  0  0  0  0  0  0  0  0  0  0
  7  8  1  0  0  0
  8  9  2  0  0  0
  9 10  1  0  0  0
 10 11  2  0  0  0
 11  1  1  0  0  0
  1  2  1  0  0  0
  2 14  1  0  0  0
 14 16  1  0  0  0
 16 17  2  0  0  0
 16 18  2  0  0  0
 16 19  1  0  0  0
 19 20  2  0  0  0
 20 21  1  0  0  0
 21 22  2  0  0  0
 22 23  1  0  0  0
 22 24  1  0  0  0
 24 25  2  0  0  0
  2  3  2  0  0  0
  3  4  1  0  0  0
  4  5  2  0  0  0
  5  6  1  0  0  0
  6 26  1  0  0  0
 26 27  1  0  0  0
 27 28  1  0  0  0
 28 29  1  0  0  0
 29 30  1  0  0  0
 30 31  2  0  0  0
 31 32  1  0  0  0
 32 33  2  0  0  0
 33 34  1  0  0  0
 33 35  1  0  0  0
 35 36  2  0  0  0
 11 12  1  0  0  0
 12 13  2  0  0  0
 13  8  1  0  0  0
  6  1  2  0  0  0
 36 30  1  0  0  0
 25 19  1  0  0  0
 14 15  1  0  0  0
M  END
> <minimizedAffinity>
9.17326

> <CNNscore>
0.3457078338

> <CNNaffinity>
6.7671518326

> <CNN_VS>
2.3394575119

> <CNNaffinity_variance>
0.7868593931

$$$$
[H]c1nc(OC([H])([H])C([H])([H])Oc2nc([H])c(Br)c([H])n2)c(-c2c([H])c([H])c(C([H])([H])[H])c([H])c2[H])c(N([H])S(=O)(=O)c2c([H])c([H])c(Cl)c([H])c2[H])n1


 36 39  0  0  0  0  0  0  0  0999 V2000
   -3.9784   -4.9741    5.7933 C   0  0  0  0  0  0  0  0  0  0  0  0
   -3.6649   -3.7259    5.3802 C   0  0  0  0  0  0  0  0  0  0  0  0
   -2.7638   -3.6060    4.2404 N   0  0  0  0  0  0  0  0  0  0  0  0
   -2.2737   -4.6453    3.6314 C   0  0  0  0  0  0  0  0  0  0  0  0
   -2.5770   -5.8865    4.0303 N   0  0  0  0  0  0  0  0  0  0  0  0
   -3.3517   -6.0658    5.0292 C   0  0  0  0  0  0  0  0  0  0  0  0
   -7.3301   -7.9926    9.2385 C   0  0  0  0  0  0  0  0  0  0  0  0
   -6.5748   -6.9952    8.4538 C   0  0  0  0  0  0  0  0  0  0  0  0
   -6.9439   -6.5322    7.2481 C   0  0  0  0  0  0  0  0  0  0  0  0
   -6.2010   -5.7580    6.4067 C   0  0  0  0  0  0  0  0  0  0  0  0
   -4.8995   -5.3653    6.8052 C   0  0  0  0  0  0  0  0  0  0  0  0
   -4.5075   -5.8007    8.0622 C   0  0  0  0  0  0  0  0  0  0  0  0
   -5.2683   -6.5930    8.9274 C   0  0  0  0  0  0  0  0  0  0  0  0
   -4.0739   -2.5677    6.0057 N   0  0  0  0  0  0  0  0  0  0  0  0
   -4.8290   -1.9814    5.8085 H   0  0  0  0  0  0  0  0  0  0  0  0
   -3.0094   -2.0136    7.3356 S   0  0  0  0  0  0  0  0  0  0  0  0
   -1.6411   -1.8565    6.5701 O   0  0  0  0  0  0  0  0  0  0  0  0
   -3.3590   -0.6313    7.7476 O   0  0  0  0  0  0  0  0  0  0  0  0
   -2.7571   -3.1087    8.5913 C   0  0  0  0  0  0  0  0  0  0  0  0
   -3.3680   -2.9645    9.7749 C   0  0  0  0  0  0  0  0  0  0  0  0
   -3.2198   -3.6666   10.9005 C   0  0  0  0  0  0  0  0  0  0  0  0
   -2.2962   -4.6892   10.8800 C   0  0  0  0  0  0  0  0  0  0  0  0
   -1.9926   -5.6858   12.3016 Cl  0  0  0  0  0  0  0  0  0  0  0  0
   -1.5354   -4.9689    9.7112 C   0  0  0  0  0  0  0  0  0  0  0  0
   -1.7902   -4.1624    8.5739 C   0  0  0  0  0  0  0  0  0  0  0  0
   -3.6879   -7.2663    5.5806 O   0  0  0  0  0  0  0  0  0  0  0  0
   -4.6720   -8.0349    5.7274 C   0  0  0  0  0  0  0  0  0  0  0  0
   -5.9788   -8.3836    5.2010 C   0  0  0  0  0  0  0  0  0  0  0  0
   -6.4135   -9.1516    4.2680 O   0  0  0  0  0  0  0  0  0  0  0  0
   -6.8421   -9.9171    3.3506 C   0  0  0  0  0  0  0  0  0  0  0  0
   -7.8488  -10.9322    3.6947 N   0  0  0  0  0  0  0  0  0  0  0  0
   -8.3841  -11.7550    2.7949 C   0  0  0  0  0  0  0  0  0  0  0  0
   -7.9854  -11.6674    1.4549 C   0  0  0  0  0  0  0  0  0  0  0  0
   -8.7177  -12.8753    0.1827 Br  0  0  0  0  0  0  0  0  0  0  0  0
   -7.0386  -10.7401    1.1075 C   0  0  0  0  0  0  0  0  0  0  0  0
   -6.5640   -9.9948    2.0186 N   0  0  0  0  0  0  0  0  0  0  0  0
  7  8  1  0  0  0
  8  9  2  0  0  0
  9 10  1  0  0  0
 10 11  2  0  0  0
 11  1  1  0  0  0
  1  2  1  0  0  0
  2 14  1  0  0  0
 14 16  1  0  0  0
 16 17  2  0  0  0
 16 18  2  0  0  0
 16 19  1  0  0  0
 19 20  2  0  0  0
 20 21  1  0  0  0
 21 22  2  0  0  0
 22 23  1  0  0  0
 22 24  1  0  0  0
 24 25  2  0  0  0
  2  3  2  0  0  0
  3  4  1  0  0  0
  4  5  2  0  0  0
  5  6  1  0  0  0
  6 26  1  0  0  0
 26 27  1  0  0  0
 27 28  1  0  0  0
 28 29  1  0  0  0
 29 30  1  0  0  0
 30 31  2  0  0  0
 31 32  1  0  0  0
 32 33  2  0  0  0
 33 34  1  0  0  0
 33 35  1  0  0  0
 35 36  2  0  0  0
 11 12  1  0  0  0
 12 13  2  0  0  0
 13  8  1  0  0  0
  6  1  2  0  0  0
 36 30  1  0  0  0
 25 19  1  0  0  0
 14 15  1  0  0  0
M  END
> <minimizedAffinity>
5.24417

> <CNNscore>
0.3454719484

> <CNNaffinity>
6.1111764908

> <CNN_VS>
2.1112401485

> <CNNaffinity_variance>
1.5862487555

$$$$
[H]c1nc(OC([H])([H])C([H])([H])Oc2nc([H])c(Br)c([H])n2)c(-c2c([H])c([H])c(C([H])([H])[H])c([H])c2[H])c(N([H])S(=O)(=O)c2c([H])c([H])c(Cl)c([H])c2[H])n1


 36 39  0  0  0  0  0  0  0  0999 V2000
   -9.8998   -7.8616    7.3603 C   0  0  0  0  0  0  0  0  0  0  0  0
   -8.5666   -7.6818    7.4915 C   0  0  0  0  0  0  0  0  0  0  0  0
   -8.0169   -6.4084    7.0423 N   0  0  0  0  0  0  0  0  0  0  0  0
   -8.7627   -5.4710    6.5361 C   0  0  0  0  0  0  0  0  0  0  0  0
  -10.0841   -5.6365    6.4015 N   0  0  0  0  0  0  0  0  0  0  0  0
  -10.6316   -6.7315    6.7641 C   0  0  0  0  0  0  0  0  0  0  0  0
  -14.2288  -11.3672    8.4494 C   0  0  0  0  0  0  0  0  0  0  0  0
  -12.9616  -10.6194    8.3218 C   0  0  0  0  0  0  0  0  0  0  0  0
  -12.5948   -9.5965    9.1113 C   0  0  0  0  0  0  0  0  0  0  0  0
  -11.5332   -8.7608    8.9269 C   0  0  0  0  0  0  0  0  0  0  0  0
  -10.6920   -8.9575    7.8041 C   0  0  0  0  0  0  0  0  0  0  0  0
  -11.0284  -10.0300    6.9918 C   0  0  0  0  0  0  0  0  0  0  0  0
  -12.1152  -10.8893    7.1800 C   0  0  0  0  0  0  0  0  0  0  0  0
   -7.6875   -8.6414    7.9458 N   0  0  0  0  0  0  0  0  0  0  0  0
   -7.8145   -9.3434    8.6119 H   0  0  0  0  0  0  0  0  0  0  0  0
   -6.0347   -8.5318    7.2639 S   0  0  0  0  0  0  0  0  0  0  0  0
   -5.3260   -9.7189    8.0199 O   0  0  0  0  0  0  0  0  0  0  0  0
   -6.0252   -8.9477    5.8392 O   0  0  0  0  0  0  0  0  0  0  0  0
   -5.1748   -7.1272    7.6209 C   0  0  0  0  0  0  0  0  0  0  0  0
   -4.5136   -6.4544    6.6696 C   0  0  0  0  0  0  0  0  0  0  0  0
   -3.7120   -5.3925    6.7791 C   0  0  0  0  0  0  0  0  0  0  0  0
   -3.4991   -4.9007    8.0486 C   0  0  0  0  0  0  0  0  0  0  0  0
   -2.4529   -3.5117    8.3357 Cl  0  0  0  0  0  0  0  0  0  0  0  0
   -4.1033   -5.5093    9.1833 C   0  0  0  0  0  0  0  0  0  0  0  0
   -4.9444   -6.6238    8.9395 C   0  0  0  0  0  0  0  0  0  0  0  0
  -11.9475   -7.0580    6.6221 O   0  0  0  0  0  0  0  0  0  0  0  0
  -13.0767   -6.8084    7.1152 C   0  0  0  0  0  0  0  0  0  0  0  0
  -14.2753   -6.0049    6.9586 C   0  0  0  0  0  0  0  0  0  0  0  0
  -14.9218   -5.5115    5.9648 O   0  0  0  0  0  0  0  0  0  0  0  0
  -15.5667   -5.0293    4.9835 C   0  0  0  0  0  0  0  0  0  0  0  0
  -16.8013   -5.7027    4.5541 N   0  0  0  0  0  0  0  0  0  0  0  0
  -17.5640   -5.2514    3.5601 C   0  0  0  0  0  0  0  0  0  0  0  0
  -17.1927   -4.0848    2.8792 C   0  0  0  0  0  0  0  0  0  0  0  0
  -18.2594   -3.4707    1.4303 Br  0  0  0  0  0  0  0  0  0  0  0  0
  -16.0395   -3.4439    3.2485 C   0  0  0  0  0  0  0  0  0  0  0  0
  -15.3561   -3.9353    4.1983 N   0  0  0  0  0  0  0  0  0  0  0  0
  7  8  1  0  0  0
  8  9  2  0  0  0
  9 10  1  0  0  0
 10 11  2  0  0  0
 11  1  1  0  0  0
  1  2  1  0  0  0
  2 14  1  0  0  0
 14 16  1  0  0  0
 16 17  2  0  0  0
 16 18  2  0  0  0
 16 19  1  0  0  0
 19 20  2  0  0  0
 20 21  1  0  0  0
 21 22  2  0  0  0
 22 23  1  0  0  0
 22 24  1  0  0  0
 24 25  2  0  0  0
  2  3  2  0  0  0
  3  4  1  0  0  0
  4  5  2  0  0  0
  5  6  1  0  0  0
  6 26  1  0  0  0
 26 27  1  0  0  0
 27 28  1  0  0  0
 28 29  1  0  0  0
 29 30  1  0  0  0
 30 31  2  0  0  0
 31 32  1  0  0  0
 32 33  2  0  0  0
 33 34  1  0  0  0
 33 35  1  0  0  0
 35 36  2  0  0  0
 11 12  1  0  0  0
 12 13  2  0  0  0
 13  8  1  0  0  0
  6  1  2  0  0  0
 36 30  1  0  0  0
 25 19  1  0  0  0
 14 15  1  0  0  0
M  END
> <minimizedAffinity>
11.81550

> <CNNscore>
0.2970404625

> <CNNaffinity>
6.2938470840

> <CNN_VS>
1.8695272207

> <CNNaffinity_variance>
0.9947522879

$$$$
[H]c1nc(N([H])[C@@]([H])(c2c([H])c([H])c(Cl)c([H])c2[H])C([H])([H])N([H])C([H])([H])[H])c2nc([H])c([H])c(C(=O)N([H])[H])c2n1


 29 31  0  0  0  0  0  0  0  0999 V2000
  -11.9180   -8.0776    7.4916 C   0  0  0  0  0  0  0  0  0  0  0  0
  -12.1448   -9.3774    7.2294 N   0  0  0  0  0  0  0  0  0  0  0  0
  -11.1165  -10.2632    7.1242 C   0  0  0  0  0  0  0  0  0  0  0  0
   -9.8289   -9.8728    7.2789 N   0  0  0  0  0  0  0  0  0  0  0  0
   -9.5480   -8.5977    7.5400 C   0  0  0  0  0  0  0  0  0  0  0  0
   -8.2366   -8.1989    7.6983 C   0  0  0  0  0  0  0  0  0  0  0  0
   -8.0252   -6.8644    7.9665 C   0  0  0  0  0  0  0  0  0  0  0  0
   -9.0792   -5.9875    8.0681 C   0  0  0  0  0  0  0  0  0  0  0  0
  -10.3403   -6.4121    7.9082 N   0  0  0  0  0  0  0  0  0  0  0  0
  -10.6053   -7.6925    7.6469 C   0  0  0  0  0  0  0  0  0  0  0  0
   -7.1083   -9.1173    7.5958 C   0  0  0  0  0  0  0  0  0  0  0  0
   -7.1510  -10.3435    8.2793 N   0  0  0  0  0  0  0  0  0  0  0  0
   -6.0869   -8.8356    6.9030 O   0  0  0  0  0  0  0  0  0  0  0  0
   -6.2507  -10.6627    8.7358 H   0  0  0  0  0  0  0  0  0  0  0  0
   -8.0217  -10.8961    8.3276 H   0  0  0  0  0  0  0  0  0  0  0  0
  -13.0034   -7.1658    7.6007 N   0  0  0  0  0  0  0  0  0  0  0  0
  -12.7660   -6.1510    7.7092 H   0  0  0  0  0  0  0  0  0  0  0  0
  -14.3806   -7.6032    7.5656 C   0  0  0  0  0  0  0  0  0  0  0  0
  -15.1314   -6.8358    6.5715 C   0  0  0  0  0  0  0  0  0  0  0  0
  -16.4965   -6.9137    6.4023 C   0  0  0  0  0  0  0  0  0  0  0  0
  -17.1563   -6.1671    5.4494 C   0  0  0  0  0  0  0  0  0  0  0  0
  -16.4516   -5.3132    4.6330 C   0  0  0  0  0  0  0  0  0  0  0  0
  -17.2897   -4.3598    3.4170 Cl  0  0  0  0  0  0  0  0  0  0  0  0
  -15.0820   -5.2168    4.7826 C   0  0  0  0  0  0  0  0  0  0  0  0
  -14.4509   -5.9725    5.7400 C   0  0  0  0  0  0  0  0  0  0  0  0
  -14.4190   -9.0976    7.3625 C   0  0  0  0  0  0  0  0  0  0  0  0
  -14.0782   -9.3391    4.9888 C   0  0  0  0  0  0  0  0  0  0  0  0
  -14.9636   -9.4944    6.1033 N   0  0  0  0  0  0  0  0  0  0  0  0
  -15.2595  -10.4771    6.1590 H   0  0  0  0  0  0  0  0  0  0  0  0
 27 28  1  0  0  0
 28 26  1  0  0  0
 26 18  1  0  0  0
 18 16  1  0  0  0
 16  1  1  0  0  0
  1  2  2  0  0  0
  2  3  1  0  0  0
  3  4  2  0  0  0
  4  5  1  0  0  0
  5  6  2  0  0  0
  6 11  1  0  0  0
 11 12  1  0  0  0
 11 13  2  0  0  0
  6  7  1  0  0  0
  7  8  2  0  0  0
  8  9  1  0  0  0
  9 10  2  0  0  0
 18 19  1  0  0  0
 19 20  2  0  0  0
 20 21  1  0  0  0
 21 22  2  0  0  0
 22 23  1  0  0  0
 22 24  1  0  0  0
 24 25  2  0  0  0
 10  1  1  0  0  0
 25 19  1  0  0  0
 10  5  1  0  0  0
 28 29  1  0  0  0
 16 17  1  0  0  0
 12 14  1  0  0  0
 12 15  1  0  0  0
M  END
> <minimizedAffinity>
-5.69111

> <CNNscore>
0.6029825211

> <CNNaffinity>
7.0575728416

> <CNN_VS>
4.2555932999

> <CNNaffinity_variance>
0.2091527432

$$$$
[H]c1nc(N([H])[C@@]([H])(c2c([H])c([H])c(Cl)c([H])c2[H])C([H])([H])N([H])C([H])([H])[H])c2nc([H])c([H])c(C(=O)N([H])[H])c2n1


 29 31  0  0  0  0  0  0  0  0999 V2000
  -11.7319   -9.1079    7.5984 C   0  0  0  0  0  0  0  0  0  0  0  0
  -11.4880  -10.2774    6.9801 N   0  0  0  0  0  0  0  0  0  0  0  0
  -10.2339  -10.6044    6.5637 C   0  0  0  0  0  0  0  0  0  0  0  0
   -9.1856   -9.7685    6.7547 N   0  0  0  0  0  0  0  0  0  0  0  0
   -9.3710   -8.5980    7.3617 C   0  0  0  0  0  0  0  0  0  0  0  0
   -8.3037   -7.7458    7.5572 C   0  0  0  0  0  0  0  0  0  0  0  0
   -8.5737   -6.5535    8.1922 C   0  0  0  0  0  0  0  0  0  0  0  0
   -9.8484   -6.2441    8.6040 C   0  0  0  0  0  0  0  0  0  0  0  0
  -10.8605   -7.0978    8.3966 N   0  0  0  0  0  0  0  0  0  0  0  0
  -10.6586   -8.2664    7.7870 C   0  0  0  0  0  0  0  0  0  0  0  0
   -6.9458   -8.0607    7.1283 C   0  0  0  0  0  0  0  0  0  0  0  0
   -6.7255   -8.5381    5.8259 N   0  0  0  0  0  0  0  0  0  0  0  0
   -5.9562   -7.9139    7.9041 O   0  0  0  0  0  0  0  0  0  0  0  0
   -6.0086   -9.3098    5.7194 H   0  0  0  0  0  0  0  0  0  0  0  0
   -7.2426   -8.1488    5.0217 H   0  0  0  0  0  0  0  0  0  0  0  0
  -13.0472   -8.7826    8.0292 N   0  0  0  0  0  0  0  0  0  0  0  0
  -13.6338   -9.5649    8.4057 H   0  0  0  0  0  0  0  0  0  0  0  0
  -13.5681   -7.4362    7.9576 C   0  0  0  0  0  0  0  0  0  0  0  0
  -14.5271   -7.3212    6.8585 C   0  0  0  0  0  0  0  0  0  0  0  0
  -14.2361   -6.7657    5.6317 C   0  0  0  0  0  0  0  0  0  0  0  0
  -15.1777   -6.6820    4.6281 C   0  0  0  0  0  0  0  0  0  0  0  0
  -16.4506   -7.1604    4.8353 C   0  0  0  0  0  0  0  0  0  0  0  0
  -17.6536   -7.0554    3.5579 Cl  0  0  0  0  0  0  0  0  0  0  0  0
  -16.7675   -7.7222    6.0567 C   0  0  0  0  0  0  0  0  0  0  0  0
  -15.8098   -7.7923    7.0383 C   0  0  0  0  0  0  0  0  0  0  0  0
  -14.1142   -7.0455    9.3084 C   0  0  0  0  0  0  0  0  0  0  0  0
  -13.0646   -5.2394   10.5106 C   0  0  0  0  0  0  0  0  0  0  0  0
  -13.1105   -6.6451   10.2421 N   0  0  0  0  0  0  0  0  0  0  0  0
  -13.2535   -7.1484   11.1269 H   0  0  0  0  0  0  0  0  0  0  0  0
 27 28  1  0  0  0
 28 26  1  0  0  0
 26 18  1  0  0  0
 18 16  1  0  0  0
 16  1  1  0  0  0
  1  2  2  0  0  0
  2  3  1  0  0  0
  3  4  2  0  0  0
  4  5  1  0  0  0
  5  6  2  0  0  0
  6 11  1  0  0  0
 11 12  1  0  0  0
 11 13  2  0  0  0
  6  7  1  0  0  0
  7  8  2  0  0  0
  8  9  1  0  0  0
  9 10  2  0  0  0
 18 19  1  0  0  0
 19 20  2  0  0  0
 20 21  1  0  0  0
 21 22  2  0  0  0
 22 23  1  0  0  0
 22 24  1  0  0  0
 24 25  2  0  0  0
 10  1  1  0  0  0
 25 19  1  0  0  0
 10  5  1  0  0  0
 28 29  1  0  0  0
 16 17  1  0  0  0
 12 14  1  0  0  0
 12 15  1  0  0  0
M  END
> <minimizedAffinity>
-7.21184

> <CNNscore>
0.5010715723

> <CNNaffinity>
7.1468873024

> <CNN_VS>
3.5811021328

> <CNNaffinity_variance>
0.1314433813

$$$$
[H]c1nc(N([H])[C@@]([H])(c2c([H])c([H])c(Cl)c([H])c2[H])C([H])([H])N([H])C([H])([H])[H])c2nc([H])c([H])c(C(=O)N([H])[H])c2n1


 29 31  0  0  0  0  0  0  0  0999 V2000
  -11.7369   -9.1949    7.6275 C   0  0  0  0  0  0  0  0  0  0  0  0
  -11.4518  -10.3444    6.9894 N   0  0  0  0  0  0  0  0  0  0  0  0
  -10.1879  -10.6177    6.5642 C   0  0  0  0  0  0  0  0  0  0  0  0
   -9.1706   -9.7466    6.7660 N   0  0  0  0  0  0  0  0  0  0  0  0
   -9.3974   -8.5939    7.3927 C   0  0  0  0  0  0  0  0  0  0  0  0
   -8.3618   -7.7059    7.5993 C   0  0  0  0  0  0  0  0  0  0  0  0
   -8.6737   -6.5350    8.2546 C   0  0  0  0  0  0  0  0  0  0  0  0
   -9.9576   -6.2800    8.6749 C   0  0  0  0  0  0  0  0  0  0  0  0
  -10.9381   -7.1672    8.4563 N   0  0  0  0  0  0  0  0  0  0  0  0
  -10.6950   -8.3174    7.8269 C   0  0  0  0  0  0  0  0  0  0  0  0
   -6.9946   -7.9631    7.1615 C   0  0  0  0  0  0  0  0  0  0  0  0
   -6.7598   -8.3957    5.8461 N   0  0  0  0  0  0  0  0  0  0  0  0
   -6.0096   -7.8054    7.9411 O   0  0  0  0  0  0  0  0  0  0  0  0
   -6.0177   -9.1397    5.7176 H   0  0  0  0  0  0  0  0  0  0  0  0
   -7.2904   -8.0012    5.0532 H   0  0  0  0  0  0  0  0  0  0  0  0
  -13.0619   -8.9259    8.0672 N   0  0  0  0  0  0  0  0  0  0  0  0
  -13.6791   -9.7510    8.2574 H   0  0  0  0  0  0  0  0  0  0  0  0
  -13.5522   -7.5784    8.2491 C   0  0  0  0  0  0  0  0  0  0  0  0
  -14.6131   -7.2900    7.2835 C   0  0  0  0  0  0  0  0  0  0  0  0
  -15.8760   -7.8384    7.3337 C   0  0  0  0  0  0  0  0  0  0  0  0
  -16.8409   -7.5322    6.3976 C   0  0  0  0  0  0  0  0  0  0  0  0
  -16.5566   -6.6567    5.3754 C   0  0  0  0  0  0  0  0  0  0  0  0
  -17.7844   -6.2641    4.1803 Cl  0  0  0  0  0  0  0  0  0  0  0  0
  -15.2977   -6.0932    5.3030 C   0  0  0  0  0  0  0  0  0  0  0  0
  -14.3561   -6.4163    6.2489 C   0  0  0  0  0  0  0  0  0  0  0  0
  -13.9500   -7.3881    9.6917 C   0  0  0  0  0  0  0  0  0  0  0  0
  -13.1300   -5.2636   10.4809 C   0  0  0  0  0  0  0  0  0  0  0  0
  -12.9789   -6.6874   10.4698 N   0  0  0  0  0  0  0  0  0  0  0  0
  -13.0096   -7.0329   11.4374 H   0  0  0  0  0  0  0  0  0  0  0  0
 27 28  1  0  0  0
 28 26  1  0  0  0
 26 18  1  0  0  0
 18 16  1  0  0  0
 16  1  1  0  0  0
  1  2  2  0  0  0
  2  3  1  0  0  0
  3  4  2  0  0  0
  4  5  1  0  0  0
  5  6  2  0  0  0
  6 11  1  0  0  0
 11 12  1  0  0  0
 11 13  2  0  0  0
  6  7  1  0  0  0
  7  8  2  0  0  0
  8  9  1  0  0  0
  9 10  2  0  0  0
 18 19  1  0  0  0
 19 20  2  0  0  0
 20 21  1  0  0  0
 21 22  2  0  0  0
 22 23  1  0  0  0
 22 24  1  0  0  0
 24 25  2  0  0  0
 10  1  1  0  0  0
 25 19  1  0  0  0
 10  5  1  0  0  0
 28 29  1  0  0  0
 16 17  1  0  0  0
 12 14  1  0  0  0
 12 15  1  0  0  0
M  END
> <minimizedAffinity>
-7.30580

> <CNNscore>
0.4650143683

> <CNNaffinity>
7.1316041946

> <CNN_VS>
3.3162984848

> <CNNaffinity_variance>
0.1422473490

$$$$
[H]c1nc(N([H])[C@@]([H])(c2c([H])c([H])c(Cl)c([H])c2[H])C([H])([H])N([H])C([H])([H])[H])c2nc([H])c([H])c(C(=O)N([H])[H])c2n1


 29 31  0  0  0  0  0  0  0  0999 V2000
  -10.8113   -9.8975    7.3402 C   0  0  0  0  0  0  0  0  0  0  0  0
  -10.2912  -10.7706    6.4589 N   0  0  0  0  0  0  0  0  0  0  0  0
   -9.0847  -10.5422    5.8715 C   0  0  0  0  0  0  0  0  0  0  0  0
   -8.3623   -9.4310    6.1499 N   0  0  0  0  0  0  0  0  0  0  0  0
   -8.8302   -8.5338    7.0154 C   0  0  0  0  0  0  0  0  0  0  0  0
   -8.0949   -7.4015    7.3001 C   0  0  0  0  0  0  0  0  0  0  0  0
   -8.6442   -6.5200    8.2051 C   0  0  0  0  0  0  0  0  0  0  0  0
   -9.8647   -6.7712    8.7860 C   0  0  0  0  0  0  0  0  0  0  0  0
  -10.5501   -7.8827    8.4845 N   0  0  0  0  0  0  0  0  0  0  0  0
  -10.0680   -8.7717    7.6154 C   0  0  0  0  0  0  0  0  0  0  0  0
   -6.7981   -7.1223    6.6941 C   0  0  0  0  0  0  0  0  0  0  0  0
   -6.7411   -6.6278    5.3807 N   0  0  0  0  0  0  0  0  0  0  0  0
   -5.7177   -7.3153    7.3251 O   0  0  0  0  0  0  0  0  0  0  0  0
   -5.9736   -7.0141    4.7622 H   0  0  0  0  0  0  0  0  0  0  0  0
   -7.4186   -5.9240    5.0470 H   0  0  0  0  0  0  0  0  0  0  0  0
  -12.0717  -10.1522    7.9467 N   0  0  0  0  0  0  0  0  0  0  0  0
  -12.1121  -10.9172    8.6616 H   0  0  0  0  0  0  0  0  0  0  0  0
  -13.2559   -9.3980    7.6032 C   0  0  0  0  0  0  0  0  0  0  0  0
  -13.3320   -8.1786    8.4084 C   0  0  0  0  0  0  0  0  0  0  0  0
  -13.5313   -6.9184    7.8885 C   0  0  0  0  0  0  0  0  0  0  0  0
  -13.5958   -5.8004    8.6927 C   0  0  0  0  0  0  0  0  0  0  0  0
  -13.4597   -5.9229   10.0560 C   0  0  0  0  0  0  0  0  0  0  0  0
  -13.5415   -4.4996   11.0843 Cl  0  0  0  0  0  0  0  0  0  0  0  0
  -13.2592   -7.1756   10.6021 C   0  0  0  0  0  0  0  0  0  0  0  0
  -13.1991   -8.2718    9.7771 C   0  0  0  0  0  0  0  0  0  0  0  0
  -13.2789   -9.1665    6.1127 C   0  0  0  0  0  0  0  0  0  0  0  0
  -14.7928   -8.6029    4.3241 C   0  0  0  0  0  0  0  0  0  0  0  0
  -14.5639   -9.3571    5.5195 N   0  0  0  0  0  0  0  0  0  0  0  0
  -14.6949  -10.3555    5.3133 H   0  0  0  0  0  0  0  0  0  0  0  0
 27 28  1  0  0  0
 28 26  1  0  0  0
 26 18  1  0  0  0
 18 16  1  0  0  0
 16  1  1  0  0  0
  1  2  2  0  0  0
  2  3  1  0  0  0
  3  4  2  0  0  0
  4  5  1  0  0  0
  5  6  2  0  0  0
  6 11  1  0  0  0
 11 12  1  0  0  0
 11 13  2  0  0  0
  6  7  1  0  0  0
  7  8  2  0  0  0
  8  9  1  0  0  0
  9 10  2  0  0  0
 18 19  1  0  0  0
 19 20  2  0  0  0
 20 21  1  0  0  0
 21 22  2  0  0  0
 22 23  1  0  0  0
 22 24  1  0  0  0
 24 25  2  0  0  0
 10  1  1  0  0  0
 25 19  1  0  0  0
 10  5  1  0  0  0
 28 29  1  0  0  0
 16 17  1  0  0  0
 12 14  1  0  0  0
 12 15  1  0  0  0
M  END
> <minimizedAffinity>
-4.89852

> <CNNscore>
0.4300117195

> <CNNaffinity>
6.7334070206

> <CNN_VS>
2.8954439163

> <CNNaffinity_variance>
0.1262781769

$$$$
[H]c1nc(N([H])[C@@]([H])(c2c([H])c([H])c(Cl)c([H])c2[H])C([H])([H])N([H])C([H])([H])[H])c2nc([H])c([H])c(C(=O)N([H])[H])c2n1


 29 31  0  0  0  0  0  0  0  0999 V2000
   -8.1547   -8.0270    7.9585 C   0  0  0  0  0  0  0  0  0  0  0  0
   -7.9662   -9.2146    7.3553 N   0  0  0  0  0  0  0  0  0  0  0  0
   -9.0192  -10.0159    7.0359 C   0  0  0  0  0  0  0  0  0  0  0  0
  -10.2940   -9.6509    7.3113 N   0  0  0  0  0  0  0  0  0  0  0  0
  -10.5374   -8.4853    7.9072 C   0  0  0  0  0  0  0  0  0  0  0  0
  -11.8358   -8.1122    8.1878 C   0  0  0  0  0  0  0  0  0  0  0  0
  -12.0081   -6.8928    8.8051 C   0  0  0  0  0  0  0  0  0  0  0  0
  -10.9296   -6.0999    9.1187 C   0  0  0  0  0  0  0  0  0  0  0  0
   -9.6822   -6.4961    8.8303 N   0  0  0  0  0  0  0  0  0  0  0  0
   -9.4548   -7.6666    8.2333 C   0  0  0  0  0  0  0  0  0  0  0  0
  -12.9900   -8.9409    7.8593 C   0  0  0  0  0  0  0  0  0  0  0  0
  -13.0081  -10.2886    8.2543 N   0  0  0  0  0  0  0  0  0  0  0  0
  -13.9805   -8.4738    7.2241 O   0  0  0  0  0  0  0  0  0  0  0  0
  -13.4070  -10.9805    7.5593 H   0  0  0  0  0  0  0  0  0  0  0  0
  -12.6476  -10.5777    9.1775 H   0  0  0  0  0  0  0  0  0  0  0  0
   -7.0442   -7.2008    8.2832 N   0  0  0  0  0  0  0  0  0  0  0  0
   -6.8185   -7.0813    9.2994 H   0  0  0  0  0  0  0  0  0  0  0  0
   -6.2505   -6.5466    7.2677 C   0  0  0  0  0  0  0  0  0  0  0  0
   -5.1628   -5.7872    7.8850 C   0  0  0  0  0  0  0  0  0  0  0  0
   -4.8775   -5.7992    9.2329 C   0  0  0  0  0  0  0  0  0  0  0  0
   -3.8389   -5.0645    9.7643 C   0  0  0  0  0  0  0  0  0  0  0  0
   -3.0518   -4.2900    8.9440 C   0  0  0  0  0  0  0  0  0  0  0  0
   -1.7268   -3.3521    9.6182 Cl  0  0  0  0  0  0  0  0  0  0  0  0
   -3.3171   -4.2610    7.5888 C   0  0  0  0  0  0  0  0  0  0  0  0
   -4.3582   -5.0027    7.0870 C   0  0  0  0  0  0  0  0  0  0  0  0
   -5.8026   -7.5710    6.2549 C   0  0  0  0  0  0  0  0  0  0  0  0
   -3.5311   -8.3681    6.3714 C   0  0  0  0  0  0  0  0  0  0  0  0
   -4.8932   -8.5397    6.7783 N   0  0  0  0  0  0  0  0  0  0  0  0
   -4.9383   -8.5240    7.8050 H   0  0  0  0  0  0  0  0  0  0  0  0
 27 28  1  0  0  0
 28 26  1  0  0  0
 26 18  1  0  0  0
 18 16  1  0  0  0
 16  1  1  0  0  0
  1  2  2  0  0  0
  2  3  1  0  0  0
  3  4  2  0  0  0
  4  5  1  0  0  0
  5  6  2  0  0  0
  6 11  1  0  0  0
 11 12  1  0  0  0
 11 13  2  0  0  0
  6  7  1  0  0  0
  7  8  2  0  0  0
  8  9  1  0  0  0
  9 10  2  0  0  0
 18 19  1  0  0  0
 19 20  2  0  0  0
 20 21  1  0  0  0
 21 22  2  0  0  0
 22 23  1  0  0  0
 22 24  1  0  0  0
 24 25  2  0  0  0
 10  1  1  0  0  0
 25 19  1  0  0  0
 10  5  1  0  0  0
 28 29  1  0  0  0
 16 17  1  0  0  0
 12 14  1  0  0  0
 12 15  1  0  0  0
M  END
> <minimizedAffinity>
-6.05578

> <CNNscore>
0.4029729068

> <CNNaffinity>
6.0862030983

> <CNN_VS>
2.4525749683

> <CNNaffinity_variance>
0.0341322795

$$$$
[H]c1nc(N([H])[C@@]([H])(c2c([H])c([H])c(Cl)c([H])c2[H])C([H])([H])N([H])C([H])([H])[H])c2nc([H])c([H])c(C(=O)N([H])[H])c2n1


 29 31  0  0  0  0  0  0  0  0999 V2000
   -8.3950   -7.7371    7.7733 C   0  0  0  0  0  0  0  0  0  0  0  0
   -8.1660   -8.9061    7.1482 N   0  0  0  0  0  0  0  0  0  0  0  0
   -9.1697   -9.8028    6.9445 C   0  0  0  0  0  0  0  0  0  0  0  0
  -10.4342   -9.5548    7.3614 N   0  0  0  0  0  0  0  0  0  0  0  0
  -10.7162   -8.4129    7.9854 C   0  0  0  0  0  0  0  0  0  0  0  0
  -12.0042   -8.1589    8.4101 C   0  0  0  0  0  0  0  0  0  0  0  0
  -12.2184   -6.9567    9.0477 C   0  0  0  0  0  0  0  0  0  0  0  0
  -11.1893   -6.0661    9.2427 C   0  0  0  0  0  0  0  0  0  0  0  0
   -9.9506   -6.3478    8.8157 N   0  0  0  0  0  0  0  0  0  0  0  0
   -9.6841   -7.4961    8.1925 C   0  0  0  0  0  0  0  0  0  0  0  0
  -13.1065   -9.0923    8.2086 C   0  0  0  0  0  0  0  0  0  0  0  0
  -12.9262  -10.4513    8.5143 N   0  0  0  0  0  0  0  0  0  0  0  0
  -14.2270   -8.7066    7.7630 O   0  0  0  0  0  0  0  0  0  0  0  0
  -13.3584  -11.1486    7.8451 H   0  0  0  0  0  0  0  0  0  0  0  0
  -12.3969  -10.7430    9.3513 H   0  0  0  0  0  0  0  0  0  0  0  0
   -7.3360   -6.8104    7.9760 N   0  0  0  0  0  0  0  0  0  0  0  0
   -7.5326   -5.8048    7.7569 H   0  0  0  0  0  0  0  0  0  0  0  0
   -6.0383   -7.2211    8.4624 C   0  0  0  0  0  0  0  0  0  0  0  0
   -5.0051   -6.9130    7.4732 C   0  0  0  0  0  0  0  0  0  0  0  0
   -3.7977   -7.5707    7.3839 C   0  0  0  0  0  0  0  0  0  0  0  0
   -2.8574   -7.2411    6.4310 C   0  0  0  0  0  0  0  0  0  0  0  0
   -3.1104   -6.2299    5.5335 C   0  0  0  0  0  0  0  0  0  0  0  0
   -1.9137   -5.8070    4.3173 Cl  0  0  0  0  0  0  0  0  0  0  0  0
   -4.3136   -5.5551    5.6020 C   0  0  0  0  0  0  0  0  0  0  0  0
   -5.2318   -5.9045    6.5615 C   0  0  0  0  0  0  0  0  0  0  0  0
   -5.8050   -6.6112    9.8222 C   0  0  0  0  0  0  0  0  0  0  0  0
   -4.5134   -5.0219   11.0929 C   0  0  0  0  0  0  0  0  0  0  0  0
   -4.9414   -5.4740    9.8035 N   0  0  0  0  0  0  0  0  0  0  0  0
   -4.1129   -5.6895    9.2345 H   0  0  0  0  0  0  0  0  0  0  0  0
 27 28  1  0  0  0
 28 26  1  0  0  0
 26 18  1  0  0  0
 18 16  1  0  0  0
 16  1  1  0  0  0
  1  2  2  0  0  0
  2  3  1  0  0  0
  3  4  2  0  0  0
  4  5  1  0  0  0
  5  6  2  0  0  0
  6 11  1  0  0  0
 11 12  1  0  0  0
 11 13  2  0  0  0
  6  7  1  0  0  0
  7  8  2  0  0  0
  8  9  1  0  0  0
  9 10  2  0  0  0
 18 19  1  0  0  0
 19 20  2  0  0  0
 20 21  1  0  0  0
 21 22  2  0  0  0
 22 23  1  0  0  0
 22 24  1  0  0  0
 24 25  2  0  0  0
 10  1  1  0  0  0
 25 19  1  0  0  0
 10  5  1  0  0  0
 28 29  1  0  0  0
 16 17  1  0  0  0
 12 14  1  0  0  0
 12 15  1  0  0  0
M  END
> <minimizedAffinity>
-6.38094

> <CNNscore>
0.3705150783

> <CNNaffinity>
6.1779313087

> <CNN_VS>
2.2890167236

> <CNNaffinity_variance>
0.0281786565

$$$$
[H]c1nc(N([H])[C@@]([H])(c2c([H])c([H])c(Cl)c([H])c2[H])C([H])([H])N([H])C([H])([H])[H])c2nc([H])c([H])c(C(=O)N([H])[H])c2n1


 29 31  0  0  0  0  0  0  0  0999 V2000
  -11.7185   -7.7686    7.8594 C   0  0  0  0  0  0  0  0  0  0  0  0
  -11.4705   -6.5736    8.4252 N   0  0  0  0  0  0  0  0  0  0  0  0
  -10.1961   -6.1635    8.6720 C   0  0  0  0  0  0  0  0  0  0  0  0
   -9.1310   -6.9391    8.3587 N   0  0  0  0  0  0  0  0  0  0  0  0
   -9.3196   -8.1313    7.7965 C   0  0  0  0  0  0  0  0  0  0  0  0
   -8.2353   -8.9222    7.4765 C   0  0  0  0  0  0  0  0  0  0  0  0
   -8.5098  -10.1417    6.8978 C   0  0  0  0  0  0  0  0  0  0  0  0
   -9.8051  -10.5355    6.6580 C   0  0  0  0  0  0  0  0  0  0  0  0
  -10.8333   -9.7396    6.9826 N   0  0  0  0  0  0  0  0  0  0  0  0
  -10.6280   -8.5483    7.5453 C   0  0  0  0  0  0  0  0  0  0  0  0
   -6.8558   -8.5175    7.7224 C   0  0  0  0  0  0  0  0  0  0  0  0
   -6.5226   -7.9023    8.9403 N   0  0  0  0  0  0  0  0  0  0  0  0
   -5.9471   -8.7079    6.8617 O   0  0  0  0  0  0  0  0  0  0  0  0
   -5.8347   -7.0991    8.8924 H   0  0  0  0  0  0  0  0  0  0  0  0
   -6.9343   -8.2255    9.8301 H   0  0  0  0  0  0  0  0  0  0  0  0
  -13.0553   -8.1810    7.6062 N   0  0  0  0  0  0  0  0  0  0  0  0
  -13.1912   -9.1341    7.1926 H   0  0  0  0  0  0  0  0  0  0  0  0
  -14.1892   -7.3342    7.9004 C   0  0  0  0  0  0  0  0  0  0  0  0
  -15.0866   -7.2691    6.7466 C   0  0  0  0  0  0  0  0  0  0  0  0
  -14.7515   -6.7037    5.5357 C   0  0  0  0  0  0  0  0  0  0  0  0
  -15.6356   -6.6687    4.4784 C   0  0  0  0  0  0  0  0  0  0  0  0
  -16.8939   -7.2079    4.6138 C   0  0  0  0  0  0  0  0  0  0  0  0
  -18.0237   -7.1651    3.2678 Cl  0  0  0  0  0  0  0  0  0  0  0  0
  -17.2543   -7.7808    5.8177 C   0  0  0  0  0  0  0  0  0  0  0  0
  -16.3534   -7.8015    6.8539 C   0  0  0  0  0  0  0  0  0  0  0  0
  -14.8418   -7.8083    9.1752 C   0  0  0  0  0  0  0  0  0  0  0  0
  -13.6357   -6.2649   10.5795 C   0  0  0  0  0  0  0  0  0  0  0  0
  -14.0375   -7.6182   10.3399 N   0  0  0  0  0  0  0  0  0  0  0  0
  -14.5481   -7.9643   11.1620 H   0  0  0  0  0  0  0  0  0  0  0  0
 27 28  1  0  0  0
 28 26  1  0  0  0
 26 18  1  0  0  0
 18 16  1  0  0  0
 16  1  1  0  0  0
  1  2  2  0  0  0
  2  3  1  0  0  0
  3  4  2  0  0  0
  4  5  1  0  0  0
  5  6  2  0  0  0
  6 11  1  0  0  0
 11 12  1  0  0  0
 11 13  2  0  0  0
  6  7  1  0  0  0
  7  8  2  0  0  0
  8  9  1  0  0  0
  9 10  2  0  0  0
 18 19  1  0  0  0
 19 20  2  0  0  0
 20 21  1  0  0  0
 21 22  2  0  0  0
 22 23  1  0  0  0
 22 24  1  0  0  0
 24 25  2  0  0  0
 10  1  1  0  0  0
 25 19  1  0  0  0
 10  5  1  0  0  0
 28 29  1  0  0  0
 16 17  1  0  0  0
 12 14  1  0  0  0
 12 15  1  0  0  0
M  END
> <minimizedAffinity>
-6.99131

> <CNNscore>
0.3268231153

> <CNNaffinity>
6.8302931786

> <CNN_VS>
2.2322976589

> <CNNaffinity_variance>
0.1555667371

$$$$
[H]c1nc(N([H])[C@@]([H])(c2c([H])c([H])c(Cl)c([H])c2[H])C([H])([H])N([H])C([H])([H])[H])c2nc([H])c([H])c(C(=O)N([H])[H])c2n1


 29 31  0  0  0  0  0  0  0  0999 V2000
  -12.2623   -9.0680    7.0161 C   0  0  0  0  0  0  0  0  0  0  0  0
  -11.8273  -10.1060    6.2792 N   0  0  0  0  0  0  0  0  0  0  0  0
  -10.4982  -10.3732    6.1566 C   0  0  0  0  0  0  0  0  0  0  0  0
   -9.5641   -9.6077    6.7695 N   0  0  0  0  0  0  0  0  0  0  0  0
   -9.9397   -8.5678    7.5114 C   0  0  0  0  0  0  0  0  0  0  0  0
   -8.9890   -7.7874    8.1366 C   0  0  0  0  0  0  0  0  0  0  0  0
   -9.4542   -6.7298    8.8867 C   0  0  0  0  0  0  0  0  0  0  0  0
  -10.8015   -6.4786    8.9963 C   0  0  0  0  0  0  0  0  0  0  0  0
  -11.6958   -7.2593    8.3742 N   0  0  0  0  0  0  0  0  0  0  0  0
  -11.3036   -8.2971    7.6344 C   0  0  0  0  0  0  0  0  0  0  0  0
   -7.5569   -8.0424    8.0319 C   0  0  0  0  0  0  0  0  0  0  0  0
   -7.0697   -9.3436    8.2374 N   0  0  0  0  0  0  0  0  0  0  0  0
   -6.7381   -7.1161    7.7592 O   0  0  0  0  0  0  0  0  0  0  0  0
   -6.1641   -9.4302    8.7790 H   0  0  0  0  0  0  0  0  0  0  0  0
   -7.5776  -10.1658    7.8744 H   0  0  0  0  0  0  0  0  0  0  0  0
  -13.6542   -8.8041    7.1359 N   0  0  0  0  0  0  0  0  0  0  0  0
  -14.3028   -9.6251    7.0796 H   0  0  0  0  0  0  0  0  0  0  0  0
  -14.1688   -7.4670    7.3271 C   0  0  0  0  0  0  0  0  0  0  0  0
  -14.9204   -7.0392    6.1469 C   0  0  0  0  0  0  0  0  0  0  0  0
  -15.0628   -5.7266    5.7533 C   0  0  0  0  0  0  0  0  0  0  0  0
  -15.7824   -5.3767    4.6304 C   0  0  0  0  0  0  0  0  0  0  0  0
  -16.3839   -6.3495    3.8662 C   0  0  0  0  0  0  0  0  0  0  0  0
  -17.3021   -5.9070    2.4340 Cl  0  0  0  0  0  0  0  0  0  0  0  0
  -16.2559   -7.6731    4.2395 C   0  0  0  0  0  0  0  0  0  0  0  0
  -15.5334   -7.9926    5.3628 C   0  0  0  0  0  0  0  0  0  0  0  0
  -14.9485   -7.4179    8.6176 C   0  0  0  0  0  0  0  0  0  0  0  0
  -17.1431   -8.2404    8.0555 C   0  0  0  0  0  0  0  0  0  0  0  0
  -15.9110   -8.4645    8.7498 N   0  0  0  0  0  0  0  0  0  0  0  0
  -15.4981   -9.3457    8.4190 H   0  0  0  0  0  0  0  0  0  0  0  0
 27 28  1  0  0  0
 28 26  1  0  0  0
 26 18  1  0  0  0
 18 16  1  0  0  0
 16  1  1  0  0  0
  1  2  2  0  0  0
  2  3  1  0  0  0
  3  4  2  0  0  0
  4  5  1  0  0  0
  5  6  2  0  0  0
  6 11  1  0  0  0
 11 12  1  0  0  0
 11 13  2  0  0  0
  6  7  1  0  0  0
  7  8  2  0  0  0
  8  9  1  0  0  0
  9 10  2  0  0  0
 18 19  1  0  0  0
 19 20  2  0  0  0
 20 21  1  0  0  0
 21 22  2  0  0  0
 22 23  1  0  0  0
 22 24  1  0  0  0
 24 25  2  0  0  0
 10  1  1  0  0  0
 25 19  1  0  0  0
 10  5  1  0  0  0
 28 29  1  0  0  0
 16 17  1  0  0  0
 12 14  1  0  0  0
 12 15  1  0  0  0
M  END
> <minimizedAffinity>
-5.35027

> <CNNscore>
0.3246021271

> <CNNaffinity>
6.6183271408

> <CNN_VS>
2.1483230591

> <CNNaffinity_variance>
0.0630287379

$$$$
[H]c1nc(N([H])[C@@]([H])(c2c([H])c([H])c(Cl)c([H])c2[H])C([H])([H])N([H])C([H])([H])[H])c2nc([H])c([H])c(C(=O)N([H])[H])c2n1


 29 31  0  0  0  0  0  0  0  0999 V2000
   -5.9938   -6.7473    8.7580 C   0  0  0  0  0  0  0  0  0  0  0  0
   -5.9134   -6.9448   10.0863 N   0  0  0  0  0  0  0  0  0  0  0  0
   -7.0290   -6.9415   10.8663 C   0  0  0  0  0  0  0  0  0  0  0  0
   -8.2598   -6.7402   10.3383 N   0  0  0  0  0  0  0  0  0  0  0  0
   -8.3966   -6.5400    9.0290 C   0  0  0  0  0  0  0  0  0  0  0  0
   -9.6500   -6.3353    8.4899 C   0  0  0  0  0  0  0  0  0  0  0  0
   -9.7115   -6.1353    7.1283 C   0  0  0  0  0  0  0  0  0  0  0  0
   -8.5713   -6.1426    6.3600 C   0  0  0  0  0  0  0  0  0  0  0  0
   -7.3705   -6.3449    6.9197 N   0  0  0  0  0  0  0  0  0  0  0  0
   -7.2501   -6.5439    8.2327 C   0  0  0  0  0  0  0  0  0  0  0  0
  -10.8686   -6.3272    9.2912 C   0  0  0  0  0  0  0  0  0  0  0  0
  -11.5652   -7.5284    9.5019 N   0  0  0  0  0  0  0  0  0  0  0  0
  -11.3162   -5.2596    9.8038 O   0  0  0  0  0  0  0  0  0  0  0  0
  -12.6220   -7.4749    9.4694 H   0  0  0  0  0  0  0  0  0  0  0  0
  -11.0614   -8.4121    9.6783 H   0  0  0  0  0  0  0  0  0  0  0  0
   -4.8191   -6.7562    7.9572 N   0  0  0  0  0  0  0  0  0  0  0  0
   -4.1685   -5.9406    8.0542 H   0  0  0  0  0  0  0  0  0  0  0  0
   -4.5205   -7.8356    7.0434 C   0  0  0  0  0  0  0  0  0  0  0  0
   -5.7383   -8.5808    6.7233 C   0  0  0  0  0  0  0  0  0  0  0  0
   -6.2957   -8.6501    5.4653 C   0  0  0  0  0  0  0  0  0  0  0  0
   -7.4462   -9.3680    5.2168 C   0  0  0  0  0  0  0  0  0  0  0  0
   -8.0726  -10.0423    6.2392 C   0  0  0  0  0  0  0  0  0  0  0  0
   -9.5396  -10.9586    5.9259 Cl  0  0  0  0  0  0  0  0  0  0  0  0
   -7.5335   -9.9887    7.5097 C   0  0  0  0  0  0  0  0  0  0  0  0
   -6.3867   -9.2658    7.7284 C   0  0  0  0  0  0  0  0  0  0  0  0
   -3.7927   -7.2805    5.8443 C   0  0  0  0  0  0  0  0  0  0  0  0
   -3.7302   -4.9773    5.1370 C   0  0  0  0  0  0  0  0  0  0  0  0
   -3.2560   -5.9732    6.0501 N   0  0  0  0  0  0  0  0  0  0  0  0
   -3.4643   -5.6707    7.0100 H   0  0  0  0  0  0  0  0  0  0  0  0
 27 28  1  0  0  0
 28 26  1  0  0  0
 26 18  1  0  0  0
 18 16  1  0  0  0
 16  1  1  0  0  0
  1  2  2  0  0  0
  2  3  1  0  0  0
  3  4  2  0  0  0
  4  5  1  0  0  0
  5  6  2  0  0  0
  6 11  1  0  0  0
 11 12  1  0  0  0
 11 13  2  0  0  0
  6  7  1  0  0  0
  7  8  2  0  0  0
  8  9  1  0  0  0
  9 10  2  0  0  0
 18 19  1  0  0  0
 19 20  2  0  0  0
 20 21  1  0  0  0
 21 22  2  0  0  0
 22 23  1  0  0  0
 22 24  1  0  0  0
 24 25  2  0  0  0
 10  1  1  0  0  0
 25 19  1  0  0  0
 10  5  1  0  0  0
 28 29  1  0  0  0
 16 17  1  0  0  0
 12 14  1  0  0  0
 12 15  1  0  0  0
M  END
> <minimizedAffinity>
4.81634

> <CNNscore>
0.3162476420

> <CNNaffinity>
5.5570096970

> <CNN_VS>
1.7573912144

> <CNNaffinity_variance>
0.4730022550

$$$$
[H]Oc1c(OC([H])([H])[H])c(OC([H])([H])[H])c2c3c1-c1c([H])c([H])c([H])c([H])c1C([H])([H])[C@@]3([H])N([H])C([H])([H])C2([H])[H]


 24 27  0  0  0  0  0  0  0  0999 V2000
  -11.5079   -6.2325    9.9440 C   0  0  0  0  0  0  0  0  0  0  0  0
  -10.6560   -7.0772    9.2456 C   0  0  0  0  0  0  0  0  0  0  0  0
   -9.3263   -6.9404    9.5414 O   0  0  0  0  0  0  0  0  0  0  0  0
  -11.2058   -7.9568    8.3407 C   0  0  0  0  0  0  0  0  0  0  0  0
  -12.5631   -8.0148    8.1158 C   0  0  0  0  0  0  0  0  0  0  0  0
  -13.3824   -7.1521    8.8367 C   0  0  0  0  0  0  0  0  0  0  0  0
  -12.8780   -6.2628    9.7462 C   0  0  0  0  0  0  0  0  0  0  0  0
  -14.8328   -7.2203    8.5869 C   0  0  0  0  0  0  0  0  0  0  0  0
  -15.3362   -8.5658    8.2319 C   0  0  0  0  0  0  0  0  0  0  0  0
  -14.4680   -9.4128    7.5299 N   0  0  0  0  0  0  0  0  0  0  0  0
  -13.1896   -8.8791    7.1435 C   0  0  0  0  0  0  0  0  0  0  0  0
  -12.3616   -9.9910    6.6412 C   0  0  0  0  0  0  0  0  0  0  0  0
  -10.9111   -9.8309    6.7769 C   0  0  0  0  0  0  0  0  0  0  0  0
  -10.0707  -10.6919    6.0478 C   0  0  0  0  0  0  0  0  0  0  0  0
   -8.7146  -10.6456    6.1594 C   0  0  0  0  0  0  0  0  0  0  0  0
   -8.1905   -9.7216    7.0154 C   0  0  0  0  0  0  0  0  0  0  0  0
   -8.9696   -8.8338    7.7702 C   0  0  0  0  0  0  0  0  0  0  0  0
  -10.3294   -8.8992    7.6400 C   0  0  0  0  0  0  0  0  0  0  0  0
   -8.9394   -6.2993   10.2005 H   0  0  0  0  0  0  0  0  0  0  0  0
  -14.9016   -9.8161    6.6531 H   0  0  0  0  0  0  0  0  0  0  0  0
  -10.9943   -5.4992   12.2456 C   0  0  0  0  0  0  0  0  0  0  0  0
  -10.9814   -5.3412   10.8570 O   0  0  0  0  0  0  0  0  0  0  0  0
  -13.7327   -5.4208   10.4430 O   0  0  0  0  0  0  0  0  0  0  0  0
  -13.4401   -4.0466   10.5472 C   0  0  0  0  0  0  0  0  0  0  0  0
 21 22  1  0  0  0
 22  1  1  0  0  0
  1  2  2  0  0  0
  2  3  1  0  0  0
  2  4  1  0  0  0
  4  5  2  0  0  0
  5  6  1  0  0  0
  6  7  2  0  0  0
  7 23  1  0  0  0
 23 24  1  0  0  0
  6  8  1  0  0  0
  8  9  1  0  0  0
  9 10  1  0  0  0
 10 11  1  0  0  0
 11 12  1  0  0  0
 12 13  1  0  0  0
 13 14  2  0  0  0
 14 15  1  0  0  0
 15 16  2  0  0  0
 16 17  1  0  0  0
 17 18  2  0  0  0
  7  1  1  0  0  0
 18 13  1  0  0  0
 18  4  1  0  0  0
 11  5  1  0  0  0
  3 19  1  0  0  0
 10 20  1  0  0  0
M  END
> <minimizedAffinity>
-3.10876

> <CNNscore>
0.5478950739

> <CNNaffinity>
6.0454416275

> <CNN_VS>
3.3122677803

> <CNNaffinity_variance>
0.3762212694

$$$$
[H]Oc1c(OC([H])([H])[H])c(OC([H])([H])[H])c2c3c1-c1c([H])c([H])c([H])c([H])c1C([H])([H])[C@@]3([H])N([H])C([H])([H])C2([H])[H]


 24 27  0  0  0  0  0  0  0  0999 V2000
  -15.4027   -8.4691    9.1374 C   0  0  0  0  0  0  0  0  0  0  0  0
  -16.2487   -8.2646    8.0560 C   0  0  0  0  0  0  0  0  0  0  0  0
  -17.5805   -8.4502    8.3132 O   0  0  0  0  0  0  0  0  0  0  0  0
  -15.6918   -7.9019    6.8506 C   0  0  0  0  0  0  0  0  0  0  0  0
  -14.3329   -7.7411    6.6966 C   0  0  0  0  0  0  0  0  0  0  0  0
  -13.5198   -7.9545    7.8050 C   0  0  0  0  0  0  0  0  0  0  0  0
  -14.0315   -8.3155    9.0217 C   0  0  0  0  0  0  0  0  0  0  0  0
  -12.0672   -7.7825    7.6291 C   0  0  0  0  0  0  0  0  0  0  0  0
  -11.6823   -6.7521    6.6392 C   0  0  0  0  0  0  0  0  0  0  0  0
  -12.5441   -6.5502    5.5527 N   0  0  0  0  0  0  0  0  0  0  0  0
  -13.6898   -7.4130    5.4460 C   0  0  0  0  0  0  0  0  0  0  0  0
  -14.5691   -6.8789    4.3898 C   0  0  0  0  0  0  0  0  0  0  0  0
  -15.9962   -7.1871    4.5179 C   0  0  0  0  0  0  0  0  0  0  0  0
  -16.8287   -6.9828    3.4024 C   0  0  0  0  0  0  0  0  0  0  0  0
  -18.1730   -7.1921    3.4545 C   0  0  0  0  0  0  0  0  0  0  0  0
  -18.6931   -7.6132    4.6434 C   0  0  0  0  0  0  0  0  0  0  0  0
  -17.9211   -7.8370    5.7918 C   0  0  0  0  0  0  0  0  0  0  0  0
  -16.5730   -7.6206    5.7141 C   0  0  0  0  0  0  0  0  0  0  0  0
  -17.9728   -8.7126    9.1920 H   0  0  0  0  0  0  0  0  0  0  0  0
  -12.0496   -6.5922    4.6182 H   0  0  0  0  0  0  0  0  0  0  0  0
  -15.5990   -8.2713   11.5912 C   0  0  0  0  0  0  0  0  0  0  0  0
  -15.9364   -8.8337   10.3571 O   0  0  0  0  0  0  0  0  0  0  0  0
  -13.1829   -8.5181   10.1005 O   0  0  0  0  0  0  0  0  0  0  0  0
  -12.5350   -7.4227   10.7046 C   0  0  0  0  0  0  0  0  0  0  0  0
 21 22  1  0  0  0
 22  1  1  0  0  0
  1  2  2  0  0  0
  2  3  1  0  0  0
  2  4  1  0  0  0
  4  5  2  0  0  0
  5  6  1  0  0  0
  6  7  2  0  0  0
  7 23  1  0  0  0
 23 24  1  0  0  0
  6  8  1  0  0  0
  8  9  1  0  0  0
  9 10  1  0  0  0
 10 11  1  0  0  0
 11 12  1  0  0  0
 12 13  1  0  0  0
 13 14  2  0  0  0
 14 15  1  0  0  0
 15 16  2  0  0  0
 16 17  1  0  0  0
 17 18  2  0  0  0
  7  1  1  0  0  0
 18 13  1  0  0  0
 18  4  1  0  0  0
 11  5  1  0  0  0
  3 19  1  0  0  0
 10 20  1  0  0  0
M  END
> <minimizedAffinity>
2.78405

> <CNNscore>
0.4294872880

> <CNNaffinity>
6.1314187050

> <CNN_VS>
2.6333663464

> <CNNaffinity_variance>
0.5034989119

$$$$
[H]Oc1c(OC([H])([H])[H])c(OC([H])([H])[H])c2c3c1-c1c([H])c([H])c([H])c([H])c1C([H])([H])[C@@]3([H])N([H])C([H])([H])C2([H])[H]


 24 27  0  0  0  0  0  0  0  0999 V2000
  -15.9248   -5.6986    5.0337 C   0  0  0  0  0  0  0  0  0  0  0  0
  -15.0126   -5.8718    6.0657 C   0  0  0  0  0  0  0  0  0  0  0  0
  -14.9037   -4.8171    6.9318 O   0  0  0  0  0  0  0  0  0  0  0  0
  -14.3153   -7.0568    6.1290 C   0  0  0  0  0  0  0  0  0  0  0  0
  -14.4996   -8.0592    5.2031 C   0  0  0  0  0  0  0  0  0  0  0  0
  -15.4235   -7.8467    4.1850 C   0  0  0  0  0  0  0  0  0  0  0  0
  -16.1385   -6.6842    4.0849 C   0  0  0  0  0  0  0  0  0  0  0  0
  -15.6114   -8.9241    3.1979 C   0  0  0  0  0  0  0  0  0  0  0  0
  -15.4292  -10.2915    3.7335 C   0  0  0  0  0  0  0  0  0  0  0  0
  -14.5089  -10.4562    4.7775 N   0  0  0  0  0  0  0  0  0  0  0  0
  -13.7602   -9.2994    5.1898 C   0  0  0  0  0  0  0  0  0  0  0  0
  -13.0445   -9.6364    6.4341 C   0  0  0  0  0  0  0  0  0  0  0  0
  -12.7469   -8.5179    7.3332 C   0  0  0  0  0  0  0  0  0  0  0  0
  -11.8089   -8.7169    8.3627 C   0  0  0  0  0  0  0  0  0  0  0  0
  -11.5168   -7.7476    9.2730 C   0  0  0  0  0  0  0  0  0  0  0  0
  -12.1746   -6.5587    9.1510 C   0  0  0  0  0  0  0  0  0  0  0  0
  -13.1190   -6.2940    8.1494 C   0  0  0  0  0  0  0  0  0  0  0  0
  -13.3945   -7.2832    7.2463 C   0  0  0  0  0  0  0  0  0  0  0  0
  -15.4156   -3.9627    6.8762 H   0  0  0  0  0  0  0  0  0  0  0  0
  -13.8010  -11.2196    4.5893 H   0  0  0  0  0  0  0  0  0  0  0  0
  -18.0016   -4.3741    5.2108 C   0  0  0  0  0  0  0  0  0  0  0  0
  -16.6366   -4.5191    4.9478 O   0  0  0  0  0  0  0  0  0  0  0  0
  -17.0499   -6.5152    3.0525 O   0  0  0  0  0  0  0  0  0  0  0  0
  -18.3419   -7.0676    3.1538 C   0  0  0  0  0  0  0  0  0  0  0  0
 21 22  1  0  0  0
 22  1  1  0  0  0
  1  2  2  0  0  0
  2  3  1  0  0  0
  2  4  1  0  0  0
  4  5  2  0  0  0
  5  6  1  0  0  0
  6  7  2  0  0  0
  7 23  1  0  0  0
 23 24  1  0  0  0
  6  8  1  0  0  0
  8  9  1  0  0  0
  9 10  1  0  0  0
 10 11  1  0  0  0
 11 12  1  0  0  0
 12 13  1  0  0  0
 13 14  2  0  0  0
 14 15  1  0  0  0
 15 16  2  0  0  0
 16 17  1  0  0  0
 17 18  2  0  0  0
  7  1  1  0  0  0
 18 13  1  0  0  0
 18  4  1  0  0  0
 11  5  1  0  0  0
  3 19  1  0  0  0
 10 20  1  0  0  0
M  END
> <minimizedAffinity>
-0.19083

> <CNNscore>
0.4106190205

> <CNNaffinity>
6.2524313927

> <CNN_VS>
2.5673673153

> <CNNaffinity_variance>
0.5494772792

$$$$
[H]Oc1c(OC([H])([H])[H])c(OC([H])([H])[H])c2c3c1-c1c([H])c([H])c([H])c([H])c1C([H])([H])[C@@]3([H])N([H])C([H])([H])C2([H])[H]


 24 27  0  0  0  0  0  0  0  0999 V2000
  -13.5935   -7.8907    8.3925 C   0  0  0  0  0  0  0  0  0  0  0  0
  -12.6993   -8.7838    7.8182 C   0  0  0  0  0  0  0  0  0  0  0  0
  -13.2662   -9.8908    7.2459 O   0  0  0  0  0  0  0  0  0  0  0  0
  -11.3560   -8.4880    7.8709 C   0  0  0  0  0  0  0  0  0  0  0  0
  -10.8870   -7.3421    8.4736 C   0  0  0  0  0  0  0  0  0  0  0  0
  -11.8157   -6.4727    9.0365 C   0  0  0  0  0  0  0  0  0  0  0  0
  -13.1598   -6.7275    9.0061 C   0  0  0  0  0  0  0  0  0  0  0  0
  -11.3036   -5.2510    9.6812 C   0  0  0  0  0  0  0  0  0  0  0  0
  -10.0753   -4.6976    9.0689 C   0  0  0  0  0  0  0  0  0  0  0  0
   -9.1801   -5.6064    8.4885 N   0  0  0  0  0  0  0  0  0  0  0  0
   -9.4887   -7.0064    8.6040 C   0  0  0  0  0  0  0  0  0  0  0  0
   -8.5626   -7.7532    7.7330 C   0  0  0  0  0  0  0  0  0  0  0  0
   -9.0497   -9.0363    7.2190 C   0  0  0  0  0  0  0  0  0  0  0  0
   -8.1201   -9.9283    6.6538 C   0  0  0  0  0  0  0  0  0  0  0  0
   -8.4977  -11.1156    6.1047 C   0  0  0  0  0  0  0  0  0  0  0  0
   -9.8284  -11.4154    6.1217 C   0  0  0  0  0  0  0  0  0  0  0  0
  -10.8063  -10.5734    6.6693 C   0  0  0  0  0  0  0  0  0  0  0  0
  -10.4020   -9.3867    7.2157 C   0  0  0  0  0  0  0  0  0  0  0  0
  -14.2422  -10.0942    7.2131 H   0  0  0  0  0  0  0  0  0  0  0  0
   -8.1874   -5.4889    8.8351 H   0  0  0  0  0  0  0  0  0  0  0  0
  -15.7129   -8.6213    9.4284 C   0  0  0  0  0  0  0  0  0  0  0  0
  -14.9458   -8.1644    8.3532 O   0  0  0  0  0  0  0  0  0  0  0  0
  -14.0505   -5.8321    9.5804 O   0  0  0  0  0  0  0  0  0  0  0  0
  -13.7605   -5.2517   10.8309 C   0  0  0  0  0  0  0  0  0  0  0  0
 21 22  1  0  0  0
 22  1  1  0  0  0
  1  2  2  0  0  0
  2  3  1  0  0  0
  2  4  1  0  0  0
  4  5  2  0  0  0
  5  6  1  0  0  0
  6  7  2  0  0  0
  7 23  1  0  0  0
 23 24  1  0  0  0
  6  8  1  0  0  0
  8  9  1  0  0  0
  9 10  1  0  0  0
 10 11  1  0  0  0
 11 12  1  0  0  0
 12 13  1  0  0  0
 13 14  2  0  0  0
 14 15  1  0  0  0
 15 16  2  0  0  0
 16 17  1  0  0  0
 17 18  2  0  0  0
  7  1  1  0  0  0
 18 13  1  0  0  0
 18  4  1  0  0  0
 11  5  1  0  0  0
  3 19  1  0  0  0
 10 20  1  0  0  0
M  END
> <minimizedAffinity>
0.86493

> <CNNscore>
0.3793796897

> <CNNaffinity>
5.8275237083

> <CNN_VS>
2.2108440399

> <CNNaffinity_variance>
0.6622015834

$$$$
[H]Oc1c(OC([H])([H])[H])c(OC([H])([H])[H])c2c3c1-c1c([H])c([H])c([H])c([H])c1C([H])([H])[C@@]3([H])N([H])C([H])([H])C2([H])[H]


 24 27  0  0  0  0  0  0  0  0999 V2000
   -6.9500   -9.2293    5.4188 C   0  0  0  0  0  0  0  0  0  0  0  0
   -5.7697   -8.6155    5.8154 C   0  0  0  0  0  0  0  0  0  0  0  0
   -4.7123   -8.7761    4.9607 O   0  0  0  0  0  0  0  0  0  0  0  0
   -5.7635   -7.9164    7.0010 C   0  0  0  0  0  0  0  0  0  0  0  0
   -6.8867   -7.8154    7.7913 C   0  0  0  0  0  0  0  0  0  0  0  0
   -8.0495   -8.4441    7.3579 C   0  0  0  0  0  0  0  0  0  0  0  0
   -8.0999   -9.1487    6.1859 C   0  0  0  0  0  0  0  0  0  0  0  0
   -9.2448   -8.3322    8.2119 C   0  0  0  0  0  0  0  0  0  0  0  0
   -9.3484   -7.0638    8.9668 C   0  0  0  0  0  0  0  0  0  0  0  0
   -8.1517   -6.4495    9.3600 N   0  0  0  0  0  0  0  0  0  0  0  0
   -6.9246   -7.1403    9.0672 C   0  0  0  0  0  0  0  0  0  0  0  0
   -5.8045   -6.2224    9.3442 C   0  0  0  0  0  0  0  0  0  0  0  0
   -4.5769   -6.4483    8.5763 C   0  0  0  0  0  0  0  0  0  0  0  0
   -3.3921   -5.8245    9.0078 C   0  0  0  0  0  0  0  0  0  0  0  0
   -2.2223   -5.9384    8.3205 C   0  0  0  0  0  0  0  0  0  0  0  0
   -2.2386   -6.6896    7.1819 C   0  0  0  0  0  0  0  0  0  0  0  0
   -3.3827   -7.3383    6.6969 C   0  0  0  0  0  0  0  0  0  0  0  0
   -4.5453   -7.2095    7.4054 C   0  0  0  0  0  0  0  0  0  0  0  0
   -4.7290   -9.2849    4.1028 H   0  0  0  0  0  0  0  0  0  0  0  0
   -8.1251   -6.2161   10.3916 H   0  0  0  0  0  0  0  0  0  0  0  0
   -6.8576   -9.3851    2.9559 C   0  0  0  0  0  0  0  0  0  0  0  0
   -6.9822   -9.9367    4.2339 O   0  0  0  0  0  0  0  0  0  0  0  0
   -9.2816   -9.7600    5.7924 O   0  0  0  0  0  0  0  0  0  0  0  0
   -9.7415  -10.9079    6.4675 C   0  0  0  0  0  0  0  0  0  0  0  0
 21 22  1  0  0  0
 22  1  1  0  0  0
  1  2  2  0  0  0
  2  3  1  0  0  0
  2  4  1  0  0  0
  4  5  2  0  0  0
  5  6  1  0  0  0
  6  7  2  0  0  0
  7 23  1  0  0  0
 23 24  1  0  0  0
  6  8  1  0  0  0
  8  9  1  0  0  0
  9 10  1  0  0  0
 10 11  1  0  0  0
 11 12  1  0  0  0
 12 13  1  0  0  0
 13 14  2  0  0  0
 14 15  1  0  0  0
 15 16  2  0  0  0
 16 17  1  0  0  0
 17 18  2  0  0  0
  7  1  1  0  0  0
 18 13  1  0  0  0
 18  4  1  0  0  0
 11  5  1  0  0  0
  3 19  1  0  0  0
 10 20  1  0  0  0
M  END
> <minimizedAffinity>
5.50331

> <CNNscore>
0.3575286567

> <CNNaffinity>
5.0079698563

> <CNN_VS>
1.7904927731

> <CNNaffinity_variance>
0.6030880809

$$$$
[H]Oc1c(OC([H])([H])[H])c(OC([H])([H])[H])c2c3c1-c1c([H])c([H])c([H])c([H])c1C([H])([H])[C@@]3([H])N([H])C([H])([H])C2([H])[H]


 24 27  0  0  0  0  0  0  0  0999 V2000
   -9.4885   -8.7832    7.5099 C   0  0  0  0  0  0  0  0  0  0  0  0
   -9.9474   -7.8115    8.3887 C   0  0  0  0  0  0  0  0  0  0  0  0
   -8.9724   -7.1280    9.0643 O   0  0  0  0  0  0  0  0  0  0  0  0
  -11.3061   -7.6226    8.5021 C   0  0  0  0  0  0  0  0  0  0  0  0
  -12.2069   -8.3672    7.7738 C   0  0  0  0  0  0  0  0  0  0  0  0
  -11.7064   -9.3303    6.9036 C   0  0  0  0  0  0  0  0  0  0  0  0
  -10.3636   -9.5505    6.7596 C   0  0  0  0  0  0  0  0  0  0  0  0
  -12.6784  -10.1233    6.1311 C   0  0  0  0  0  0  0  0  0  0  0  0
  -13.9190   -9.4010    5.7721 C   0  0  0  0  0  0  0  0  0  0  0  0
  -14.3728   -8.4194    6.6635 N   0  0  0  0  0  0  0  0  0  0  0  0
  -13.6413   -8.2486    7.8900 C   0  0  0  0  0  0  0  0  0  0  0  0
  -14.1355   -7.0274    8.5521 C   0  0  0  0  0  0  0  0  0  0  0  0
  -13.1855   -6.3359    9.4280 C   0  0  0  0  0  0  0  0  0  0  0  0
  -13.6791   -5.3647   10.3182 C   0  0  0  0  0  0  0  0  0  0  0  0
  -12.8577   -4.6389   11.1258 C   0  0  0  0  0  0  0  0  0  0  0  0
  -11.5194   -4.8893   11.0411 C   0  0  0  0  0  0  0  0  0  0  0  0
  -10.9617   -5.8426   10.1777 C   0  0  0  0  0  0  0  0  0  0  0  0
  -11.8075   -6.5595    9.3772 C   0  0  0  0  0  0  0  0  0  0  0  0
   -7.9897   -7.2732    8.9731 H   0  0  0  0  0  0  0  0  0  0  0  0
  -15.3879   -8.5435    6.9350 H   0  0  0  0  0  0  0  0  0  0  0  0
   -7.3071   -8.3962    6.4190 C   0  0  0  0  0  0  0  0  0  0  0  0
   -8.1305   -8.9922    7.3780 O   0  0  0  0  0  0  0  0  0  0  0  0
   -9.9087  -10.5220    5.8796 O   0  0  0  0  0  0  0  0  0  0  0  0
   -9.3937  -11.7366    6.3736 C   0  0  0  0  0  0  0  0  0  0  0  0
 21 22  1  0  0  0
 22  1  1  0  0  0
  1  2  2  0  0  0
  2  3  1  0  0  0
  2  4  1  0  0  0
  4  5  2  0  0  0
  5  6  1  0  0  0
  6  7  2  0  0  0
  7 23  1  0  0  0
 23 24  1  0  0  0
  6  8  1  0  0  0
  8  9  1  0  0  0
  9 10  1  0  0  0
 10 11  1  0  0  0
 11 12  1  0  0  0
 12 13  1  0  0  0
 13 14  2  0  0  0
 14 15  1  0  0  0
 15 16  2  0  0  0
 16 17  1  0  0  0
 17 18  2  0  0  0
  7  1  1  0  0  0
 18 13  1  0  0  0
 18  4  1  0  0  0
 11  5  1  0  0  0
  3 19  1  0  0  0
 10 20  1  0  0  0
M  END
> <minimizedAffinity>
-4.61611

> <CNNscore>
0.3562776744

> <CNNaffinity>
5.8974108696

> <CNN_VS>
2.1011159420

> <CNNaffinity_variance>
0.3318675160

$$$$
[H]Oc1c(OC([H])([H])[H])c(OC([H])([H])[H])c2c3c1-c1c([H])c([H])c([H])c([H])c1C([H])([H])[C@@]3([H])N([H])C([H])([H])C2([H])[H]


 24 27  0  0  0  0  0  0  0  0999 V2000
   -5.0255   -5.5686   12.0378 C   0  0  0  0  0  0  0  0  0  0  0  0
   -5.1904   -6.1133   10.7716 C   0  0  0  0  0  0  0  0  0  0  0  0
   -6.2834   -6.9241   10.6225 O   0  0  0  0  0  0  0  0  0  0  0  0
   -4.2668   -5.7996    9.8003 C   0  0  0  0  0  0  0  0  0  0  0  0
   -3.1975   -4.9701   10.0547 C   0  0  0  0  0  0  0  0  0  0  0  0
   -3.0686   -4.4443   11.3362 C   0  0  0  0  0  0  0  0  0  0  0  0
   -3.9639   -4.7294   12.3310 C   0  0  0  0  0  0  0  0  0  0  0  0
   -1.9198   -3.5601   11.5988 C   0  0  0  0  0  0  0  0  0  0  0  0
   -1.4857   -2.7500   10.4391 C   0  0  0  0  0  0  0  0  0  0  0  0
   -1.6592   -3.3064    9.1646 N   0  0  0  0  0  0  0  0  0  0  0  0
   -2.1712   -4.6485    9.0913 C   0  0  0  0  0  0  0  0  0  0  0  0
   -2.4958   -4.9389    7.6826 C   0  0  0  0  0  0  0  0  0  0  0  0
   -3.5502   -5.9303    7.4521 C   0  0  0  0  0  0  0  0  0  0  0  0
   -3.6869   -6.4758    6.1626 C   0  0  0  0  0  0  0  0  0  0  0  0
   -4.6741   -7.3603    5.8517 C   0  0  0  0  0  0  0  0  0  0  0  0
   -5.5394   -7.7050    6.8486 C   0  0  0  0  0  0  0  0  0  0  0  0
   -5.4593   -7.2004    8.1540 C   0  0  0  0  0  0  0  0  0  0  0  0
   -4.4584   -6.3141    8.4417 C   0  0  0  0  0  0  0  0  0  0  0  0
   -6.9470   -7.1436   11.3342 H   0  0  0  0  0  0  0  0  0  0  0  0
   -0.7763   -3.2904    8.5818 H   0  0  0  0  0  0  0  0  0  0  0  0
   -6.6333   -7.0736   13.1554 C   0  0  0  0  0  0  0  0  0  0  0  0
   -5.9379   -5.8678   13.0293 O   0  0  0  0  0  0  0  0  0  0  0  0
   -3.7963   -4.1824   13.5950 O   0  0  0  0  0  0  0  0  0  0  0  0
   -3.4309   -2.8292   13.7360 C   0  0  0  0  0  0  0  0  0  0  0  0
 21 22  1  0  0  0
 22  1  1  0  0  0
  1  2  2  0  0  0
  2  3  1  0  0  0
  2  4  1  0  0  0
  4  5  2  0  0  0
  5  6  1  0  0  0
  6  7  2  0  0  0
  7 23  1  0  0  0
 23 24  1  0  0  0
  6  8  1  0  0  0
  8  9  1  0  0  0
  9 10  1  0  0  0
 10 11  1  0  0  0
 11 12  1  0  0  0
 12 13  1  0  0  0
 13 14  2  0  0  0
 14 15  1  0  0  0
 15 16  2  0  0  0
 16 17  1  0  0  0
 17 18  2  0  0  0
  7  1  1  0  0  0
 18 13  1  0  0  0
 18  4  1  0  0  0
 11  5  1  0  0  0
  3 19  1  0  0  0
 10 20  1  0  0  0
M  END
> <minimizedAffinity>
-0.35277

> <CNNscore>
0.3481182754

> <CNNaffinity>
4.1196303368

> <CNN_VS>
1.4341186285

> <CNNaffinity_variance>
0.6580321789

$$$$
[H]Oc1c(OC([H])([H])[H])c(OC([H])([H])[H])c2c3c1-c1c([H])c([H])c([H])c([H])c1C([H])([H])[C@@]3([H])N([H])C([H])([H])C2([H])[H]


 24 27  0  0  0  0  0  0  0  0999 V2000
  -14.8170   -8.0910    9.3776 C   0  0  0  0  0  0  0  0  0  0  0  0
  -15.5844   -7.9823    8.2260 C   0  0  0  0  0  0  0  0  0  0  0  0
  -16.7998   -7.3737    8.3895 O   0  0  0  0  0  0  0  0  0  0  0  0
  -15.0718   -8.4812    7.0500 C   0  0  0  0  0  0  0  0  0  0  0  0
  -13.8323   -9.0784    6.9927 C   0  0  0  0  0  0  0  0  0  0  0  0
  -13.0945   -9.1668    8.1687 C   0  0  0  0  0  0  0  0  0  0  0  0
  -13.5656   -8.6835    9.3591 C   0  0  0  0  0  0  0  0  0  0  0  0
  -11.7708   -9.8097    8.0974 C   0  0  0  0  0  0  0  0  0  0  0  0
  -11.0612   -9.6223    6.8124 C   0  0  0  0  0  0  0  0  0  0  0  0
  -11.8443   -9.5101    5.6556 N   0  0  0  0  0  0  0  0  0  0  0  0
  -13.2669   -9.6646    5.8004 C   0  0  0  0  0  0  0  0  0  0  0  0
  -13.9020   -9.2760    4.5277 C   0  0  0  0  0  0  0  0  0  0  0  0
  -15.2745   -8.7700    4.6168 C   0  0  0  0  0  0  0  0  0  0  0  0
  -16.0345   -8.6823    3.4362 C   0  0  0  0  0  0  0  0  0  0  0  0
  -17.2968   -8.1725    3.4241 C   0  0  0  0  0  0  0  0  0  0  0  0
  -17.8075   -7.7431    4.6140 C   0  0  0  0  0  0  0  0  0  0  0  0
  -17.1055   -7.8027    5.8260 C   0  0  0  0  0  0  0  0  0  0  0  0
  -15.8396   -8.3198    5.8124 C   0  0  0  0  0  0  0  0  0  0  0  0
  -17.1606   -7.0150    9.2475 H   0  0  0  0  0  0  0  0  0  0  0  0
  -11.5474  -10.1752    4.8881 H   0  0  0  0  0  0  0  0  0  0  0  0
  -15.6362   -8.3659   11.6911 C   0  0  0  0  0  0  0  0  0  0  0  0
  -15.3086   -7.5987   10.5698 O   0  0  0  0  0  0  0  0  0  0  0  0
  -12.7954   -8.7932   10.5079 O   0  0  0  0  0  0  0  0  0  0  0  0
  -13.0424   -9.8318   11.4271 C   0  0  0  0  0  0  0  0  0  0  0  0
 21 22  1  0  0  0
 22  1  1  0  0  0
  1  2  2  0  0  0
  2  3  1  0  0  0
  2  4  1  0  0  0
  4  5  2  0  0  0
  5  6  1  0  0  0
  6  7  2  0  0  0
  7 23  1  0  0  0
 23 24  1  0  0  0
  6  8  1  0  0  0
  8  9  1  0  0  0
  9 10  1  0  0  0
 10 11  1  0  0  0
 11 12  1  0  0  0
 12 13  1  0  0  0
 13 14  2  0  0  0
 14 15  1  0  0  0
 15 16  2  0  0  0
 16 17  1  0  0  0
 17 18  2  0  0  0
  7  1  1  0  0  0
 18 13  1  0  0  0
 18  4  1  0  0  0
 11  5  1  0  0  0
  3 19  1  0  0  0
 10 20  1  0  0  0
M  END
> <minimizedAffinity>
1.29212

> <CNNscore>
0.2854964435

> <CNNaffinity>
5.8464956284

> <CNN_VS>
1.6691536903

> <CNNaffinity_variance>
0.3243622184

$$$$
[H]Oc1c(OC([H])([H])[H])c(OC([H])([H])[H])c2c3c1-c1c([H])c([H])c([H])c([H])c1C([H])([H])[C@@]3([H])N([H])C([H])([H])C2([H])[H]


 24 27  0  0  0  0  0  0  0  0999 V2000
   -8.0140   -6.9947    7.4518 C   0  0  0  0  0  0  0  0  0  0  0  0
   -9.0966   -6.4541    8.1320 C   0  0  0  0  0  0  0  0  0  0  0  0
   -8.9542   -5.1461    8.5106 O   0  0  0  0  0  0  0  0  0  0  0  0
  -10.1911   -7.2567    8.3609 C   0  0  0  0  0  0  0  0  0  0  0  0
  -10.2339   -8.5661    7.9367 C   0  0  0  0  0  0  0  0  0  0  0  0
   -9.1290   -9.0696    7.2579 C   0  0  0  0  0  0  0  0  0  0  0  0
   -8.0208   -8.3065    7.0085 C   0  0  0  0  0  0  0  0  0  0  0  0
   -9.1837  -10.4722    6.8106 C   0  0  0  0  0  0  0  0  0  0  0  0
  -10.5352  -10.9525    6.4464 C   0  0  0  0  0  0  0  0  0  0  0  0
  -11.6222  -10.3985    7.1359 N   0  0  0  0  0  0  0  0  0  0  0  0
  -11.3318   -9.4681    8.1936 C   0  0  0  0  0  0  0  0  0  0  0  0
  -12.5983   -8.8393    8.6114 C   0  0  0  0  0  0  0  0  0  0  0  0
  -12.4955   -7.4944    9.1844 C   0  0  0  0  0  0  0  0  0  0  0  0
  -13.6029   -6.9757    9.8800 C   0  0  0  0  0  0  0  0  0  0  0  0
  -13.6089   -5.7153   10.3946 C   0  0  0  0  0  0  0  0  0  0  0  0
  -12.4874   -4.9609   10.2101 C   0  0  0  0  0  0  0  0  0  0  0  0
  -11.3500   -5.4159    9.5286 C   0  0  0  0  0  0  0  0  0  0  0  0
  -11.3680   -6.6859    9.0217 C   0  0  0  0  0  0  0  0  0  0  0  0
   -8.1556   -4.5736    8.3381 H   0  0  0  0  0  0  0  0  0  0  0  0
  -12.2671  -11.1290    7.5483 H   0  0  0  0  0  0  0  0  0  0  0  0
   -5.6956   -6.2770    7.9085 C   0  0  0  0  0  0  0  0  0  0  0  0
   -6.9041   -6.2106    7.2098 O   0  0  0  0  0  0  0  0  0  0  0  0
   -6.9411   -8.8502    6.3275 O   0  0  0  0  0  0  0  0  0  0  0  0
   -6.6946   -8.4861    4.9891 C   0  0  0  0  0  0  0  0  0  0  0  0
 21 22  1  0  0  0
 22  1  1  0  0  0
  1  2  2  0  0  0
  2  3  1  0  0  0
  2  4  1  0  0  0
  4  5  2  0  0  0
  5  6  1  0  0  0
  6  7  2  0  0  0
  7 23  1  0  0  0
 23 24  1  0  0  0
  6  8  1  0  0  0
  8  9  1  0  0  0
  9 10  1  0  0  0
 10 11  1  0  0  0
 11 12  1  0  0  0
 12 13  1  0  0  0
 13 14  2  0  0  0
 14 15  1  0  0  0
 15 16  2  0  0  0
 16 17  1  0  0  0
 17 18  2  0  0  0
  7  1  1  0  0  0
 18 13  1  0  0  0
 18  4  1  0  0  0
 11  5  1  0  0  0
  3 19  1  0  0  0
 10 20  1  0  0  0
M  END
> <minimizedAffinity>
-6.02496

> <CNNscore>
0.2739258111

> <CNNaffinity>
5.7245788574

> <CNN_VS>
1.5681098700

> <CNNaffinity_variance>
0.0651971474

$$$$
[H]c1c([H])c([H])c(N([H])[C@@]2([H])c3c([H])c(-c4c([H])c([H])c(C(F)(F)F)c([H])c4[H])c([H])c([H])c3N(C(=O)C([H])([H])[H])[C@@]([H])(C([H])([H])[H])C2([H])[H])c([H])c1[H]


 32 35  0  0  0  0  0  0  0  0999 V2000
  -14.3553   -6.4446    4.7982 C   0  0  0  0  0  0  0  0  0  0  0  0
  -14.9473   -7.0973    5.9731 C   0  0  0  0  0  0  0  0  0  0  0  0
  -16.2003   -7.3465    5.9296 O   0  0  0  0  0  0  0  0  0  0  0  0
  -14.2135   -7.4462    7.1248 N   0  0  0  0  0  0  0  0  0  0  0  0
  -12.8090   -7.4716    7.2644 C   0  0  0  0  0  0  0  0  0  0  0  0
  -12.0216   -7.7631    6.1563 C   0  0  0  0  0  0  0  0  0  0  0  0
  -10.6569   -7.7064    6.3086 C   0  0  0  0  0  0  0  0  0  0  0  0
  -10.0129   -7.3812    7.4871 C   0  0  0  0  0  0  0  0  0  0  0  0
  -10.8180   -7.1060    8.5661 C   0  0  0  0  0  0  0  0  0  0  0  0
  -12.2120   -7.1504    8.4590 C   0  0  0  0  0  0  0  0  0  0  0  0
  -12.9615   -6.9027    9.6973 C   0  0  0  0  0  0  0  0  0  0  0  0
  -14.4511   -6.8914    9.4929 C   0  0  0  0  0  0  0  0  0  0  0  0
  -14.9391   -7.7500    8.3750 C   0  0  0  0  0  0  0  0  0  0  0  0
  -15.0017   -9.2132    8.6057 C   0  0  0  0  0  0  0  0  0  0  0  0
   -8.5525   -7.2974    7.5945 C   0  0  0  0  0  0  0  0  0  0  0  0
   -7.8183   -6.6380    6.6177 C   0  0  0  0  0  0  0  0  0  0  0  0
   -6.4523   -6.4784    6.6859 C   0  0  0  0  0  0  0  0  0  0  0  0
   -5.7801   -7.0052    7.7800 C   0  0  0  0  0  0  0  0  0  0  0  0
   -6.4754   -7.6686    8.7674 C   0  0  0  0  0  0  0  0  0  0  0  0
   -7.8609   -7.8075    8.6607 C   0  0  0  0  0  0  0  0  0  0  0  0
   -4.2874   -6.8082    7.8399 C   0  0  0  0  0  0  0  0  0  0  0  0
   -3.6484   -8.0364    7.8802 F   0  0  0  0  0  0  0  0  0  0  0  0
   -3.9007   -6.0930    8.9328 F   0  0  0  0  0  0  0  0  0  0  0  0
   -3.9102   -6.2290    6.6314 F   0  0  0  0  0  0  0  0  0  0  0  0
  -12.6105   -7.9774   10.6482 N   0  0  0  0  0  0  0  0  0  0  0  0
  -11.6195   -8.3046   10.6331 H   0  0  0  0  0  0  0  0  0  0  0  0
  -13.5893   -8.5268   11.5237 C   0  0  0  0  0  0  0  0  0  0  0  0
  -14.8782   -8.0178   11.5330 C   0  0  0  0  0  0  0  0  0  0  0  0
  -15.8091   -8.6140   12.3483 C   0  0  0  0  0  0  0  0  0  0  0  0
  -15.5411   -9.6869   13.1607 C   0  0  0  0  0  0  0  0  0  0  0  0
  -14.2534  -10.2073   13.1637 C   0  0  0  0  0  0  0  0  0  0  0  0
  -13.3099   -9.6199   12.3498 C   0  0  0  0  0  0  0  0  0  0  0  0
  1  2  1  0  0  0
  2  3  2  0  0  0
  2  4  1  0  0  0
  4  5  1  0  0  0
  5  6  2  0  0  0
  6  7  1  0  0  0
  7  8  2  0  0  0
  8 15  1  0  0  0
 15 16  2  0  0  0
 16 17  1  0  0  0
 17 18  2  0  0  0
 18 21  1  0  0  0
 21 22  1  0  0  0
 21 23  1  0  0  0
 21 24  1  0  0  0
 18 19  1  0  0  0
 19 20  2  0  0  0
  8  9  1  0  0  0
  9 10  2  0  0  0
 10 11  1  0  0  0
 11 25  1  0  0  0
 25 27  1  0  0  0
 27 28  2  0  0  0
 28 29  1  0  0  0
 29 30  2  0  0  0
 30 31  1  0  0  0
 31 32  2  0  0  0
 11 12  1  0  0  0
 12 13  1  0  0  0
 13 14  1  0  0  0
 13  4  1  0  0  0
 10  5  1  0  0  0
 32 27  1  0  0  0
 20 15  1  0  0  0
 25 26  1  0  0  0
M  END
> <minimizedAffinity>
8.48888

> <CNNscore>
0.5013573766

> <CNNaffinity>
7.0028405190

> <CNN_VS>
3.5109257698

> <CNNaffinity_variance>
1.3464754820

$$$$
[H]c1c([H])c([H])c(N([H])[C@@]2([H])c3c([H])c(-c4c([H])c([H])c(C(F)(F)F)c([H])c4[H])c([H])c([H])c3N(C(=O)C([H])([H])[H])[C@@]([H])(C([H])([H])[H])C2([H])[H])c([H])c1[H]


 32 35  0  0  0  0  0  0  0  0999 V2000
   -9.1783  -12.1272    6.6682 C   0  0  0  0  0  0  0  0  0  0  0  0
   -8.5600  -10.9099    7.2091 C   0  0  0  0  0  0  0  0  0  0  0  0
   -7.3218  -10.9759    7.5199 O   0  0  0  0  0  0  0  0  0  0  0  0
   -9.2574   -9.7007    7.4043 N   0  0  0  0  0  0  0  0  0  0  0  0
  -10.5365   -9.3660    6.9099 C   0  0  0  0  0  0  0  0  0  0  0  0
  -10.9619   -9.9099    5.7032 C   0  0  0  0  0  0  0  0  0  0  0  0
  -12.2401   -9.6231    5.2875 C   0  0  0  0  0  0  0  0  0  0  0  0
  -13.1314   -8.8303    5.9850 C   0  0  0  0  0  0  0  0  0  0  0  0
  -12.6791   -8.3011    7.1696 C   0  0  0  0  0  0  0  0  0  0  0  0
  -11.3864   -8.5656    7.6337 C   0  0  0  0  0  0  0  0  0  0  0  0
  -10.9974   -7.8890    8.8777 C   0  0  0  0  0  0  0  0  0  0  0  0
   -9.6259   -8.2772    9.3562 C   0  0  0  0  0  0  0  0  0  0  0  0
   -8.6701   -8.6651    8.2787 C   0  0  0  0  0  0  0  0  0  0  0  0
   -8.0605   -7.5796    7.4737 C   0  0  0  0  0  0  0  0  0  0  0  0
  -14.5001   -8.5803    5.5206 C   0  0  0  0  0  0  0  0  0  0  0  0
  -15.4285   -7.9940    6.3704 C   0  0  0  0  0  0  0  0  0  0  0  0
  -16.7124   -7.6848    5.9802 C   0  0  0  0  0  0  0  0  0  0  0  0
  -17.0950   -7.9774    4.6785 C   0  0  0  0  0  0  0  0  0  0  0  0
  -16.2014   -8.5621    3.8078 C   0  0  0  0  0  0  0  0  0  0  0  0
  -14.9079   -8.8584    4.2432 C   0  0  0  0  0  0  0  0  0  0  0  0
  -18.5005   -7.6194    4.2697 C   0  0  0  0  0  0  0  0  0  0  0  0
  -18.6349   -7.7217    2.8950 F   0  0  0  0  0  0  0  0  0  0  0  0
  -18.8420   -6.3528    4.6361 F   0  0  0  0  0  0  0  0  0  0  0  0
  -19.3349   -8.5988    4.8016 F   0  0  0  0  0  0  0  0  0  0  0  0
  -11.0269   -6.4351    8.6173 N   0  0  0  0  0  0  0  0  0  0  0  0
  -10.4538   -6.0962    7.8134 H   0  0  0  0  0  0  0  0  0  0  0  0
  -11.7970   -5.5617    9.4361 C   0  0  0  0  0  0  0  0  0  0  0  0
  -12.9386   -6.0276   10.0685 C   0  0  0  0  0  0  0  0  0  0  0  0
  -13.6208   -5.1707   10.8975 C   0  0  0  0  0  0  0  0  0  0  0  0
  -13.2421   -3.8741   11.1387 C   0  0  0  0  0  0  0  0  0  0  0  0
  -12.1009   -3.3920   10.5107 C   0  0  0  0  0  0  0  0  0  0  0  0
  -11.4061   -4.2410    9.6775 C   0  0  0  0  0  0  0  0  0  0  0  0
  1  2  1  0  0  0
  2  3  2  0  0  0
  2  4  1  0  0  0
  4  5  1  0  0  0
  5  6  2  0  0  0
  6  7  1  0  0  0
  7  8  2  0  0  0
  8 15  1  0  0  0
 15 16  2  0  0  0
 16 17  1  0  0  0
 17 18  2  0  0  0
 18 21  1  0  0  0
 21 22  1  0  0  0
 21 23  1  0  0  0
 21 24  1  0  0  0
 18 19  1  0  0  0
 19 20  2  0  0  0
  8  9  1  0  0  0
  9 10  2  0  0  0
 10 11  1  0  0  0
 11 25  1  0  0  0
 25 27  1  0  0  0
 27 28  2  0  0  0
 28 29  1  0  0  0
 29 30  2  0  0  0
 30 31  1  0  0  0
 31 32  2  0  0  0
 11 12  1  0  0  0
 12 13  1  0  0  0
 13 14  1  0  0  0
 13  4  1  0  0  0
 10  5  1  0  0  0
 32 27  1  0  0  0
 20 15  1  0  0  0
 25 26  1  0  0  0
M  END
> <minimizedAffinity>
2.76501

> <CNNscore>
0.4900742173

> <CNNaffinity>
6.8198156357

> <CNN_VS>
3.3422157764

> <CNNaffinity_variance>
1.1030061245

$$$$
[H]c1c([H])c([H])c(N([H])[C@@]2([H])c3c([H])c(-c4c([H])c([H])c(C(F)(F)F)c([H])c4[H])c([H])c([H])c3N(C(=O)C([H])([H])[H])[C@@]([H])(C([H])([H])[H])C2([H])[H])c([H])c1[H]


 32 35  0  0  0  0  0  0  0  0999 V2000
   -6.6528   -9.1211    5.1971 C   0  0  0  0  0  0  0  0  0  0  0  0
   -6.2351   -8.2728    6.3208 C   0  0  0  0  0  0  0  0  0  0  0  0
   -4.9825   -8.0510    6.4471 O   0  0  0  0  0  0  0  0  0  0  0  0
   -7.1330   -7.7110    7.2507 N   0  0  0  0  0  0  0  0  0  0  0  0
   -8.5389   -7.6434    7.1432 C   0  0  0  0  0  0  0  0  0  0  0  0
   -9.1198   -7.5489    5.8835 C   0  0  0  0  0  0  0  0  0  0  0  0
  -10.4922   -7.5603    5.8096 C   0  0  0  0  0  0  0  0  0  0  0  0
  -11.3347   -7.6576    6.9004 C   0  0  0  0  0  0  0  0  0  0  0  0
  -10.7309   -7.7415    8.1319 C   0  0  0  0  0  0  0  0  0  0  0  0
   -9.3377   -7.7345    8.2568 C   0  0  0  0  0  0  0  0  0  0  0  0
   -8.8137   -7.7617    9.6284 C   0  0  0  0  0  0  0  0  0  0  0  0
   -7.3127   -7.8283    9.6850 C   0  0  0  0  0  0  0  0  0  0  0  0
   -6.6109   -7.1936    8.5319 C   0  0  0  0  0  0  0  0  0  0  0  0
   -6.5247   -5.7137    8.5066 C   0  0  0  0  0  0  0  0  0  0  0  0
  -12.7951   -7.7025    6.7715 C   0  0  0  0  0  0  0  0  0  0  0  0
  -13.5634   -6.6138    7.1617 C   0  0  0  0  0  0  0  0  0  0  0  0
  -14.9322   -6.5716    7.0183 C   0  0  0  0  0  0  0  0  0  0  0  0
  -15.5716   -7.6705    6.4617 C   0  0  0  0  0  0  0  0  0  0  0  0
  -14.8420   -8.7702    6.0655 C   0  0  0  0  0  0  0  0  0  0  0  0
  -13.4549   -8.7720    6.2273 C   0  0  0  0  0  0  0  0  0  0  0  0
  -17.0684   -7.5976    6.3030 C   0  0  0  0  0  0  0  0  0  0  0  0
  -17.5111   -8.6360    5.5005 F   0  0  0  0  0  0  0  0  0  0  0  0
  -17.4754   -6.4249    5.7421 F   0  0  0  0  0  0  0  0  0  0  0  0
  -17.6172   -7.8354    7.5602 F   0  0  0  0  0  0  0  0  0  0  0  0
   -9.2703   -6.5277   10.2999 N   0  0  0  0  0  0  0  0  0  0  0  0
   -8.5330   -5.9509   10.7617 H   0  0  0  0  0  0  0  0  0  0  0  0
  -10.6476   -6.1681   10.3099 C   0  0  0  0  0  0  0  0  0  0  0  0
  -11.6101   -7.1102   10.6359 C   0  0  0  0  0  0  0  0  0  0  0  0
  -12.9227   -6.7091   10.6926 C   0  0  0  0  0  0  0  0  0  0  0  0
  -13.3436   -5.4271   10.4433 C   0  0  0  0  0  0  0  0  0  0  0  0
  -12.3909   -4.4718   10.1137 C   0  0  0  0  0  0  0  0  0  0  0  0
  -11.0704   -4.8599   10.0543 C   0  0  0  0  0  0  0  0  0  0  0  0
  1  2  1  0  0  0
  2  3  2  0  0  0
  2  4  1  0  0  0
  4  5  1  0  0  0
  5  6  2  0  0  0
  6  7  1  0  0  0
  7  8  2  0  0  0
  8 15  1  0  0  0
 15 16  2  0  0  0
 16 17  1  0  0  0
 17 18  2  0  0  0
 18 21  1  0  0  0
 21 22  1  0  0  0
 21 23  1  0  0  0
 21 24  1  0  0  0
 18 19  1  0  0  0
 19 20  2  0  0  0
  8  9  1  0  0  0
  9 10  2  0  0  0
 10 11  1  0  0  0
 11 25  1  0  0  0
 25 27  1  0  0  0
 27 28  2  0  0  0
 28 29  1  0  0  0
 29 30  2  0  0  0
 30 31  1  0  0  0
 31 32  2  0  0  0
 11 12  1  0  0  0
 12 13  1  0  0  0
 13 14  1  0  0  0
 13  4  1  0  0  0
 10  5  1  0  0  0
 32 27  1  0  0  0
 20 15  1  0  0  0
 25 26  1  0  0  0
M  END
> <minimizedAffinity>
6.87489

> <CNNscore>
0.4759851694

> <CNNaffinity>
6.7207732201

> <CNN_VS>
3.1989884377

> <CNNaffinity_variance>
1.1264588833

$$$$
[H]c1c([H])c([H])c(N([H])[C@@]2([H])c3c([H])c(-c4c([H])c([H])c(C(F)(F)F)c([H])c4[H])c([H])c([H])c3N(C(=O)C([H])([H])[H])[C@@]([H])(C([H])([H])[H])C2([H])[H])c([H])c1[H]


 32 35  0  0  0  0  0  0  0  0999 V2000
  -13.0312   -2.9673   11.1093 C   0  0  0  0  0  0  0  0  0  0  0  0
  -12.0810   -4.0146   11.5052 C   0  0  0  0  0  0  0  0  0  0  0  0
  -11.4025   -3.8115   12.5694 O   0  0  0  0  0  0  0  0  0  0  0  0
  -11.8819   -5.2043   10.7760 N   0  0  0  0  0  0  0  0  0  0  0  0
  -12.6882   -5.7088    9.7329 C   0  0  0  0  0  0  0  0  0  0  0  0
  -14.0520   -5.4379    9.7370 C   0  0  0  0  0  0  0  0  0  0  0  0
  -14.7952   -5.8801    8.6689 C   0  0  0  0  0  0  0  0  0  0  0  0
  -14.2814   -6.5766    7.5917 C   0  0  0  0  0  0  0  0  0  0  0  0
  -12.9323   -6.8357    7.6204 C   0  0  0  0  0  0  0  0  0  0  0  0
  -12.1350   -6.4050    8.6861 C   0  0  0  0  0  0  0  0  0  0  0  0
  -10.7218   -6.8007    8.6344 C   0  0  0  0  0  0  0  0  0  0  0  0
   -9.9108   -6.2411    9.7702 C   0  0  0  0  0  0  0  0  0  0  0  0
  -10.6714   -6.0108   11.0325 C   0  0  0  0  0  0  0  0  0  0  0  0
  -10.9925   -7.1916   11.8696 C   0  0  0  0  0  0  0  0  0  0  0  0
  -15.1066   -6.9980    6.4547 C   0  0  0  0  0  0  0  0  0  0  0  0
  -14.6339   -6.8503    5.1575 C   0  0  0  0  0  0  0  0  0  0  0  0
  -15.3356   -7.2732    4.0507 C   0  0  0  0  0  0  0  0  0  0  0  0
  -16.5737   -7.8704    4.2428 C   0  0  0  0  0  0  0  0  0  0  0  0
  -17.0762   -8.0310    5.5157 C   0  0  0  0  0  0  0  0  0  0  0  0
  -16.3318   -7.5893    6.6116 C   0  0  0  0  0  0  0  0  0  0  0  0
  -17.3184   -8.3364    3.0185 C   0  0  0  0  0  0  0  0  0  0  0  0
  -16.7356   -9.4895    2.5194 F   0  0  0  0  0  0  0  0  0  0  0  0
  -17.3262   -7.4020    2.0274 F   0  0  0  0  0  0  0  0  0  0  0  0
  -18.5905   -8.7123    3.4415 F   0  0  0  0  0  0  0  0  0  0  0  0
  -10.6744   -8.2764    8.6854 N   0  0  0  0  0  0  0  0  0  0  0  0
  -11.2231   -8.7319    9.4476 H   0  0  0  0  0  0  0  0  0  0  0  0
   -9.9094   -9.0159    7.7398 C   0  0  0  0  0  0  0  0  0  0  0  0
   -8.5709   -8.7167    7.5416 C   0  0  0  0  0  0  0  0  0  0  0  0
   -7.8521   -9.4919    6.6644 C   0  0  0  0  0  0  0  0  0  0  0  0
   -8.3797  -10.5489    5.9663 C   0  0  0  0  0  0  0  0  0  0  0  0
   -9.7203  -10.8601    6.1530 C   0  0  0  0  0  0  0  0  0  0  0  0
  -10.4529  -10.0917    7.0308 C   0  0  0  0  0  0  0  0  0  0  0  0
  1  2  1  0  0  0
  2  3  2  0  0  0
  2  4  1  0  0  0
  4  5  1  0  0  0
  5  6  2  0  0  0
  6  7  1  0  0  0
  7  8  2  0  0  0
  8 15  1  0  0  0
 15 16  2  0  0  0
 16 17  1  0  0  0
 17 18  2  0  0  0
 18 21  1  0  0  0
 21 22  1  0  0  0
 21 23  1  0  0  0
 21 24  1  0  0  0
 18 19  1  0  0  0
 19 20  2  0  0  0
  8  9  1  0  0  0
  9 10  2  0  0  0
 10 11  1  0  0  0
 11 25  1  0  0  0
 25 27  1  0  0  0
 27 28  2  0  0  0
 28 29  1  0  0  0
 29 30  2  0  0  0
 30 31  1  0  0  0
 31 32  2  0  0  0
 11 12  1  0  0  0
 12 13  1  0  0  0
 13 14  1  0  0  0
 13  4  1  0  0  0
 10  5  1  0  0  0
 32 27  1  0  0  0
 20 15  1  0  0  0
 25 26  1  0  0  0
M  END
> <minimizedAffinity>
13.45491

> <CNNscore>
0.4621918797

> <CNNaffinity>
7.0393996239

> <CNN_VS>
3.2535533905

> <CNNaffinity_variance>
1.8035819530

$$$$
[H]c1c([H])c([H])c(N([H])[C@@]2([H])c3c([H])c(-c4c([H])c([H])c(C(F)(F)F)c([H])c4[H])c([H])c([H])c3N(C(=O)C([H])([H])[H])[C@@]([H])(C([H])([H])[H])C2([H])[H])c([H])c1[H]


 32 35  0  0  0  0  0  0  0  0999 V2000
  -10.6045  -10.0711    5.5565 C   0  0  0  0  0  0  0  0  0  0  0  0
  -10.5032   -9.8235    7.0005 C   0  0  0  0  0  0  0  0  0  0  0  0
   -9.4559  -10.2561    7.5922 O   0  0  0  0  0  0  0  0  0  0  0  0
  -11.4912   -9.1522    7.7486 N   0  0  0  0  0  0  0  0  0  0  0  0
  -12.5797   -8.4067    7.2464 C   0  0  0  0  0  0  0  0  0  0  0  0
  -12.4465   -7.7450    6.0309 C   0  0  0  0  0  0  0  0  0  0  0  0
  -13.5485   -7.0905    5.5347 C   0  0  0  0  0  0  0  0  0  0  0  0
  -14.7793   -7.0431    6.1609 C   0  0  0  0  0  0  0  0  0  0  0  0
  -14.8773   -7.6998    7.3639 C   0  0  0  0  0  0  0  0  0  0  0  0
  -13.7830   -8.3803    7.9082 C   0  0  0  0  0  0  0  0  0  0  0  0
  -13.9932   -8.9856    9.2296 C   0  0  0  0  0  0  0  0  0  0  0  0
  -12.8023   -9.7625    9.7185 C   0  0  0  0  0  0  0  0  0  0  0  0
  -11.4842   -9.2727    9.2207 C   0  0  0  0  0  0  0  0  0  0  0  0
  -10.9205   -8.0527    9.8467 C   0  0  0  0  0  0  0  0  0  0  0  0
  -15.9395   -6.3622    5.5763 C   0  0  0  0  0  0  0  0  0  0  0  0
  -17.2068   -6.9169    5.6958 C   0  0  0  0  0  0  0  0  0  0  0  0
  -18.3425   -6.3034    5.2163 C   0  0  0  0  0  0  0  0  0  0  0  0
  -18.2115   -5.0763    4.5811 C   0  0  0  0  0  0  0  0  0  0  0  0
  -16.9693   -4.4968    4.4415 C   0  0  0  0  0  0  0  0  0  0  0  0
  -15.8426   -5.1517    4.9433 C   0  0  0  0  0  0  0  0  0  0  0  0
  -19.4688   -4.4175    4.0751 C   0  0  0  0  0  0  0  0  0  0  0  0
  -19.8065   -3.3508    4.8915 F   0  0  0  0  0  0  0  0  0  0  0  0
  -20.5266   -5.2749    4.0383 F   0  0  0  0  0  0  0  0  0  0  0  0
  -19.1592   -3.8592    2.8379 F   0  0  0  0  0  0  0  0  0  0  0  0
  -14.2792   -7.8888   10.1771 N   0  0  0  0  0  0  0  0  0  0  0  0
  -15.1461   -7.9854   10.7504 H   0  0  0  0  0  0  0  0  0  0  0  0
  -13.4088   -6.7672   10.2806 C   0  0  0  0  0  0  0  0  0  0  0  0
  -13.4981   -5.7306    9.3652 C   0  0  0  0  0  0  0  0  0  0  0  0
  -12.6817   -4.6389    9.5343 C   0  0  0  0  0  0  0  0  0  0  0  0
  -11.7763   -4.5102   10.5573 C   0  0  0  0  0  0  0  0  0  0  0  0
  -11.6739   -5.5416   11.4818 C   0  0  0  0  0  0  0  0  0  0  0  0
  -12.4876   -6.6421   11.3252 C   0  0  0  0  0  0  0  0  0  0  0  0
  1  2  1  0  0  0
  2  3  2  0  0  0
  2  4  1  0  0  0
  4  5  1  0  0  0
  5  6  2  0  0  0
  6  7  1  0  0  0
  7  8  2  0  0  0
  8 15  1  0  0  0
 15 16  2  0  0  0
 16 17  1  0  0  0
 17 18  2  0  0  0
 18 21  1  0  0  0
 21 22  1  0  0  0
 21 23  1  0  0  0
 21 24  1  0  0  0
 18 19  1  0  0  0
 19 20  2  0  0  0
  8  9  1  0  0  0
  9 10  2  0  0  0
 10 11  1  0  0  0
 11 25  1  0  0  0
 25 27  1  0  0  0
 27 28  2  0  0  0
 28 29  1  0  0  0
 29 30  2  0  0  0
 30 31  1  0  0  0
 31 32  2  0  0  0
 11 12  1  0  0  0
 12 13  1  0  0  0
 13 14  1  0  0  0
 13  4  1  0  0  0
 10  5  1  0  0  0
 32 27  1  0  0  0
 20 15  1  0  0  0
 25 26  1  0  0  0
M  END
> <minimizedAffinity>
5.37067

> <CNNscore>
0.4379467368

> <CNNaffinity>
6.7188811302

> <CNN_VS>
2.9425120354

> <CNNaffinity_variance>
0.5248582959

$$$$
[H]c1c([H])c([H])c(N([H])[C@@]2([H])c3c([H])c(-c4c([H])c([H])c(C(F)(F)F)c([H])c4[H])c([H])c([H])c3N(C(=O)C([H])([H])[H])[C@@]([H])(C([H])([H])[H])C2([H])[H])c([H])c1[H]


 32 35  0  0  0  0  0  0  0  0999 V2000
  -12.0588   -6.2764    9.6862 C   0  0  0  0  0  0  0  0  0  0  0  0
  -12.3745   -7.6853    9.4177 C   0  0  0  0  0  0  0  0  0  0  0  0
  -12.0068   -8.5403   10.2940 O   0  0  0  0  0  0  0  0  0  0  0  0
  -13.0431   -8.1284    8.2587 N   0  0  0  0  0  0  0  0  0  0  0  0
  -13.7258   -7.3333    7.3130 C   0  0  0  0  0  0  0  0  0  0  0  0
  -14.3365   -6.1559    7.7300 C   0  0  0  0  0  0  0  0  0  0  0  0
  -14.9282   -5.3680    6.7718 C   0  0  0  0  0  0  0  0  0  0  0  0
  -14.9596   -5.6656    5.4228 C   0  0  0  0  0  0  0  0  0  0  0  0
  -14.3545   -6.8394    5.0430 C   0  0  0  0  0  0  0  0  0  0  0  0
  -13.7388   -7.6733    5.9822 C   0  0  0  0  0  0  0  0  0  0  0  0
  -13.1864   -8.9309    5.4630 C   0  0  0  0  0  0  0  0  0  0  0  0
  -12.4754   -9.7403    6.5119 C   0  0  0  0  0  0  0  0  0  0  0  0
  -12.9891   -9.5604    7.9007 C   0  0  0  0  0  0  0  0  0  0  0  0
  -14.2555  -10.2418    8.2615 C   0  0  0  0  0  0  0  0  0  0  0  0
  -15.5715   -4.7764    4.4298 C   0  0  0  0  0  0  0  0  0  0  0  0
  -14.8780   -3.6662    3.9667 C   0  0  0  0  0  0  0  0  0  0  0  0
  -15.3737   -2.8224    2.9979 C   0  0  0  0  0  0  0  0  0  0  0  0
  -16.6258   -3.0937    2.4643 C   0  0  0  0  0  0  0  0  0  0  0  0
  -17.3445   -4.1850    2.9017 C   0  0  0  0  0  0  0  0  0  0  0  0
  -16.8048   -5.0167    3.8853 C   0  0  0  0  0  0  0  0  0  0  0  0
  -17.1432   -2.1643    1.3970 C   0  0  0  0  0  0  0  0  0  0  0  0
  -17.1750   -2.8163    0.1754 F   0  0  0  0  0  0  0  0  0  0  0  0
  -16.3742   -1.0481    1.2620 F   0  0  0  0  0  0  0  0  0  0  0  0
  -18.4719   -1.8923    1.7113 F   0  0  0  0  0  0  0  0  0  0  0  0
  -14.3137   -9.7189    4.9238 N   0  0  0  0  0  0  0  0  0  0  0  0
  -14.1511  -10.7437    4.8107 H   0  0  0  0  0  0  0  0  0  0  0  0
  -15.5438   -9.0918    4.5774 C   0  0  0  0  0  0  0  0  0  0  0  0
  -15.8081   -8.7599    3.2582 C   0  0  0  0  0  0  0  0  0  0  0  0
  -17.0305   -8.2109    2.9560 C   0  0  0  0  0  0  0  0  0  0  0  0
  -18.0114   -7.9668    3.8839 C   0  0  0  0  0  0  0  0  0  0  0  0
  -17.7608   -8.2924    5.2106 C   0  0  0  0  0  0  0  0  0  0  0  0
  -16.5394   -8.8450    5.5279 C   0  0  0  0  0  0  0  0  0  0  0  0
  1  2  1  0  0  0
  2  3  2  0  0  0
  2  4  1  0  0  0
  4  5  1  0  0  0
  5  6  2  0  0  0
  6  7  1  0  0  0
  7  8  2  0  0  0
  8 15  1  0  0  0
 15 16  2  0  0  0
 16 17  1  0  0  0
 17 18  2  0  0  0
 18 21  1  0  0  0
 21 22  1  0  0  0
 21 23  1  0  0  0
 21 24  1  0  0  0
 18 19  1  0  0  0
 19 20  2  0  0  0
  8  9  1  0  0  0
  9 10  2  0  0  0
 10 11  1  0  0  0
 11 25  1  0  0  0
 25 27  1  0  0  0
 27 28  2  0  0  0
 28 29  1  0  0  0
 29 30  2  0  0  0
 30 31  1  0  0  0
 31 32  2  0  0  0
 11 12  1  0  0  0
 12 13  1  0  0  0
 13 14  1  0  0  0
 13  4  1  0  0  0
 10  5  1  0  0  0
 32 27  1  0  0  0
 20 15  1  0  0  0
 25 26  1  0  0  0
M  END
> <minimizedAffinity>
10.25213

> <CNNscore>
0.4363584220

> <CNNaffinity>
6.9367995262

> <CNN_VS>
3.0269308090

> <CNNaffinity_variance>
0.3025918305

$$$$
[H]c1c([H])c([H])c(N([H])[C@@]2([H])c3c([H])c(-c4c([H])c([H])c(C(F)(F)F)c([H])c4[H])c([H])c([H])c3N(C(=O)C([H])([H])[H])[C@@]([H])(C([H])([H])[H])C2([H])[H])c([H])c1[H]


 32 35  0  0  0  0  0  0  0  0999 V2000
  -14.2508   -7.7527    5.5832 C   0  0  0  0  0  0  0  0  0  0  0  0
  -14.6829   -7.7787    6.9865 C   0  0  0  0  0  0  0  0  0  0  0  0
  -15.9347   -7.9154    7.2066 O   0  0  0  0  0  0  0  0  0  0  0  0
  -13.7996   -7.6541    8.0778 N   0  0  0  0  0  0  0  0  0  0  0  0
  -12.3906   -7.7349    8.0464 C   0  0  0  0  0  0  0  0  0  0  0  0
  -11.7777   -8.5434    7.0958 C   0  0  0  0  0  0  0  0  0  0  0  0
  -10.4043   -8.5416    7.0441 C   0  0  0  0  0  0  0  0  0  0  0  0
   -9.5902   -7.7930    7.8725 C   0  0  0  0  0  0  0  0  0  0  0  0
  -10.2251   -7.0103    8.8065 C   0  0  0  0  0  0  0  0  0  0  0  0
  -11.6207   -6.9789    8.8964 C   0  0  0  0  0  0  0  0  0  0  0  0
  -12.1784   -6.1565    9.9776 C   0  0  0  0  0  0  0  0  0  0  0  0
  -13.6812   -6.1094    9.9677 C   0  0  0  0  0  0  0  0  0  0  0  0
  -14.3449   -7.3233    9.4101 C   0  0  0  0  0  0  0  0  0  0  0  0
  -14.4081   -8.5306   10.2683 C   0  0  0  0  0  0  0  0  0  0  0  0
   -8.1280   -7.7945    7.7577 C   0  0  0  0  0  0  0  0  0  0  0  0
   -7.5163   -8.3636    6.6486 C   0  0  0  0  0  0  0  0  0  0  0  0
   -6.1530   -8.3513    6.4550 C   0  0  0  0  0  0  0  0  0  0  0  0
   -5.3555   -7.7453    7.4157 C   0  0  0  0  0  0  0  0  0  0  0  0
   -5.9272   -7.1727    8.5310 C   0  0  0  0  0  0  0  0  0  0  0  0
   -7.3144   -7.2057    8.6886 C   0  0  0  0  0  0  0  0  0  0  0  0
   -3.8676   -7.7328    7.1774 C   0  0  0  0  0  0  0  0  0  0  0  0
   -3.2048   -7.3660    8.3369 F   0  0  0  0  0  0  0  0  0  0  0  0
   -3.5063   -6.8664    6.1902 F   0  0  0  0  0  0  0  0  0  0  0  0
   -3.4897   -9.0498    6.9303 F   0  0  0  0  0  0  0  0  0  0  0  0
  -11.7197   -6.7378   11.2559 N   0  0  0  0  0  0  0  0  0  0  0  0
  -11.8896   -7.7591   11.3884 H   0  0  0  0  0  0  0  0  0  0  0  0
  -11.0886   -5.9281   12.2420 C   0  0  0  0  0  0  0  0  0  0  0  0
  -11.8507   -5.1179   13.0686 C   0  0  0  0  0  0  0  0  0  0  0  0
  -11.2098   -4.3973   14.0468 C   0  0  0  0  0  0  0  0  0  0  0  0
   -9.8542   -4.4277   14.2571 C   0  0  0  0  0  0  0  0  0  0  0  0
   -9.0767   -5.2336   13.4356 C   0  0  0  0  0  0  0  0  0  0  0  0
   -9.7064   -5.9629   12.4511 C   0  0  0  0  0  0  0  0  0  0  0  0
  1  2  1  0  0  0
  2  3  2  0  0  0
  2  4  1  0  0  0
  4  5  1  0  0  0
  5  6  2  0  0  0
  6  7  1  0  0  0
  7  8  2  0  0  0
  8 15  1  0  0  0
 15 16  2  0  0  0
 16 17  1  0  0  0
 17 18  2  0  0  0
 18 21  1  0  0  0
 21 22  1  0  0  0
 21 23  1  0  0  0
 21 24  1  0  0  0
 18 19  1  0  0  0
 19 20  2  0  0  0
  8  9  1  0  0  0
  9 10  2  0  0  0
 10 11  1  0  0  0
 11 25  1  0  0  0
 25 27  1  0  0  0
 27 28  2  0  0  0
 28 29  1  0  0  0
 29 30  2  0  0  0
 30 31  1  0  0  0
 31 32  2  0  0  0
 11 12  1  0  0  0
 12 13  1  0  0  0
 13 14  1  0  0  0
 13  4  1  0  0  0
 10  5  1  0  0  0
 32 27  1  0  0  0
 20 15  1  0  0  0
 25 26  1  0  0  0
M  END
> <minimizedAffinity>
0.09632

> <CNNscore>
0.4271965623

> <CNNaffinity>
6.6602873802

> <CNN_VS>
2.8452517986

> <CNNaffinity_variance>
0.2980779707

$$$$
[H]c1c([H])c([H])c(N([H])[C@@]2([H])c3c([H])c(-c4c([H])c([H])c(C(F)(F)F)c([H])c4[H])c([H])c([H])c3N(C(=O)C([H])([H])[H])[C@@]([H])(C([H])([H])[H])C2([H])[H])c([H])c1[H]


 32 35  0  0  0  0  0  0  0  0999 V2000
  -10.8594  -10.6038    5.5162 C   0  0  0  0  0  0  0  0  0  0  0  0
  -10.5909  -10.2097    6.9052 C   0  0  0  0  0  0  0  0  0  0  0  0
   -9.5032  -10.6303    7.4287 O   0  0  0  0  0  0  0  0  0  0  0  0
  -11.4635   -9.4125    7.6731 N   0  0  0  0  0  0  0  0  0  0  0  0
  -12.5699   -8.6695    7.2076 C   0  0  0  0  0  0  0  0  0  0  0  0
  -12.5442   -8.1485    5.9188 C   0  0  0  0  0  0  0  0  0  0  0  0
  -13.6669   -7.4945    5.4708 C   0  0  0  0  0  0  0  0  0  0  0  0
  -14.8190   -7.3174    6.2129 C   0  0  0  0  0  0  0  0  0  0  0  0
  -14.8107   -7.8366    7.4851 C   0  0  0  0  0  0  0  0  0  0  0  0
  -13.6915   -8.5109    7.9844 C   0  0  0  0  0  0  0  0  0  0  0  0
  -13.7796   -8.9606    9.3796 C   0  0  0  0  0  0  0  0  0  0  0  0
  -12.5743   -9.7415    9.8248 C   0  0  0  0  0  0  0  0  0  0  0  0
  -11.3002   -9.3761    9.1407 C   0  0  0  0  0  0  0  0  0  0  0  0
  -10.6231   -8.1272    9.5647 C   0  0  0  0  0  0  0  0  0  0  0  0
  -16.0081   -6.6436    5.6806 C   0  0  0  0  0  0  0  0  0  0  0  0
  -16.0817   -5.2571    5.6791 C   0  0  0  0  0  0  0  0  0  0  0  0
  -17.1452   -4.5629    5.1469 C   0  0  0  0  0  0  0  0  0  0  0  0
  -18.1923   -5.2844    4.5908 C   0  0  0  0  0  0  0  0  0  0  0  0
  -18.1552   -6.6617    4.5772 C   0  0  0  0  0  0  0  0  0  0  0  0
  -17.0572   -7.3273    5.1263 C   0  0  0  0  0  0  0  0  0  0  0  0
  -19.3398   -4.5041    4.0034 C   0  0  0  0  0  0  0  0  0  0  0  0
  -20.4539   -5.3180    3.8825 F   0  0  0  0  0  0  0  0  0  0  0  0
  -19.0487   -3.9981    2.7727 F   0  0  0  0  0  0  0  0  0  0  0  0
  -19.6852   -3.5327    4.9391 F   0  0  0  0  0  0  0  0  0  0  0  0
  -13.9162   -7.7560   10.2239 N   0  0  0  0  0  0  0  0  0  0  0  0
  -14.7230   -7.7427   10.8859 H   0  0  0  0  0  0  0  0  0  0  0  0
  -12.9895   -6.6808   10.1181 C   0  0  0  0  0  0  0  0  0  0  0  0
  -12.8346   -5.7900   11.1683 C   0  0  0  0  0  0  0  0  0  0  0  0
  -11.8877   -4.8018   11.0512 C   0  0  0  0  0  0  0  0  0  0  0  0
  -11.0821   -4.6387    9.9524 C   0  0  0  0  0  0  0  0  0  0  0  0
  -11.2267   -5.5225    8.8909 C   0  0  0  0  0  0  0  0  0  0  0  0
  -12.1716   -6.5195    8.9953 C   0  0  0  0  0  0  0  0  0  0  0  0
  1  2  1  0  0  0
  2  3  2  0  0  0
  2  4  1  0  0  0
  4  5  1  0  0  0
  5  6  2  0  0  0
  6  7  1  0  0  0
  7  8  2  0  0  0
  8 15  1  0  0  0
 15 16  2  0  0  0
 16 17  1  0  0  0
 17 18  2  0  0  0
 18 21  1  0  0  0
 21 22  1  0  0  0
 21 23  1  0  0  0
 21 24  1  0  0  0
 18 19  1  0  0  0
 19 20  2  0  0  0
  8  9  1  0  0  0
  9 10  2  0  0  0
 10 11  1  0  0  0
 11 25  1  0  0  0
 25 27  1  0  0  0
 27 28  2  0  0  0
 28 29  1  0  0  0
 29 30  2  0  0  0
 30 31  1  0  0  0
 31 32  2  0  0  0
 11 12  1  0  0  0
 12 13  1  0  0  0
 13 14  1  0  0  0
 13  4  1  0  0  0
 10  5  1  0  0  0
 32 27  1  0  0  0
 20 15  1  0  0  0
 25 26  1  0  0  0
M  END
> <minimizedAffinity>
5.77439

> <CNNscore>
0.4142033160

> <CNNaffinity>
6.6753072739

> <CNN_VS>
2.7649343014

> <CNNaffinity_variance>
0.5157058835

$$$$
[H]c1c([H])c([H])c(N([H])[C@@]2([H])c3c([H])c(-c4c([H])c([H])c(C(F)(F)F)c([H])c4[H])c([H])c([H])c3N(C(=O)C([H])([H])[H])[C@@]([H])(C([H])([H])[H])C2([H])[H])c([H])c1[H]


 32 35  0  0  0  0  0  0  0  0999 V2000
  -12.3345   -5.2607   12.2129 C   0  0  0  0  0  0  0  0  0  0  0  0
  -11.0556   -5.7832   11.7147 C   0  0  0  0  0  0  0  0  0  0  0  0
  -10.0510   -5.7076   12.5016 O   0  0  0  0  0  0  0  0  0  0  0  0
  -10.8878   -6.3448   10.4329 N   0  0  0  0  0  0  0  0  0  0  0  0
  -11.9043   -6.7275    9.5312 C   0  0  0  0  0  0  0  0  0  0  0  0
  -13.1242   -7.1696   10.0307 C   0  0  0  0  0  0  0  0  0  0  0  0
  -14.1170   -7.4632    9.1269 C   0  0  0  0  0  0  0  0  0  0  0  0
  -13.9865   -7.3510    7.7558 C   0  0  0  0  0  0  0  0  0  0  0  0
  -12.7670   -6.9193    7.2926 C   0  0  0  0  0  0  0  0  0  0  0  0
  -11.7268   -6.6078    8.1744 C   0  0  0  0  0  0  0  0  0  0  0  0
  -10.4518   -6.2221    7.5561 C   0  0  0  0  0  0  0  0  0  0  0  0
   -9.4042   -5.8295    8.5607 C   0  0  0  0  0  0  0  0  0  0  0  0
   -9.5235   -6.4989    9.8883 C   0  0  0  0  0  0  0  0  0  0  0  0
   -9.0696   -7.9063    9.9945 C   0  0  0  0  0  0  0  0  0  0  0  0
  -15.0859   -7.6410    6.8293 C   0  0  0  0  0  0  0  0  0  0  0  0
  -16.4031   -7.5362    7.2559 C   0  0  0  0  0  0  0  0  0  0  0  0
  -17.4801   -7.7431    6.4231 C   0  0  0  0  0  0  0  0  0  0  0  0
  -17.2353   -8.0757    5.0980 C   0  0  0  0  0  0  0  0  0  0  0  0
  -15.9410   -8.1916    4.6398 C   0  0  0  0  0  0  0  0  0  0  0  0
  -14.8768   -7.9721    5.5171 C   0  0  0  0  0  0  0  0  0  0  0  0
  -18.4284   -8.2856    4.2019 C   0  0  0  0  0  0  0  0  0  0  0  0
  -19.1143   -7.0935    4.0387 F   0  0  0  0  0  0  0  0  0  0  0  0
  -19.2966   -9.2097    4.6997 F   0  0  0  0  0  0  0  0  0  0  0  0
  -17.9320   -8.6079    2.9417 F   0  0  0  0  0  0  0  0  0  0  0  0
   -9.9688   -7.3824    6.7798 N   0  0  0  0  0  0  0  0  0  0  0  0
  -10.7005   -8.0141    6.3860 H   0  0  0  0  0  0  0  0  0  0  0  0
   -8.5756   -7.6106    6.5975 C   0  0  0  0  0  0  0  0  0  0  0  0
   -8.0113   -8.8151    6.9865 C   0  0  0  0  0  0  0  0  0  0  0  0
   -6.6757   -9.0197    6.7391 C   0  0  0  0  0  0  0  0  0  0  0  0
   -5.8596   -8.1003    6.1295 C   0  0  0  0  0  0  0  0  0  0  0  0
   -6.4102   -6.8877    5.7354 C   0  0  0  0  0  0  0  0  0  0  0  0
   -7.7489   -6.6694    5.9760 C   0  0  0  0  0  0  0  0  0  0  0  0
  1  2  1  0  0  0
  2  3  2  0  0  0
  2  4  1  0  0  0
  4  5  1  0  0  0
  5  6  2  0  0  0
  6  7  1  0  0  0
  7  8  2  0  0  0
  8 15  1  0  0  0
 15 16  2  0  0  0
 16 17  1  0  0  0
 17 18  2  0  0  0
 18 21  1  0  0  0
 21 22  1  0  0  0
 21 23  1  0  0  0
 21 24  1  0  0  0
 18 19  1  0  0  0
 19 20  2  0  0  0
  8  9  1  0  0  0
  9 10  2  0  0  0
 10 11  1  0  0  0
 11 25  1  0  0  0
 25 27  1  0  0  0
 27 28  2  0  0  0
 28 29  1  0  0  0
 29 30  2  0  0  0
 30 31  1  0  0  0
 31 32  2  0  0  0
 11 12  1  0  0  0
 12 13  1  0  0  0
 13 14  1  0  0  0
 13  4  1  0  0  0
 10  5  1  0  0  0
 32 27  1  0  0  0
 20 15  1  0  0  0
 25 26  1  0  0  0
M  END
> <minimizedAffinity>
2.12131

> <CNNscore>
0.3791171014

> <CNNaffinity>
6.7539854050

> <CNN_VS>
2.5605514050

> <CNNaffinity_variance>
0.5012174845

$$$$
[H]c1nc(OC2([H])C([H])([H])[C@@]3([H])N(C(=O)OC(C([H])([H])[H])(C([H])([H])[H])C([H])([H])[H])[C@]([H])(C2([H])[H])C([H])([H])C3([H])[H])c([N+](=O)[O-])c(N([H])c2c([H])c([H])c(S(=O)(=O)C([H])([H])[H])c([H])c2[H])n1


 37 40  0  0  0  0  0  0  0  0999 V2000
   -9.8339  -11.0292    5.7604 C   0  0  0  0  0  0  0  0  0  0  0  0
  -11.3008  -10.8504    5.5034 N   0  0  0  0  0  0  0  0  0  0  0  0
  -12.0774   -9.8237    6.2733 C   0  0  0  0  0  0  0  0  0  0  0  0
  -11.3871   -8.9758    7.3002 N   0  0  0  0  0  0  0  0  0  0  0  0
   -9.9201   -9.1547    7.5573 C   0  0  0  0  0  0  0  0  0  0  0  0
   -9.1435  -10.1814    6.7874 C   0  0  0  0  0  0  0  0  0  0  0  0
   -7.6766  -10.3602    7.0444 N   0  0  0  0  0  0  0  0  0  0  0  0
   -6.6732   -9.6243    6.2068 O   0  0  0  0  0  0  0  0  0  0  0  0
   -6.8816  -11.1700    8.0254 O   0  0  0  0  0  0  0  0  0  0  0  0
   -9.2298   -8.3068    8.5842 N   0  0  0  0  0  0  0  0  0  0  0  0
   -9.7984   -8.1926    9.9676 H   0  0  0  0  0  0  0  0  0  0  0  0
   -7.9710   -7.5732    8.2278 C   0  0  0  0  0  0  0  0  0  0  0  0
   -7.9012   -6.7756    6.9593 C   0  0  0  0  0  0  0  0  0  0  0  0
   -6.6423   -6.0420    6.6029 C   0  0  0  0  0  0  0  0  0  0  0  0
   -5.4531   -6.1061    7.5150 C   0  0  0  0  0  0  0  0  0  0  0  0
   -5.5229   -6.9037    8.7834 C   0  0  0  0  0  0  0  0  0  0  0  0
   -6.7818   -7.6372    9.1398 C   0  0  0  0  0  0  0  0  0  0  0  0
   -4.1943   -5.3725    7.1586 S   0  0  0  0  0  0  0  0  0  0  0  0
   -2.9353   -4.6389    6.8021 C   0  0  0  0  0  0  0  0  0  0  0  0
   -3.8444   -5.2659    8.6133 O   0  0  0  0  0  0  0  0  0  0  0  0
   -4.5440   -5.4791    5.7038 O   0  0  0  0  0  0  0  0  0  0  0  0
   -9.0572  -12.0559    4.9906 O   0  0  0  0  0  0  0  0  0  0  0  0
   -8.5874  -11.7457    3.7698 C   0  0  0  0  0  0  0  0  0  0  0  0
   -8.5414  -10.3223    4.2410 O   0  0  0  0  0  0  0  0  0  0  0  0
   -8.2398  -12.4280    2.4800 N   0  0  0  0  0  0  0  0  0  0  0  0
   -8.3587  -13.8968    2.1997 C   0  0  0  0  0  0  0  0  0  0  0  0
   -7.9046  -14.1380    0.7905 C   0  0  0  0  0  0  0  0  0  0  0  0
   -7.5051  -12.8183    0.2000 C   0  0  0  0  0  0  0  0  0  0  0  0
   -7.7122  -11.7615    1.2442 C   0  0  0  0  0  0  0  0  0  0  0  0
   -8.0142  -10.9286    2.4666 C   0  0  0  0  0  0  0  0  0  0  0  0
   -8.5341  -11.7304    3.6229 C   0  0  0  0  0  0  0  0  0  0  0  0
   -8.7063  -13.2144    3.4894 C   0  0  0  0  0  0  0  0  0  0  0  0
   -9.1072  -12.5473    4.9261 O   0  0  0  0  0  0  0  0  0  0  0  0
  -10.1612  -14.3671    4.6478 C   0  0  0  0  0  0  0  0  0  0  0  0
   -8.7618  -14.0021    5.0457 C   0  0  0  0  0  0  0  0  0  0  0  0
   -7.3623  -13.6372    5.4436 C   0  0  0  0  0  0  0  0  0  0  0  0
   -8.4164  -15.4569    5.1653 C   0  0  0  0  0  0  0  0  0  0  0  0
 34 35  1  0  0  0
 35 36  1  0  0  0
 35 37  1  0  0  0
 35 33  1  0  0  0
 33 23  1  0  0  0
 23 24  2  0  0  0
 23 25  1  0  0  0
 25 26  1  0  0  0
 26 27  1  0  0  0
 27 28  1  0  0  0
 28 29  1  0  0  0
 29 30  1  0  0  0
 30 31  1  0  0  0
 31 22  1  0  0  0
 22  1  1  0  0  0
  1  2  2  0  0  0
  2  3  1  0  0  0
  3  4  2  0  0  0
  4  5  1  0  0  0
  5 10  1  0  0  0
 10 12  1  0  0  0
 12 13  2  0  0  0
 13 14  1  0  0  0
 14 15  2  0  0  0
 15 18  1  0  0  0
 18 19  1  0  0  0
 18 20  2  0  0  0
 18 21  2  0  0  0
 15 16  1  0  0  0
 16 17  2  0  0  0
  5  6  2  0  0  0
  6  7  1  0  0  0
  7  8  2  0  0  0
  7  9  1  0  0  0
 31 32  1  0  0  0
 29 25  1  0  0  0
  6  1  1  0  0  0
 32 26  1  0  0  0
 17 12  1  0  0  0
 10 11  1  0  0  0
M  CHG 1   7   1
M  CHG 1   9  -1
M  END
> <minimizedAffinity>
26.45296

> <CNNscore>
0.2446975708

> <CNNaffinity>
6.1468811035

> <CNN_VS>
1.5041269064

> <CNNaffinity_variance>
0.3753306270

$$$$
[H]c1nc(OC2([H])C([H])([H])[C@@]3([H])N(C(=O)OC(C([H])([H])[H])(C([H])([H])[H])C([H])([H])[H])[C@]([H])(C2([H])[H])C([H])([H])C3([H])[H])c([N+](=O)[O-])c(N([H])c2c([H])c([H])c(S(=O)(=O)C([H])([H])[H])c([H])c2[H])n1


 37 40  0  0  0  0  0  0  0  0999 V2000
  -11.0894   -8.7773    7.5903 C   0  0  0  0  0  0  0  0  0  0  0  0
  -10.7891  -10.0824    6.9146 N   0  0  0  0  0  0  0  0  0  0  0  0
   -9.3765  -10.5817    6.8417 C   0  0  0  0  0  0  0  0  0  0  0  0
   -8.2642   -9.7758    7.4445 N   0  0  0  0  0  0  0  0  0  0  0  0
   -8.5645   -8.4708    8.1202 C   0  0  0  0  0  0  0  0  0  0  0  0
   -9.9770   -7.9715    8.1931 C   0  0  0  0  0  0  0  0  0  0  0  0
  -10.2773   -6.6664    8.8688 N   0  0  0  0  0  0  0  0  0  0  0  0
  -10.0328   -5.3744    8.1469 O   0  0  0  0  0  0  0  0  0  0  0  0
  -10.8137   -6.2908   10.2183 O   0  0  0  0  0  0  0  0  0  0  0  0
   -7.4521   -7.6649    8.7230 N   0  0  0  0  0  0  0  0  0  0  0  0
   -7.3663   -7.5008   10.2115 H   0  0  0  0  0  0  0  0  0  0  0  0
   -6.4256   -7.0232    7.8372 C   0  0  0  0  0  0  0  0  0  0  0  0
   -6.7023   -6.8479    6.3734 C   0  0  0  0  0  0  0  0  0  0  0  0
   -5.6758   -6.2062    5.4877 C   0  0  0  0  0  0  0  0  0  0  0  0
   -4.3726   -5.7398    6.0658 C   0  0  0  0  0  0  0  0  0  0  0  0
   -4.0959   -5.9152    7.5296 C   0  0  0  0  0  0  0  0  0  0  0  0
   -5.1224   -6.5569    8.4153 C   0  0  0  0  0  0  0  0  0  0  0  0
   -3.3461   -5.0981    5.1801 S   0  0  0  0  0  0  0  0  0  0  0  0
   -2.3195   -4.4564    4.2944 C   0  0  0  0  0  0  0  0  0  0  0  0
   -4.3067   -3.9883    4.8708 O   0  0  0  0  0  0  0  0  0  0  0  0
   -2.3854   -6.2079    5.4894 O   0  0  0  0  0  0  0  0  0  0  0  0
  -12.5019   -8.2780    7.6632 O   0  0  0  0  0  0  0  0  0  0  0  0
  -13.2954   -8.3803    6.5829 C   0  0  0  0  0  0  0  0  0  0  0  0
  -12.7976   -9.7895    6.4544 O   0  0  0  0  0  0  0  0  0  0  0  0
  -14.2592   -7.5401    5.7985 N   0  0  0  0  0  0  0  0  0  0  0  0
  -14.6326   -6.1179    6.0948 C   0  0  0  0  0  0  0  0  0  0  0  0
  -15.6229   -5.6734    5.0596 C   0  0  0  0  0  0  0  0  0  0  0  0
  -15.8616   -6.8209    4.1235 C   0  0  0  0  0  0  0  0  0  0  0  0
  -15.0187   -7.9746    4.5802 C   0  0  0  0  0  0  0  0  0  0  0  0
  -14.0822   -8.9457    5.2578 C   0  0  0  0  0  0  0  0  0  0  0  0
  -13.3936   -8.3720    6.4606 C   0  0  0  0  0  0  0  0  0  0  0  0
  -13.6688   -6.9581    6.8791 C   0  0  0  0  0  0  0  0  0  0  0  0
  -12.6069   -7.8067    7.7857 O   0  0  0  0  0  0  0  0  0  0  0  0
  -13.0052   -9.3478    9.1879 C   0  0  0  0  0  0  0  0  0  0  0  0
  -13.2679   -7.8721    9.1306 C   0  0  0  0  0  0  0  0  0  0  0  0
  -13.5305   -6.3964    9.0733 C   0  0  0  0  0  0  0  0  0  0  0  0
  -13.9289   -7.9375   10.4755 C   0  0  0  0  0  0  0  0  0  0  0  0
 34 35  1  0  0  0
 35 36  1  0  0  0
 35 37  1  0  0  0
 35 33  1  0  0  0
 33 23  1  0  0  0
 23 24  2  0  0  0
 23 25  1  0  0  0
 25 26  1  0  0  0
 26 27  1  0  0  0
 27 28  1  0  0  0
 28 29  1  0  0  0
 29 30  1  0  0  0
 30 31  1  0  0  0
 31 22  1  0  0  0
 22  1  1  0  0  0
  1  2  2  0  0  0
  2  3  1  0  0  0
  3  4  2  0  0  0
  4  5  1  0  0  0
  5 10  1  0  0  0
 10 12  1  0  0  0
 12 13  2  0  0  0
 13 14  1  0  0  0
 14 15  2  0  0  0
 15 18  1  0  0  0
 18 19  1  0  0  0
 18 20  2  0  0  0
 18 21  2  0  0  0
 15 16  1  0  0  0
 16 17  2  0  0  0
  5  6  2  0  0  0
  6  7  1  0  0  0
  7  8  2  0  0  0
  7  9  1  0  0  0
 31 32  1  0  0  0
 29 25  1  0  0  0
  6  1  1  0  0  0
 32 26  1  0  0  0
 17 12  1  0  0  0
 10 11  1  0  0  0
M  CHG 1   7   1
M  CHG 1   9  -1
M  END
> <minimizedAffinity>
-9.03132

> <CNNscore>
0.1487686038

> <CNNaffinity>
6.7343201637

> <CNN_VS>
1.0018553734

> <CNNaffinity_variance>
0.2190284282

$$$$
[H]c1nc(OC2([H])C([H])([H])[C@@]3([H])N(C(=O)OC(C([H])([H])[H])(C([H])([H])[H])C([H])([H])[H])[C@]([H])(C2([H])[H])C([H])([H])C3([H])[H])c([N+](=O)[O-])c(N([H])c2c([H])c([H])c(S(=O)(=O)C([H])([H])[H])c([H])c2[H])n1


 37 40  0  0  0  0  0  0  0  0999 V2000
   -4.6741   -6.3670    7.8470 C   0  0  0  0  0  0  0  0  0  0  0  0
   -4.7161   -5.7718    9.2232 N   0  0  0  0  0  0  0  0  0  0  0  0
   -5.7204   -6.2637   10.2228 C   0  0  0  0  0  0  0  0  0  0  0  0
   -6.6829   -7.3508    9.8462 N   0  0  0  0  0  0  0  0  0  0  0  0
   -6.6410   -7.9460    8.4700 C   0  0  0  0  0  0  0  0  0  0  0  0
   -5.6366   -7.4541    7.4704 C   0  0  0  0  0  0  0  0  0  0  0  0
   -5.5947   -8.0493    6.0942 N   0  0  0  0  0  0  0  0  0  0  0  0
   -6.6239   -7.6572    5.0758 O   0  0  0  0  0  0  0  0  0  0  0  0
   -4.6934   -9.0357    5.4124 O   0  0  0  0  0  0  0  0  0  0  0  0
   -7.6035   -9.0332    8.0934 N   0  0  0  0  0  0  0  0  0  0  0  0
   -7.1088  -10.4339    7.8853 H   0  0  0  0  0  0  0  0  0  0  0  0
   -9.0606   -8.7195    7.9250 C   0  0  0  0  0  0  0  0  0  0  0  0
   -9.6035   -7.4025    8.3946 C   0  0  0  0  0  0  0  0  0  0  0  0
  -11.0607   -7.0889    8.2262 C   0  0  0  0  0  0  0  0  0  0  0  0
  -11.9749   -8.0924    7.5880 C   0  0  0  0  0  0  0  0  0  0  0  0
  -11.4320   -9.4095    7.1184 C   0  0  0  0  0  0  0  0  0  0  0  0
   -9.9749   -9.7230    7.2868 C   0  0  0  0  0  0  0  0  0  0  0  0
  -13.4320   -7.7788    7.4196 S   0  0  0  0  0  0  0  0  0  0  0  0
  -14.8893   -7.4652    7.2511 C   0  0  0  0  0  0  0  0  0  0  0  0
  -13.5548   -8.8876    6.4168 O   0  0  0  0  0  0  0  0  0  0  0  0
  -13.3094   -6.6700    8.4224 O   0  0  0  0  0  0  0  0  0  0  0  0
   -3.6698   -5.8752    6.8474 O   0  0  0  0  0  0  0  0  0  0  0  0
   -3.6397   -4.5735    6.5126 C   0  0  0  0  0  0  0  0  0  0  0  0
   -4.7548   -4.8795    5.5571 O   0  0  0  0  0  0  0  0  0  0  0  0
   -2.8855   -3.3268    6.8690 N   0  0  0  0  0  0  0  0  0  0  0  0
   -1.7773   -3.2238    7.8746 C   0  0  0  0  0  0  0  0  0  0  0  0
   -1.3140   -1.7976    7.9095 C   0  0  0  0  0  0  0  0  0  0  0  0
   -2.1359   -1.0191    6.9254 C   0  0  0  0  0  0  0  0  0  0  0  0
   -3.1071   -1.9642    6.2824 C   0  0  0  0  0  0  0  0  0  0  0  0
   -3.9550   -3.1221    5.8137 C   0  0  0  0  0  0  0  0  0  0  0  0
   -3.6203   -4.4197    6.4878 C   0  0  0  0  0  0  0  0  0  0  0  0
   -2.5315   -4.4705    7.5182 C   0  0  0  0  0  0  0  0  0  0  0  0
   -3.3050   -5.8711    7.1866 O   0  0  0  0  0  0  0  0  0  0  0  0
   -1.7222   -6.9742    8.0685 C   0  0  0  0  0  0  0  0  0  0  0  0
   -2.1845   -6.7204    6.6642 C   0  0  0  0  0  0  0  0  0  0  0  0
   -2.6467   -6.4666    5.2600 C   0  0  0  0  0  0  0  0  0  0  0  0
   -1.0639   -7.5698    6.1418 C   0  0  0  0  0  0  0  0  0  0  0  0
 34 35  1  0  0  0
 35 36  1  0  0  0
 35 37  1  0  0  0
 35 33  1  0  0  0
 33 23  1  0  0  0
 23 24  2  0  0  0
 23 25  1  0  0  0
 25 26  1  0  0  0
 26 27  1  0  0  0
 27 28  1  0  0  0
 28 29  1  0  0  0
 29 30  1  0  0  0
 30 31  1  0  0  0
 31 22  1  0  0  0
 22  1  1  0  0  0
  1  2  2  0  0  0
  2  3  1  0  0  0
  3  4  2  0  0  0
  4  5  1  0  0  0
  5 10  1  0  0  0
 10 12  1  0  0  0
 12 13  2  0  0  0
 13 14  1  0  0  0
 14 15  2  0  0  0
 15 18  1  0  0  0
 18 19  1  0  0  0
 18 20  2  0  0  0
 18 21  2  0  0  0
 15 16  1  0  0  0
 16 17  2  0  0  0
  5  6  2  0  0  0
  6  7  1  0  0  0
  7  8  2  0  0  0
  7  9  1  0  0  0
 31 32  1  0  0  0
 29 25  1  0  0  0
  6  1  1  0  0  0
 32 26  1  0  0  0
 17 12  1  0  0  0
 10 11  1  0  0  0
M  CHG 1   7   1
M  CHG 1   9  -1
M  END
> <minimizedAffinity>
-4.94387

> <CNNscore>
0.0829591602

> <CNNaffinity>
5.8523931503

> <CNN_VS>
0.4855096340

> <CNNaffinity_variance>
0.1383642256

$$$$
[H]c1nc(OC2([H])C([H])([H])[C@@]3([H])N(C(=O)OC(C([H])([H])[H])(C([H])([H])[H])C([H])([H])[H])[C@]([H])(C2([H])[H])C([H])([H])C3([H])[H])c([N+](=O)[O-])c(N([H])c2c([H])c([H])c(S(=O)(=O)C([H])([H])[H])c([H])c2[H])n1


 37 40  0  0  0  0  0  0  0  0999 V2000
  -11.3994   -8.3714    7.8431 C   0  0  0  0  0  0  0  0  0  0  0  0
  -11.1939   -9.6096    7.0218 N   0  0  0  0  0  0  0  0  0  0  0  0
   -9.8098  -10.1472    6.8088 C   0  0  0  0  0  0  0  0  0  0  0  0
   -8.6312   -9.4465    7.4171 N   0  0  0  0  0  0  0  0  0  0  0  0
   -8.8367   -8.2083    8.2384 C   0  0  0  0  0  0  0  0  0  0  0  0
  -10.2208   -7.6707    8.4514 C   0  0  0  0  0  0  0  0  0  0  0  0
  -10.4263   -6.4325    9.2727 N   0  0  0  0  0  0  0  0  0  0  0  0
  -10.2990   -5.0804    8.6358 O   0  0  0  0  0  0  0  0  0  0  0  0
  -10.7600   -6.1810   10.7133 O   0  0  0  0  0  0  0  0  0  0  0  0
   -7.6581   -7.5076    8.8467 N   0  0  0  0  0  0  0  0  0  0  0  0
   -7.7886   -6.8457   10.1864 H   0  0  0  0  0  0  0  0  0  0  0  0
   -6.3491   -7.4690    8.1153 C   0  0  0  0  0  0  0  0  0  0  0  0
   -5.3030   -6.4661    8.5023 C   0  0  0  0  0  0  0  0  0  0  0  0
   -3.9940   -6.4275    7.7708 C   0  0  0  0  0  0  0  0  0  0  0  0
   -3.7312   -7.3918    6.6522 C   0  0  0  0  0  0  0  0  0  0  0  0
   -4.7774   -8.3946    6.2652 C   0  0  0  0  0  0  0  0  0  0  0  0
   -6.0863   -8.4332    6.9967 C   0  0  0  0  0  0  0  0  0  0  0  0
   -2.4223   -7.3532    5.9207 S   0  0  0  0  0  0  0  0  0  0  0  0
   -1.1133   -7.3146    5.1891 C   0  0  0  0  0  0  0  0  0  0  0  0
   -2.3460   -5.8706    6.1352 O   0  0  0  0  0  0  0  0  0  0  0  0
   -2.4985   -8.8358    5.7061 O   0  0  0  0  0  0  0  0  0  0  0  0
  -12.7834   -7.8337    8.0561 O   0  0  0  0  0  0  0  0  0  0  0  0
  -13.4931   -7.4006    6.9998 C   0  0  0  0  0  0  0  0  0  0  0  0
  -12.2352   -6.7273    6.5368 O   0  0  0  0  0  0  0  0  0  0  0  0
  -14.8871   -7.4931    6.4537 N   0  0  0  0  0  0  0  0  0  0  0  0
  -16.0322   -8.2323    7.0801 C   0  0  0  0  0  0  0  0  0  0  0  0
  -17.2336   -8.0587    6.1990 C   0  0  0  0  0  0  0  0  0  0  0  0
  -16.8311   -7.2121    5.0280 C   0  0  0  0  0  0  0  0  0  0  0  0
  -15.3809   -6.8625    5.1854 C   0  0  0  0  0  0  0  0  0  0  0  0
  -13.9410   -6.6735    5.5979 C   0  0  0  0  0  0  0  0  0  0  0  0
  -13.5926   -7.3604    6.8851 C   0  0  0  0  0  0  0  0  0  0  0  0
  -14.6382   -8.1398    7.6262 C   0  0  0  0  0  0  0  0  0  0  0  0
  -13.1447   -8.0875    8.2869 O   0  0  0  0  0  0  0  0  0  0  0  0
  -13.6436   -6.1364    8.9536 C   0  0  0  0  0  0  0  0  0  0  0  0
  -13.5715   -7.4904    9.5951 C   0  0  0  0  0  0  0  0  0  0  0  0
  -13.4993   -8.8444   10.2366 C   0  0  0  0  0  0  0  0  0  0  0  0
  -13.9982   -6.8934   10.9033 C   0  0  0  0  0  0  0  0  0  0  0  0
 34 35  1  0  0  0
 35 36  1  0  0  0
 35 37  1  0  0  0
 35 33  1  0  0  0
 33 23  1  0  0  0
 23 24  2  0  0  0
 23 25  1  0  0  0
 25 26  1  0  0  0
 26 27  1  0  0  0
 27 28  1  0  0  0
 28 29  1  0  0  0
 29 30  1  0  0  0
 30 31  1  0  0  0
 31 22  1  0  0  0
 22  1  1  0  0  0
  1  2  2  0  0  0
  2  3  1  0  0  0
  3  4  2  0  0  0
  4  5  1  0  0  0
  5 10  1  0  0  0
 10 12  1  0  0  0
 12 13  2  0  0  0
 13 14  1  0  0  0
 14 15  2  0  0  0
 15 18  1  0  0  0
 18 19  1  0  0  0
 18 20  2  0  0  0
 18 21  2  0  0  0
 15 16  1  0  0  0
 16 17  2  0  0  0
  5  6  2  0  0  0
  6  7  1  0  0  0
  7  8  2  0  0  0
  7  9  1  0  0  0
 31 32  1  0  0  0
 29 25  1  0  0  0
  6  1  1  0  0  0
 32 26  1  0  0  0
 17 12  1  0  0  0
 10 11  1  0  0  0
M  CHG 1   7   1
M  CHG 1   9  -1
M  END
> <minimizedAffinity>
-5.91406

> <CNNscore>
0.0805184171

> <CNNaffinity>
6.4770417213

> <CNN_VS>
0.5215211511

> <CNNaffinity_variance>
0.1242451668

$$$$
[H]c1nc(OC2([H])C([H])([H])[C@@]3([H])N(C(=O)OC(C([H])([H])[H])(C([H])([H])[H])C([H])([H])[H])[C@]([H])(C2([H])[H])C([H])([H])C3([H])[H])c([N+](=O)[O-])c(N([H])c2c([H])c([H])c(S(=O)(=O)C([H])([H])[H])c([H])c2[H])n1


 37 40  0  0  0  0  0  0  0  0999 V2000
  -13.2804   -8.1676    6.5782 C   0  0  0  0  0  0  0  0  0  0  0  0
  -13.2161   -9.3867    5.7065 N   0  0  0  0  0  0  0  0  0  0  0  0
  -12.0395  -10.3125    5.7975 C   0  0  0  0  0  0  0  0  0  0  0  0
  -10.9271  -10.0193    6.7602 N   0  0  0  0  0  0  0  0  0  0  0  0
  -10.9914   -8.8002    7.6318 C   0  0  0  0  0  0  0  0  0  0  0  0
  -12.1680   -7.8744    7.5409 C   0  0  0  0  0  0  0  0  0  0  0  0
  -12.2324   -6.6554    8.4125 N   0  0  0  0  0  0  0  0  0  0  0  0
  -10.9868   -5.8685    8.6946 O   0  0  0  0  0  0  0  0  0  0  0  0
  -13.3382   -5.9558    9.1458 O   0  0  0  0  0  0  0  0  0  0  0  0
   -9.8790   -8.5071    8.5945 N   0  0  0  0  0  0  0  0  0  0  0  0
  -10.1137   -8.6280   10.0711 H   0  0  0  0  0  0  0  0  0  0  0  0
   -8.5321   -8.0930    8.0805 C   0  0  0  0  0  0  0  0  0  0  0  0
   -8.3127   -7.9183    6.6070 C   0  0  0  0  0  0  0  0  0  0  0  0
   -6.9658   -7.5043    6.0931 C   0  0  0  0  0  0  0  0  0  0  0  0
   -5.8380   -7.2648    7.0527 C   0  0  0  0  0  0  0  0  0  0  0  0
   -6.0573   -7.4394    8.5263 C   0  0  0  0  0  0  0  0  0  0  0  0
   -7.4043   -7.8535    9.0402 C   0  0  0  0  0  0  0  0  0  0  0  0
   -4.4911   -6.8507    6.5388 S   0  0  0  0  0  0  0  0  0  0  0  0
   -3.1440   -6.4366    6.0248 C   0  0  0  0  0  0  0  0  0  0  0  0
   -3.8786   -8.0704    7.1611 O   0  0  0  0  0  0  0  0  0  0  0  0
   -5.1034   -5.6310    5.9165 O   0  0  0  0  0  0  0  0  0  0  0  0
  -14.4570   -7.2417    6.4872 O   0  0  0  0  0  0  0  0  0  0  0  0
  -15.6701   -7.6619    6.8862 C   0  0  0  0  0  0  0  0  0  0  0  0
  -15.1765   -7.4861    8.2917 O   0  0  0  0  0  0  0  0  0  0  0  0
  -16.9684   -8.1147    6.2868 N   0  0  0  0  0  0  0  0  0  0  0  0
  -17.2725   -8.2248    4.8220 C   0  0  0  0  0  0  0  0  0  0  0  0
  -18.6826   -8.7151    4.6768 C   0  0  0  0  0  0  0  0  0  0  0  0
  -19.2502   -8.9080    6.0518 C   0  0  0  0  0  0  0  0  0  0  0  0
  -18.1908   -8.5369    7.0468 C   0  0  0  0  0  0  0  0  0  0  0  0
  -16.9572   -8.1061    7.8031 C   0  0  0  0  0  0  0  0  0  0  0  0
  -15.8165   -7.7126    6.9119 C   0  0  0  0  0  0  0  0  0  0  0  0
  -15.9741   -7.7720    5.4214 C   0  0  0  0  0  0  0  0  0  0  0  0
  -14.5295   -7.2684    5.9951 O   0  0  0  0  0  0  0  0  0  0  0  0
  -14.3150   -6.7851    3.9407 C   0  0  0  0  0  0  0  0  0  0  0  0
  -14.6086   -6.0062    5.1886 C   0  0  0  0  0  0  0  0  0  0  0  0
  -14.9022   -5.2273    6.4364 C   0  0  0  0  0  0  0  0  0  0  0  0
  -14.6878   -4.7440    4.3820 C   0  0  0  0  0  0  0  0  0  0  0  0
 34 35  1  0  0  0
 35 36  1  0  0  0
 35 37  1  0  0  0
 35 33  1  0  0  0
 33 23  1  0  0  0
 23 24  2  0  0  0
 23 25  1  0  0  0
 25 26  1  0  0  0
 26 27  1  0  0  0
 27 28  1  0  0  0
 28 29  1  0  0  0
 29 30  1  0  0  0
 30 31  1  0  0  0
 31 22  1  0  0  0
 22  1  1  0  0  0
  1  2  2  0  0  0
  2  3  1  0  0  0
  3  4  2  0  0  0
  4  5  1  0  0  0
  5 10  1  0  0  0
 10 12  1  0  0  0
 12 13  2  0  0  0
 13 14  1  0  0  0
 14 15  2  0  0  0
 15 18  1  0  0  0
 18 19  1  0  0  0
 18 20  2  0  0  0
 18 21  2  0  0  0
 15 16  1  0  0  0
 16 17  2  0  0  0
  5  6  2  0  0  0
  6  7  1  0  0  0
  7  8  2  0  0  0
  7  9  1  0  0  0
 31 32  1  0  0  0
 29 25  1  0  0  0
  6  1  1  0  0  0
 32 26  1  0  0  0
 17 12  1  0  0  0
 10 11  1  0  0  0
M  CHG 1   7   1
M  CHG 1   9  -1
M  END
> <minimizedAffinity>
-4.00600

> <CNNscore>
0.0777268261

> <CNNaffinity>
6.5047125816

> <CNN_VS>
0.5055906773

> <CNNaffinity_variance>
0.0621530600

$$$$
[H]c1nc(OC2([H])C([H])([H])[C@@]3([H])N(C(=O)OC(C([H])([H])[H])(C([H])([H])[H])C([H])([H])[H])[C@]([H])(C2([H])[H])C([H])([H])C3([H])[H])c([N+](=O)[O-])c(N([H])c2c([H])c([H])c(S(=O)(=O)C([H])([H])[H])c([H])c2[H])n1


 37 40  0  0  0  0  0  0  0  0999 V2000
  -11.2390   -8.5177    7.6523 C   0  0  0  0  0  0  0  0  0  0  0  0
  -11.5711   -9.9768    7.5484 N   0  0  0  0  0  0  0  0  0  0  0  0
  -10.5194  -10.9566    7.1196 C   0  0  0  0  0  0  0  0  0  0  0  0
   -9.1356  -10.4773    6.7947 N   0  0  0  0  0  0  0  0  0  0  0  0
   -8.8036   -9.0182    6.8986 C   0  0  0  0  0  0  0  0  0  0  0  0
   -9.8552   -8.0384    7.3273 C   0  0  0  0  0  0  0  0  0  0  0  0
   -9.5232   -6.5794    7.4312 N   0  0  0  0  0  0  0  0  0  0  0  0
   -9.0225   -5.8366    6.2280 O   0  0  0  0  0  0  0  0  0  0  0  0
   -9.5705   -5.5766    8.5459 O   0  0  0  0  0  0  0  0  0  0  0  0
   -7.4198   -8.5390    6.5736 N   0  0  0  0  0  0  0  0  0  0  0  0
   -6.7835   -8.9139    5.2680 H   0  0  0  0  0  0  0  0  0  0  0  0
   -6.6724   -7.6849    7.5544 C   0  0  0  0  0  0  0  0  0  0  0  0
   -5.7207   -6.6351    7.0621 C   0  0  0  0  0  0  0  0  0  0  0  0
   -4.9734   -5.7811    8.0429 C   0  0  0  0  0  0  0  0  0  0  0  0
   -5.1776   -5.9768    9.5160 C   0  0  0  0  0  0  0  0  0  0  0  0
   -6.1293   -7.0266   10.0083 C   0  0  0  0  0  0  0  0  0  0  0  0
   -6.8766   -7.8806    9.0275 C   0  0  0  0  0  0  0  0  0  0  0  0
   -4.4303   -5.1227   10.4968 S   0  0  0  0  0  0  0  0  0  0  0  0
   -3.6829   -4.2686   11.4777 C   0  0  0  0  0  0  0  0  0  0  0  0
   -3.5702   -4.5987    9.3852 O   0  0  0  0  0  0  0  0  0  0  0  0
   -5.2903   -5.6467   11.6085 O   0  0  0  0  0  0  0  0  0  0  0  0
  -12.2906   -7.5378    8.0811 O   0  0  0  0  0  0  0  0  0  0  0  0
  -13.3328   -7.2828    7.2711 C   0  0  0  0  0  0  0  0  0  0  0  0
  -12.3437   -6.6548    6.3344 O   0  0  0  0  0  0  0  0  0  0  0  0
  -14.8181   -7.4890    7.2331 N   0  0  0  0  0  0  0  0  0  0  0  0
  -15.6431   -8.1554    8.2938 C   0  0  0  0  0  0  0  0  0  0  0  0
  -17.0741   -8.1433    7.8440 C   0  0  0  0  0  0  0  0  0  0  0  0
  -17.1334   -7.4693    6.5053 C   0  0  0  0  0  0  0  0  0  0  0  0
  -15.7391   -7.0650    6.1277 C   0  0  0  0  0  0  0  0  0  0  0  0
  -14.2606   -6.7819    6.0130 C   0  0  0  0  0  0  0  0  0  0  0  0
  -13.4666   -7.2625    7.1914 C   0  0  0  0  0  0  0  0  0  0  0  0
  -14.1579   -7.9492    8.3318 C   0  0  0  0  0  0  0  0  0  0  0  0
  -12.5388   -7.7634    8.4494 O   0  0  0  0  0  0  0  0  0  0  0  0
  -12.3343   -5.7302    9.0190 C   0  0  0  0  0  0  0  0  0  0  0  0
  -12.5960   -7.0148    9.7480 C   0  0  0  0  0  0  0  0  0  0  0  0
  -12.8578   -8.2994   10.4770 C   0  0  0  0  0  0  0  0  0  0  0  0
  -12.6533   -6.2662   11.0466 C   0  0  0  0  0  0  0  0  0  0  0  0
 34 35  1  0  0  0
 35 36  1  0  0  0
 35 37  1  0  0  0
 35 33  1  0  0  0
 33 23  1  0  0  0
 23 24  2  0  0  0
 23 25  1  0  0  0
 25 26  1  0  0  0
 26 27  1  0  0  0
 27 28  1  0  0  0
 28 29  1  0  0  0
 29 30  1  0  0  0
 30 31  1  0  0  0
 31 22  1  0  0  0
 22  1  1  0  0  0
  1  2  2  0  0  0
  2  3  1  0  0  0
  3  4  2  0  0  0
  4  5  1  0  0  0
  5 10  1  0  0  0
 10 12  1  0  0  0
 12 13  2  0  0  0
 13 14  1  0  0  0
 14 15  2  0  0  0
 15 18  1  0  0  0
 18 19  1  0  0  0
 18 20  2  0  0  0
 18 21  2  0  0  0
 15 16  1  0  0  0
 16 17  2  0  0  0
  5  6  2  0  0  0
  6  7  1  0  0  0
  7  8  2  0  0  0
  7  9  1  0  0  0
 31 32  1  0  0  0
 29 25  1  0  0  0
  6  1  1  0  0  0
 32 26  1  0  0  0
 17 12  1  0  0  0
 10 11  1  0  0  0
M  CHG 1   7   1
M  CHG 1   9  -1
M  END
> <minimizedAffinity>
-3.47010

> <CNNscore>
0.0669537038

> <CNNaffinity>
6.3655328751

> <CNN_VS>
0.4261960089

> <CNNaffinity_variance>
0.0535223298

$$$$
[H]c1nc(OC2([H])C([H])([H])[C@@]3([H])N(C(=O)OC(C([H])([H])[H])(C([H])([H])[H])C([H])([H])[H])[C@]([H])(C2([H])[H])C([H])([H])C3([H])[H])c([N+](=O)[O-])c(N([H])c2c([H])c([H])c(S(=O)(=O)C([H])([H])[H])c([H])c2[H])n1


 37 40  0  0  0  0  0  0  0  0999 V2000
   -4.3833   -6.0113    9.2300 C   0  0  0  0  0  0  0  0  0  0  0  0
   -5.0355   -5.8560   10.5718 N   0  0  0  0  0  0  0  0  0  0  0  0
   -6.4066   -6.4163   10.8087 C   0  0  0  0  0  0  0  0  0  0  0  0
   -7.1255   -7.1320    9.7037 N   0  0  0  0  0  0  0  0  0  0  0  0
   -6.4733   -7.2874    8.3619 C   0  0  0  0  0  0  0  0  0  0  0  0
   -5.1023   -6.7270    8.1251 C   0  0  0  0  0  0  0  0  0  0  0  0
   -4.4500   -6.8824    6.7832 N   0  0  0  0  0  0  0  0  0  0  0  0
   -4.8137   -5.9561    5.6608 O   0  0  0  0  0  0  0  0  0  0  0  0
   -3.4241   -7.8242    6.2260 O   0  0  0  0  0  0  0  0  0  0  0  0
   -7.1923   -8.0031    7.2569 N   0  0  0  0  0  0  0  0  0  0  0  0
   -6.4348   -8.4735    6.0507 H   0  0  0  0  0  0  0  0  0  0  0  0
   -8.6686   -8.2483    7.3583 C   0  0  0  0  0  0  0  0  0  0  0  0
   -9.5940   -7.1208    7.7078 C   0  0  0  0  0  0  0  0  0  0  0  0
  -11.0703   -7.3661    7.8091 C   0  0  0  0  0  0  0  0  0  0  0  0
  -11.6212   -8.7391    7.5610 C   0  0  0  0  0  0  0  0  0  0  0  0
  -10.6958   -9.8667    7.2115 C   0  0  0  0  0  0  0  0  0  0  0  0
   -9.2195   -9.6213    7.1101 C   0  0  0  0  0  0  0  0  0  0  0  0
  -13.0975   -8.9845    7.6623 S   0  0  0  0  0  0  0  0  0  0  0  0
  -14.5739   -9.2298    7.7637 C   0  0  0  0  0  0  0  0  0  0  0  0
  -13.0104   -9.9737    6.5381 O   0  0  0  0  0  0  0  0  0  0  0  0
  -13.1848   -7.9952    8.7866 O   0  0  0  0  0  0  0  0  0  0  0  0
   -3.0122   -5.4510    8.9931 O   0  0  0  0  0  0  0  0  0  0  0  0
   -2.8609   -4.2688    8.3712 C   0  0  0  0  0  0  0  0  0  0  0  0
   -2.2827   -5.0416    7.2229 O   0  0  0  0  0  0  0  0  0  0  0  0
   -3.1179   -2.8126    8.6229 N   0  0  0  0  0  0  0  0  0  0  0  0
   -3.7185   -2.2252    9.8656 C   0  0  0  0  0  0  0  0  0  0  0  0
   -3.7912   -0.7377    9.6869 C   0  0  0  0  0  0  0  0  0  0  0  0
   -3.2354   -0.4057    8.3338 C   0  0  0  0  0  0  0  0  0  0  0  0
   -2.8193   -1.6881    7.6762 C   0  0  0  0  0  0  0  0  0  0  0  0
   -2.4990   -3.1064    7.2701 C   0  0  0  0  0  0  0  0  0  0  0  0
   -2.8518   -4.1221    8.3161 C   0  0  0  0  0  0  0  0  0  0  0  0
   -3.4616   -3.6814    9.6138 C   0  0  0  0  0  0  0  0  0  0  0  0
   -3.2137   -5.2844    9.4171 O   0  0  0  0  0  0  0  0  0  0  0  0
   -1.7560   -6.7999    9.1368 C   0  0  0  0  0  0  0  0  0  0  0  0
   -2.1369   -5.8906   10.2674 C   0  0  0  0  0  0  0  0  0  0  0  0
   -2.5177   -4.9813   11.3979 C   0  0  0  0  0  0  0  0  0  0  0  0
   -1.0600   -6.4967   11.1177 C   0  0  0  0  0  0  0  0  0  0  0  0
 34 35  1  0  0  0
 35 36  1  0  0  0
 35 37  1  0  0  0
 35 33  1  0  0  0
 33 23  1  0  0  0
 23 24  2  0  0  0
 23 25  1  0  0  0
 25 26  1  0  0  0
 26 27  1  0  0  0
 27 28  1  0  0  0
 28 29  1  0  0  0
 29 30  1  0  0  0
 30 31  1  0  0  0
 31 22  1  0  0  0
 22  1  1  0  0  0
  1  2  2  0  0  0
  2  3  1  0  0  0
  3  4  2  0  0  0
  4  5  1  0  0  0
  5 10  1  0  0  0
 10 12  1  0  0  0
 12 13  2  0  0  0
 13 14  1  0  0  0
 14 15  2  0  0  0
 15 18  1  0  0  0
 18 19  1  0  0  0
 18 20  2  0  0  0
 18 21  2  0  0  0
 15 16  1  0  0  0
 16 17  2  0  0  0
  5  6  2  0  0  0
  6  7  1  0  0  0
  7  8  2  0  0  0
  7  9  1  0  0  0
 31 32  1  0  0  0
 29 25  1  0  0  0
  6  1  1  0  0  0
 32 26  1  0  0  0
 17 12  1  0  0  0
 10 11  1  0  0  0
M  CHG 1   7   1
M  CHG 1   9  -1
M  END
> <minimizedAffinity>
-4.29677

> <CNNscore>
0.0618485622

> <CNNaffinity>
5.8193678856

> <CNN_VS>
0.3599195480

> <CNNaffinity_variance>
0.1544491649

$$$$
[H]c1nc(OC2([H])C([H])([H])[C@@]3([H])N(C(=O)OC(C([H])([H])[H])(C([H])([H])[H])C([H])([H])[H])[C@]([H])(C2([H])[H])C([H])([H])C3([H])[H])c([N+](=O)[O-])c(N([H])c2c([H])c([H])c(S(=O)(=O)C([H])([H])[H])c([H])c2[H])n1


 37 40  0  0  0  0  0  0  0  0999 V2000
   -8.8901   -8.3613    7.3293 C   0  0  0  0  0  0  0  0  0  0  0  0
   -8.9620   -9.8050    6.9287 N   0  0  0  0  0  0  0  0  0  0  0  0
  -10.2535  -10.5564    7.0605 C   0  0  0  0  0  0  0  0  0  0  0  0
  -11.4731   -9.8642    7.5929 N   0  0  0  0  0  0  0  0  0  0  0  0
  -11.4011   -8.4205    7.9935 C   0  0  0  0  0  0  0  0  0  0  0  0
  -10.1097   -7.6690    7.8617 C   0  0  0  0  0  0  0  0  0  0  0  0
  -10.0378   -6.2253    8.2624 N   0  0  0  0  0  0  0  0  0  0  0  0
  -10.7257   -5.7582    9.5108 O   0  0  0  0  0  0  0  0  0  0  0  0
   -9.3866   -5.0107    7.6702 O   0  0  0  0  0  0  0  0  0  0  0  0
  -12.6207   -7.7282    8.5260 N   0  0  0  0  0  0  0  0  0  0  0  0
  -12.6487   -7.2443    9.9455 H   0  0  0  0  0  0  0  0  0  0  0  0
  -13.8122   -7.5200    7.6389 C   0  0  0  0  0  0  0  0  0  0  0  0
  -13.6473   -6.8522    6.3059 C   0  0  0  0  0  0  0  0  0  0  0  0
  -14.8389   -6.6440    5.4188 C   0  0  0  0  0  0  0  0  0  0  0  0
  -16.1953   -7.1036    5.8648 C   0  0  0  0  0  0  0  0  0  0  0  0
  -16.3602   -7.7714    7.1978 C   0  0  0  0  0  0  0  0  0  0  0  0
  -15.1687   -7.9796    8.0848 C   0  0  0  0  0  0  0  0  0  0  0  0
  -17.3868   -6.8954    4.9777 S   0  0  0  0  0  0  0  0  0  0  0  0
  -18.5784   -6.6872    4.0906 C   0  0  0  0  0  0  0  0  0  0  0  0
  -17.5480   -8.3809    4.8455 O   0  0  0  0  0  0  0  0  0  0  0  0
  -17.2258   -5.4099    5.1099 O   0  0  0  0  0  0  0  0  0  0  0  0
   -7.5987   -7.6097    7.1975 O   0  0  0  0  0  0  0  0  0  0  0  0
   -6.8733   -7.3532    8.2999 C   0  0  0  0  0  0  0  0  0  0  0  0
   -7.6770   -8.4240    8.9763 O   0  0  0  0  0  0  0  0  0  0  0  0
   -5.7641   -6.4460    8.7432 N   0  0  0  0  0  0  0  0  0  0  0  0
   -5.0748   -5.4172    7.8967 C   0  0  0  0  0  0  0  0  0  0  0  0
   -4.0341   -4.7436    8.7413 C   0  0  0  0  0  0  0  0  0  0  0  0
   -4.0801   -5.3561   10.1097 C   0  0  0  0  0  0  0  0  0  0  0  0
   -5.1493   -6.4082   10.1109 C   0  0  0  0  0  0  0  0  0  0  0  0
   -6.2638   -7.3853    9.8237 C   0  0  0  0  0  0  0  0  0  0  0  0
   -6.7785   -7.3084    8.4168 C   0  0  0  0  0  0  0  0  0  0  0  0
   -6.1840   -6.3244    7.4534 C   0  0  0  0  0  0  0  0  0  0  0  0
   -7.3880   -7.2764    6.8931 O   0  0  0  0  0  0  0  0  0  0  0  0
   -6.2495   -9.0592    6.7340 C   0  0  0  0  0  0  0  0  0  0  0  0
   -6.6500   -7.9683    5.7856 C   0  0  0  0  0  0  0  0  0  0  0  0
   -7.0505   -6.8774    4.8372 C   0  0  0  0  0  0  0  0  0  0  0  0
   -5.9120   -8.6602    4.6781 C   0  0  0  0  0  0  0  0  0  0  0  0
 34 35  1  0  0  0
 35 36  1  0  0  0
 35 37  1  0  0  0
 35 33  1  0  0  0
 33 23  1  0  0  0
 23 24  2  0  0  0
 23 25  1  0  0  0
 25 26  1  0  0  0
 26 27  1  0  0  0
 27 28  1  0  0  0
 28 29  1  0  0  0
 29 30  1  0  0  0
 30 31  1  0  0  0
 31 22  1  0  0  0
 22  1  1  0  0  0
  1  2  2  0  0  0
  2  3  1  0  0  0
  3  4  2  0  0  0
  4  5  1  0  0  0
  5 10  1  0  0  0
 10 12  1  0  0  0
 12 13  2  0  0  0
 13 14  1  0  0  0
 14 15  2  0  0  0
 15 18  1  0  0  0
 18 19  1  0  0  0
 18 20  2  0  0  0
 18 21  2  0  0  0
 15 16  1  0  0  0
 16 17  2  0  0  0
  5  6  2  0  0  0
  6  7  1  0  0  0
  7  8  2  0  0  0
  7  9  1  0  0  0
 31 32  1  0  0  0
 29 25  1  0  0  0
  6  1  1  0  0  0
 32 26  1  0  0  0
 17 12  1  0  0  0
 10 11  1  0  0  0
M  CHG 1   7   1
M  CHG 1   9  -1
M  END
> <minimizedAffinity>
-5.14447

> <CNNscore>
0.0522734076

> <CNNaffinity>
6.5330533981

> <CNN_VS>
0.3415049613

> <CNNaffinity_variance>
0.1016756445

$$$$
[H]c1nc(OC2([H])C([H])([H])[C@@]3([H])N(C(=O)OC(C([H])([H])[H])(C([H])([H])[H])C([H])([H])[H])[C@]([H])(C2([H])[H])C([H])([H])C3([H])[H])c([N+](=O)[O-])c(N([H])c2c([H])c([H])c(S(=O)(=O)C([H])([H])[H])c([H])c2[H])n1


 37 40  0  0  0  0  0  0  0  0999 V2000
  -12.8672   -7.5300    7.7694 C   0  0  0  0  0  0  0  0  0  0  0  0
  -12.8414   -6.3978    8.7530 N   0  0  0  0  0  0  0  0  0  0  0  0
  -11.5506   -6.0007    9.4057 C   0  0  0  0  0  0  0  0  0  0  0  0
  -10.2855   -6.7358    9.0748 N   0  0  0  0  0  0  0  0  0  0  0  0
  -10.3114   -7.8680    8.0912 C   0  0  0  0  0  0  0  0  0  0  0  0
  -11.6022   -8.2651    7.4385 C   0  0  0  0  0  0  0  0  0  0  0  0
  -11.6280   -9.3973    6.4549 N   0  0  0  0  0  0  0  0  0  0  0  0
  -10.6108  -10.4957    6.5487 O   0  0  0  0  0  0  0  0  0  0  0  0
  -12.5015   -9.7417    5.2851 O   0  0  0  0  0  0  0  0  0  0  0  0
   -9.0464   -8.6030    7.7603 N   0  0  0  0  0  0  0  0  0  0  0  0
   -9.0490  -10.1007    7.6776 H   0  0  0  0  0  0  0  0  0  0  0  0
   -7.7788   -7.8403    7.5122 C   0  0  0  0  0  0  0  0  0  0  0  0
   -7.4787   -7.3097    6.1416 C   0  0  0  0  0  0  0  0  0  0  0  0
   -6.2112   -6.5470    5.8936 C   0  0  0  0  0  0  0  0  0  0  0  0
   -5.2437   -6.3149    7.0161 C   0  0  0  0  0  0  0  0  0  0  0  0
   -5.5438   -6.8454    8.3867 C   0  0  0  0  0  0  0  0  0  0  0  0
   -6.8113   -7.6081    8.6347 C   0  0  0  0  0  0  0  0  0  0  0  0
   -3.9761   -5.5522    6.7681 S   0  0  0  0  0  0  0  0  0  0  0  0
   -2.7085   -4.7894    6.5200 C   0  0  0  0  0  0  0  0  0  0  0  0
   -3.4868   -5.9198    8.1376 O   0  0  0  0  0  0  0  0  0  0  0  0
   -4.4653   -5.1845    5.3986 O   0  0  0  0  0  0  0  0  0  0  0  0
  -14.1580   -7.9272    7.1166 O   0  0  0  0  0  0  0  0  0  0  0  0
  -14.7288   -7.0938    6.2295 C   0  0  0  0  0  0  0  0  0  0  0  0
  -13.9155   -6.0016    6.8585 O   0  0  0  0  0  0  0  0  0  0  0  0
  -15.7200   -7.1389    5.1046 N   0  0  0  0  0  0  0  0  0  0  0  0
  -16.4429   -8.3585    4.6148 C   0  0  0  0  0  0  0  0  0  0  0  0
  -17.3321   -7.9457    3.4794 C   0  0  0  0  0  0  0  0  0  0  0  0
  -17.1587   -6.4709    3.2676 C   0  0  0  0  0  0  0  0  0  0  0  0
  -16.1624   -5.9723    4.2720 C   0  0  0  0  0  0  0  0  0  0  0  0
  -15.1514   -5.7590    5.3727 C   0  0  0  0  0  0  0  0  0  0  0  0
  -14.8059   -7.0137    6.1187 C   0  0  0  0  0  0  0  0  0  0  0  0
  -15.4517   -8.3135    5.7397 C   0  0  0  0  0  0  0  0  0  0  0  0
  -14.3833   -8.3485    6.9754 O   0  0  0  0  0  0  0  0  0  0  0  0
  -14.2930   -9.9434    8.3711 C   0  0  0  0  0  0  0  0  0  0  0  0
  -15.1390   -8.7142    8.2185 C   0  0  0  0  0  0  0  0  0  0  0  0
  -15.9850   -7.4850    8.0658 C   0  0  0  0  0  0  0  0  0  0  0  0
  -15.8947   -9.0800    9.4615 C   0  0  0  0  0  0  0  0  0  0  0  0
 34 35  1  0  0  0
 35 36  1  0  0  0
 35 37  1  0  0  0
 35 33  1  0  0  0
 33 23  1  0  0  0
 23 24  2  0  0  0
 23 25  1  0  0  0
 25 26  1  0  0  0
 26 27  1  0  0  0
 27 28  1  0  0  0
 28 29  1  0  0  0
 29 30  1  0  0  0
 30 31  1  0  0  0
 31 22  1  0  0  0
 22  1  1  0  0  0
  1  2  2  0  0  0
  2  3  1  0  0  0
  3  4  2  0  0  0
  4  5  1  0  0  0
  5 10  1  0  0  0
 10 12  1  0  0  0
 12 13  2  0  0  0
 13 14  1  0  0  0
 14 15  2  0  0  0
 15 18  1  0  0  0
 18 19  1  0  0  0
 18 20  2  0  0  0
 18 21  2  0  0  0
 15 16  1  0  0  0
 16 17  2  0  0  0
  5  6  2  0  0  0
  6  7  1  0  0  0
  7  8  2  0  0  0
  7  9  1  0  0  0
 31 32  1  0  0  0
 29 25  1  0  0  0
  6  1  1  0  0  0
 32 26  1  0  0  0
 17 12  1  0  0  0
 10 11  1  0  0  0
M  CHG 1   7   1
M  CHG 1   9  -1
M  END
> <minimizedAffinity>
-7.13860

> <CNNscore>
0.0519126654

> <CNNaffinity>
6.4903578758

> <CNN_VS>
0.3369317651

> <CNNaffinity_variance>
0.2591904104

$$$$
[H]c1c([H])c(N([H])c2nc(N3C([H])([H])C([H])([H])C([H])([H])C3([H])[H])c3c([H])c([H])c([H])c([H])c3n2)c([H])c([H])c1OC([H])([H])[H]


 25 28  0  0  0  0  0  0  0  0999 V2000
  -13.2995   -8.4646    7.0805 C   0  0  0  0  0  0  0  0  0  0  0  0
  -11.9840   -8.6407    6.9316 N   0  0  0  0  0  0  0  0  0  0  0  0
  -11.0537   -8.0498    7.7092 C   0  0  0  0  0  0  0  0  0  0  0  0
  -11.4891   -7.2160    8.7137 C   0  0  0  0  0  0  0  0  0  0  0  0
  -10.6089   -6.5692    9.5403 C   0  0  0  0  0  0  0  0  0  0  0  0
  -11.1128   -5.7380   10.5260 C   0  0  0  0  0  0  0  0  0  0  0  0
  -12.4552   -5.5363   10.7078 C   0  0  0  0  0  0  0  0  0  0  0  0
  -13.3476   -6.1735    9.8907 C   0  0  0  0  0  0  0  0  0  0  0  0
  -12.8617   -7.0149    8.8911 C   0  0  0  0  0  0  0  0  0  0  0  0
  -13.6911   -7.6536    8.0609 N   0  0  0  0  0  0  0  0  0  0  0  0
   -9.6705   -8.3272    7.4923 N   0  0  0  0  0  0  0  0  0  0  0  0
   -8.6280   -7.3852    7.2383 C   0  0  0  0  0  0  0  0  0  0  0  0
   -7.3264   -8.0852    7.6363 C   0  0  0  0  0  0  0  0  0  0  0  0
   -7.7881   -9.3558    8.2676 C   0  0  0  0  0  0  0  0  0  0  0  0
   -9.0853   -9.6468    7.5028 C   0  0  0  0  0  0  0  0  0  0  0  0
  -14.1989   -9.1117    6.2074 N   0  0  0  0  0  0  0  0  0  0  0  0
  -14.0280  -10.1550    6.0781 H   0  0  0  0  0  0  0  0  0  0  0  0
  -17.5671   -7.3374    4.3024 C   0  0  0  0  0  0  0  0  0  0  0  0
  -16.7904   -8.2460    3.6298 C   0  0  0  0  0  0  0  0  0  0  0  0
  -15.6652   -8.8492    4.2165 C   0  0  0  0  0  0  0  0  0  0  0  0
  -15.2846   -8.5583    5.5006 C   0  0  0  0  0  0  0  0  0  0  0  0
  -16.0924   -7.6255    6.1722 C   0  0  0  0  0  0  0  0  0  0  0  0
  -17.1916   -7.0396    5.5909 C   0  0  0  0  0  0  0  0  0  0  0  0
  -19.0454   -5.4239    4.0328 C   0  0  0  0  0  0  0  0  0  0  0  0
  -18.6746   -6.7504    3.7104 O   0  0  0  0  0  0  0  0  0  0  0  0
 24 25  1  0  0  0
 25 18  1  0  0  0
 18 19  2  0  0  0
 19 20  1  0  0  0
 20 21  2  0  0  0
 21 16  1  0  0  0
 16  1  1  0  0  0
  1  2  2  0  0  0
  2  3  1  0  0  0
  3 11  1  0  0  0
 11 12  1  0  0  0
 12 13  1  0  0  0
 13 14  1  0  0  0
 14 15  1  0  0  0
  3  4  2  0  0  0
  4  5  1  0  0  0
  5  6  2  0  0  0
  6  7  1  0  0  0
  7  8  2  0  0  0
  8  9  1  0  0  0
  9 10  2  0  0  0
 21 22  1  0  0  0
 22 23  2  0  0  0
 23 18  1  0  0  0
 10  1  1  0  0  0
 15 11  1  0  0  0
  9  4  1  0  0  0
 16 17  1  0  0  0
M  END
> <minimizedAffinity>
-8.88372

> <CNNscore>
0.4602801800

> <CNNaffinity>
6.8453917503

> <CNN_VS>
3.1507980824

> <CNNaffinity_variance>
0.1686556786

$$$$
[H]c1c([H])c(N([H])c2nc(N3C([H])([H])C([H])([H])C([H])([H])C3([H])[H])c3c([H])c([H])c([H])c([H])c3n2)c([H])c([H])c1OC([H])([H])[H]


 25 28  0  0  0  0  0  0  0  0999 V2000
  -12.9946   -9.1909    6.6765 C   0  0  0  0  0  0  0  0  0  0  0  0
  -13.0387   -8.1536    7.5167 N   0  0  0  0  0  0  0  0  0  0  0  0
  -11.9634   -7.6715    8.1729 C   0  0  0  0  0  0  0  0  0  0  0  0
  -10.7509   -8.2877    7.9626 C   0  0  0  0  0  0  0  0  0  0  0  0
   -9.6131   -7.8664    8.5984 C   0  0  0  0  0  0  0  0  0  0  0  0
   -8.4271   -8.5353    8.3484 C   0  0  0  0  0  0  0  0  0  0  0  0
   -8.3457   -9.6009    7.4919 C   0  0  0  0  0  0  0  0  0  0  0  0
   -9.4725  -10.0350    6.8497 C   0  0  0  0  0  0  0  0  0  0  0  0
  -10.6776   -9.3759    7.0872 C   0  0  0  0  0  0  0  0  0  0  0  0
  -11.8084   -9.7662    6.4921 N   0  0  0  0  0  0  0  0  0  0  0  0
  -12.1055   -6.5358    9.0257 N   0  0  0  0  0  0  0  0  0  0  0  0
  -13.3121   -5.8488    9.3588 C   0  0  0  0  0  0  0  0  0  0  0  0
  -13.0289   -5.1220   10.6757 C   0  0  0  0  0  0  0  0  0  0  0  0
  -11.6814   -5.6244   11.0731 C   0  0  0  0  0  0  0  0  0  0  0  0
  -11.0174   -5.8845    9.7153 C   0  0  0  0  0  0  0  0  0  0  0  0
  -14.1759   -9.6368    6.0474 N   0  0  0  0  0  0  0  0  0  0  0  0
  -14.3208  -10.6919    6.0592 H   0  0  0  0  0  0  0  0  0  0  0  0
  -17.3162   -7.2864    4.3932 C   0  0  0  0  0  0  0  0  0  0  0  0
  -16.4645   -7.9804    3.5720 C   0  0  0  0  0  0  0  0  0  0  0  0
  -15.4097   -8.7610    4.0744 C   0  0  0  0  0  0  0  0  0  0  0  0
  -15.1776   -8.8698    5.4207 C   0  0  0  0  0  0  0  0  0  0  0  0
  -16.0601   -8.1516    6.2447 C   0  0  0  0  0  0  0  0  0  0  0  0
  -17.0896   -7.3897    5.7452 C   0  0  0  0  0  0  0  0  0  0  0  0
  -18.5097   -5.1697    4.2732 C   0  0  0  0  0  0  0  0  0  0  0  0
  -18.3526   -6.5203    3.8829 O   0  0  0  0  0  0  0  0  0  0  0  0
 24 25  1  0  0  0
 25 18  1  0  0  0
 18 19  2  0  0  0
 19 20  1  0  0  0
 20 21  2  0  0  0
 21 16  1  0  0  0
 16  1  1  0  0  0
  1  2  2  0  0  0
  2  3  1  0  0  0
  3 11  1  0  0  0
 11 12  1  0  0  0
 12 13  1  0  0  0
 13 14  1  0  0  0
 14 15  1  0  0  0
  3  4  2  0  0  0
  4  5  1  0  0  0
  5  6  2  0  0  0
  6  7  1  0  0  0
  7  8  2  0  0  0
  8  9  1  0  0  0
  9 10  2  0  0  0
 21 22  1  0  0  0
 22 23  2  0  0  0
 23 18  1  0  0  0
 10  1  1  0  0  0
 15 11  1  0  0  0
  9  4  1  0  0  0
 16 17  1  0  0  0
M  END
> <minimizedAffinity>
-8.74931

> <CNNscore>
0.4162636995

> <CNNaffinity>
6.7014017105

> <CNN_VS>
2.7895503044

> <CNNaffinity_variance>
0.0356149450

$$$$
[H]c1c([H])c(N([H])c2nc(N3C([H])([H])C([H])([H])C([H])([H])C3([H])[H])c3c([H])c([H])c([H])c([H])c3n2)c([H])c([H])c1OC([H])([H])[H]


 25 28  0  0  0  0  0  0  0  0999 V2000
  -14.5770   -7.9463    6.5178 C   0  0  0  0  0  0  0  0  0  0  0  0
  -14.4209   -6.8171    5.8219 N   0  0  0  0  0  0  0  0  0  0  0  0
  -15.3473   -6.3211    4.9762 C   0  0  0  0  0  0  0  0  0  0  0  0
  -16.5210   -7.0232    4.8229 C   0  0  0  0  0  0  0  0  0  0  0  0
  -17.5077   -6.5934    3.9755 C   0  0  0  0  0  0  0  0  0  0  0  0
  -18.6609   -7.3509    3.8616 C   0  0  0  0  0  0  0  0  0  0  0  0
  -18.8546   -8.5122    4.5614 C   0  0  0  0  0  0  0  0  0  0  0  0
  -17.8790   -8.9560    5.4109 C   0  0  0  0  0  0  0  0  0  0  0  0
  -16.7095   -8.2087    5.5405 C   0  0  0  0  0  0  0  0  0  0  0  0
  -15.7226   -8.6033    6.3500 N   0  0  0  0  0  0  0  0  0  0  0  0
  -15.1013   -5.0875    4.3018 N   0  0  0  0  0  0  0  0  0  0  0  0
  -16.0649   -4.2228    3.6997 C   0  0  0  0  0  0  0  0  0  0  0  0
  -15.4050   -2.8433    3.6342 C   0  0  0  0  0  0  0  0  0  0  0  0
  -14.1342   -3.0239    4.3949 C   0  0  0  0  0  0  0  0  0  0  0  0
  -13.7973   -4.4950    4.1217 C   0  0  0  0  0  0  0  0  0  0  0  0
  -13.5447   -8.3974    7.3668 N   0  0  0  0  0  0  0  0  0  0  0  0
  -13.2468   -9.4085    7.2145 H   0  0  0  0  0  0  0  0  0  0  0  0
  -11.7224   -6.1756   10.5077 C   0  0  0  0  0  0  0  0  0  0  0  0
  -10.9737   -6.6152    9.4459 C   0  0  0  0  0  0  0  0  0  0  0  0
  -11.5318   -7.3587    8.3924 C   0  0  0  0  0  0  0  0  0  0  0  0
  -12.8630   -7.6839    8.3722 C   0  0  0  0  0  0  0  0  0  0  0  0
  -13.6125   -7.2251    9.4683 C   0  0  0  0  0  0  0  0  0  0  0  0
  -13.0586   -6.4984   10.4954 C   0  0  0  0  0  0  0  0  0  0  0  0
  -11.5433   -5.6729   12.8815 C   0  0  0  0  0  0  0  0  0  0  0  0
  -11.1577   -5.4428   11.5400 O   0  0  0  0  0  0  0  0  0  0  0  0
 24 25  1  0  0  0
 25 18  1  0  0  0
 18 19  2  0  0  0
 19 20  1  0  0  0
 20 21  2  0  0  0
 21 16  1  0  0  0
 16  1  1  0  0  0
  1  2  2  0  0  0
  2  3  1  0  0  0
  3 11  1  0  0  0
 11 12  1  0  0  0
 12 13  1  0  0  0
 13 14  1  0  0  0
 14 15  1  0  0  0
  3  4  2  0  0  0
  4  5  1  0  0  0
  5  6  2  0  0  0
  6  7  1  0  0  0
  7  8  2  0  0  0
  8  9  1  0  0  0
  9 10  2  0  0  0
 21 22  1  0  0  0
 22 23  2  0  0  0
 23 18  1  0  0  0
 10  1  1  0  0  0
 15 11  1  0  0  0
  9  4  1  0  0  0
 16 17  1  0  0  0
M  END
> <minimizedAffinity>
-3.00889

> <CNNscore>
0.4059975445

> <CNNaffinity>
6.6293044090

> <CNN_VS>
2.6914813519

> <CNNaffinity_variance>
0.5002540946

$$$$
[H]c1c([H])c(N([H])c2nc(N3C([H])([H])C([H])([H])C([H])([H])C3([H])[H])c3c([H])c([H])c([H])c([H])c3n2)c([H])c([H])c1OC([H])([H])[H]


 25 28  0  0  0  0  0  0  0  0999 V2000
  -14.7566   -6.1557    6.4036 C   0  0  0  0  0  0  0  0  0  0  0  0
  -14.6950   -7.2666    5.6649 N   0  0  0  0  0  0  0  0  0  0  0  0
  -15.5559   -7.5547    4.6672 C   0  0  0  0  0  0  0  0  0  0  0  0
  -16.5562   -6.6487    4.3980 C   0  0  0  0  0  0  0  0  0  0  0  0
  -17.4774   -6.8711    3.4089 C   0  0  0  0  0  0  0  0  0  0  0  0
  -18.4631   -5.9228    3.1950 C   0  0  0  0  0  0  0  0  0  0  0  0
  -18.5545   -4.7722    3.9322 C   0  0  0  0  0  0  0  0  0  0  0  0
  -17.6435   -4.5352    4.9243 C   0  0  0  0  0  0  0  0  0  0  0  0
  -16.6426   -5.4771    5.1569 C   0  0  0  0  0  0  0  0  0  0  0  0
  -15.7339   -5.2974    6.1198 N   0  0  0  0  0  0  0  0  0  0  0  0
  -15.3876   -8.7539    3.9117 N   0  0  0  0  0  0  0  0  0  0  0  0
  -16.2774   -9.8688    3.8473 C   0  0  0  0  0  0  0  0  0  0  0  0
  -15.9512  -10.5883    2.5364 C   0  0  0  0  0  0  0  0  0  0  0  0
  -14.9784   -9.6768    1.8664 C   0  0  0  0  0  0  0  0  0  0  0  0
  -14.2575   -9.0364    3.0590 C   0  0  0  0  0  0  0  0  0  0  0  0
  -13.8217   -5.9472    7.4391 N   0  0  0  0  0  0  0  0  0  0  0  0
  -13.1444   -5.1412    7.2779 H   0  0  0  0  0  0  0  0  0  0  0  0
  -13.1759   -7.9478   11.1409 C   0  0  0  0  0  0  0  0  0  0  0  0
  -14.0827   -8.4397   10.2370 C   0  0  0  0  0  0  0  0  0  0  0  0
  -14.3337   -7.8072    9.0077 C   0  0  0  0  0  0  0  0  0  0  0  0
  -13.6794   -6.6583    8.6469 C   0  0  0  0  0  0  0  0  0  0  0  0
  -12.7554   -6.1703    9.5859 C   0  0  0  0  0  0  0  0  0  0  0  0
  -12.5159   -6.7951   10.7867 C   0  0  0  0  0  0  0  0  0  0  0  0
  -13.8125   -9.5930   12.8164 C   0  0  0  0  0  0  0  0  0  0  0  0
  -12.9388   -8.5830   12.3499 O   0  0  0  0  0  0  0  0  0  0  0  0
 24 25  1  0  0  0
 25 18  1  0  0  0
 18 19  2  0  0  0
 19 20  1  0  0  0
 20 21  2  0  0  0
 21 16  1  0  0  0
 16  1  1  0  0  0
  1  2  2  0  0  0
  2  3  1  0  0  0
  3 11  1  0  0  0
 11 12  1  0  0  0
 12 13  1  0  0  0
 13 14  1  0  0  0
 14 15  1  0  0  0
  3  4  2  0  0  0
  4  5  1  0  0  0
  5  6  2  0  0  0
  6  7  1  0  0  0
  7  8  2  0  0  0
  8  9  1  0  0  0
  9 10  2  0  0  0
 21 22  1  0  0  0
 22 23  2  0  0  0
 23 18  1  0  0  0
 10  1  1  0  0  0
 15 11  1  0  0  0
  9  4  1  0  0  0
 16 17  1  0  0  0
M  END
> <minimizedAffinity>
8.47440

> <CNNscore>
0.3856019378

> <CNNaffinity>
6.4856138229

> <CNN_VS>
2.5008652210

> <CNNaffinity_variance>
0.7547234297

$$$$
[H]c1c([H])c(N([H])c2nc(N3C([H])([H])C([H])([H])C([H])([H])C3([H])[H])c3c([H])c([H])c([H])c([H])c3n2)c([H])c([H])c1OC([H])([H])[H]


 25 28  0  0  0  0  0  0  0  0999 V2000
   -8.2820   -6.8106    9.2183 C   0  0  0  0  0  0  0  0  0  0  0  0
   -8.2675   -7.2096    7.9438 N   0  0  0  0  0  0  0  0  0  0  0  0
   -7.1525   -7.2677    7.1869 C   0  0  0  0  0  0  0  0  0  0  0  0
   -5.9614   -6.8921    7.7649 C   0  0  0  0  0  0  0  0  0  0  0  0
   -4.7859   -6.9119    7.0619 C   0  0  0  0  0  0  0  0  0  0  0  0
   -3.6240   -6.5139    7.7007 C   0  0  0  0  0  0  0  0  0  0  0  0
   -3.6025   -6.1010    9.0064 C   0  0  0  0  0  0  0  0  0  0  0  0
   -4.7674   -6.0742    9.7224 C   0  0  0  0  0  0  0  0  0  0  0  0
   -5.9492   -6.4706    9.0984 C   0  0  0  0  0  0  0  0  0  0  0  0
   -7.1151   -6.4543    9.7508 N   0  0  0  0  0  0  0  0  0  0  0  0
   -7.2338   -7.7400    5.8424 N   0  0  0  0  0  0  0  0  0  0  0  0
   -7.3100   -6.9549    4.6522 C   0  0  0  0  0  0  0  0  0  0  0  0
   -6.8180   -7.8618    3.5215 C   0  0  0  0  0  0  0  0  0  0  0  0
   -6.3254   -9.0770    4.2333 C   0  0  0  0  0  0  0  0  0  0  0  0
   -7.2452   -9.1317    5.4593 C   0  0  0  0  0  0  0  0  0  0  0  0
   -9.5007   -6.7658    9.9272 N   0  0  0  0  0  0  0  0  0  0  0  0
   -9.4031   -6.7077   10.9861 H   0  0  0  0  0  0  0  0  0  0  0  0
  -13.3684   -6.9183    8.1550 C   0  0  0  0  0  0  0  0  0  0  0  0
  -13.1655   -6.2146    9.3147 C   0  0  0  0  0  0  0  0  0  0  0  0
  -11.9083   -6.1447    9.9384 C   0  0  0  0  0  0  0  0  0  0  0  0
  -10.8130   -6.7805    9.4148 C   0  0  0  0  0  0  0  0  0  0  0  0
  -11.0414   -7.4959    8.2275 C   0  0  0  0  0  0  0  0  0  0  0  0
  -12.2747   -7.5596    7.6238 C   0  0  0  0  0  0  0  0  0  0  0  0
  -14.7297   -7.0616    6.1437 C   0  0  0  0  0  0  0  0  0  0  0  0
  -14.6147   -6.9781    7.5511 O   0  0  0  0  0  0  0  0  0  0  0  0
 24 25  1  0  0  0
 25 18  1  0  0  0
 18 19  2  0  0  0
 19 20  1  0  0  0
 20 21  2  0  0  0
 21 16  1  0  0  0
 16  1  1  0  0  0
  1  2  2  0  0  0
  2  3  1  0  0  0
  3 11  1  0  0  0
 11 12  1  0  0  0
 12 13  1  0  0  0
 13 14  1  0  0  0
 14 15  1  0  0  0
  3  4  2  0  0  0
  4  5  1  0  0  0
  5  6  2  0  0  0
  6  7  1  0  0  0
  7  8  2  0  0  0
  8  9  1  0  0  0
  9 10  2  0  0  0
 21 22  1  0  0  0
 22 23  2  0  0  0
 23 18  1  0  0  0
 10  1  1  0  0  0
 15 11  1  0  0  0
  9  4  1  0  0  0
 16 17  1  0  0  0
M  END
> <minimizedAffinity>
3.32640

> <CNNscore>
0.3584162295

> <CNNaffinity>
5.9318265915

> <CNN_VS>
2.1260628700

> <CNNaffinity_variance>
0.6149199605

$$$$
[H]c1c([H])c(N([H])c2nc(N3C([H])([H])C([H])([H])C([H])([H])C3([H])[H])c3c([H])c([H])c([H])c([H])c3n2)c([H])c([H])c1OC([H])([H])[H]


 25 28  0  0  0  0  0  0  0  0999 V2000
  -17.3403   -7.3153    4.6693 C   0  0  0  0  0  0  0  0  0  0  0  0
  -18.2254   -6.3736    5.0064 N   0  0  0  0  0  0  0  0  0  0  0  0
  -17.9613   -5.0510    4.9831 C   0  0  0  0  0  0  0  0  0  0  0  0
  -16.7046   -4.6519    4.5893 C   0  0  0  0  0  0  0  0  0  0  0  0
  -16.3526   -3.3287    4.5486 C   0  0  0  0  0  0  0  0  0  0  0  0
  -15.0692   -2.9955    4.1507 C   0  0  0  0  0  0  0  0  0  0  0  0
  -14.1376   -3.9349    3.7967 C   0  0  0  0  0  0  0  0  0  0  0  0
  -14.4722   -5.2605    3.8328 C   0  0  0  0  0  0  0  0  0  0  0  0
  -15.7592   -5.6183    4.2308 C   0  0  0  0  0  0  0  0  0  0  0  0
  -16.1334   -6.8995    4.2917 N   0  0  0  0  0  0  0  0  0  0  0  0
  -18.9852   -4.1190    5.3299 N   0  0  0  0  0  0  0  0  0  0  0  0
  -18.9263   -3.0999    6.3283 C   0  0  0  0  0  0  0  0  0  0  0  0
  -19.9827   -2.0656    5.9322 C   0  0  0  0  0  0  0  0  0  0  0  0
  -20.4465   -2.5306    4.5925 C   0  0  0  0  0  0  0  0  0  0  0  0
  -20.2828   -4.0516    4.7010 C   0  0  0  0  0  0  0  0  0  0  0  0
  -17.7011   -8.6772    4.7411 N   0  0  0  0  0  0  0  0  0  0  0  0
  -17.2263   -9.3064    4.0249 H   0  0  0  0  0  0  0  0  0  0  0  0
  -20.2319  -10.4958    7.6410 C   0  0  0  0  0  0  0  0  0  0  0  0
  -20.4523  -10.7020    6.3031 C   0  0  0  0  0  0  0  0  0  0  0  0
  -19.6477  -10.1149    5.3121 C   0  0  0  0  0  0  0  0  0  0  0  0
  -18.5935   -9.3008    5.6351 C   0  0  0  0  0  0  0  0  0  0  0  0
  -18.3846   -9.1018    7.0100 C   0  0  0  0  0  0  0  0  0  0  0  0
  -19.1767   -9.6798    7.9734 C   0  0  0  0  0  0  0  0  0  0  0  0
  -20.5041  -11.4227    9.8740 C   0  0  0  0  0  0  0  0  0  0  0  0
  -21.0343  -11.0821    8.6075 O   0  0  0  0  0  0  0  0  0  0  0  0
 24 25  1  0  0  0
 25 18  1  0  0  0
 18 19  2  0  0  0
 19 20  1  0  0  0
 20 21  2  0  0  0
 21 16  1  0  0  0
 16  1  1  0  0  0
  1  2  2  0  0  0
  2  3  1  0  0  0
  3 11  1  0  0  0
 11 12  1  0  0  0
 12 13  1  0  0  0
 13 14  1  0  0  0
 14 15  1  0  0  0
  3  4  2  0  0  0
  4  5  1  0  0  0
  5  6  2  0  0  0
  6  7  1  0  0  0
  7  8  2  0  0  0
  8  9  1  0  0  0
  9 10  2  0  0  0
 21 22  1  0  0  0
 22 23  2  0  0  0
 23 18  1  0  0  0
 10  1  1  0  0  0
 15 11  1  0  0  0
  9  4  1  0  0  0
 16 17  1  0  0  0
M  END
> <minimizedAffinity>
13.82263

> <CNNscore>
0.3532849252

> <CNNaffinity>
6.0513772964

> <CNN_VS>
2.1378602982

> <CNNaffinity_variance>
0.2991584837

$$$$
[H]c1c([H])c(N([H])c2nc(N3C([H])([H])C([H])([H])C([H])([H])C3([H])[H])c3c([H])c([H])c([H])c([H])c3n2)c([H])c([H])c1OC([H])([H])[H]


 25 28  0  0  0  0  0  0  0  0999 V2000
  -13.9808   -7.0494    8.7044 C   0  0  0  0  0  0  0  0  0  0  0  0
  -12.8186   -7.2911    8.0924 N   0  0  0  0  0  0  0  0  0  0  0  0
  -11.6132   -7.0240    8.6356 C   0  0  0  0  0  0  0  0  0  0  0  0
  -11.5827   -6.4686    9.8944 C   0  0  0  0  0  0  0  0  0  0  0  0
  -10.4004   -6.1572   10.5120 C   0  0  0  0  0  0  0  0  0  0  0  0
  -10.4404   -5.5931   11.7756 C   0  0  0  0  0  0  0  0  0  0  0  0
  -11.6138   -5.3336   12.4325 C   0  0  0  0  0  0  0  0  0  0  0  0
  -12.8032   -5.6373   11.8297 C   0  0  0  0  0  0  0  0  0  0  0  0
  -12.7860   -6.2058   10.5571 C   0  0  0  0  0  0  0  0  0  0  0  0
  -13.9202   -6.5128    9.9212 N   0  0  0  0  0  0  0  0  0  0  0  0
  -10.4247   -7.3496    7.9153 N   0  0  0  0  0  0  0  0  0  0  0  0
   -9.4618   -6.4423    7.3782 C   0  0  0  0  0  0  0  0  0  0  0  0
   -8.1690   -7.2473    7.2260 C   0  0  0  0  0  0  0  0  0  0  0  0
   -8.4860   -8.5506    7.8795 C   0  0  0  0  0  0  0  0  0  0  0  0
   -9.9894   -8.6920    7.6116 C   0  0  0  0  0  0  0  0  0  0  0  0
  -15.1949   -7.3463    8.0504 N   0  0  0  0  0  0  0  0  0  0  0  0
  -16.0721   -7.1651    8.6266 H   0  0  0  0  0  0  0  0  0  0  0  0
  -15.5153   -8.8532    4.0819 C   0  0  0  0  0  0  0  0  0  0  0  0
  -16.6134   -8.3275    4.7136 C   0  0  0  0  0  0  0  0  0  0  0  0
  -16.5551   -7.8273    6.0253 C   0  0  0  0  0  0  0  0  0  0  0  0
  -15.3887   -7.8390    6.7449 C   0  0  0  0  0  0  0  0  0  0  0  0
  -14.2760   -8.3816    6.0808 C   0  0  0  0  0  0  0  0  0  0  0  0
  -14.3415   -8.8692    4.7973 C   0  0  0  0  0  0  0  0  0  0  0  0
  -14.5124   -9.1609    1.8867 C   0  0  0  0  0  0  0  0  0  0  0  0
  -15.5881   -9.3429    2.7871 O   0  0  0  0  0  0  0  0  0  0  0  0
 24 25  1  0  0  0
 25 18  1  0  0  0
 18 19  2  0  0  0
 19 20  1  0  0  0
 20 21  2  0  0  0
 21 16  1  0  0  0
 16  1  1  0  0  0
  1  2  2  0  0  0
  2  3  1  0  0  0
  3 11  1  0  0  0
 11 12  1  0  0  0
 12 13  1  0  0  0
 13 14  1  0  0  0
 14 15  1  0  0  0
  3  4  2  0  0  0
  4  5  1  0  0  0
  5  6  2  0  0  0
  6  7  1  0  0  0
  7  8  2  0  0  0
  8  9  1  0  0  0
  9 10  2  0  0  0
 21 22  1  0  0  0
 22 23  2  0  0  0
 23 18  1  0  0  0
 10  1  1  0  0  0
 15 11  1  0  0  0
  9  4  1  0  0  0
 16 17  1  0  0  0
M  END
> <minimizedAffinity>
-1.15998

> <CNNscore>
0.3242991865

> <CNNaffinity>
6.2841978073

> <CNN_VS>
2.0379602909

> <CNNaffinity_variance>
0.2568274438

$$$$
[H]c1c([H])c(N([H])c2nc(N3C([H])([H])C([H])([H])C([H])([H])C3([H])[H])c3c([H])c([H])c([H])c([H])c3n2)c([H])c([H])c1OC([H])([H])[H]


 25 28  0  0  0  0  0  0  0  0999 V2000
  -10.3077   -8.0997    7.7170 C   0  0  0  0  0  0  0  0  0  0  0  0
  -11.4970   -8.2062    7.1186 N   0  0  0  0  0  0  0  0  0  0  0  0
  -12.6200   -7.6080    7.5662 C   0  0  0  0  0  0  0  0  0  0  0  0
  -12.5318   -6.8443    8.7077 C   0  0  0  0  0  0  0  0  0  0  0  0
  -13.6275   -6.2125    9.2338 C   0  0  0  0  0  0  0  0  0  0  0  0
  -13.4717   -5.4659   10.3892 C   0  0  0  0  0  0  0  0  0  0  0  0
  -12.2670   -5.3339   11.0272 C   0  0  0  0  0  0  0  0  0  0  0  0
  -11.1633   -5.9590   10.5159 C   0  0  0  0  0  0  0  0  0  0  0  0
  -11.2978   -6.7162    9.3533 C   0  0  0  0  0  0  0  0  0  0  0  0
  -10.2526   -7.3538    8.8183 N   0  0  0  0  0  0  0  0  0  0  0  0
  -13.8385   -7.7550    6.8376 N   0  0  0  0  0  0  0  0  0  0  0  0
  -14.9448   -8.5976    7.1617 C   0  0  0  0  0  0  0  0  0  0  0  0
  -16.1540   -7.9942    6.4431 C   0  0  0  0  0  0  0  0  0  0  0  0
  -15.6315   -6.7104    5.8909 C   0  0  0  0  0  0  0  0  0  0  0  0
  -14.1596   -7.0468    5.6215 C   0  0  0  0  0  0  0  0  0  0  0  0
   -9.1900   -8.7764    7.1853 N   0  0  0  0  0  0  0  0  0  0  0  0
   -9.3589   -9.7984    6.9379 H   0  0  0  0  0  0  0  0  0  0  0  0
   -5.3975   -7.0631    6.2884 C   0  0  0  0  0  0  0  0  0  0  0  0
   -5.4768   -8.2963    6.8835 C   0  0  0  0  0  0  0  0  0  0  0  0
   -6.7065   -8.8953    7.2051 C   0  0  0  0  0  0  0  0  0  0  0  0
   -7.8978   -8.2729    6.9374 C   0  0  0  0  0  0  0  0  0  0  0  0
   -7.7954   -7.0111    6.3284 C   0  0  0  0  0  0  0  0  0  0  0  0
   -6.5882   -6.4318    6.0173 C   0  0  0  0  0  0  0  0  0  0  0  0
   -4.1067   -5.1402    5.5432 C   0  0  0  0  0  0  0  0  0  0  0  0
   -4.1768   -6.4848    5.9770 O   0  0  0  0  0  0  0  0  0  0  0  0
 24 25  1  0  0  0
 25 18  1  0  0  0
 18 19  2  0  0  0
 19 20  1  0  0  0
 20 21  2  0  0  0
 21 16  1  0  0  0
 16  1  1  0  0  0
  1  2  2  0  0  0
  2  3  1  0  0  0
  3 11  1  0  0  0
 11 12  1  0  0  0
 12 13  1  0  0  0
 13 14  1  0  0  0
 14 15  1  0  0  0
  3  4  2  0  0  0
  4  5  1  0  0  0
  5  6  2  0  0  0
  6  7  1  0  0  0
  7  8  2  0  0  0
  8  9  1  0  0  0
  9 10  2  0  0  0
 21 22  1  0  0  0
 22 23  2  0  0  0
 23 18  1  0  0  0
 10  1  1  0  0  0
 15 11  1  0  0  0
  9  4  1  0  0  0
 16 17  1  0  0  0
M  END
> <minimizedAffinity>
-8.39750

> <CNNscore>
0.3140739501

> <CNNaffinity>
6.4344758987

> <CNN_VS>
2.0209012032

> <CNNaffinity_variance>
0.0940907970

$$$$
[H]c1c([H])c(N([H])c2nc(N3C([H])([H])C([H])([H])C([H])([H])C3([H])[H])c3c([H])c([H])c([H])c([H])c3n2)c([H])c([H])c1OC([H])([H])[H]


 25 28  0  0  0  0  0  0  0  0999 V2000
  -11.1696   -7.4189    8.2154 C   0  0  0  0  0  0  0  0  0  0  0  0
  -11.0806   -8.5237    7.4703 N   0  0  0  0  0  0  0  0  0  0  0  0
   -9.9131   -9.0893    7.1010 C   0  0  0  0  0  0  0  0  0  0  0  0
   -8.7466   -8.4893    7.5173 C   0  0  0  0  0  0  0  0  0  0  0  0
   -7.5197   -8.9941    7.1764 C   0  0  0  0  0  0  0  0  0  0  0  0
   -6.3851   -8.3375    7.6216 C   0  0  0  0  0  0  0  0  0  0  0  0
   -6.4400   -7.2040    8.3884 C   0  0  0  0  0  0  0  0  0  0  0  0
   -7.6568   -6.6862    8.7368 C   0  0  0  0  0  0  0  0  0  0  0  0
   -8.8122   -7.3314    8.2989 C   0  0  0  0  0  0  0  0  0  0  0  0
  -10.0250   -6.8612    8.6042 N   0  0  0  0  0  0  0  0  0  0  0  0
   -9.9214  -10.2906    6.3303 N   0  0  0  0  0  0  0  0  0  0  0  0
   -9.6601  -10.4248    4.9330 C   0  0  0  0  0  0  0  0  0  0  0  0
   -9.2419  -11.8822    4.7243 C   0  0  0  0  0  0  0  0  0  0  0  0
   -9.1358  -12.4207    6.1117 C   0  0  0  0  0  0  0  0  0  0  0  0
  -10.1974  -11.6049    6.8598 C   0  0  0  0  0  0  0  0  0  0  0  0
  -12.4364   -6.8889    8.5385 N   0  0  0  0  0  0  0  0  0  0  0  0
  -12.4352   -6.1661    9.3207 H   0  0  0  0  0  0  0  0  0  0  0  0
  -16.1396   -7.6370    6.5767 C   0  0  0  0  0  0  0  0  0  0  0  0
  -15.9615   -8.0091    7.8848 C   0  0  0  0  0  0  0  0  0  0  0  0
  -14.7537   -7.7896    8.5683 C   0  0  0  0  0  0  0  0  0  0  0  0
  -13.6847   -7.1874    7.9578 C   0  0  0  0  0  0  0  0  0  0  0  0
  -13.8867   -6.8143    6.6186 C   0  0  0  0  0  0  0  0  0  0  0  0
  -15.0716   -7.0329    5.9568 C   0  0  0  0  0  0  0  0  0  0  0  0
  -17.6314   -7.1814    4.7095 C   0  0  0  0  0  0  0  0  0  0  0  0
  -17.3373   -7.8600    5.9153 O   0  0  0  0  0  0  0  0  0  0  0  0
 24 25  1  0  0  0
 25 18  1  0  0  0
 18 19  2  0  0  0
 19 20  1  0  0  0
 20 21  2  0  0  0
 21 16  1  0  0  0
 16  1  1  0  0  0
  1  2  2  0  0  0
  2  3  1  0  0  0
  3 11  1  0  0  0
 11 12  1  0  0  0
 12 13  1  0  0  0
 13 14  1  0  0  0
 14 15  1  0  0  0
  3  4  2  0  0  0
  4  5  1  0  0  0
  5  6  2  0  0  0
  6  7  1  0  0  0
  7  8  2  0  0  0
  8  9  1  0  0  0
  9 10  2  0  0  0
 21 22  1  0  0  0
 22 23  2  0  0  0
 23 18  1  0  0  0
 10  1  1  0  0  0
 15 11  1  0  0  0
  9  4  1  0  0  0
 16 17  1  0  0  0
M  END
> <minimizedAffinity>
2.42880

> <CNNscore>
0.3120472133

> <CNNaffinity>
6.3730897903

> <CNN_VS>
1.9887049198

> <CNNaffinity_variance>
0.9827288389

$$$$
[H]OC12N(C([H])([H])c3c([H])c([H])c(OC([H])([H])[H])c([H])c3[H])C3([H])C4([H])C5([H])C([H])([H])C([H])(C14[H])C1([H])C2([H])C3([H])C51[H]


 23 29  0  0  0  0  0  0  0  0999 V2000
  -14.5613   -7.8507    5.6995 N   0  0  0  0  0  0  0  0  0  0  0  0
  -15.2168   -6.6183    6.1158 C   0  0  0  0  0  0  0  0  0  0  0  0
  -15.3416   -5.9392    4.7694 C   0  0  0  0  0  0  0  0  0  0  0  0
  -16.6463   -5.1999    4.8369 C   0  0  0  0  0  0  0  0  0  0  0  0
  -17.1467   -5.3923    3.4003 C   0  0  0  0  0  0  0  0  0  0  0  0
  -17.0086   -6.9219    3.3866 C   0  0  0  0  0  0  0  0  0  0  0  0
  -17.7738   -7.2990    4.6145 C   0  0  0  0  0  0  0  0  0  0  0  0
  -17.5297   -6.1366    5.5877 C   0  0  0  0  0  0  0  0  0  0  0  0
  -16.6301   -7.0045    6.4140 C   0  0  0  0  0  0  0  0  0  0  0  0
  -16.8862   -8.1589    5.4423 C   0  0  0  0  0  0  0  0  0  0  0  0
  -15.5539   -8.2913    4.7500 C   0  0  0  0  0  0  0  0  0  0  0  0
  -15.3329   -9.4636    4.1239 O   0  0  0  0  0  0  0  0  0  0  0  0
  -15.5890   -7.0871    3.8106 C   0  0  0  0  0  0  0  0  0  0  0  0
  -16.1633   -9.9947    4.0493 H   0  0  0  0  0  0  0  0  0  0  0  0
  -14.3079   -8.7379    6.7863 C   0  0  0  0  0  0  0  0  0  0  0  0
  -10.1041   -8.5705    7.7321 C   0  0  0  0  0  0  0  0  0  0  0  0
  -10.6603   -9.6809    7.1359 C   0  0  0  0  0  0  0  0  0  0  0  0
  -12.0037   -9.7374    6.8360 C   0  0  0  0  0  0  0  0  0  0  0  0
  -12.8636   -8.6805    7.1189 C   0  0  0  0  0  0  0  0  0  0  0  0
  -12.2790   -7.5660    7.7228 C   0  0  0  0  0  0  0  0  0  0  0  0
  -10.9357   -7.5123    8.0213 C   0  0  0  0  0  0  0  0  0  0  0  0
   -7.9106   -9.6618    7.8463 C   0  0  0  0  0  0  0  0  0  0  0  0
   -8.7365   -8.5298    8.0300 O   0  0  0  0  0  0  0  0  0  0  0  0
 22 23  1  0  0  0
 23 16  1  0  0  0
 16 17  2  0  0  0
 17 18  1  0  0  0
 18 19  2  0  0  0
 19 15  1  0  0  0
 15  1  1  0  0  0
  1  2  1  0  0  0
  2  3  1  0  0  0
  3  4  1  0  0  0
  4  5  1  0  0  0
  5  6  1  0  0  0
  6  7  1  0  0  0
  7  8  1  0  0  0
  8  9  1  0  0  0
  9 10  1  0  0  0
 10 11  1  0  0  0
 11 12  1  0  0  0
 11 13  1  0  0  0
 19 20  1  0  0  0
 20 21  2  0  0  0
 21 16  1  0  0  0
 11  1  1  0  0  0
  9  2  1  0  0  0
 13  3  1  0  0  0
  8  4  1  0  0  0
 13  6  1  0  0  0
 10  7  1  0  0  0
 12 14  1  0  0  0
M  END
> <minimizedAffinity>
-9.67546

> <CNNscore>
0.5018838644

> <CNNaffinity>
6.3607382774

> <CNN_VS>
3.1923518181

> <CNNaffinity_variance>
0.0499097928

$$$$
[H]OC12N(C([H])([H])c3c([H])c([H])c(OC([H])([H])[H])c([H])c3[H])C3([H])C4([H])C5([H])C([H])([H])C([H])(C14[H])C1([H])C2([H])C3([H])C51[H]


 23 29  0  0  0  0  0  0  0  0999 V2000
  -15.0767   -7.7536    6.1422 N   0  0  0  0  0  0  0  0  0  0  0  0
  -14.9426   -7.0067    4.8988 C   0  0  0  0  0  0  0  0  0  0  0  0
  -15.8756   -7.8153    4.0242 C   0  0  0  0  0  0  0  0  0  0  0  0
  -16.5178   -6.8050    3.1187 C   0  0  0  0  0  0  0  0  0  0  0  0
  -17.9373   -7.3780    3.0293 C   0  0  0  0  0  0  0  0  0  0  0  0
  -18.1698   -7.4657    4.5449 C   0  0  0  0  0  0  0  0  0  0  0  0
  -17.8371   -6.0735    4.9764 C   0  0  0  0  0  0  0  0  0  0  0  0
  -16.7265   -5.6309    4.0127 C   0  0  0  0  0  0  0  0  0  0  0  0
  -15.7144   -5.7440    5.1119 C   0  0  0  0  0  0  0  0  0  0  0  0
  -16.8300   -6.1766    6.0661 C   0  0  0  0  0  0  0  0  0  0  0  0
  -16.5061   -7.6312    6.2928 C   0  0  0  0  0  0  0  0  0  0  0  0
  -17.0630   -8.1923    7.3837 O   0  0  0  0  0  0  0  0  0  0  0  0
  -16.9748   -8.2462    4.9752 C   0  0  0  0  0  0  0  0  0  0  0  0
  -17.7624   -7.6109    7.7712 H   0  0  0  0  0  0  0  0  0  0  0  0
  -14.2940   -7.2096    7.2024 C   0  0  0  0  0  0  0  0  0  0  0  0
  -10.5516   -9.3419    7.4071 C   0  0  0  0  0  0  0  0  0  0  0  0
  -10.6912   -8.0862    7.9563 C   0  0  0  0  0  0  0  0  0  0  0  0
  -11.8852   -7.4022    7.8889 C   0  0  0  0  0  0  0  0  0  0  0  0
  -13.0059   -7.9422    7.2655 C   0  0  0  0  0  0  0  0  0  0  0  0
  -12.8419   -9.2150    6.7162 C   0  0  0  0  0  0  0  0  0  0  0  0
  -11.6472   -9.8964    6.7851 C   0  0  0  0  0  0  0  0  0  0  0  0
   -8.1036   -9.3259    7.5579 C   0  0  0  0  0  0  0  0  0  0  0  0
   -9.3307  -10.0232    7.4847 O   0  0  0  0  0  0  0  0  0  0  0  0
 22 23  1  0  0  0
 23 16  1  0  0  0
 16 17  2  0  0  0
 17 18  1  0  0  0
 18 19  2  0  0  0
 19 15  1  0  0  0
 15  1  1  0  0  0
  1  2  1  0  0  0
  2  3  1  0  0  0
  3  4  1  0  0  0
  4  5  1  0  0  0
  5  6  1  0  0  0
  6  7  1  0  0  0
  7  8  1  0  0  0
  8  9  1  0  0  0
  9 10  1  0  0  0
 10 11  1  0  0  0
 11 12  1  0  0  0
 11 13  1  0  0  0
 19 20  1  0  0  0
 20 21  2  0  0  0
 21 16  1  0  0  0
 11  1  1  0  0  0
  9  2  1  0  0  0
 13  3  1  0  0  0
  8  4  1  0  0  0
 13  6  1  0  0  0
 10  7  1  0  0  0
 12 14  1  0  0  0
M  END
> <minimizedAffinity>
-9.19526

> <CNNscore>
0.4997477233

> <CNNaffinity>
6.4151239395

> <CNN_VS>
3.2059435844

> <CNNaffinity_variance>
0.1072077006

$$$$
[H]OC12N(C([H])([H])c3c([H])c([H])c(OC([H])([H])[H])c([H])c3[H])C3([H])C4([H])C5([H])C([H])([H])C([H])(C14[H])C1([H])C2([H])C3([H])C51[H]


 23 29  0  0  0  0  0  0  0  0999 V2000
  -14.5601   -7.8381    5.7008 N   0  0  0  0  0  0  0  0  0  0  0  0
  -15.2290   -6.6154    6.1244 C   0  0  0  0  0  0  0  0  0  0  0  0
  -15.3574   -5.9277    4.7828 C   0  0  0  0  0  0  0  0  0  0  0  0
  -16.6696   -5.2021    4.8524 C   0  0  0  0  0  0  0  0  0  0  0  0
  -17.1645   -5.3889    3.4131 C   0  0  0  0  0  0  0  0  0  0  0  0
  -17.0111   -6.9169    3.3887 C   0  0  0  0  0  0  0  0  0  0  0  0
  -17.7753   -7.3106    4.6118 C   0  0  0  0  0  0  0  0  0  0  0  0
  -17.5453   -6.1530    5.5941 C   0  0  0  0  0  0  0  0  0  0  0  0
  -16.6390   -7.0179    6.4163 C   0  0  0  0  0  0  0  0  0  0  0  0
  -16.8812   -8.1676    5.4356 C   0  0  0  0  0  0  0  0  0  0  0  0
  -15.5459   -8.2816    4.7456 C   0  0  0  0  0  0  0  0  0  0  0  0
  -15.3117   -9.4470    4.1116 O   0  0  0  0  0  0  0  0  0  0  0  0
  -15.5909   -7.0710    3.8149 C   0  0  0  0  0  0  0  0  0  0  0  0
  -16.1365   -9.9859    4.0310 H   0  0  0  0  0  0  0  0  0  0  0  0
  -14.3005   -8.7306    6.7818 C   0  0  0  0  0  0  0  0  0  0  0  0
  -10.0983   -8.5795    7.7375 C   0  0  0  0  0  0  0  0  0  0  0  0
  -10.9363   -7.5245    8.0246 C   0  0  0  0  0  0  0  0  0  0  0  0
  -12.2785   -7.5697    7.7170 C   0  0  0  0  0  0  0  0  0  0  0  0
  -12.8534   -8.6783    7.1032 C   0  0  0  0  0  0  0  0  0  0  0  0
  -11.9862   -9.7353    6.8215 C   0  0  0  0  0  0  0  0  0  0  0  0
  -10.6451   -9.6873    7.1302 C   0  0  0  0  0  0  0  0  0  0  0  0
   -7.8803   -9.6210    7.8445 C   0  0  0  0  0  0  0  0  0  0  0  0
   -8.7365   -8.5169    8.0571 O   0  0  0  0  0  0  0  0  0  0  0  0
 22 23  1  0  0  0
 23 16  1  0  0  0
 16 17  2  0  0  0
 17 18  1  0  0  0
 18 19  2  0  0  0
 19 15  1  0  0  0
 15  1  1  0  0  0
  1  2  1  0  0  0
  2  3  1  0  0  0
  3  4  1  0  0  0
  4  5  1  0  0  0
  5  6  1  0  0  0
  6  7  1  0  0  0
  7  8  1  0  0  0
  8  9  1  0  0  0
  9 10  1  0  0  0
 10 11  1  0  0  0
 11 12  1  0  0  0
 11 13  1  0  0  0
 19 20  1  0  0  0
 20 21  2  0  0  0
 21 16  1  0  0  0
 11  1  1  0  0  0
  9  2  1  0  0  0
 13  3  1  0  0  0
  8  4  1  0  0  0
 13  6  1  0  0  0
 10  7  1  0  0  0
 12 14  1  0  0  0
M  END
> <minimizedAffinity>
-9.67110

> <CNNscore>
0.4933078587

> <CNNaffinity>
6.3511476517

> <CNN_VS>
3.1330709457

> <CNNaffinity_variance>
0.0476829633

$$$$
[H]OC12N(C([H])([H])c3c([H])c([H])c(OC([H])([H])[H])c([H])c3[H])C3([H])C4([H])C5([H])C([H])([H])C([H])(C14[H])C1([H])C2([H])C3([H])C51[H]


 23 29  0  0  0  0  0  0  0  0999 V2000
  -14.5099   -7.5694    6.9189 N   0  0  0  0  0  0  0  0  0  0  0  0
  -13.0590   -7.4416    6.8956 C   0  0  0  0  0  0  0  0  0  0  0  0
  -12.8565   -6.6991    8.1983 C   0  0  0  0  0  0  0  0  0  0  0  0
  -11.5639   -7.2337    8.7428 C   0  0  0  0  0  0  0  0  0  0  0  0
  -11.8869   -7.2619   10.2415 C   0  0  0  0  0  0  0  0  0  0  0  0
  -13.1829   -8.0756   10.1102 C   0  0  0  0  0  0  0  0  0  0  0  0
  -12.7143   -9.2523    9.3159 C   0  0  0  0  0  0  0  0  0  0  0  0
  -11.6228   -8.6826    8.3982 C   0  0  0  0  0  0  0  0  0  0  0  0
  -12.5376   -8.8054    7.2178 C   0  0  0  0  0  0  0  0  0  0  0  0
  -13.6158   -9.3796    8.1397 C   0  0  0  0  0  0  0  0  0  0  0  0
  -14.6268   -8.2622    8.1787 C   0  0  0  0  0  0  0  0  0  0  0  0
  -15.8652   -8.6065    8.5822 O   0  0  0  0  0  0  0  0  0  0  0  0
  -13.9304   -7.2671    9.1052 C   0  0  0  0  0  0  0  0  0  0  0  0
  -15.8765   -9.5116    8.9797 H   0  0  0  0  0  0  0  0  0  0  0  0
  -15.0234   -8.2606    5.7826 C   0  0  0  0  0  0  0  0  0  0  0  0
  -18.4288   -6.0915    4.2684 C   0  0  0  0  0  0  0  0  0  0  0  0
  -17.4167   -5.4509    4.9490 C   0  0  0  0  0  0  0  0  0  0  0  0
  -16.3296   -6.1428    5.4363 C   0  0  0  0  0  0  0  0  0  0  0  0
  -16.1991   -7.5178    5.2668 C   0  0  0  0  0  0  0  0  0  0  0  0
  -17.2357   -8.1462    4.5746 C   0  0  0  0  0  0  0  0  0  0  0  0
  -18.3211   -7.4519    4.0885 C   0  0  0  0  0  0  0  0  0  0  0  0
  -19.8372   -4.0835    4.2682 C   0  0  0  0  0  0  0  0  0  0  0  0
  -19.5266   -5.3727    3.7796 O   0  0  0  0  0  0  0  0  0  0  0  0
 22 23  1  0  0  0
 23 16  1  0  0  0
 16 17  2  0  0  0
 17 18  1  0  0  0
 18 19  2  0  0  0
 19 15  1  0  0  0
 15  1  1  0  0  0
  1  2  1  0  0  0
  2  3  1  0  0  0
  3  4  1  0  0  0
  4  5  1  0  0  0
  5  6  1  0  0  0
  6  7  1  0  0  0
  7  8  1  0  0  0
  8  9  1  0  0  0
  9 10  1  0  0  0
 10 11  1  0  0  0
 11 12  1  0  0  0
 11 13  1  0  0  0
 19 20  1  0  0  0
 20 21  2  0  0  0
 21 16  1  0  0  0
 11  1  1  0  0  0
  9  2  1  0  0  0
 13  3  1  0  0  0
  8  4  1  0  0  0
 13  6  1  0  0  0
 10  7  1  0  0  0
 12 14  1  0  0  0
M  END
> <minimizedAffinity>
-7.14961

> <CNNscore>
0.4694754779

> <CNNaffinity>
6.2455682755

> <CNN_VS>
2.9321410656

> <CNNaffinity_variance>
0.1074627638

$$$$
[H]OC12N(C([H])([H])c3c([H])c([H])c(OC([H])([H])[H])c([H])c3[H])C3([H])C4([H])C5([H])C([H])([H])C([H])(C14[H])C1([H])C2([H])C3([H])C51[H]


 23 29  0  0  0  0  0  0  0  0999 V2000
  -14.7835   -7.9097    5.5258 N   0  0  0  0  0  0  0  0  0  0  0  0
  -15.3672   -6.6474    5.9589 C   0  0  0  0  0  0  0  0  0  0  0  0
  -15.4805   -5.9558    4.6179 C   0  0  0  0  0  0  0  0  0  0  0  0
  -16.7440   -5.1507    4.7118 C   0  0  0  0  0  0  0  0  0  0  0  0
  -17.2788   -5.3097    3.2835 C   0  0  0  0  0  0  0  0  0  0  0  0
  -17.2201   -6.8443    3.2609 C   0  0  0  0  0  0  0  0  0  0  0  0
  -17.9818   -7.1878    4.5007 C   0  0  0  0  0  0  0  0  0  0  0  0
  -17.6611   -6.0445    5.4743 C   0  0  0  0  0  0  0  0  0  0  0  0
  -16.7930   -6.9618    6.2807 C   0  0  0  0  0  0  0  0  0  0  0  0
  -17.1254   -8.0965    5.3089 C   0  0  0  0  0  0  0  0  0  0  0  0
  -15.8140   -8.2937    4.5923 C   0  0  0  0  0  0  0  0  0  0  0  0
  -15.6648   -9.4726    3.9575 O   0  0  0  0  0  0  0  0  0  0  0  0
  -15.8036   -7.0845    3.6588 C   0  0  0  0  0  0  0  0  0  0  0  0
  -16.5227   -9.9600    3.8954 H   0  0  0  0  0  0  0  0  0  0  0  0
  -14.5571   -8.8143    6.6042 C   0  0  0  0  0  0  0  0  0  0  0  0
  -12.0721   -6.8480    9.5287 C   0  0  0  0  0  0  0  0  0  0  0  0
  -11.5696   -7.2338    8.3053 C   0  0  0  0  0  0  0  0  0  0  0  0
  -12.3613   -7.8651    7.3711 C   0  0  0  0  0  0  0  0  0  0  0  0
  -13.7026   -8.1440    7.6145 C   0  0  0  0  0  0  0  0  0  0  0  0
  -14.1906   -7.7445    8.8598 C   0  0  0  0  0  0  0  0  0  0  0  0
  -13.3969   -7.1135    9.7917 C   0  0  0  0  0  0  0  0  0  0  0  0
  -11.7996   -5.5599   11.5980 C   0  0  0  0  0  0  0  0  0  0  0  0
  -11.2534   -6.2072   10.4667 O   0  0  0  0  0  0  0  0  0  0  0  0
 22 23  1  0  0  0
 23 16  1  0  0  0
 16 17  2  0  0  0
 17 18  1  0  0  0
 18 19  2  0  0  0
 19 15  1  0  0  0
 15  1  1  0  0  0
  1  2  1  0  0  0
  2  3  1  0  0  0
  3  4  1  0  0  0
  4  5  1  0  0  0
  5  6  1  0  0  0
  6  7  1  0  0  0
  7  8  1  0  0  0
  8  9  1  0  0  0
  9 10  1  0  0  0
 10 11  1  0  0  0
 11 12  1  0  0  0
 11 13  1  0  0  0
 19 20  1  0  0  0
 20 21  2  0  0  0
 21 16  1  0  0  0
 11  1  1  0  0  0
  9  2  1  0  0  0
 13  3  1  0  0  0
  8  4  1  0  0  0
 13  6  1  0  0  0
 10  7  1  0  0  0
 12 14  1  0  0  0
M  END
> <minimizedAffinity>
-9.01797

> <CNNscore>
0.4351376295

> <CNNaffinity>
6.2420377731

> <CNN_VS>
2.7161455154

> <CNNaffinity_variance>
0.0164883938

$$$$
[H]OC12N(C([H])([H])c3c([H])c([H])c(OC([H])([H])[H])c([H])c3[H])C3([H])C4([H])C5([H])C([H])([H])C([H])(C14[H])C1([H])C2([H])C3([H])C51[H]


 23 29  0  0  0  0  0  0  0  0999 V2000
  -15.0310   -8.7628    7.3462 N   0  0  0  0  0  0  0  0  0  0  0  0
  -14.5905   -7.4009    7.6164 C   0  0  0  0  0  0  0  0  0  0  0  0
  -14.3255   -7.5182    9.1015 C   0  0  0  0  0  0  0  0  0  0  0  0
  -13.1379   -6.6332    9.3460 C   0  0  0  0  0  0  0  0  0  0  0  0
  -12.3944   -7.4562   10.4049 C   0  0  0  0  0  0  0  0  0  0  0  0
  -12.3597   -8.7619    9.5969 C   0  0  0  0  0  0  0  0  0  0  0  0
  -11.7659   -8.2956    8.3064 C   0  0  0  0  0  0  0  0  0  0  0  0
  -12.2898   -6.8616    8.1419 C   0  0  0  0  0  0  0  0  0  0  0  0
  -13.2101   -7.3129    7.0489 C   0  0  0  0  0  0  0  0  0  0  0  0
  -12.6755   -8.7372    7.2155 C   0  0  0  0  0  0  0  0  0  0  0  0
  -13.8560   -9.4490    7.8252 C   0  0  0  0  0  0  0  0  0  0  0  0
  -13.8431  -10.7928    7.7296 O   0  0  0  0  0  0  0  0  0  0  0  0
  -13.8023   -8.9320    9.2616 C   0  0  0  0  0  0  0  0  0  0  0  0
  -12.9583  -11.1254    7.4401 H   0  0  0  0  0  0  0  0  0  0  0  0
  -15.3574   -8.9777    5.9752 C   0  0  0  0  0  0  0  0  0  0  0  0
  -16.0653   -5.1454    4.1296 C   0  0  0  0  0  0  0  0  0  0  0  0
  -16.9640   -5.6872    5.0223 C   0  0  0  0  0  0  0  0  0  0  0  0
  -16.7409   -6.9129    5.6103 C   0  0  0  0  0  0  0  0  0  0  0  0
  -15.6019   -7.6629    5.3338 C   0  0  0  0  0  0  0  0  0  0  0  0
  -14.7054   -7.0951    4.4269 C   0  0  0  0  0  0  0  0  0  0  0  0
  -14.9309   -5.8696    3.8407 C   0  0  0  0  0  0  0  0  0  0  0  0
  -15.3050   -2.9036    3.4880 C   0  0  0  0  0  0  0  0  0  0  0  0
  -16.3076   -3.8981    3.5411 O   0  0  0  0  0  0  0  0  0  0  0  0
 22 23  1  0  0  0
 23 16  1  0  0  0
 16 17  2  0  0  0
 17 18  1  0  0  0
 18 19  2  0  0  0
 19 15  1  0  0  0
 15  1  1  0  0  0
  1  2  1  0  0  0
  2  3  1  0  0  0
  3  4  1  0  0  0
  4  5  1  0  0  0
  5  6  1  0  0  0
  6  7  1  0  0  0
  7  8  1  0  0  0
  8  9  1  0  0  0
  9 10  1  0  0  0
 10 11  1  0  0  0
 11 12  1  0  0  0
 11 13  1  0  0  0
 19 20  1  0  0  0
 20 21  2  0  0  0
 21 16  1  0  0  0
 11  1  1  0  0  0
  9  2  1  0  0  0
 13  3  1  0  0  0
  8  4  1  0  0  0
 13  6  1  0  0  0
 10  7  1  0  0  0
 12 14  1  0  0  0
M  END
> <minimizedAffinity>
-5.68154

> <CNNscore>
0.4229529798

> <CNNaffinity>
6.3866367340

> <CNN_VS>
2.7012469769

> <CNNaffinity_variance>
0.2224262208

$$$$
[H]OC12N(C([H])([H])c3c([H])c([H])c(OC([H])([H])[H])c([H])c3[H])C3([H])C4([H])C5([H])C([H])([H])C([H])(C14[H])C1([H])C2([H])C3([H])C51[H]


 23 29  0  0  0  0  0  0  0  0999 V2000
  -13.5885   -7.9423    6.5371 N   0  0  0  0  0  0  0  0  0  0  0  0
  -13.9317   -6.8412    5.6473 C   0  0  0  0  0  0  0  0  0  0  0  0
  -14.6267   -7.6185    4.5509 C   0  0  0  0  0  0  0  0  0  0  0  0
  -15.7263   -6.7112    4.0811 C   0  0  0  0  0  0  0  0  0  0  0  0
  -16.8325   -7.7374    3.8079 C   0  0  0  0  0  0  0  0  0  0  0  0
  -16.7790   -8.4019    5.1915 C   0  0  0  0  0  0  0  0  0  0  0  0
  -16.9172   -7.2180    6.0940 C   0  0  0  0  0  0  0  0  0  0  0  0
  -16.2097   -6.0811    5.3424 C   0  0  0  0  0  0  0  0  0  0  0  0
  -15.0695   -6.1359    6.3130 C   0  0  0  0  0  0  0  0  0  0  0  0
  -15.7867   -7.2631    7.0595 C   0  0  0  0  0  0  0  0  0  0  0  0
  -14.9214   -8.4552    6.7396 C   0  0  0  0  0  0  0  0  0  0  0  0
  -15.0578   -9.5151    7.5600 O   0  0  0  0  0  0  0  0  0  0  0  0
  -15.3300   -8.7367    5.2948 C   0  0  0  0  0  0  0  0  0  0  0  0
  -15.8525   -9.4220    8.1406 H   0  0  0  0  0  0  0  0  0  0  0  0
  -12.9056   -7.5125    7.7125 C   0  0  0  0  0  0  0  0  0  0  0  0
   -8.8444   -8.9504    7.5294 C   0  0  0  0  0  0  0  0  0  0  0  0
   -9.9095   -9.7741    7.2376 C   0  0  0  0  0  0  0  0  0  0  0  0
  -11.2078   -9.3172    7.2988 C   0  0  0  0  0  0  0  0  0  0  0  0
  -11.5082   -8.0066    7.6569 C   0  0  0  0  0  0  0  0  0  0  0  0
  -10.4142   -7.1899    7.9482 C   0  0  0  0  0  0  0  0  0  0  0  0
   -9.1175   -7.6493    7.8861 C   0  0  0  0  0  0  0  0  0  0  0  0
   -6.4728   -8.6155    7.0014 C   0  0  0  0  0  0  0  0  0  0  0  0
   -7.5310   -9.4311    7.4621 O   0  0  0  0  0  0  0  0  0  0  0  0
 22 23  1  0  0  0
 23 16  1  0  0  0
 16 17  2  0  0  0
 17 18  1  0  0  0
 18 19  2  0  0  0
 19 15  1  0  0  0
 15  1  1  0  0  0
  1  2  1  0  0  0
  2  3  1  0  0  0
  3  4  1  0  0  0
  4  5  1  0  0  0
  5  6  1  0  0  0
  6  7  1  0  0  0
  7  8  1  0  0  0
  8  9  1  0  0  0
  9 10  1  0  0  0
 10 11  1  0  0  0
 11 12  1  0  0  0
 11 13  1  0  0  0
 19 20  1  0  0  0
 20 21  2  0  0  0
 21 16  1  0  0  0
 11  1  1  0  0  0
  9  2  1  0  0  0
 13  3  1  0  0  0
  8  4  1  0  0  0
 13  6  1  0  0  0
 10  7  1  0  0  0
 12 14  1  0  0  0
M  END
> <minimizedAffinity>
-9.05206

> <CNNscore>
0.3912551403

> <CNNaffinity>
6.4973526001

> <CNN_VS>
2.5421226025

> <CNNaffinity_variance>
0.3085136116

$$$$
[H]OC12N(C([H])([H])c3c([H])c([H])c(OC([H])([H])[H])c([H])c3[H])C3([H])C4([H])C5([H])C([H])([H])C([H])(C14[H])C1([H])C2([H])C3([H])C51[H]


 23 29  0  0  0  0  0  0  0  0999 V2000
  -14.1926   -9.1053    6.3511 N   0  0  0  0  0  0  0  0  0  0  0  0
  -14.7979   -8.0713    7.1796 C   0  0  0  0  0  0  0  0  0  0  0  0
  -14.5877   -8.6938    8.5426 C   0  0  0  0  0  0  0  0  0  0  0  0
  -14.3196   -7.5312    9.4534 C   0  0  0  0  0  0  0  0  0  0  0  0
  -13.2623   -8.1447   10.3793 C   0  0  0  0  0  0  0  0  0  0  0  0
  -12.3213   -8.6125    9.2593 C   0  0  0  0  0  0  0  0  0  0  0  0
  -12.1422   -7.3510    8.4771 C   0  0  0  0  0  0  0  0  0  0  0  0
  -13.4882   -6.6244    8.6120 C   0  0  0  0  0  0  0  0  0  0  0  0
  -13.8151   -6.9446    7.1851 C   0  0  0  0  0  0  0  0  0  0  0  0
  -12.4677   -7.6595    7.0589 C   0  0  0  0  0  0  0  0  0  0  0  0
  -12.8845   -9.1047    6.9590 C   0  0  0  0  0  0  0  0  0  0  0  0
  -11.9647   -9.9456    6.4472 O   0  0  0  0  0  0  0  0  0  0  0  0
  -13.2556   -9.4053    8.4101 C   0  0  0  0  0  0  0  0  0  0  0  0
  -11.0757   -9.5169    6.3911 H   0  0  0  0  0  0  0  0  0  0  0  0
  -14.2290   -8.7928    4.9606 C   0  0  0  0  0  0  0  0  0  0  0  0
  -17.8862   -6.6784    4.0957 C   0  0  0  0  0  0  0  0  0  0  0  0
  -16.6621   -6.0505    4.0243 C   0  0  0  0  0  0  0  0  0  0  0  0
  -15.4929   -6.7237    4.3035 C   0  0  0  0  0  0  0  0  0  0  0  0
  -15.4889   -8.0659    4.6703 C   0  0  0  0  0  0  0  0  0  0  0  0
  -16.7397   -8.6820    4.7363 C   0  0  0  0  0  0  0  0  0  0  0  0
  -17.9068   -8.0066    4.4566 C   0  0  0  0  0  0  0  0  0  0  0  0
  -19.2337   -4.6317    4.2000 C   0  0  0  0  0  0  0  0  0  0  0  0
  -19.0649   -5.9791    3.8086 O   0  0  0  0  0  0  0  0  0  0  0  0
 22 23  1  0  0  0
 23 16  1  0  0  0
 16 17  2  0  0  0
 17 18  1  0  0  0
 18 19  2  0  0  0
 19 15  1  0  0  0
 15  1  1  0  0  0
  1  2  1  0  0  0
  2  3  1  0  0  0
  3  4  1  0  0  0
  4  5  1  0  0  0
  5  6  1  0  0  0
  6  7  1  0  0  0
  7  8  1  0  0  0
  8  9  1  0  0  0
  9 10  1  0  0  0
 10 11  1  0  0  0
 11 12  1  0  0  0
 11 13  1  0  0  0
 19 20  1  0  0  0
 20 21  2  0  0  0
 21 16  1  0  0  0
 11  1  1  0  0  0
  9  2  1  0  0  0
 13  3  1  0  0  0
  8  4  1  0  0  0
 13  6  1  0  0  0
 10  7  1  0  0  0
 12 14  1  0  0  0
M  END
> <minimizedAffinity>
-8.14364

> <CNNscore>
0.3764192164

> <CNNaffinity>
6.2123460770

> <CNN_VS>
2.3384463787

> <CNNaffinity_variance>
0.0453818068

$$$$
[H]OC12N(C([H])([H])c3c([H])c([H])c(OC([H])([H])[H])c([H])c3[H])C3([H])C4([H])C5([H])C([H])([H])C([H])(C14[H])C1([H])C2([H])C3([H])C51[H]


 23 29  0  0  0  0  0  0  0  0999 V2000
  -14.6361   -7.2886    6.1934 N   0  0  0  0  0  0  0  0  0  0  0  0
  -14.7532   -6.5067    4.9699 C   0  0  0  0  0  0  0  0  0  0  0  0
  -15.4859   -7.5098    4.1061 C   0  0  0  0  0  0  0  0  0  0  0  0
  -16.4050   -6.6801    3.2576 C   0  0  0  0  0  0  0  0  0  0  0  0
  -17.6329   -7.5970    3.2037 C   0  0  0  0  0  0  0  0  0  0  0  0
  -17.7676   -7.7730    4.7234 C   0  0  0  0  0  0  0  0  0  0  0  0
  -17.7838   -6.3512    5.1857 C   0  0  0  0  0  0  0  0  0  0  0  0
  -16.8675   -5.6180    4.1953 C   0  0  0  0  0  0  0  0  0  0  0  0
  -15.8124   -5.4897    5.2515 C   0  0  0  0  0  0  0  0  0  0  0  0
  -16.7364   -6.2144    6.2329 C   0  0  0  0  0  0  0  0  0  0  0  0
  -16.0410   -7.5412    6.4014 C   0  0  0  0  0  0  0  0  0  0  0  0
  -16.3865   -8.2491    7.4943 O   0  0  0  0  0  0  0  0  0  0  0  0
  -16.3947   -8.2286    5.0837 C   0  0  0  0  0  0  0  0  0  0  0  0
  -17.1936   -7.8753    7.9260 H   0  0  0  0  0  0  0  0  0  0  0  0
  -13.9725   -6.5837    7.2399 C   0  0  0  0  0  0  0  0  0  0  0  0
  -10.2130   -8.5386    8.0395 C   0  0  0  0  0  0  0  0  0  0  0  0
  -11.1257   -9.0748    7.1577 C   0  0  0  0  0  0  0  0  0  0  0  0
  -12.3286   -8.4533    6.9036 C   0  0  0  0  0  0  0  0  0  0  0  0
  -12.6817   -7.2577    7.5218 C   0  0  0  0  0  0  0  0  0  0  0  0
  -11.7425   -6.7325    8.4110 C   0  0  0  0  0  0  0  0  0  0  0  0
  -10.5408   -7.3560    8.6631 C   0  0  0  0  0  0  0  0  0  0  0  0
   -7.9601   -9.1921    7.3236 C   0  0  0  0  0  0  0  0  0  0  0  0
   -8.9949   -9.1835    8.2861 O   0  0  0  0  0  0  0  0  0  0  0  0
 22 23  1  0  0  0
 23 16  1  0  0  0
 16 17  2  0  0  0
 17 18  1  0  0  0
 18 19  2  0  0  0
 19 15  1  0  0  0
 15  1  1  0  0  0
  1  2  1  0  0  0
  2  3  1  0  0  0
  3  4  1  0  0  0
  4  5  1  0  0  0
  5  6  1  0  0  0
  6  7  1  0  0  0
  7  8  1  0  0  0
  8  9  1  0  0  0
  9 10  1  0  0  0
 10 11  1  0  0  0
 11 12  1  0  0  0
 11 13  1  0  0  0
 19 20  1  0  0  0
 20 21  2  0  0  0
 21 16  1  0  0  0
 11  1  1  0  0  0
  9  2  1  0  0  0
 13  3  1  0  0  0
  8  4  1  0  0  0
 13  6  1  0  0  0
 10  7  1  0  0  0
 12 14  1  0  0  0
M  END
> <minimizedAffinity>
-7.84876

> <CNNscore>
0.3171206415

> <CNNaffinity>
6.3490886688

> <CNN_VS>
2.0134270191

> <CNNaffinity_variance>
0.1856476367

$$$$
[H]c1nc(N2C([H])([H])C([H])([H])N(C([H])([H])C([H])([H])C([H])([H])Sc3c([H])c([H])c(F)c([H])c3[H])C([H])([H])C2([H])[H])c([H])c([H])c1[H]


 23 25  0  0  0  0  0  0  0  0999 V2000
  -13.7628   -9.7487    7.3265 N   0  0  0  0  0  0  0  0  0  0  0  0
  -14.8199   -9.0300    7.9940 C   0  0  0  0  0  0  0  0  0  0  0  0
  -15.2619   -7.7652    7.3107 C   0  0  0  0  0  0  0  0  0  0  0  0
  -15.4244   -7.9070    5.8974 N   0  0  0  0  0  0  0  0  0  0  0  0
  -14.6063   -8.8630    5.1972 C   0  0  0  0  0  0  0  0  0  0  0  0
  -13.4146   -9.1700    6.0539 C   0  0  0  0  0  0  0  0  0  0  0  0
  -16.3800   -7.1057    5.2190 C   0  0  0  0  0  0  0  0  0  0  0  0
  -16.2313   -5.7477    5.0556 C   0  0  0  0  0  0  0  0  0  0  0  0
  -17.1910   -4.9786    4.3933 C   0  0  0  0  0  0  0  0  0  0  0  0
  -18.3128   -5.5745    3.8881 C   0  0  0  0  0  0  0  0  0  0  0  0
  -18.4399   -6.9323    4.0629 C   0  0  0  0  0  0  0  0  0  0  0  0
  -17.5104   -7.6561    4.7007 N   0  0  0  0  0  0  0  0  0  0  0  0
  -12.6092   -9.9205    8.1826 C   0  0  0  0  0  0  0  0  0  0  0  0
  -11.5826   -8.8697    7.8510 C   0  0  0  0  0  0  0  0  0  0  0  0
  -11.4795   -7.9284    9.0503 C   0  0  0  0  0  0  0  0  0  0  0  0
  -10.3260   -6.5864    8.6667 S   0  0  0  0  0  0  0  0  0  0  0  0
   -5.4708   -8.5821    5.8569 F   0  0  0  0  0  0  0  0  0  0  0  0
   -6.5813   -8.1089    6.4839 C   0  0  0  0  0  0  0  0  0  0  0  0
   -7.1096   -8.8056    7.5625 C   0  0  0  0  0  0  0  0  0  0  0  0
   -8.2283   -8.3523    8.2142 C   0  0  0  0  0  0  0  0  0  0  0  0
   -8.8727   -7.1952    7.8311 C   0  0  0  0  0  0  0  0  0  0  0  0
   -8.3382   -6.5121    6.7583 C   0  0  0  0  0  0  0  0  0  0  0  0
   -7.2111   -6.9518    6.0875 C   0  0  0  0  0  0  0  0  0  0  0  0
 17 18  1  0  0  0
 18 19  2  0  0  0
 19 20  1  0  0  0
 20 21  2  0  0  0
 21 16  1  0  0  0
 16 15  1  0  0  0
 15 14  1  0  0  0
 14 13  1  0  0  0
 13  1  1  0  0  0
  1  2  1  0  0  0
  2  3  1  0  0  0
  3  4  1  0  0  0
  4  7  1  0  0  0
  7  8  2  0  0  0
  8  9  1  0  0  0
  9 10  2  0  0  0
 10 11  1  0  0  0
 11 12  2  0  0  0
  4  5  1  0  0  0
  5  6  1  0  0  0
 21 22  1  0  0  0
 22 23  2  0  0  0
 23 18  1  0  0  0
  6  1  1  0  0  0
 12  7  1  0  0  0
M  END
> <minimizedAffinity>
-8.08182

> <CNNscore>
0.5824319124

> <CNNaffinity>
6.9838919640

> <CNN_VS>
4.0676417351

> <CNNaffinity_variance>
0.0885483623

$$$$
[H]c1nc(N2C([H])([H])C([H])([H])N(C([H])([H])C([H])([H])C([H])([H])Sc3c([H])c([H])c(F)c([H])c3[H])C([H])([H])C2([H])[H])c([H])c([H])c1[H]


 23 25  0  0  0  0  0  0  0  0999 V2000
  -12.6220   -7.8059    9.4898 N   0  0  0  0  0  0  0  0  0  0  0  0
  -12.0324   -9.0076    8.9533 C   0  0  0  0  0  0  0  0  0  0  0  0
  -11.0752   -8.7946    7.8131 C   0  0  0  0  0  0  0  0  0  0  0  0
  -10.1619   -7.7159    8.0286 N   0  0  0  0  0  0  0  0  0  0  0  0
  -10.5804   -6.6045    8.8428 C   0  0  0  0  0  0  0  0  0  0  0  0
  -12.0788   -6.6089    8.8998 C   0  0  0  0  0  0  0  0  0  0  0  0
   -8.8723   -7.7622    7.4370 C   0  0  0  0  0  0  0  0  0  0  0  0
   -8.0415   -8.8534    7.5466 C   0  0  0  0  0  0  0  0  0  0  0  0
   -6.7720   -8.8711    6.9643 C   0  0  0  0  0  0  0  0  0  0  0  0
   -6.3277   -7.7845    6.2637 C   0  0  0  0  0  0  0  0  0  0  0  0
   -7.1748   -6.7059    6.1670 C   0  0  0  0  0  0  0  0  0  0  0  0
   -8.3897   -6.7044    6.7314 N   0  0  0  0  0  0  0  0  0  0  0  0
  -14.0667   -7.8419    9.4209 C   0  0  0  0  0  0  0  0  0  0  0  0
  -14.5115   -7.3808    8.0579 C   0  0  0  0  0  0  0  0  0  0  0  0
  -14.8136   -8.6251    7.2240 C   0  0  0  0  0  0  0  0  0  0  0  0
  -14.7722   -8.1972    5.4651 S   0  0  0  0  0  0  0  0  0  0  0  0
  -19.4611   -4.8646    3.9295 F   0  0  0  0  0  0  0  0  0  0  0  0
  -18.4006   -5.6444    4.2722 C   0  0  0  0  0  0  0  0  0  0  0  0
  -17.2736   -5.0610    4.8355 C   0  0  0  0  0  0  0  0  0  0  0  0
  -16.1893   -5.8224    5.1910 C   0  0  0  0  0  0  0  0  0  0  0  0
  -16.1698   -7.1885    5.0067 C   0  0  0  0  0  0  0  0  0  0  0  0
  -17.2954   -7.7562    4.4462 C   0  0  0  0  0  0  0  0  0  0  0  0
  -18.3991   -7.0068    4.0808 C   0  0  0  0  0  0  0  0  0  0  0  0
 17 18  1  0  0  0
 18 19  2  0  0  0
 19 20  1  0  0  0
 20 21  2  0  0  0
 21 16  1  0  0  0
 16 15  1  0  0  0
 15 14  1  0  0  0
 14 13  1  0  0  0
 13  1  1  0  0  0
  1  2  1  0  0  0
  2  3  1  0  0  0
  3  4  1  0  0  0
  4  7  1  0  0  0
  7  8  2  0  0  0
  8  9  1  0  0  0
  9 10  2  0  0  0
 10 11  1  0  0  0
 11 12  2  0  0  0
  4  5  1  0  0  0
  5  6  1  0  0  0
 21 22  1  0  0  0
 22 23  2  0  0  0
 23 18  1  0  0  0
  6  1  1  0  0  0
 12  7  1  0  0  0
M  END
> <minimizedAffinity>
-8.36212

> <CNNscore>
0.5575539470

> <CNNaffinity>
6.9331297874

> <CNN_VS>
3.8655939102

> <CNNaffinity_variance>
0.1469225436

$$$$
[H]c1nc(N2C([H])([H])C([H])([H])N(C([H])([H])C([H])([H])C([H])([H])Sc3c([H])c([H])c(F)c([H])c3[H])C([H])([H])C2([H])[H])c([H])c([H])c1[H]


 23 25  0  0  0  0  0  0  0  0999 V2000
  -11.1959   -8.8244    7.4922 N   0  0  0  0  0  0  0  0  0  0  0  0
  -10.8699   -7.4618    7.8341 C   0  0  0  0  0  0  0  0  0  0  0  0
   -9.4503   -7.2373    8.2767 C   0  0  0  0  0  0  0  0  0  0  0  0
   -8.4853   -7.9041    7.4594 N   0  0  0  0  0  0  0  0  0  0  0  0
   -8.8575   -9.1341    6.8097 C   0  0  0  0  0  0  0  0  0  0  0  0
  -10.0489   -9.6957    7.5262 C   0  0  0  0  0  0  0  0  0  0  0  0
   -7.1891   -7.3448    7.3093 C   0  0  0  0  0  0  0  0  0  0  0  0
   -6.2965   -7.2442    8.3514 C   0  0  0  0  0  0  0  0  0  0  0  0
   -5.0300   -6.6799    8.1813 C   0  0  0  0  0  0  0  0  0  0  0  0
   -4.6515   -6.2108    6.9543 C   0  0  0  0  0  0  0  0  0  0  0  0
   -5.5595   -6.3221    5.9279 C   0  0  0  0  0  0  0  0  0  0  0  0
   -6.7706   -6.8658    6.1072 N   0  0  0  0  0  0  0  0  0  0  0  0
  -12.2898   -9.3298    8.2929 C   0  0  0  0  0  0  0  0  0  0  0  0
  -13.3276   -9.9408    7.3887 C   0  0  0  0  0  0  0  0  0  0  0  0
  -14.4017   -8.8837    7.1359 C   0  0  0  0  0  0  0  0  0  0  0  0
  -14.4668   -8.5006    5.3674 S   0  0  0  0  0  0  0  0  0  0  0  0
  -19.1645   -5.0863    4.0540 F   0  0  0  0  0  0  0  0  0  0  0  0
  -18.0810   -5.8481    4.3635 C   0  0  0  0  0  0  0  0  0  0  0  0
  -18.0879   -7.2041    4.0650 C   0  0  0  0  0  0  0  0  0  0  0  0
  -17.0096   -7.9971    4.3653 C   0  0  0  0  0  0  0  0  0  0  0  0
  -15.8808   -7.4882    4.9716 C   0  0  0  0  0  0  0  0  0  0  0  0
  -15.8862   -6.1397    5.2632 C   0  0  0  0  0  0  0  0  0  0  0  0
  -16.9629   -5.3227    4.9687 C   0  0  0  0  0  0  0  0  0  0  0  0
 17 18  1  0  0  0
 18 19  2  0  0  0
 19 20  1  0  0  0
 20 21  2  0  0  0
 21 16  1  0  0  0
 16 15  1  0  0  0
 15 14  1  0  0  0
 14 13  1  0  0  0
 13  1  1  0  0  0
  1  2  1  0  0  0
  2  3  1  0  0  0
  3  4  1  0  0  0
  4  7  1  0  0  0
  7  8  2  0  0  0
  8  9  1  0  0  0
  9 10  2  0  0  0
 10 11  1  0  0  0
 11 12  2  0  0  0
  4  5  1  0  0  0
  5  6  1  0  0  0
 21 22  1  0  0  0
 22 23  2  0  0  0
 23 18  1  0  0  0
  6  1  1  0  0  0
 12  7  1  0  0  0
M  END
> <minimizedAffinity>
-7.63071

> <CNNscore>
0.5215699673

> <CNNaffinity>
6.5311751366

> <CNN_VS>
3.4064648151

> <CNNaffinity_variance>
0.1727106273

$$$$
[H]c1nc(N2C([H])([H])C([H])([H])N(C([H])([H])C([H])([H])C([H])([H])Sc3c([H])c([H])c(F)c([H])c3[H])C([H])([H])C2([H])[H])c([H])c([H])c1[H]


 23 25  0  0  0  0  0  0  0  0999 V2000
  -13.9553   -7.2148    9.2071 N   0  0  0  0  0  0  0  0  0  0  0  0
  -13.8805   -6.1968    8.1884 C   0  0  0  0  0  0  0  0  0  0  0  0
  -14.4012   -6.6059    6.8381 C   0  0  0  0  0  0  0  0  0  0  0  0
  -15.6411   -7.3155    6.8956 N   0  0  0  0  0  0  0  0  0  0  0  0
  -15.9301   -8.1146    8.0580 C   0  0  0  0  0  0  0  0  0  0  0  0
  -14.6352   -8.4026    8.7571 C   0  0  0  0  0  0  0  0  0  0  0  0
  -16.5529   -7.2200    5.8117 C   0  0  0  0  0  0  0  0  0  0  0  0
  -16.9865   -6.0155    5.3075 C   0  0  0  0  0  0  0  0  0  0  0  0
  -17.8928   -5.9472    4.2468 C   0  0  0  0  0  0  0  0  0  0  0  0
  -18.3711   -7.0971    3.6831 C   0  0  0  0  0  0  0  0  0  0  0  0
  -17.9238   -8.2888    4.2029 C   0  0  0  0  0  0  0  0  0  0  0  0
  -17.0543   -8.3376    5.2208 N   0  0  0  0  0  0  0  0  0  0  0  0
  -12.6535   -7.5089    9.7659 C   0  0  0  0  0  0  0  0  0  0  0  0
  -11.9646   -6.2196   10.1282 C   0  0  0  0  0  0  0  0  0  0  0  0
  -10.6418   -6.1711    9.3647 C   0  0  0  0  0  0  0  0  0  0  0  0
  -10.4996   -7.6362    8.3104 S   0  0  0  0  0  0  0  0  0  0  0  0
   -5.0196   -8.1174    6.0327 F   0  0  0  0  0  0  0  0  0  0  0  0
   -6.2731   -7.9864    6.5442 C   0  0  0  0  0  0  0  0  0  0  0  0
   -6.8471   -9.0464    7.2333 C   0  0  0  0  0  0  0  0  0  0  0  0
   -8.1095   -8.9431    7.7601 C   0  0  0  0  0  0  0  0  0  0  0  0
   -8.8583   -7.7928    7.6302 C   0  0  0  0  0  0  0  0  0  0  0  0
   -8.2770   -6.7469    6.9435 C   0  0  0  0  0  0  0  0  0  0  0  0
   -7.0057   -6.8304    6.4047 C   0  0  0  0  0  0  0  0  0  0  0  0
 17 18  1  0  0  0
 18 19  2  0  0  0
 19 20  1  0  0  0
 20 21  2  0  0  0
 21 16  1  0  0  0
 16 15  1  0  0  0
 15 14  1  0  0  0
 14 13  1  0  0  0
 13  1  1  0  0  0
  1  2  1  0  0  0
  2  3  1  0  0  0
  3  4  1  0  0  0
  4  7  1  0  0  0
  7  8  2  0  0  0
  8  9  1  0  0  0
  9 10  2  0  0  0
 10 11  1  0  0  0
 11 12  2  0  0  0
  4  5  1  0  0  0
  5  6  1  0  0  0
 21 22  1  0  0  0
 22 23  2  0  0  0
 23 18  1  0  0  0
  6  1  1  0  0  0
 12  7  1  0  0  0
M  END
> <minimizedAffinity>
-8.05719

> <CNNscore>
0.4292100072

> <CNNaffinity>
6.7552437782

> <CNN_VS>
2.8994181156

> <CNNaffinity_variance>
0.1092834696

$$$$
[H]c1nc(N2C([H])([H])C([H])([H])N(C([H])([H])C([H])([H])C([H])([H])Sc3c([H])c([H])c(F)c([H])c3[H])C([H])([H])C2([H])[H])c([H])c([H])c1[H]


 23 25  0  0  0  0  0  0  0  0999 V2000
  -10.4601   -9.0707    7.7766 N   0  0  0  0  0  0  0  0  0  0  0  0
   -9.2714   -9.7811    7.3740 C   0  0  0  0  0  0  0  0  0  0  0  0
   -8.2288   -8.9426    6.6875 C   0  0  0  0  0  0  0  0  0  0  0  0
   -7.9957   -7.6853    7.3269 N   0  0  0  0  0  0  0  0  0  0  0  0
   -9.0781   -7.0581    8.0398 C   0  0  0  0  0  0  0  0  0  0  0  0
  -10.3640   -7.6516    7.5473 C   0  0  0  0  0  0  0  0  0  0  0  0
   -6.7118   -7.0851    7.2434 C   0  0  0  0  0  0  0  0  0  0  0  0
   -5.8883   -6.9337    8.3351 C   0  0  0  0  0  0  0  0  0  0  0  0
   -4.6331   -6.3300    8.2298 C   0  0  0  0  0  0  0  0  0  0  0  0
   -4.1959   -5.8723    7.0181 C   0  0  0  0  0  0  0  0  0  0  0  0
   -5.0353   -6.0346    5.9413 C   0  0  0  0  0  0  0  0  0  0  0  0
   -6.2366   -6.6157    6.0588 N   0  0  0  0  0  0  0  0  0  0  0  0
  -11.6505   -9.6406    7.1837 C   0  0  0  0  0  0  0  0  0  0  0  0
  -12.7422   -9.7011    8.2194 C   0  0  0  0  0  0  0  0  0  0  0  0
  -13.9673   -8.9929    7.6427 C   0  0  0  0  0  0  0  0  0  0  0  0
  -13.8659   -8.9877    5.8349 S   0  0  0  0  0  0  0  0  0  0  0  0
  -17.1627   -4.6302    3.4698 F   0  0  0  0  0  0  0  0  0  0  0  0
  -16.4208   -5.6409    3.9973 C   0  0  0  0  0  0  0  0  0  0  0  0
  -15.4154   -5.3501    4.9097 C   0  0  0  0  0  0  0  0  0  0  0  0
  -14.6514   -6.3487    5.4581 C   0  0  0  0  0  0  0  0  0  0  0  0
  -14.8453   -7.6739    5.1311 C   0  0  0  0  0  0  0  0  0  0  0  0
  -15.8472   -7.9499    4.2235 C   0  0  0  0  0  0  0  0  0  0  0  0
  -16.6289   -6.9581    3.6590 C   0  0  0  0  0  0  0  0  0  0  0  0
 17 18  1  0  0  0
 18 19  2  0  0  0
 19 20  1  0  0  0
 20 21  2  0  0  0
 21 16  1  0  0  0
 16 15  1  0  0  0
 15 14  1  0  0  0
 14 13  1  0  0  0
 13  1  1  0  0  0
  1  2  1  0  0  0
  2  3  1  0  0  0
  3  4  1  0  0  0
  4  7  1  0  0  0
  7  8  2  0  0  0
  8  9  1  0  0  0
  9 10  2  0  0  0
 10 11  1  0  0  0
 11 12  2  0  0  0
  4  5  1  0  0  0
  5  6  1  0  0  0
 21 22  1  0  0  0
 22 23  2  0  0  0
 23 18  1  0  0  0
  6  1  1  0  0  0
 12  7  1  0  0  0
M  END
> <minimizedAffinity>
-7.46885

> <CNNscore>
0.4198172092

> <CNNaffinity>
6.3608007431

> <CNN_VS>
2.6703736782

> <CNNaffinity_variance>
0.1206827387

$$$$
[H]c1nc(N2C([H])([H])C([H])([H])N(C([H])([H])C([H])([H])C([H])([H])Sc3c([H])c([H])c(F)c([H])c3[H])C([H])([H])C2([H])[H])c([H])c([H])c1[H]


 23 25  0  0  0  0  0  0  0  0999 V2000
   -6.9664   -8.0104    7.1023 N   0  0  0  0  0  0  0  0  0  0  0  0
   -6.7999   -9.1764    7.9344 C   0  0  0  0  0  0  0  0  0  0  0  0
   -5.8238  -10.1963    7.4158 C   0  0  0  0  0  0  0  0  0  0  0  0
   -4.6092   -9.6250    6.9235 N   0  0  0  0  0  0  0  0  0  0  0  0
   -4.6438   -8.3005    6.3597 C   0  0  0  0  0  0  0  0  0  0  0  0
   -6.0619   -7.9940    5.9809 C   0  0  0  0  0  0  0  0  0  0  0  0
   -3.4042  -10.3718    6.9979 C   0  0  0  0  0  0  0  0  0  0  0  0
   -2.3028  -10.0869    6.2241 C   0  0  0  0  0  0  0  0  0  0  0  0
   -1.1314  -10.8432    6.3077 C   0  0  0  0  0  0  0  0  0  0  0  0
   -1.0603  -11.8970    7.1756 C   0  0  0  0  0  0  0  0  0  0  0  0
   -2.1726  -12.1628    7.9388 C   0  0  0  0  0  0  0  0  0  0  0  0
   -3.2889  -11.4280    7.8468 N   0  0  0  0  0  0  0  0  0  0  0  0
   -8.3439   -7.8356    6.6958 C   0  0  0  0  0  0  0  0  0  0  0  0
   -9.1955   -8.8863    7.3582 C   0  0  0  0  0  0  0  0  0  0  0  0
  -10.4983   -8.2183    7.7956 C   0  0  0  0  0  0  0  0  0  0  0  0
  -10.1392   -6.5728    8.4602 S   0  0  0  0  0  0  0  0  0  0  0  0
  -14.5459   -4.6869   11.9922 F   0  0  0  0  0  0  0  0  0  0  0  0
  -13.5537   -5.1324   11.1754 C   0  0  0  0  0  0  0  0  0  0  0  0
  -12.2934   -4.5543   11.2486 C   0  0  0  0  0  0  0  0  0  0  0  0
  -11.2735   -4.9831   10.4375 C   0  0  0  0  0  0  0  0  0  0  0  0
  -11.4522   -5.9979    9.5215 C   0  0  0  0  0  0  0  0  0  0  0  0
  -12.7088   -6.5641    9.4584 C   0  0  0  0  0  0  0  0  0  0  0  0
  -13.7506   -6.1467   10.2671 C   0  0  0  0  0  0  0  0  0  0  0  0
 17 18  1  0  0  0
 18 19  2  0  0  0
 19 20  1  0  0  0
 20 21  2  0  0  0
 21 16  1  0  0  0
 16 15  1  0  0  0
 15 14  1  0  0  0
 14 13  1  0  0  0
 13  1  1  0  0  0
  1  2  1  0  0  0
  2  3  1  0  0  0
  3  4  1  0  0  0
  4  7  1  0  0  0
  7  8  2  0  0  0
  8  9  1  0  0  0
  9 10  2  0  0  0
 10 11  1  0  0  0
 11 12  2  0  0  0
  4  5  1  0  0  0
  5  6  1  0  0  0
 21 22  1  0  0  0
 22 23  2  0  0  0
 23 18  1  0  0  0
  6  1  1  0  0  0
 12  7  1  0  0  0
M  END
> <minimizedAffinity>
7.29237

> <CNNscore>
0.3815732002

> <CNNaffinity>
5.2954492569

> <CNN_VS>
2.0206015110

> <CNNaffinity_variance>
0.9714242220

$$$$
[H]c1nc(N2C([H])([H])C([H])([H])N(C([H])([H])C([H])([H])C([H])([H])Sc3c([H])c([H])c(F)c([H])c3[H])C([H])([H])C2([H])[H])c([H])c([H])c1[H]


 23 25  0  0  0  0  0  0  0  0999 V2000
  -13.6507   -9.9798    6.8995 N   0  0  0  0  0  0  0  0  0  0  0  0
  -14.6256   -9.2642    7.6852 C   0  0  0  0  0  0  0  0  0  0  0  0
  -15.1057   -7.9722    7.0838 C   0  0  0  0  0  0  0  0  0  0  0  0
  -15.4043   -8.0681    5.6889 N   0  0  0  0  0  0  0  0  0  0  0  0
  -14.6750   -9.0158    4.8867 C   0  0  0  0  0  0  0  0  0  0  0  0
  -13.4136   -9.3684    5.6166 C   0  0  0  0  0  0  0  0  0  0  0  0
  -16.4042   -7.2308    5.1281 C   0  0  0  0  0  0  0  0  0  0  0  0
  -16.6063   -5.9338    5.5402 C   0  0  0  0  0  0  0  0  0  0  0  0
  -17.6041   -5.1326    4.9803 C   0  0  0  0  0  0  0  0  0  0  0  0
  -18.4096   -5.6343    3.9962 C   0  0  0  0  0  0  0  0  0  0  0  0
  -18.1892   -6.9324    3.6002 C   0  0  0  0  0  0  0  0  0  0  0  0
  -17.2279   -7.6880    4.1473 N   0  0  0  0  0  0  0  0  0  0  0  0
  -12.4246  -10.1966    7.6364 C   0  0  0  0  0  0  0  0  0  0  0  0
  -11.2491   -9.8637    6.7557 C   0  0  0  0  0  0  0  0  0  0  0  0
  -10.0489   -9.6026    7.6646 C   0  0  0  0  0  0  0  0  0  0  0  0
   -9.7162   -7.8239    7.7287 S   0  0  0  0  0  0  0  0  0  0  0  0
  -13.5531   -5.0622   11.3483 F   0  0  0  0  0  0  0  0  0  0  0  0
  -12.6908   -5.7109   10.5202 C   0  0  0  0  0  0  0  0  0  0  0  0
  -11.5187   -5.0824   10.1214 C   0  0  0  0  0  0  0  0  0  0  0  0
  -10.6304   -5.7123    9.2871 C   0  0  0  0  0  0  0  0  0  0  0  0
  -10.8593   -6.9858    8.8112 C   0  0  0  0  0  0  0  0  0  0  0  0
  -12.0273   -7.5995    9.2146 C   0  0  0  0  0  0  0  0  0  0  0  0
  -12.9360   -6.9823   10.0552 C   0  0  0  0  0  0  0  0  0  0  0  0
 17 18  1  0  0  0
 18 19  2  0  0  0
 19 20  1  0  0  0
 20 21  2  0  0  0
 21 16  1  0  0  0
 16 15  1  0  0  0
 15 14  1  0  0  0
 14 13  1  0  0  0
 13  1  1  0  0  0
  1  2  1  0  0  0
  2  3  1  0  0  0
  3  4  1  0  0  0
  4  7  1  0  0  0
  7  8  2  0  0  0
  8  9  1  0  0  0
  9 10  2  0  0  0
 10 11  1  0  0  0
 11 12  2  0  0  0
  4  5  1  0  0  0
  5  6  1  0  0  0
 21 22  1  0  0  0
 22 23  2  0  0  0
 23 18  1  0  0  0
  6  1  1  0  0  0
 12  7  1  0  0  0
M  END
> <minimizedAffinity>
-7.68816

> <CNNscore>
0.3582043350

> <CNNaffinity>
6.7569365501

> <CNN_VS>
2.4203639030

> <CNNaffinity_variance>
0.0539496355

$$$$
[H]c1nc(N2C([H])([H])C([H])([H])N(C([H])([H])C([H])([H])C([H])([H])Sc3c([H])c([H])c(F)c([H])c3[H])C([H])([H])C2([H])[H])c([H])c([H])c1[H]


 23 25  0  0  0  0  0  0  0  0999 V2000
  -11.1811   -8.6190    7.5335 N   0  0  0  0  0  0  0  0  0  0  0  0
  -10.6287   -7.3586    7.9644 C   0  0  0  0  0  0  0  0  0  0  0  0
   -9.1980   -7.4130    8.4246 C   0  0  0  0  0  0  0  0  0  0  0  0
   -8.3519   -8.1840    7.5681 N   0  0  0  0  0  0  0  0  0  0  0  0
   -8.9225   -9.2865    6.8385 C   0  0  0  0  0  0  0  0  0  0  0  0
  -10.2031   -9.6769    7.5137 C   0  0  0  0  0  0  0  0  0  0  0  0
   -6.9764   -7.8502    7.4583 C   0  0  0  0  0  0  0  0  0  0  0  0
   -6.1238   -8.4845    6.5844 C   0  0  0  0  0  0  0  0  0  0  0  0
   -4.7712   -8.1455    6.5021 C   0  0  0  0  0  0  0  0  0  0  0  0
   -4.2650   -7.1601    7.3032 C   0  0  0  0  0  0  0  0  0  0  0  0
   -5.1354   -6.5399    8.1682 C   0  0  0  0  0  0  0  0  0  0  0  0
   -6.4302   -6.8768    8.2353 N   0  0  0  0  0  0  0  0  0  0  0  0
  -12.3572   -8.9765    8.2966 C   0  0  0  0  0  0  0  0  0  0  0  0
  -12.7409   -7.8249    9.1882 C   0  0  0  0  0  0  0  0  0  0  0  0
  -14.2560   -7.6504    9.0928 C   0  0  0  0  0  0  0  0  0  0  0  0
  -14.8616   -8.4493    7.5850 S   0  0  0  0  0  0  0  0  0  0  0  0
  -16.8397   -4.4536    3.6388 F   0  0  0  0  0  0  0  0  0  0  0  0
  -16.4088   -5.3754    4.5414 C   0  0  0  0  0  0  0  0  0  0  0  0
  -15.0697   -5.4036    4.9073 C   0  0  0  0  0  0  0  0  0  0  0  0
  -14.6067   -6.3217    5.8153 C   0  0  0  0  0  0  0  0  0  0  0  0
  -15.4422   -7.2495    6.3999 C   0  0  0  0  0  0  0  0  0  0  0  0
  -16.7703   -7.2113    6.0282 C   0  0  0  0  0  0  0  0  0  0  0  0
  -17.2576   -6.2938    5.1148 C   0  0  0  0  0  0  0  0  0  0  0  0
 17 18  1  0  0  0
 18 19  2  0  0  0
 19 20  1  0  0  0
 20 21  2  0  0  0
 21 16  1  0  0  0
 16 15  1  0  0  0
 15 14  1  0  0  0
 14 13  1  0  0  0
 13  1  1  0  0  0
  1  2  1  0  0  0
  2  3  1  0  0  0
  3  4  1  0  0  0
  4  7  1  0  0  0
  7  8  2  0  0  0
  8  9  1  0  0  0
  9 10  2  0  0  0
 10 11  1  0  0  0
 11 12  2  0  0  0
  4  5  1  0  0  0
  5  6  1  0  0  0
 21 22  1  0  0  0
 22 23  2  0  0  0
 23 18  1  0  0  0
  6  1  1  0  0  0
 12  7  1  0  0  0
M  END
> <minimizedAffinity>
-7.64978

> <CNNscore>
0.3215097785

> <CNNaffinity>
6.4477758408

> <CNN_VS>
2.0730230808

> <CNNaffinity_variance>
0.1799149215

$$$$
[H]c1nc(N2C([H])([H])C([H])([H])N(C([H])([H])C([H])([H])C([H])([H])Sc3c([H])c([H])c(F)c([H])c3[H])C([H])([H])C2([H])[H])c([H])c([H])c1[H]


 23 25  0  0  0  0  0  0  0  0999 V2000
  -12.7306   -7.7290    9.5744 N   0  0  0  0  0  0  0  0  0  0  0  0
  -12.2550   -8.8952    8.8718 C   0  0  0  0  0  0  0  0  0  0  0  0
  -11.3014   -8.6152    7.7431 C   0  0  0  0  0  0  0  0  0  0  0  0
  -10.2957   -7.6534    8.0709 N   0  0  0  0  0  0  0  0  0  0  0  0
  -10.6042   -6.6270    9.0325 C   0  0  0  0  0  0  0  0  0  0  0  0
  -12.0963   -6.5145    9.1289 C   0  0  0  0  0  0  0  0  0  0  0  0
   -9.0243   -7.7288    7.4437 C   0  0  0  0  0  0  0  0  0  0  0  0
   -8.2521   -8.8674    7.4606 C   0  0  0  0  0  0  0  0  0  0  0  0
   -6.9991   -8.9139    6.8450 C   0  0  0  0  0  0  0  0  0  0  0  0
   -6.5124   -7.8086    6.2045 C   0  0  0  0  0  0  0  0  0  0  0  0
   -7.3013   -6.6826    6.2001 C   0  0  0  0  0  0  0  0  0  0  0  0
   -8.5011   -6.6539    6.7954 N   0  0  0  0  0  0  0  0  0  0  0  0
  -14.1741   -7.6358    9.5404 C   0  0  0  0  0  0  0  0  0  0  0  0
  -14.6891   -8.3339    8.3093 C   0  0  0  0  0  0  0  0  0  0  0  0
  -16.1882   -8.0546    8.2117 C   0  0  0  0  0  0  0  0  0  0  0  0
  -16.7007   -8.1110    6.4760 S   0  0  0  0  0  0  0  0  0  0  0  0
  -14.9027   -3.2726    3.5082 F   0  0  0  0  0  0  0  0  0  0  0  0
  -15.3352   -4.3724    4.1816 C   0  0  0  0  0  0  0  0  0  0  0  0
  -14.4088   -5.2493    4.7302 C   0  0  0  0  0  0  0  0  0  0  0  0
  -14.8157   -6.3664    5.4146 C   0  0  0  0  0  0  0  0  0  0  0  0
  -16.1503   -6.6662    5.5868 C   0  0  0  0  0  0  0  0  0  0  0  0
  -17.0608   -5.7874    5.0371 C   0  0  0  0  0  0  0  0  0  0  0  0
  -16.6717   -4.6555    4.3436 C   0  0  0  0  0  0  0  0  0  0  0  0
 17 18  1  0  0  0
 18 19  2  0  0  0
 19 20  1  0  0  0
 20 21  2  0  0  0
 21 16  1  0  0  0
 16 15  1  0  0  0
 15 14  1  0  0  0
 14 13  1  0  0  0
 13  1  1  0  0  0
  1  2  1  0  0  0
  2  3  1  0  0  0
  3  4  1  0  0  0
  4  7  1  0  0  0
  7  8  2  0  0  0
  8  9  1  0  0  0
  9 10  2  0  0  0
 10 11  1  0  0  0
 11 12  2  0  0  0
  4  5  1  0  0  0
  5  6  1  0  0  0
 21 22  1  0  0  0
 22 23  2  0  0  0
 23 18  1  0  0  0
  6  1  1  0  0  0
 12  7  1  0  0  0
M  END
> <minimizedAffinity>
-8.06478

> <CNNscore>
0.2481590062

> <CNNaffinity>
6.5052003860

> <CNN_VS>
1.6143240929

> <CNNaffinity_variance>
0.0791308805

$$$$
[H]c1c([H])c([H])c2c(c1[H])[C@]([H])(c1c([H])c([H])c(F)c([H])c1[H])C([H])([H])C([H])([H])[C@]2([H])N([H])C([H])([H])[H]


 20 22  0  0  0  0  0  0  0  0999 V2000
  -13.9405   -9.2490    8.2398 C   0  0  0  0  0  0  0  0  0  0  0  0
  -13.0754  -10.1232    7.3949 C   0  0  0  0  0  0  0  0  0  0  0  0
  -11.9182   -9.3431    6.8168 C   0  0  0  0  0  0  0  0  0  0  0  0
  -11.0418   -8.9598    8.0185 C   0  0  0  0  0  0  0  0  0  0  0  0
  -11.8527   -7.9387    8.7506 C   0  0  0  0  0  0  0  0  0  0  0  0
  -11.2339   -6.8606    9.3213 C   0  0  0  0  0  0  0  0  0  0  0  0
  -12.0028   -5.9295    9.9915 C   0  0  0  0  0  0  0  0  0  0  0  0
  -13.3585   -6.0486   10.1037 C   0  0  0  0  0  0  0  0  0  0  0  0
  -13.9548   -7.1558    9.5121 C   0  0  0  0  0  0  0  0  0  0  0  0
  -13.2185   -8.1036    8.8363 C   0  0  0  0  0  0  0  0  0  0  0  0
   -9.7102   -8.5052    7.6388 C   0  0  0  0  0  0  0  0  0  0  0  0
   -8.6594   -9.3931    7.6145 C   0  0  0  0  0  0  0  0  0  0  0  0
   -7.3850   -9.0043    7.2608 C   0  0  0  0  0  0  0  0  0  0  0  0
   -7.1392   -7.6966    6.9199 C   0  0  0  0  0  0  0  0  0  0  0  0
   -5.8741   -7.3223    6.5722 F   0  0  0  0  0  0  0  0  0  0  0  0
   -8.1643   -6.7919    6.9350 C   0  0  0  0  0  0  0  0  0  0  0  0
   -9.4543   -7.1964    7.2954 C   0  0  0  0  0  0  0  0  0  0  0  0
  -14.9737   -8.3189    6.2699 C   0  0  0  0  0  0  0  0  0  0  0  0
  -15.1751   -8.8565    7.5866 N   0  0  0  0  0  0  0  0  0  0  0  0
  -15.7538   -9.7214    7.4984 H   0  0  0  0  0  0  0  0  0  0  0  0
 18 19  1  0  0  0
 19  1  1  0  0  0
  1  2  1  0  0  0
  2  3  1  0  0  0
  3  4  1  0  0  0
  4 11  1  0  0  0
 11 12  2  0  0  0
 12 13  1  0  0  0
 13 14  2  0  0  0
 14 15  1  0  0  0
 14 16  1  0  0  0
 16 17  2  0  0  0
  4  5  1  0  0  0
  5  6  2  0  0  0
  6  7  1  0  0  0
  7  8  2  0  0  0
  8  9  1  0  0  0
  9 10  2  0  0  0
 10  1  1  0  0  0
 17 11  1  0  0  0
 10  5  1  0  0  0
 19 20  1  0  0  0
M  END
> <minimizedAffinity>
-9.93752

> <CNNscore>
0.7306904793

> <CNNaffinity>
6.2500133514

> <CNN_VS>
4.5668253899

> <CNNaffinity_variance>
0.0335828066

$$$$
[H]c1c([H])c([H])c2c(c1[H])[C@]([H])(c1c([H])c([H])c(F)c([H])c1[H])C([H])([H])C([H])([H])[C@]2([H])N([H])C([H])([H])[H]


 20 22  0  0  0  0  0  0  0  0999 V2000
  -17.0225   -8.8637    4.1531 C   0  0  0  0  0  0  0  0  0  0  0  0
  -17.6827   -7.6652    3.5579 C   0  0  0  0  0  0  0  0  0  0  0  0
  -17.3229   -6.4133    4.3231 C   0  0  0  0  0  0  0  0  0  0  0  0
  -15.8213   -6.2016    4.0789 C   0  0  0  0  0  0  0  0  0  0  0  0
  -15.1677   -7.3082    4.8435 C   0  0  0  0  0  0  0  0  0  0  0  0
  -13.9987   -7.0735    5.5137 C   0  0  0  0  0  0  0  0  0  0  0  0
  -13.4134   -8.1099    6.2142 C   0  0  0  0  0  0  0  0  0  0  0  0
  -13.9616   -9.3597    6.2602 C   0  0  0  0  0  0  0  0  0  0  0  0
  -15.1495   -9.5634    5.5682 C   0  0  0  0  0  0  0  0  0  0  0  0
  -15.7604   -8.5526    4.8595 C   0  0  0  0  0  0  0  0  0  0  0  0
  -15.3603   -4.8686    4.4455 C   0  0  0  0  0  0  0  0  0  0  0  0
  -14.2931   -4.3027    3.7866 C   0  0  0  0  0  0  0  0  0  0  0  0
  -13.8261   -3.0446    4.1020 C   0  0  0  0  0  0  0  0  0  0  0  0
  -14.4317   -2.3210    5.1001 C   0  0  0  0  0  0  0  0  0  0  0  0
  -13.9610   -1.0773    5.4048 F   0  0  0  0  0  0  0  0  0  0  0  0
  -15.4946   -2.8580    5.7721 C   0  0  0  0  0  0  0  0  0  0  0  0
  -15.9612   -4.1357    5.4445 C   0  0  0  0  0  0  0  0  0  0  0  0
  -19.1672   -9.0332    5.2414 C   0  0  0  0  0  0  0  0  0  0  0  0
  -17.9216   -9.6834    4.9435 N   0  0  0  0  0  0  0  0  0  0  0  0
  -18.1282  -10.5339    4.3736 H   0  0  0  0  0  0  0  0  0  0  0  0
 18 19  1  0  0  0
 19  1  1  0  0  0
  1  2  1  0  0  0
  2  3  1  0  0  0
  3  4  1  0  0  0
  4 11  1  0  0  0
 11 12  2  0  0  0
 12 13  1  0  0  0
 13 14  2  0  0  0
 14 15  1  0  0  0
 14 16  1  0  0  0
 16 17  2  0  0  0
  4  5  1  0  0  0
  5  6  2  0  0  0
  6  7  1  0  0  0
  7  8  2  0  0  0
  8  9  1  0  0  0
  9 10  2  0  0  0
 10  1  1  0  0  0
 17 11  1  0  0  0
 10  5  1  0  0  0
 19 20  1  0  0  0
M  END
> <minimizedAffinity>
2.17748

> <CNNscore>
0.5535209179

> <CNNaffinity>
6.3624277115

> <CNN_VS>
3.5217368603

> <CNNaffinity_variance>
1.2016731501

$$$$
[H]c1c([H])c([H])c2c(c1[H])[C@]([H])(c1c([H])c([H])c(F)c([H])c1[H])C([H])([H])C([H])([H])[C@]2([H])N([H])C([H])([H])[H]


 20 22  0  0  0  0  0  0  0  0999 V2000
  -14.3696   -8.4219    4.5756 C   0  0  0  0  0  0  0  0  0  0  0  0
  -14.7487   -7.6013    3.3885 C   0  0  0  0  0  0  0  0  0  0  0  0
  -16.1970   -7.1782    3.4633 C   0  0  0  0  0  0  0  0  0  0  0  0
  -16.2808   -6.2137    4.6557 C   0  0  0  0  0  0  0  0  0  0  0  0
  -16.0856   -7.0922    5.8500 C   0  0  0  0  0  0  0  0  0  0  0  0
  -16.8067   -6.8613    6.9891 C   0  0  0  0  0  0  0  0  0  0  0  0
  -16.6110   -7.6860    8.0795 C   0  0  0  0  0  0  0  0  0  0  0  0
  -15.7228   -8.7229    8.0590 C   0  0  0  0  0  0  0  0  0  0  0  0
  -15.0067   -8.9293    6.8858 C   0  0  0  0  0  0  0  0  0  0  0  0
  -15.1769   -8.1263    5.7798 C   0  0  0  0  0  0  0  0  0  0  0  0
  -17.5125   -5.4352    4.6815 C   0  0  0  0  0  0  0  0  0  0  0  0
  -17.5445   -4.2164    5.3194 C   0  0  0  0  0  0  0  0  0  0  0  0
  -18.6884   -3.4487    5.3666 C   0  0  0  0  0  0  0  0  0  0  0  0
  -19.8385   -3.8978    4.7648 C   0  0  0  0  0  0  0  0  0  0  0  0
  -20.9653   -3.1305    4.8182 F   0  0  0  0  0  0  0  0  0  0  0  0
  -19.8363   -5.1053    4.1234 C   0  0  0  0  0  0  0  0  0  0  0  0
  -18.6701   -5.8773    4.0810 C   0  0  0  0  0  0  0  0  0  0  0  0
  -15.2337  -10.2801    3.3055 C   0  0  0  0  0  0  0  0  0  0  0  0
  -14.2848   -9.8420    4.2907 N   0  0  0  0  0  0  0  0  0  0  0  0
  -13.3254  -10.0140    3.9155 H   0  0  0  0  0  0  0  0  0  0  0  0
 18 19  1  0  0  0
 19  1  1  0  0  0
  1  2  1  0  0  0
  2  3  1  0  0  0
  3  4  1  0  0  0
  4 11  1  0  0  0
 11 12  2  0  0  0
 12 13  1  0  0  0
 13 14  2  0  0  0
 14 15  1  0  0  0
 14 16  1  0  0  0
 16 17  2  0  0  0
  4  5  1  0  0  0
  5  6  2  0  0  0
  6  7  1  0  0  0
  7  8  2  0  0  0
  8  9  1  0  0  0
  9 10  2  0  0  0
 10  1  1  0  0  0
 17 11  1  0  0  0
 10  5  1  0  0  0
 19 20  1  0  0  0
M  END
> <minimizedAffinity>
5.04789

> <CNNscore>
0.5023057461

> <CNNaffinity>
6.0102424622

> <CNN_VS>
3.0189793110

> <CNNaffinity_variance>
0.8238778114

$$$$
[H]c1c([H])c([H])c2c(c1[H])[C@]([H])(c1c([H])c([H])c(F)c([H])c1[H])C([H])([H])C([H])([H])[C@]2([H])N([H])C([H])([H])[H]


 20 22  0  0  0  0  0  0  0  0999 V2000
  -15.5780   -7.6151    8.0275 C   0  0  0  0  0  0  0  0  0  0  0  0
  -14.5961   -7.4651    9.1409 C   0  0  0  0  0  0  0  0  0  0  0  0
  -13.4179   -8.3916    8.9520 C   0  0  0  0  0  0  0  0  0  0  0  0
  -12.6859   -7.8741    7.7048 C   0  0  0  0  0  0  0  0  0  0  0  0
  -13.6084   -8.2069    6.5759 C   0  0  0  0  0  0  0  0  0  0  0  0
  -13.0956   -8.6361    5.3827 C   0  0  0  0  0  0  0  0  0  0  0  0
  -13.9663   -8.9390    4.3543 C   0  0  0  0  0  0  0  0  0  0  0  0
  -15.3204   -8.8245    4.4882 C   0  0  0  0  0  0  0  0  0  0  0  0
  -15.8076   -8.3858    5.7137 C   0  0  0  0  0  0  0  0  0  0  0  0
  -14.9680   -8.0751    6.7605 C   0  0  0  0  0  0  0  0  0  0  0  0
  -11.3419   -8.4181    7.5584 C   0  0  0  0  0  0  0  0  0  0  0  0
  -10.2457   -7.6125    7.7653 C   0  0  0  0  0  0  0  0  0  0  0  0
   -8.9580   -8.0876    7.6376 C   0  0  0  0  0  0  0  0  0  0  0  0
   -8.7445   -9.4003    7.2945 C   0  0  0  0  0  0  0  0  0  0  0  0
   -7.4660   -9.8599    7.1700 F   0  0  0  0  0  0  0  0  0  0  0  0
   -9.8148  -10.2243    7.0829 C   0  0  0  0  0  0  0  0  0  0  0  0
  -11.1181   -9.7327    7.2150 C   0  0  0  0  0  0  0  0  0  0  0  0
  -17.9562   -7.9123    7.7655 C   0  0  0  0  0  0  0  0  0  0  0  0
  -16.7537   -8.3812    8.3958 N   0  0  0  0  0  0  0  0  0  0  0  0
  -16.5824   -9.3613    8.0783 H   0  0  0  0  0  0  0  0  0  0  0  0
 18 19  1  0  0  0
 19  1  1  0  0  0
  1  2  1  0  0  0
  2  3  1  0  0  0
  3  4  1  0  0  0
  4 11  1  0  0  0
 11 12  2  0  0  0
 12 13  1  0  0  0
 13 14  2  0  0  0
 14 15  1  0  0  0
 14 16  1  0  0  0
 16 17  2  0  0  0
  4  5  1  0  0  0
  5  6  2  0  0  0
  6  7  1  0  0  0
  7  8  2  0  0  0
  8  9  1  0  0  0
  9 10  2  0  0  0
 10  1  1  0  0  0
 17 11  1  0  0  0
 10  5  1  0  0  0
 19 20  1  0  0  0
M  END
> <minimizedAffinity>
-6.76436

> <CNNscore>
0.4044496417

> <CNNaffinity>
6.0686941147

> <CNN_VS>
2.4544811249

> <CNNaffinity_variance>
0.1558837295

$$$$
[H]c1c([H])c([H])c2c(c1[H])[C@]([H])(c1c([H])c([H])c(F)c([H])c1[H])C([H])([H])C([H])([H])[C@]2([H])N([H])C([H])([H])[H]


 20 22  0  0  0  0  0  0  0  0999 V2000
  -14.2776   -8.7258    7.1067 C   0  0  0  0  0  0  0  0  0  0  0  0
  -13.4128   -9.6604    6.3289 C   0  0  0  0  0  0  0  0  0  0  0  0
  -12.0294   -9.0846    6.1369 C   0  0  0  0  0  0  0  0  0  0  0  0
  -11.4057   -9.0413    7.5399 C   0  0  0  0  0  0  0  0  0  0  0  0
  -12.1655   -7.9627    8.2439 C   0  0  0  0  0  0  0  0  0  0  0  0
  -11.5121   -7.1168    9.0972 C   0  0  0  0  0  0  0  0  0  0  0  0
  -12.2336   -6.1272    9.7357 C   0  0  0  0  0  0  0  0  0  0  0  0
  -13.5758   -5.9650    9.5441 C   0  0  0  0  0  0  0  0  0  0  0  0
  -14.2082   -6.8417    8.6705 C   0  0  0  0  0  0  0  0  0  0  0  0
  -13.5195   -7.8397    8.0172 C   0  0  0  0  0  0  0  0  0  0  0  0
   -9.9622   -8.8417    7.5227 C   0  0  0  0  0  0  0  0  0  0  0  0
   -9.4413   -7.5994    7.2422 C   0  0  0  0  0  0  0  0  0  0  0  0
   -8.0826   -7.3680    7.2164 C   0  0  0  0  0  0  0  0  0  0  0  0
   -7.2090   -8.3958    7.4754 C   0  0  0  0  0  0  0  0  0  0  0  0
   -5.8663   -8.1561    7.4463 F   0  0  0  0  0  0  0  0  0  0  0  0
   -7.6981   -9.6412    7.7573 C   0  0  0  0  0  0  0  0  0  0  0  0
   -9.0789   -9.8660    7.7812 C   0  0  0  0  0  0  0  0  0  0  0  0
  -15.6017   -8.7131    5.0919 C   0  0  0  0  0  0  0  0  0  0  0  0
  -15.2306   -8.0040    6.2846 N   0  0  0  0  0  0  0  0  0  0  0  0
  -16.0889   -7.8760    6.8657 H   0  0  0  0  0  0  0  0  0  0  0  0
 18 19  1  0  0  0
 19  1  1  0  0  0
  1  2  1  0  0  0
  2  3  1  0  0  0
  3  4  1  0  0  0
  4 11  1  0  0  0
 11 12  2  0  0  0
 12 13  1  0  0  0
 13 14  2  0  0  0
 14 15  1  0  0  0
 14 16  1  0  0  0
 16 17  2  0  0  0
  4  5  1  0  0  0
  5  6  2  0  0  0
  6  7  1  0  0  0
  7  8  2  0  0  0
  8  9  1  0  0  0
  9 10  2  0  0  0
 10  1  1  0  0  0
 17 11  1  0  0  0
 10  5  1  0  0  0
 19 20  1  0  0  0
M  END
> <minimizedAffinity>
-8.06555

> <CNNscore>
0.3929117322

> <CNNaffinity>
5.9781508446

> <CNN_VS>
2.3488855362

> <CNNaffinity_variance>
0.0549071431

$$$$
[H]c1c([H])c([H])c2c(c1[H])[C@]([H])(c1c([H])c([H])c(F)c([H])c1[H])C([H])([H])C([H])([H])[C@]2([H])N([H])C([H])([H])[H]


 20 22  0  0  0  0  0  0  0  0999 V2000
  -12.4149   -7.4462    9.4863 C   0  0  0  0  0  0  0  0  0  0  0  0
  -13.5763   -6.5118    9.5531 C   0  0  0  0  0  0  0  0  0  0  0  0
  -14.0664   -6.1577    8.1687 C   0  0  0  0  0  0  0  0  0  0  0  0
  -14.6383   -7.4610    7.5912 C   0  0  0  0  0  0  0  0  0  0  0  0
  -13.4337   -8.3148    7.3545 C   0  0  0  0  0  0  0  0  0  0  0  0
  -13.3709   -9.1091    6.2428 C   0  0  0  0  0  0  0  0  0  0  0  0
  -12.2482   -9.8884    6.0439 C   0  0  0  0  0  0  0  0  0  0  0  0
  -11.1997   -9.8929    6.9187 C   0  0  0  0  0  0  0  0  0  0  0  0
  -11.2963   -9.0743    8.0377 C   0  0  0  0  0  0  0  0  0  0  0  0
  -12.4011   -8.2844    8.2672 C   0  0  0  0  0  0  0  0  0  0  0  0
  -15.4651   -7.2533    6.4092 C   0  0  0  0  0  0  0  0  0  0  0  0
  -16.6084   -7.9973    6.2280 C   0  0  0  0  0  0  0  0  0  0  0  0
  -17.4181   -7.8318    5.1248 C   0  0  0  0  0  0  0  0  0  0  0  0
  -17.0893   -6.9021    4.1687 C   0  0  0  0  0  0  0  0  0  0  0  0
  -17.8972   -6.7470    3.0803 F   0  0  0  0  0  0  0  0  0  0  0  0
  -15.9589   -6.1483    4.3222 C   0  0  0  0  0  0  0  0  0  0  0  0
  -15.1435   -6.3236    5.4456 C   0  0  0  0  0  0  0  0  0  0  0  0
  -11.2721   -5.5044   10.3443 C   0  0  0  0  0  0  0  0  0  0  0  0
  -11.1406   -6.8000    9.7384 N   0  0  0  0  0  0  0  0  0  0  0  0
  -10.6198   -7.4164   10.4015 H   0  0  0  0  0  0  0  0  0  0  0  0
 18 19  1  0  0  0
 19  1  1  0  0  0
  1  2  1  0  0  0
  2  3  1  0  0  0
  3  4  1  0  0  0
  4 11  1  0  0  0
 11 12  2  0  0  0
 12 13  1  0  0  0
 13 14  2  0  0  0
 14 15  1  0  0  0
 14 16  1  0  0  0
 16 17  2  0  0  0
  4  5  1  0  0  0
  5  6  2  0  0  0
  6  7  1  0  0  0
  7  8  2  0  0  0
  8  9  1  0  0  0
  9 10  2  0  0  0
 10  1  1  0  0  0
 17 11  1  0  0  0
 10  5  1  0  0  0
 19 20  1  0  0  0
M  END
> <minimizedAffinity>
-8.08032

> <CNNscore>
0.2712690234

> <CNNaffinity>
5.8576183319

> <CNN_VS>
1.5889904499

> <CNNaffinity_variance>
0.1215354949

$$$$
[H]c1c([H])c([H])c2c(c1[H])[C@]([H])(c1c([H])c([H])c(F)c([H])c1[H])C([H])([H])C([H])([H])[C@]2([H])N([H])C([H])([H])[H]


 20 22  0  0  0  0  0  0  0  0999 V2000
  -14.6012   -7.9234    5.4957 C   0  0  0  0  0  0  0  0  0  0  0  0
  -15.1491   -6.7370    6.2161 C   0  0  0  0  0  0  0  0  0  0  0  0
  -14.7936   -6.7834    7.6836 C   0  0  0  0  0  0  0  0  0  0  0  0
  -13.2682   -6.6130    7.7410 C   0  0  0  0  0  0  0  0  0  0  0  0
  -12.7367   -7.8962    7.1867 C   0  0  0  0  0  0  0  0  0  0  0  0
  -11.6181   -8.4617    7.7341 C   0  0  0  0  0  0  0  0  0  0  0  0
  -11.1456   -9.6476    7.2069 C   0  0  0  0  0  0  0  0  0  0  0  0
  -11.7567  -10.2739    6.1586 C   0  0  0  0  0  0  0  0  0  0  0  0
  -12.8908   -9.6720    5.6264 C   0  0  0  0  0  0  0  0  0  0  0  0
  -13.3892   -8.4897    6.1275 C   0  0  0  0  0  0  0  0  0  0  0  0
  -12.7746   -6.2876    9.0730 C   0  0  0  0  0  0  0  0  0  0  0  0
  -13.6610   -6.0708   10.1029 C   0  0  0  0  0  0  0  0  0  0  0  0
  -13.2358   -5.7613   11.3771 C   0  0  0  0  0  0  0  0  0  0  0  0
  -11.8922   -5.6622   11.6442 C   0  0  0  0  0  0  0  0  0  0  0  0
  -11.4823   -5.3546   12.9086 F   0  0  0  0  0  0  0  0  0  0  0  0
  -10.9881   -5.8725   10.6403 C   0  0  0  0  0  0  0  0  0  0  0  0
  -11.4296   -6.1863    9.3502 C   0  0  0  0  0  0  0  0  0  0  0  0
  -16.5425   -8.5160    4.1945 C   0  0  0  0  0  0  0  0  0  0  0  0
  -15.6029   -8.9300    5.1990 N   0  0  0  0  0  0  0  0  0  0  0  0
  -15.0891   -9.7645    4.8377 H   0  0  0  0  0  0  0  0  0  0  0  0
 18 19  1  0  0  0
 19  1  1  0  0  0
  1  2  1  0  0  0
  2  3  1  0  0  0
  3  4  1  0  0  0
  4 11  1  0  0  0
 11 12  2  0  0  0
 12 13  1  0  0  0
 13 14  2  0  0  0
 14 15  1  0  0  0
 14 16  1  0  0  0
 16 17  2  0  0  0
  4  5  1  0  0  0
  5  6  2  0  0  0
  6  7  1  0  0  0
  7  8  2  0  0  0
  8  9  1  0  0  0
  9 10  2  0  0  0
 10  1  1  0  0  0
 17 11  1  0  0  0
 10  5  1  0  0  0
 19 20  1  0  0  0
M  END
> <minimizedAffinity>
-6.51225

> <CNNscore>
0.2710865438

> <CNNaffinity>
5.7905168533

> <CNN_VS>
1.5697312355

> <CNNaffinity_variance>
0.0744798332

$$$$
[H]c1c([H])c([H])c2c(c1[H])[C@]([H])(c1c([H])c([H])c(F)c([H])c1[H])C([H])([H])C([H])([H])[C@]2([H])N([H])C([H])([H])[H]


 20 22  0  0  0  0  0  0  0  0999 V2000
  -15.8839   -8.5330    4.5196 C   0  0  0  0  0  0  0  0  0  0  0  0
  -15.2223   -9.4791    5.4649 C   0  0  0  0  0  0  0  0  0  0  0  0
  -13.9611   -8.8771    6.0388 C   0  0  0  0  0  0  0  0  0  0  0  0
  -14.4287   -7.7041    6.9134 C   0  0  0  0  0  0  0  0  0  0  0  0
  -14.9149   -6.6873    5.9306 C   0  0  0  0  0  0  0  0  0  0  0  0
  -14.6770   -5.3588    6.1528 C   0  0  0  0  0  0  0  0  0  0  0  0
  -15.1343   -4.4374    5.2312 C   0  0  0  0  0  0  0  0  0  0  0  0
  -15.8151   -4.8074    4.1068 C   0  0  0  0  0  0  0  0  0  0  0  0
  -16.0394   -6.1651    3.9121 C   0  0  0  0  0  0  0  0  0  0  0  0
  -15.5976   -7.1109    4.8106 C   0  0  0  0  0  0  0  0  0  0  0  0
  -13.3975   -7.2143    7.8193 C   0  0  0  0  0  0  0  0  0  0  0  0
  -13.7496   -6.5172    8.9522 C   0  0  0  0  0  0  0  0  0  0  0  0
  -12.8059   -6.0373    9.8350 C   0  0  0  0  0  0  0  0  0  0  0  0
  -11.4711   -6.2518    9.5923 C   0  0  0  0  0  0  0  0  0  0  0  0
  -10.5454   -5.7717   10.4720 F   0  0  0  0  0  0  0  0  0  0  0  0
  -11.0917   -6.9414    8.4743 C   0  0  0  0  0  0  0  0  0  0  0  0
  -12.0571   -7.4246    7.5842 C   0  0  0  0  0  0  0  0  0  0  0  0
  -14.2936   -8.8672    2.7386 C   0  0  0  0  0  0  0  0  0  0  0  0
  -15.6771   -8.8739    3.1246 N   0  0  0  0  0  0  0  0  0  0  0  0
  -16.0444   -9.8432    2.9969 H   0  0  0  0  0  0  0  0  0  0  0  0
 18 19  1  0  0  0
 19  1  1  0  0  0
  1  2  1  0  0  0
  2  3  1  0  0  0
  3  4  1  0  0  0
  4 11  1  0  0  0
 11 12  2  0  0  0
 12 13  1  0  0  0
 13 14  2  0  0  0
 14 15  1  0  0  0
 14 16  1  0  0  0
 16 17  2  0  0  0
  4  5  1  0  0  0
  5  6  2  0  0  0
  6  7  1  0  0  0
  7  8  2  0  0  0
  8  9  1  0  0  0
  9 10  2  0  0  0
 10  1  1  0  0  0
 17 11  1  0  0  0
 10  5  1  0  0  0
 19 20  1  0  0  0
M  END
> <minimizedAffinity>
-5.88532

> <CNNscore>
0.2342419922

> <CNNaffinity>
5.8798604012

> <CNN_VS>
1.3773101568

> <CNNaffinity_variance>
0.0593327396

$$$$
[H]c1c([H])c([H])c2c(c1[H])[C@]([H])(c1c([H])c([H])c(F)c([H])c1[H])C([H])([H])C([H])([H])[C@]2([H])N([H])C([H])([H])[H]


 20 22  0  0  0  0  0  0  0  0999 V2000
   -7.3227   -8.0219    6.8939 C   0  0  0  0  0  0  0  0  0  0  0  0
   -7.3447   -6.7337    7.6466 C   0  0  0  0  0  0  0  0  0  0  0  0
   -8.7535   -6.2022    7.7686 C   0  0  0  0  0  0  0  0  0  0  0  0
   -9.4915   -7.2021    8.6714 C   0  0  0  0  0  0  0  0  0  0  0  0
   -9.6260   -8.4275    7.8250 C   0  0  0  0  0  0  0  0  0  0  0  0
  -10.7726   -9.1710    7.8824 C   0  0  0  0  0  0  0  0  0  0  0  0
  -10.8755  -10.2982    7.0911 C   0  0  0  0  0  0  0  0  0  0  0  0
   -9.8722  -10.6952    6.2541 C   0  0  0  0  0  0  0  0  0  0  0  0
   -8.7212   -9.9169    6.2204 C   0  0  0  0  0  0  0  0  0  0  0  0
   -8.5850   -8.7869    6.9961 C   0  0  0  0  0  0  0  0  0  0  0  0
  -10.7550   -6.6897    9.1862 C   0  0  0  0  0  0  0  0  0  0  0  0
  -10.7997   -6.0749   10.4163 C   0  0  0  0  0  0  0  0  0  0  0  0
  -11.9736   -5.5762   10.9393 C   0  0  0  0  0  0  0  0  0  0  0  0
  -13.1418   -5.6879   10.2256 C   0  0  0  0  0  0  0  0  0  0  0  0
  -14.2981   -5.1917   10.7528 F   0  0  0  0  0  0  0  0  0  0  0  0
  -13.1276   -6.2941    9.0001 C   0  0  0  0  0  0  0  0  0  0  0  0
  -11.9309   -6.7969    8.4777 C   0  0  0  0  0  0  0  0  0  0  0  0
   -6.3634   -6.5674    5.2274 C   0  0  0  0  0  0  0  0  0  0  0  0
   -6.8597   -7.8818    5.5261 N   0  0  0  0  0  0  0  0  0  0  0  0
   -6.0742   -8.5597    5.4063 H   0  0  0  0  0  0  0  0  0  0  0  0
 18 19  1  0  0  0
 19  1  1  0  0  0
  1  2  1  0  0  0
  2  3  1  0  0  0
  3  4  1  0  0  0
  4 11  1  0  0  0
 11 12  2  0  0  0
 12 13  1  0  0  0
 13 14  2  0  0  0
 14 15  1  0  0  0
 14 16  1  0  0  0
 16 17  2  0  0  0
  4  5  1  0  0  0
  5  6  2  0  0  0
  6  7  1  0  0  0
  7  8  2  0  0  0
  8  9  1  0  0  0
  9 10  2  0  0  0
 10  1  1  0  0  0
 17 11  1  0  0  0
 10  5  1  0  0  0
 19 20  1  0  0  0
M  END
> <minimizedAffinity>
-5.71677

> <CNNscore>
0.2215969563

> <CNNaffinity>
5.2436170578

> <CNN_VS>
1.1619695425

> <CNNaffinity_variance>
0.0712601840

$$$$
[H]OC(=O)C([H])(Oc1c([H])c([H])c(-c2noc([H])c3c(C(=O)C4([H])C([H])([H])C([H])([H])C([H])([H])C4([H])[H])c([H])c([H])c2-3)c([H])c1[H])C(=O)O[H]


 32 35  0  0  0  0  0  0  0  0999 V2000
  -12.6461   -8.9612    7.5227 C   0  0  0  0  0  0  0  0  0  0  0  0
  -11.8292   -9.8493    6.8558 C   0  0  0  0  0  0  0  0  0  0  0  0
  -10.4979   -9.4520    6.9193 C   0  0  0  0  0  0  0  0  0  0  0  0
  -10.4444   -8.2808    7.6421 C   0  0  0  0  0  0  0  0  0  0  0  0
   -9.4498   -7.4158    8.0462 C   0  0  0  0  0  0  0  0  0  0  0  0
   -9.7692   -6.3239    8.7744 N   0  0  0  0  0  0  0  0  0  0  0  0
  -10.9845   -6.0694    9.1016 O   0  0  0  0  0  0  0  0  0  0  0  0
  -12.0036   -6.8223    8.7706 C   0  0  0  0  0  0  0  0  0  0  0  0
  -11.8195   -7.9774    8.0218 C   0  0  0  0  0  0  0  0  0  0  0  0
   -8.0571   -7.6772    7.6943 C   0  0  0  0  0  0  0  0  0  0  0  0
   -7.0561   -7.3034    8.5642 C   0  0  0  0  0  0  0  0  0  0  0  0
   -5.7135   -7.5225    8.2776 C   0  0  0  0  0  0  0  0  0  0  0  0
   -5.3403   -8.1250    7.1044 C   0  0  0  0  0  0  0  0  0  0  0  0
   -6.3467   -8.5073    6.2163 C   0  0  0  0  0  0  0  0  0  0  0  0
   -7.6606   -8.2816    6.5198 C   0  0  0  0  0  0  0  0  0  0  0  0
   -4.0425   -8.3685    6.7619 O   0  0  0  0  0  0  0  0  0  0  0  0
   -2.8920   -7.6693    7.0834 C   0  0  0  0  0  0  0  0  0  0  0  0
   -2.4093   -6.9073    5.9196 C   0  0  0  0  0  0  0  0  0  0  0  0
   -1.3028   -7.1851    5.3704 O   0  0  0  0  0  0  0  0  0  0  0  0
   -3.1198   -5.8679    5.3743 O   0  0  0  0  0  0  0  0  0  0  0  0
   -2.8186   -4.9089    5.4754 H   0  0  0  0  0  0  0  0  0  0  0  0
   -1.8522   -8.4838    7.7537 C   0  0  0  0  0  0  0  0  0  0  0  0
   -1.6555   -9.6641    7.3798 O   0  0  0  0  0  0  0  0  0  0  0  0
   -1.1113   -7.9293    8.7848 O   0  0  0  0  0  0  0  0  0  0  0  0
   -0.3138   -8.4357    9.1430 H   0  0  0  0  0  0  0  0  0  0  0  0
  -14.6171   -9.9111    8.3854 O   0  0  0  0  0  0  0  0  0  0  0  0
  -14.0919   -9.0032    7.6892 C   0  0  0  0  0  0  0  0  0  0  0  0
  -15.0283   -8.0364    7.0876 C   0  0  0  0  0  0  0  0  0  0  0  0
  -15.3450   -8.2546    5.6609 C   0  0  0  0  0  0  0  0  0  0  0  0
  -16.6657   -7.4945    5.4880 C   0  0  0  0  0  0  0  0  0  0  0  0
  -17.3192   -7.4450    6.8295 C   0  0  0  0  0  0  0  0  0  0  0  0
  -16.3433   -8.0390    7.8001 C   0  0  0  0  0  0  0  0  0  0  0  0
 26 27  2  0  0  0
 27  1  1  0  0  0
  1  2  2  0  0  0
  2  3  1  0  0  0
  3  4  2  0  0  0
  4  5  1  0  0  0
  5 10  1  0  0  0
 10 11  2  0  0  0
 11 12  1  0  0  0
 12 13  2  0  0  0
 13 16  1  0  0  0
 16 17  1  0  0  0
 17 18  1  0  0  0
 18 19  2  0  0  0
 18 20  1  0  0  0
 17 22  1  0  0  0
 22 23  2  0  0  0
 22 24  1  0  0  0
 13 14  1  0  0  0
 14 15  2  0  0  0
  5  6  2  0  0  0
  6  7  1  0  0  0
  7  8  1  0  0  0
  8  9  2  0  0  0
 27 28  1  0  0  0
 28 29  1  0  0  0
 29 30  1  0  0  0
 30 31  1  0  0  0
 31 32  1  0  0  0
  9  1  1  0  0  0
 32 28  1  0  0  0
  9  4  1  0  0  0
 15 10  1  0  0  0
 20 21  1  0  0  0
 24 25  1  0  0  0
M  END
> <minimizedAffinity>
-7.72792

> <CNNscore>
0.5184487104

> <CNNaffinity>
6.3041191101

> <CNN_VS>
3.2683625221

> <CNNaffinity_variance>
0.6296067834

$$$$
[H]OC(=O)C([H])(Oc1c([H])c([H])c(-c2noc([H])c3c(C(=O)C4([H])C([H])([H])C([H])([H])C([H])([H])C4([H])[H])c([H])c([H])c2-3)c([H])c1[H])C(=O)O[H]


 32 35  0  0  0  0  0  0  0  0999 V2000
   -6.3890   -5.7915   13.1987 C   0  0  0  0  0  0  0  0  0  0  0  0
   -6.3352   -6.2547   11.9012 C   0  0  0  0  0  0  0  0  0  0  0  0
   -7.6021   -6.2926   11.3286 C   0  0  0  0  0  0  0  0  0  0  0  0
   -8.5013   -5.8456   12.2712 C   0  0  0  0  0  0  0  0  0  0  0  0
   -9.8653   -5.6509   12.3187 C   0  0  0  0  0  0  0  0  0  0  0  0
  -10.4337   -5.1776   13.4490 N   0  0  0  0  0  0  0  0  0  0  0  0
   -9.7305   -4.9028   14.4877 O   0  0  0  0  0  0  0  0  0  0  0  0
   -8.4307   -5.0505   14.5505 C   0  0  0  0  0  0  0  0  0  0  0  0
   -7.7170   -5.5288   13.4593 C   0  0  0  0  0  0  0  0  0  0  0  0
  -10.6941   -5.9499   11.1545 C   0  0  0  0  0  0  0  0  0  0  0  0
  -12.0615   -5.8046   11.2400 C   0  0  0  0  0  0  0  0  0  0  0  0
  -12.8987   -6.0807   10.1650 C   0  0  0  0  0  0  0  0  0  0  0  0
  -12.3814   -6.5121    8.9712 C   0  0  0  0  0  0  0  0  0  0  0  0
  -10.9973   -6.6627    8.8743 C   0  0  0  0  0  0  0  0  0  0  0  0
  -10.1938   -6.3849    9.9452 C   0  0  0  0  0  0  0  0  0  0  0  0
  -13.1458   -6.8007    7.8789 O   0  0  0  0  0  0  0  0  0  0  0  0
  -13.4053   -8.0171    7.2716 C   0  0  0  0  0  0  0  0  0  0  0  0
  -14.4753   -7.8757    6.2699 C   0  0  0  0  0  0  0  0  0  0  0  0
  -15.6101   -8.4086    6.4471 O   0  0  0  0  0  0  0  0  0  0  0  0
  -14.3046   -7.1709    5.1052 O   0  0  0  0  0  0  0  0  0  0  0  0
  -14.2368   -7.6342    4.2100 H   0  0  0  0  0  0  0  0  0  0  0  0
  -13.5990   -9.1404    8.2174 C   0  0  0  0  0  0  0  0  0  0  0  0
  -14.6048   -9.1519    8.9655 O   0  0  0  0  0  0  0  0  0  0  0  0
  -12.6653  -10.1632    8.2616 O   0  0  0  0  0  0  0  0  0  0  0  0
  -12.8706  -10.9914    8.8027 H   0  0  0  0  0  0  0  0  0  0  0  0
   -5.5296   -5.6317   15.3820 O   0  0  0  0  0  0  0  0  0  0  0  0
   -5.2981   -5.6062   14.1449 C   0  0  0  0  0  0  0  0  0  0  0  0
   -3.8922   -5.3815   13.7620 C   0  0  0  0  0  0  0  0  0  0  0  0
   -3.1439   -6.5835   13.3394 C   0  0  0  0  0  0  0  0  0  0  0  0
   -1.9818   -5.9914   12.5325 C   0  0  0  0  0  0  0  0  0  0  0  0
   -2.4383   -4.6658   12.0190 C   0  0  0  0  0  0  0  0  0  0  0  0
   -3.7872   -4.4170   12.6239 C   0  0  0  0  0  0  0  0  0  0  0  0
 26 27  2  0  0  0
 27  1  1  0  0  0
  1  2  2  0  0  0
  2  3  1  0  0  0
  3  4  2  0  0  0
  4  5  1  0  0  0
  5 10  1  0  0  0
 10 11  2  0  0  0
 11 12  1  0  0  0
 12 13  2  0  0  0
 13 16  1  0  0  0
 16 17  1  0  0  0
 17 18  1  0  0  0
 18 19  2  0  0  0
 18 20  1  0  0  0
 17 22  1  0  0  0
 22 23  2  0  0  0
 22 24  1  0  0  0
 13 14  1  0  0  0
 14 15  2  0  0  0
  5  6  2  0  0  0
  6  7  1  0  0  0
  7  8  1  0  0  0
  8  9  2  0  0  0
 27 28  1  0  0  0
 28 29  1  0  0  0
 29 30  1  0  0  0
 30 31  1  0  0  0
 31 32  1  0  0  0
  9  1  1  0  0  0
 32 28  1  0  0  0
  9  4  1  0  0  0
 15 10  1  0  0  0
 20 21  1  0  0  0
 24 25  1  0  0  0
M  END
> <minimizedAffinity>
6.08901

> <CNNscore>
0.4856433570

> <CNNaffinity>
5.2468709946

> <CNN_VS>
2.5481081009

> <CNNaffinity_variance>
0.7530105114

$$$$
[H]OC(=O)C([H])(Oc1c([H])c([H])c(-c2noc([H])c3c(C(=O)C4([H])C([H])([H])C([H])([H])C([H])([H])C4([H])[H])c([H])c([H])c2-3)c([H])c1[H])C(=O)O[H]


 32 35  0  0  0  0  0  0  0  0999 V2000
   -7.1808   -9.3245    5.3023 C   0  0  0  0  0  0  0  0  0  0  0  0
   -5.8939   -8.8869    5.0718 C   0  0  0  0  0  0  0  0  0  0  0  0
   -5.4698   -8.0230    6.0759 C   0  0  0  0  0  0  0  0  0  0  0  0
   -6.5005   -7.8938    6.9802 C   0  0  0  0  0  0  0  0  0  0  0  0
   -6.6994   -7.2037    8.1570 C   0  0  0  0  0  0  0  0  0  0  0  0
   -7.8785   -7.3160    8.8063 N   0  0  0  0  0  0  0  0  0  0  0  0
   -8.8256   -8.0543    8.3516 O   0  0  0  0  0  0  0  0  0  0  0  0
   -8.7428   -8.7506    7.2455 C   0  0  0  0  0  0  0  0  0  0  0  0
   -7.5861   -8.7279    6.4772 C   0  0  0  0  0  0  0  0  0  0  0  0
   -5.6423   -6.3579    8.7038 C   0  0  0  0  0  0  0  0  0  0  0  0
   -4.7256   -5.7818    7.8516 C   0  0  0  0  0  0  0  0  0  0  0  0
   -3.6956   -4.9730    8.3180 C   0  0  0  0  0  0  0  0  0  0  0  0
   -3.5591   -4.7212    9.6584 C   0  0  0  0  0  0  0  0  0  0  0  0
   -4.4825   -5.3002   10.5301 C   0  0  0  0  0  0  0  0  0  0  0  0
   -5.4875   -6.0923   10.0482 C   0  0  0  0  0  0  0  0  0  0  0  0
   -2.5721   -3.9383   10.1815 O   0  0  0  0  0  0  0  0  0  0  0  0
   -2.6217   -3.0150   11.2115 C   0  0  0  0  0  0  0  0  0  0  0  0
   -2.5675   -1.6436   10.6780 C   0  0  0  0  0  0  0  0  0  0  0  0
   -2.0220   -1.3982    9.5620 O   0  0  0  0  0  0  0  0  0  0  0  0
   -3.0953   -0.5707   11.3509 O   0  0  0  0  0  0  0  0  0  0  0  0
   -2.5057    0.1270   11.7824 H   0  0  0  0  0  0  0  0  0  0  0  0
   -1.6672   -3.2799   12.3127 C   0  0  0  0  0  0  0  0  0  0  0  0
   -1.3695   -2.3574   13.1076 O   0  0  0  0  0  0  0  0  0  0  0  0
   -1.1168   -4.5441   12.4486 O   0  0  0  0  0  0  0  0  0  0  0  0
   -0.5794   -4.7585   13.2768 H   0  0  0  0  0  0  0  0  0  0  0  0
   -9.1831  -10.4653    4.8328 O   0  0  0  0  0  0  0  0  0  0  0  0
   -7.9935  -10.2257    4.4979 C   0  0  0  0  0  0  0  0  0  0  0  0
   -7.5227  -10.9082    3.2788 C   0  0  0  0  0  0  0  0  0  0  0  0
   -8.5128  -11.7760    2.6081 C   0  0  0  0  0  0  0  0  0  0  0  0
   -7.9537  -11.8888    1.1846 C   0  0  0  0  0  0  0  0  0  0  0  0
   -7.1232  -10.6714    0.9445 C   0  0  0  0  0  0  0  0  0  0  0  0
   -7.0781   -9.9246    2.2437 C   0  0  0  0  0  0  0  0  0  0  0  0
 26 27  2  0  0  0
 27  1  1  0  0  0
  1  2  2  0  0  0
  2  3  1  0  0  0
  3  4  2  0  0  0
  4  5  1  0  0  0
  5 10  1  0  0  0
 10 11  2  0  0  0
 11 12  1  0  0  0
 12 13  2  0  0  0
 13 16  1  0  0  0
 16 17  1  0  0  0
 17 18  1  0  0  0
 18 19  2  0  0  0
 18 20  1  0  0  0
 17 22  1  0  0  0
 22 23  2  0  0  0
 22 24  1  0  0  0
 13 14  1  0  0  0
 14 15  2  0  0  0
  5  6  2  0  0  0
  6  7  1  0  0  0
  7  8  1  0  0  0
  8  9  2  0  0  0
 27 28  1  0  0  0
 28 29  1  0  0  0
 29 30  1  0  0  0
 30 31  1  0  0  0
 31 32  1  0  0  0
  9  1  1  0  0  0
 32 28  1  0  0  0
  9  4  1  0  0  0
 15 10  1  0  0  0
 20 21  1  0  0  0
 24 25  1  0  0  0
M  END
> <minimizedAffinity>
5.25384

> <CNNscore>
0.4745661914

> <CNNaffinity>
5.1682505608

> <CNN_VS>
2.4526770115

> <CNNaffinity_variance>
1.2436406612

$$$$
[H]OC(=O)C([H])(Oc1c([H])c([H])c(-c2noc([H])c3c(C(=O)C4([H])C([H])([H])C([H])([H])C([H])([H])C4([H])[H])c([H])c([H])c2-3)c([H])c1[H])C(=O)O[H]


 32 35  0  0  0  0  0  0  0  0999 V2000
  -11.9531   -9.5181    7.3135 C   0  0  0  0  0  0  0  0  0  0  0  0
  -10.9474  -10.2181    6.6816 C   0  0  0  0  0  0  0  0  0  0  0  0
   -9.7374   -9.5365    6.7565 C   0  0  0  0  0  0  0  0  0  0  0  0
   -9.9575   -8.3676    7.4509 C   0  0  0  0  0  0  0  0  0  0  0  0
   -9.1858   -7.2969    7.8494 C   0  0  0  0  0  0  0  0  0  0  0  0
   -9.7523   -6.2873    8.5453 N   0  0  0  0  0  0  0  0  0  0  0  0
  -11.0004   -6.2997    8.8468 O   0  0  0  0  0  0  0  0  0  0  0  0
  -11.8222   -7.2650    8.5184 C   0  0  0  0  0  0  0  0  0  0  0  0
  -11.3733   -8.3664    7.8013 C   0  0  0  0  0  0  0  0  0  0  0  0
   -7.7627   -7.2526    7.5262 C   0  0  0  0  0  0  0  0  0  0  0  0
   -7.3634   -6.8252    6.2787 C   0  0  0  0  0  0  0  0  0  0  0  0
   -6.0227   -6.7687    5.9154 C   0  0  0  0  0  0  0  0  0  0  0  0
   -5.0443   -7.1420    6.7997 C   0  0  0  0  0  0  0  0  0  0  0  0
   -5.4382   -7.5766    8.0660 C   0  0  0  0  0  0  0  0  0  0  0  0
   -6.7631   -7.6237    8.4009 C   0  0  0  0  0  0  0  0  0  0  0  0
   -3.7123   -7.1110    6.5071 O   0  0  0  0  0  0  0  0  0  0  0  0
   -2.8365   -6.0401    6.4626 C   0  0  0  0  0  0  0  0  0  0  0  0
   -3.0419   -5.1573    7.6231 C   0  0  0  0  0  0  0  0  0  0  0  0
   -3.5775   -4.0178    7.4900 O   0  0  0  0  0  0  0  0  0  0  0  0
   -2.6682   -5.5138    8.8942 O   0  0  0  0  0  0  0  0  0  0  0  0
   -1.8820   -5.0802    9.3572 H   0  0  0  0  0  0  0  0  0  0  0  0
   -2.8007   -5.3369    5.1595 C   0  0  0  0  0  0  0  0  0  0  0  0
   -1.8559   -5.5556    4.3651 O   0  0  0  0  0  0  0  0  0  0  0  0
   -3.8125   -4.4470    4.8369 O   0  0  0  0  0  0  0  0  0  0  0  0
   -3.8600   -4.0782    3.8975 H   0  0  0  0  0  0  0  0  0  0  0  0
  -13.6865  -10.8475    8.1847 O   0  0  0  0  0  0  0  0  0  0  0  0
  -13.3575   -9.8737    7.4579 C   0  0  0  0  0  0  0  0  0  0  0  0
  -14.4689   -9.1634    6.7992 C   0  0  0  0  0  0  0  0  0  0  0  0
  -15.0784   -8.0657    7.5782 C   0  0  0  0  0  0  0  0  0  0  0  0
  -15.7678   -7.2259    6.4959 C   0  0  0  0  0  0  0  0  0  0  0  0
  -15.0393   -7.4790    5.2175 C   0  0  0  0  0  0  0  0  0  0  0  0
  -14.0311   -8.5499    5.5074 C   0  0  0  0  0  0  0  0  0  0  0  0
 26 27  2  0  0  0
 27  1  1  0  0  0
  1  2  2  0  0  0
  2  3  1  0  0  0
  3  4  2  0  0  0
  4  5  1  0  0  0
  5 10  1  0  0  0
 10 11  2  0  0  0
 11 12  1  0  0  0
 12 13  2  0  0  0
 13 16  1  0  0  0
 16 17  1  0  0  0
 17 18  1  0  0  0
 18 19  2  0  0  0
 18 20  1  0  0  0
 17 22  1  0  0  0
 22 23  2  0  0  0
 22 24  1  0  0  0
 13 14  1  0  0  0
 14 15  2  0  0  0
  5  6  2  0  0  0
  6  7  1  0  0  0
  7  8  1  0  0  0
  8  9  2  0  0  0
 27 28  1  0  0  0
 28 29  1  0  0  0
 29 30  1  0  0  0
 30 31  1  0  0  0
 31 32  1  0  0  0
  9  1  1  0  0  0
 32 28  1  0  0  0
  9  4  1  0  0  0
 15 10  1  0  0  0
 20 21  1  0  0  0
 24 25  1  0  0  0
M  END
> <minimizedAffinity>
-7.97436

> <CNNscore>
0.4363558888

> <CNNaffinity>
6.1600742340

> <CNN_VS>
2.6879847050

> <CNNaffinity_variance>
0.3501982391

$$$$
[H]OC(=O)C([H])(Oc1c([H])c([H])c(-c2noc([H])c3c(C(=O)C4([H])C([H])([H])C([H])([H])C([H])([H])C4([H])[H])c([H])c([H])c2-3)c([H])c1[H])C(=O)O[H]


 32 35  0  0  0  0  0  0  0  0999 V2000
   -5.9835   -5.9469   13.0066 C   0  0  0  0  0  0  0  0  0  0  0  0
   -5.9874   -6.4609   11.7272 C   0  0  0  0  0  0  0  0  0  0  0  0
   -7.2780   -6.5150   11.2117 C   0  0  0  0  0  0  0  0  0  0  0  0
   -8.1341   -6.0267   12.1739 C   0  0  0  0  0  0  0  0  0  0  0  0
   -9.4941   -5.8235   12.2724 C   0  0  0  0  0  0  0  0  0  0  0  0
  -10.0115   -5.3034   13.4066 N   0  0  0  0  0  0  0  0  0  0  0  0
   -9.2631   -4.9916   14.4023 O   0  0  0  0  0  0  0  0  0  0  0  0
   -7.9623   -5.1432   14.4148 C   0  0  0  0  0  0  0  0  0  0  0  0
   -7.2981   -5.6675   13.3136 C   0  0  0  0  0  0  0  0  0  0  0  0
  -10.3734   -6.1639   11.1577 C   0  0  0  0  0  0  0  0  0  0  0  0
  -11.7393   -6.1178   11.3327 C   0  0  0  0  0  0  0  0  0  0  0  0
  -12.6228   -6.4372   10.3079 C   0  0  0  0  0  0  0  0  0  0  0  0
  -12.1549   -6.8131    9.0757 C   0  0  0  0  0  0  0  0  0  0  0  0
  -10.7728   -6.8630    8.8881 C   0  0  0  0  0  0  0  0  0  0  0  0
   -9.9232   -6.5443    9.9109 C   0  0  0  0  0  0  0  0  0  0  0  0
  -12.9663   -7.1395    8.0288 O   0  0  0  0  0  0  0  0  0  0  0  0
  -13.7888   -8.2383    7.8505 C   0  0  0  0  0  0  0  0  0  0  0  0
  -12.9889   -9.4390    7.5559 C   0  0  0  0  0  0  0  0  0  0  0  0
  -12.2008   -9.4717    6.5655 O   0  0  0  0  0  0  0  0  0  0  0  0
  -13.0531  -10.5732    8.3253 O   0  0  0  0  0  0  0  0  0  0  0  0
  -13.4953  -11.4173    7.9899 H   0  0  0  0  0  0  0  0  0  0  0  0
  -14.9148   -8.0104    6.9156 C   0  0  0  0  0  0  0  0  0  0  0  0
  -16.0666   -7.8169    7.3709 O   0  0  0  0  0  0  0  0  0  0  0  0
  -14.6788   -8.0142    5.5502 O   0  0  0  0  0  0  0  0  0  0  0  0
  -15.4158   -7.7212    4.9244 H   0  0  0  0  0  0  0  0  0  0  0  0
   -4.4463   -6.6655   14.6350 O   0  0  0  0  0  0  0  0  0  0  0  0
   -4.8520   -5.7300   13.8968 C   0  0  0  0  0  0  0  0  0  0  0  0
   -4.1141   -4.4588   14.0119 C   0  0  0  0  0  0  0  0  0  0  0  0
   -4.5833   -3.5398   15.0695 C   0  0  0  0  0  0  0  0  0  0  0  0
   -3.3666   -2.6335   15.2935 C   0  0  0  0  0  0  0  0  0  0  0  0
   -2.1612   -3.4117   14.8803 C   0  0  0  0  0  0  0  0  0  0  0  0
   -2.6648   -4.6964   14.2944 C   0  0  0  0  0  0  0  0  0  0  0  0
 26 27  2  0  0  0
 27  1  1  0  0  0
  1  2  2  0  0  0
  2  3  1  0  0  0
  3  4  2  0  0  0
  4  5  1  0  0  0
  5 10  1  0  0  0
 10 11  2  0  0  0
 11 12  1  0  0  0
 12 13  2  0  0  0
 13 16  1  0  0  0
 16 17  1  0  0  0
 17 18  1  0  0  0
 18 19  2  0  0  0
 18 20  1  0  0  0
 17 22  1  0  0  0
 22 23  2  0  0  0
 22 24  1  0  0  0
 13 14  1  0  0  0
 14 15  2  0  0  0
  5  6  2  0  0  0
  6  7  1  0  0  0
  7  8  1  0  0  0
  8  9  2  0  0  0
 27 28  1  0  0  0
 28 29  1  0  0  0
 29 30  1  0  0  0
 30 31  1  0  0  0
 31 32  1  0  0  0
  9  1  1  0  0  0
 32 28  1  0  0  0
  9  4  1  0  0  0
 15 10  1  0  0  0
 20 21  1  0  0  0
 24 25  1  0  0  0
M  END
> <minimizedAffinity>
5.61462

> <CNNscore>
0.4124601483

> <CNNaffinity>
5.2289915085

> <CNN_VS>
2.1567506790

> <CNNaffinity_variance>
0.6410847306

$$$$
[H]OC(=O)C([H])(Oc1c([H])c([H])c(-c2noc([H])c3c(C(=O)C4([H])C([H])([H])C([H])([H])C([H])([H])C4([H])[H])c([H])c([H])c2-3)c([H])c1[H])C(=O)O[H]


 32 35  0  0  0  0  0  0  0  0999 V2000
  -13.1889   -8.7301    7.4093 C   0  0  0  0  0  0  0  0  0  0  0  0
  -12.3533   -9.5814    6.7179 C   0  0  0  0  0  0  0  0  0  0  0  0
  -11.0226   -9.2011    6.8564 C   0  0  0  0  0  0  0  0  0  0  0  0
  -10.9887   -8.0789    7.6541 C   0  0  0  0  0  0  0  0  0  0  0  0
  -10.0043   -7.2505    8.1496 C   0  0  0  0  0  0  0  0  0  0  0  0
  -10.3436   -6.2043    8.9336 N   0  0  0  0  0  0  0  0  0  0  0  0
  -11.5687   -5.9600    9.2308 O   0  0  0  0  0  0  0  0  0  0  0  0
  -12.5796   -6.6809    8.8146 C   0  0  0  0  0  0  0  0  0  0  0  0
  -12.3750   -7.7876    8.0008 C   0  0  0  0  0  0  0  0  0  0  0  0
   -8.6011   -7.5017    7.8340 C   0  0  0  0  0  0  0  0  0  0  0  0
   -8.1635   -7.3672    6.5344 C   0  0  0  0  0  0  0  0  0  0  0  0
   -6.8404   -7.5995    6.1766 C   0  0  0  0  0  0  0  0  0  0  0  0
   -5.9187   -7.9748    7.1191 C   0  0  0  0  0  0  0  0  0  0  0  0
   -6.3518   -8.1139    8.4385 C   0  0  0  0  0  0  0  0  0  0  0  0
   -7.6584   -7.8800    8.7668 C   0  0  0  0  0  0  0  0  0  0  0  0
   -4.6069   -8.2184    6.8353 O   0  0  0  0  0  0  0  0  0  0  0  0
   -3.4727   -7.5138    7.2001 C   0  0  0  0  0  0  0  0  0  0  0  0
   -3.2290   -6.4064    6.2607 C   0  0  0  0  0  0  0  0  0  0  0  0
   -2.2786   -6.4557    5.4256 O   0  0  0  0  0  0  0  0  0  0  0  0
   -4.0051   -5.2752    6.2393 O   0  0  0  0  0  0  0  0  0  0  0  0
   -3.6566   -4.3865    6.5699 H   0  0  0  0  0  0  0  0  0  0  0  0
   -2.2878   -8.3624    7.4640 C   0  0  0  0  0  0  0  0  0  0  0  0
   -1.6299   -8.1946    8.5179 O   0  0  0  0  0  0  0  0  0  0  0  0
   -1.9231   -9.3302    6.5419 O   0  0  0  0  0  0  0  0  0  0  0  0
   -1.2045   -9.9961    6.7883 H   0  0  0  0  0  0  0  0  0  0  0  0
  -15.1798   -9.3346    8.5055 O   0  0  0  0  0  0  0  0  0  0  0  0
  -14.6401   -8.7694    7.5186 C   0  0  0  0  0  0  0  0  0  0  0  0
  -15.5661   -8.1819    6.5332 C   0  0  0  0  0  0  0  0  0  0  0  0
  -16.8414   -7.6718    7.0780 C   0  0  0  0  0  0  0  0  0  0  0  0
  -17.3065   -6.6952    5.9908 C   0  0  0  0  0  0  0  0  0  0  0  0
  -16.0847   -6.2347    5.2666 C   0  0  0  0  0  0  0  0  0  0  0  0
  -14.9385   -7.0267    5.8202 C   0  0  0  0  0  0  0  0  0  0  0  0
 26 27  2  0  0  0
 27  1  1  0  0  0
  1  2  2  0  0  0
  2  3  1  0  0  0
  3  4  2  0  0  0
  4  5  1  0  0  0
  5 10  1  0  0  0
 10 11  2  0  0  0
 11 12  1  0  0  0
 12 13  2  0  0  0
 13 16  1  0  0  0
 16 17  1  0  0  0
 17 18  1  0  0  0
 18 19  2  0  0  0
 18 20  1  0  0  0
 17 22  1  0  0  0
 22 23  2  0  0  0
 22 24  1  0  0  0
 13 14  1  0  0  0
 14 15  2  0  0  0
  5  6  2  0  0  0
  6  7  1  0  0  0
  7  8  1  0  0  0
  8  9  2  0  0  0
 27 28  1  0  0  0
 28 29  1  0  0  0
 29 30  1  0  0  0
 30 31  1  0  0  0
 31 32  1  0  0  0
  9  1  1  0  0  0
 32 28  1  0  0  0
  9  4  1  0  0  0
 15 10  1  0  0  0
 20 21  1  0  0  0
 24 25  1  0  0  0
M  END
> <minimizedAffinity>
-7.81018

> <CNNscore>
0.4033428431

> <CNNaffinity>
6.2227196693

> <CNN_VS>
2.5098893642

> <CNNaffinity_variance>
0.4045936465

$$$$
[H]OC(=O)C([H])(Oc1c([H])c([H])c(-c2noc([H])c3c(C(=O)C4([H])C([H])([H])C([H])([H])C([H])([H])C4([H])[H])c([H])c([H])c2-3)c([H])c1[H])C(=O)O[H]


 32 35  0  0  0  0  0  0  0  0999 V2000
  -14.2370   -7.9449    7.3663 C   0  0  0  0  0  0  0  0  0  0  0  0
  -13.4605   -8.6774    6.4938 C   0  0  0  0  0  0  0  0  0  0  0  0
  -12.1064   -8.4441    6.7095 C   0  0  0  0  0  0  0  0  0  0  0  0
  -11.9966   -7.5408    7.7433 C   0  0  0  0  0  0  0  0  0  0  0  0
  -10.9579   -6.9276    8.4110 C   0  0  0  0  0  0  0  0  0  0  0  0
  -11.2259   -6.0658    9.4160 N   0  0  0  0  0  0  0  0  0  0  0  0
  -12.4324   -5.8013    9.7673 O   0  0  0  0  0  0  0  0  0  0  0  0
  -13.4903   -6.3264    9.2015 C   0  0  0  0  0  0  0  0  0  0  0  0
  -13.3609   -7.2296    8.1544 C   0  0  0  0  0  0  0  0  0  0  0  0
   -9.5742   -7.2084    8.0393 C   0  0  0  0  0  0  0  0  0  0  0  0
   -8.9547   -6.4255    7.0897 C   0  0  0  0  0  0  0  0  0  0  0  0
   -7.6413   -6.6515    6.6938 C   0  0  0  0  0  0  0  0  0  0  0  0
   -6.9134   -7.6744    7.2438 C   0  0  0  0  0  0  0  0  0  0  0  0
   -7.5318   -8.4734    8.2065 C   0  0  0  0  0  0  0  0  0  0  0  0
   -8.8248   -8.2320    8.5802 C   0  0  0  0  0  0  0  0  0  0  0  0
   -5.6225   -7.9504    6.9000 O   0  0  0  0  0  0  0  0  0  0  0  0
   -4.4384   -7.5025    7.4595 C   0  0  0  0  0  0  0  0  0  0  0  0
   -4.5276   -6.0671    7.7755 C   0  0  0  0  0  0  0  0  0  0  0  0
   -4.5588   -5.6633    8.9752 O   0  0  0  0  0  0  0  0  0  0  0  0
   -4.5833   -5.1014    6.8026 O   0  0  0  0  0  0  0  0  0  0  0  0
   -5.4310   -4.5846    6.6160 H   0  0  0  0  0  0  0  0  0  0  0  0
   -3.2243   -7.8868    6.7031 C   0  0  0  0  0  0  0  0  0  0  0  0
   -2.7089   -9.0137    6.8928 O   0  0  0  0  0  0  0  0  0  0  0  0
   -2.6753   -6.9947    5.7961 O   0  0  0  0  0  0  0  0  0  0  0  0
   -1.9361   -7.3105    5.1840 H   0  0  0  0  0  0  0  0  0  0  0  0
  -16.2653   -8.4289    8.4538 O   0  0  0  0  0  0  0  0  0  0  0  0
  -15.6883   -7.8948    7.4707 C   0  0  0  0  0  0  0  0  0  0  0  0
  -16.5729   -7.2479    6.4844 C   0  0  0  0  0  0  0  0  0  0  0  0
  -15.9315   -6.2430    5.6114 C   0  0  0  0  0  0  0  0  0  0  0  0
  -16.8942   -6.1670    4.4201 C   0  0  0  0  0  0  0  0  0  0  0  0
  -17.6118   -7.4747    4.3552 C   0  0  0  0  0  0  0  0  0  0  0  0
  -17.1857   -8.2539    5.5630 C   0  0  0  0  0  0  0  0  0  0  0  0
 26 27  2  0  0  0
 27  1  1  0  0  0
  1  2  2  0  0  0
  2  3  1  0  0  0
  3  4  2  0  0  0
  4  5  1  0  0  0
  5 10  1  0  0  0
 10 11  2  0  0  0
 11 12  1  0  0  0
 12 13  2  0  0  0
 13 16  1  0  0  0
 16 17  1  0  0  0
 17 18  1  0  0  0
 18 19  2  0  0  0
 18 20  1  0  0  0
 17 22  1  0  0  0
 22 23  2  0  0  0
 22 24  1  0  0  0
 13 14  1  0  0  0
 14 15  2  0  0  0
  5  6  2  0  0  0
  6  7  1  0  0  0
  7  8  1  0  0  0
  8  9  2  0  0  0
 27 28  1  0  0  0
 28 29  1  0  0  0
 29 30  1  0  0  0
 30 31  1  0  0  0
 31 32  1  0  0  0
  9  1  1  0  0  0
 32 28  1  0  0  0
  9  4  1  0  0  0
 15 10  1  0  0  0
 20 21  1  0  0  0
 24 25  1  0  0  0
M  END
> <minimizedAffinity>
-8.51215

> <CNNscore>
0.4028311670

> <CNNaffinity>
6.4420027733

> <CNN_VS>
2.5950396061

> <CNNaffinity_variance>
0.5620024800

$$$$
[H]OC(=O)C([H])(Oc1c([H])c([H])c(-c2noc([H])c3c(C(=O)C4([H])C([H])([H])C([H])([H])C([H])([H])C4([H])[H])c([H])c([H])c2-3)c([H])c1[H])C(=O)O[H]


 32 35  0  0  0  0  0  0  0  0999 V2000
  -11.0477   -7.4058    7.6280 C   0  0  0  0  0  0  0  0  0  0  0  0
  -10.4132   -7.8011    8.7865 C   0  0  0  0  0  0  0  0  0  0  0  0
   -9.0614   -7.4753    8.7550 C   0  0  0  0  0  0  0  0  0  0  0  0
   -8.8081   -6.8550    7.5516 C   0  0  0  0  0  0  0  0  0  0  0  0
   -7.7009   -6.3106    6.9365 C   0  0  0  0  0  0  0  0  0  0  0  0
   -7.8212   -5.7616    5.7083 N   0  0  0  0  0  0  0  0  0  0  0  0
   -8.9490   -5.7342    5.0947 O   0  0  0  0  0  0  0  0  0  0  0  0
  -10.0605   -6.2219    5.5862 C   0  0  0  0  0  0  0  0  0  0  0  0
  -10.0813   -6.8159    6.8414 C   0  0  0  0  0  0  0  0  0  0  0  0
   -6.4042   -6.3220    7.6074 C   0  0  0  0  0  0  0  0  0  0  0  0
   -5.3231   -5.7167    7.0045 C   0  0  0  0  0  0  0  0  0  0  0  0
   -4.0647   -5.7027    7.5951 C   0  0  0  0  0  0  0  0  0  0  0  0
   -3.8588   -6.2992    8.8119 C   0  0  0  0  0  0  0  0  0  0  0  0
   -4.9474   -6.9152    9.4310 C   0  0  0  0  0  0  0  0  0  0  0  0
   -6.1760   -6.9163    8.8308 C   0  0  0  0  0  0  0  0  0  0  0  0
   -2.6509   -6.3219    9.4453 O   0  0  0  0  0  0  0  0  0  0  0  0
   -2.0630   -5.3806   10.2724 C   0  0  0  0  0  0  0  0  0  0  0  0
   -3.0045   -4.9566   11.3222 C   0  0  0  0  0  0  0  0  0  0  0  0
   -3.7659   -3.9592   11.1523 O   0  0  0  0  0  0  0  0  0  0  0  0
   -3.1067   -5.6073   12.5257 O   0  0  0  0  0  0  0  0  0  0  0  0
   -2.7698   -5.1927   13.3831 H   0  0  0  0  0  0  0  0  0  0  0  0
   -1.4068   -4.2641    9.5537 C   0  0  0  0  0  0  0  0  0  0  0  0
   -1.0618   -3.2390   10.1876 O   0  0  0  0  0  0  0  0  0  0  0  0
   -1.1832   -4.3686    8.1903 O   0  0  0  0  0  0  0  0  0  0  0  0
   -0.6136   -3.6713    7.7319 H   0  0  0  0  0  0  0  0  0  0  0  0
  -12.8643   -7.0899    6.1682 O   0  0  0  0  0  0  0  0  0  0  0  0
  -12.4471   -7.5620    7.2581 C   0  0  0  0  0  0  0  0  0  0  0  0
  -13.4553   -8.2515    8.0838 C   0  0  0  0  0  0  0  0  0  0  0  0
  -13.5220   -7.8292    9.4981 C   0  0  0  0  0  0  0  0  0  0  0  0
  -14.9247   -8.2829    9.9203 C   0  0  0  0  0  0  0  0  0  0  0  0
  -15.7574   -8.3347    8.6820 C   0  0  0  0  0  0  0  0  0  0  0  0
  -14.8328   -8.0539    7.5358 C   0  0  0  0  0  0  0  0  0  0  0  0
 26 27  2  0  0  0
 27  1  1  0  0  0
  1  2  2  0  0  0
  2  3  1  0  0  0
  3  4  2  0  0  0
  4  5  1  0  0  0
  5 10  1  0  0  0
 10 11  2  0  0  0
 11 12  1  0  0  0
 12 13  2  0  0  0
 13 16  1  0  0  0
 16 17  1  0  0  0
 17 18  1  0  0  0
 18 19  2  0  0  0
 18 20  1  0  0  0
 17 22  1  0  0  0
 22 23  2  0  0  0
 22 24  1  0  0  0
 13 14  1  0  0  0
 14 15  2  0  0  0
  5  6  2  0  0  0
  6  7  1  0  0  0
  7  8  1  0  0  0
  8  9  2  0  0  0
 27 28  1  0  0  0
 28 29  1  0  0  0
 29 30  1  0  0  0
 30 31  1  0  0  0
 31 32  1  0  0  0
  9  1  1  0  0  0
 32 28  1  0  0  0
  9  4  1  0  0  0
 15 10  1  0  0  0
 20 21  1  0  0  0
 24 25  1  0  0  0
M  END
> <minimizedAffinity>
1.72664

> <CNNscore>
0.3975906372

> <CNNaffinity>
5.6364355087

> <CNN_VS>
2.2409939766

> <CNNaffinity_variance>
1.3265460730

$$$$
[H]OC(=O)C([H])(Oc1c([H])c([H])c(-c2noc([H])c3c(C(=O)C4([H])C([H])([H])C([H])([H])C([H])([H])C4([H])[H])c([H])c([H])c2-3)c([H])c1[H])C(=O)O[H]


 32 35  0  0  0  0  0  0  0  0999 V2000
  -13.1927   -7.5214    7.1525 C   0  0  0  0  0  0  0  0  0  0  0  0
  -12.5461   -8.1650    8.1862 C   0  0  0  0  0  0  0  0  0  0  0  0
  -11.1755   -7.9325    8.1434 C   0  0  0  0  0  0  0  0  0  0  0  0
  -10.9220   -7.1211    7.0598 C   0  0  0  0  0  0  0  0  0  0  0  0
   -9.8008   -6.5506    6.4958 C   0  0  0  0  0  0  0  0  0  0  0  0
   -9.9261   -5.7788    5.3943 N   0  0  0  0  0  0  0  0  0  0  0  0
  -11.0712   -5.5620    4.8554 O   0  0  0  0  0  0  0  0  0  0  0  0
  -12.1972   -6.0540    5.3084 C   0  0  0  0  0  0  0  0  0  0  0  0
  -12.2150   -6.8652    6.4355 C   0  0  0  0  0  0  0  0  0  0  0  0
   -8.4838   -6.7738    7.0851 C   0  0  0  0  0  0  0  0  0  0  0  0
   -7.4863   -7.3401    6.3219 C   0  0  0  0  0  0  0  0  0  0  0  0
   -6.2161   -7.5805    6.8334 C   0  0  0  0  0  0  0  0  0  0  0  0
   -5.9142   -7.2571    8.1307 C   0  0  0  0  0  0  0  0  0  0  0  0
   -6.9177   -6.6830    8.9123 C   0  0  0  0  0  0  0  0  0  0  0  0
   -8.1597   -6.4558    8.3874 C   0  0  0  0  0  0  0  0  0  0  0  0
   -4.6897   -7.4667    8.6941 O   0  0  0  0  0  0  0  0  0  0  0  0
   -3.5022   -6.7767    8.5224 C   0  0  0  0  0  0  0  0  0  0  0  0
   -3.7492   -5.4786    7.8727 C   0  0  0  0  0  0  0  0  0  0  0  0
   -3.1255   -5.1448    6.8225 O   0  0  0  0  0  0  0  0  0  0  0  0
   -4.6540   -4.5708    8.3623 O   0  0  0  0  0  0  0  0  0  0  0  0
   -4.3577   -3.7104    8.8010 H   0  0  0  0  0  0  0  0  0  0  0  0
   -2.4193   -7.5739    7.9014 C   0  0  0  0  0  0  0  0  0  0  0  0
   -1.2499   -7.1226    7.8874 O   0  0  0  0  0  0  0  0  0  0  0  0
   -2.7145   -8.8079    7.3447 O   0  0  0  0  0  0  0  0  0  0  0  0
   -1.9562   -9.4068    7.0499 H   0  0  0  0  0  0  0  0  0  0  0  0
  -15.3252   -8.5122    7.1077 O   0  0  0  0  0  0  0  0  0  0  0  0
  -14.6133   -7.5107    6.8339 C   0  0  0  0  0  0  0  0  0  0  0  0
  -15.3149   -6.3838    6.1924 C   0  0  0  0  0  0  0  0  0  0  0  0
  -14.9261   -6.0995    4.7955 C   0  0  0  0  0  0  0  0  0  0  0  0
  -16.1274   -5.3074    4.2652 C   0  0  0  0  0  0  0  0  0  0  0  0
  -17.3098   -5.7078    5.0843 C   0  0  0  0  0  0  0  0  0  0  0  0
  -16.7930   -6.6101    6.1642 C   0  0  0  0  0  0  0  0  0  0  0  0
 26 27  2  0  0  0
 27  1  1  0  0  0
  1  2  2  0  0  0
  2  3  1  0  0  0
  3  4  2  0  0  0
  4  5  1  0  0  0
  5 10  1  0  0  0
 10 11  2  0  0  0
 11 12  1  0  0  0
 12 13  2  0  0  0
 13 16  1  0  0  0
 16 17  1  0  0  0
 17 18  1  0  0  0
 18 19  2  0  0  0
 18 20  1  0  0  0
 17 22  1  0  0  0
 22 23  2  0  0  0
 22 24  1  0  0  0
 13 14  1  0  0  0
 14 15  2  0  0  0
  5  6  2  0  0  0
  6  7  1  0  0  0
  7  8  1  0  0  0
  8  9  2  0  0  0
 27 28  1  0  0  0
 28 29  1  0  0  0
 29 30  1  0  0  0
 30 31  1  0  0  0
 31 32  1  0  0  0
  9  1  1  0  0  0
 32 28  1  0  0  0
  9  4  1  0  0  0
 15 10  1  0  0  0
 20 21  1  0  0  0
 24 25  1  0  0  0
M  END
> <minimizedAffinity>
9.52729

> <CNNscore>
0.3799017370

> <CNNaffinity>
5.8101472855

> <CNN_VS>
2.2072849274

> <CNNaffinity_variance>
1.6568399668

$$$$
[H]c1c(OC([H])([H])[H])c([H])c2c3nnc(SC([H])([H])[H])nc3n(C([H])([H])[H])c2c1[H]


 18 20  0  0  0  0  0  0  0  0999 V2000
  -12.5931   -7.1455    9.0894 C   0  0  0  0  0  0  0  0  0  0  0  0
  -13.0347   -8.3860    8.6810 C   0  0  0  0  0  0  0  0  0  0  0  0
  -12.1395   -9.2432    8.0385 C   0  0  0  0  0  0  0  0  0  0  0  0
  -10.8207   -8.8800    7.8011 C   0  0  0  0  0  0  0  0  0  0  0  0
  -10.3973   -7.6383    8.2156 C   0  0  0  0  0  0  0  0  0  0  0  0
  -11.2866   -6.7762    8.8585 C   0  0  0  0  0  0  0  0  0  0  0  0
   -9.0699   -7.5111    7.8732 C   0  0  0  0  0  0  0  0  0  0  0  0
   -8.2011   -6.5038    8.0522 N   0  0  0  0  0  0  0  0  0  0  0  0
   -6.9579   -6.6370    7.6223 N   0  0  0  0  0  0  0  0  0  0  0  0
   -6.6098   -7.7769    7.0211 C   0  0  0  0  0  0  0  0  0  0  0  0
   -7.4509   -8.8044    6.8247 N   0  0  0  0  0  0  0  0  0  0  0  0
   -8.7331   -8.7041    7.2522 C   0  0  0  0  0  0  0  0  0  0  0  0
   -9.7908   -9.5324    7.2081 N   0  0  0  0  0  0  0  0  0  0  0  0
   -9.8189  -10.8802    6.6283 C   0  0  0  0  0  0  0  0  0  0  0  0
  -13.0172   -5.2139   10.5654 C   0  0  0  0  0  0  0  0  0  0  0  0
  -13.4304   -6.2525    9.7303 O   0  0  0  0  0  0  0  0  0  0  0  0
   -4.9192   -7.9234    6.4503 S   0  0  0  0  0  0  0  0  0  0  0  0
   -4.2354   -6.2537    6.1905 C   0  0  0  0  0  0  0  0  0  0  0  0
 15 16  1  0  0  0
 16  1  1  0  0  0
  1  2  2  0  0  0
  2  3  1  0  0  0
  3  4  2  0  0  0
  4  5  1  0  0  0
  5  6  2  0  0  0
  5  7  1  0  0  0
  7  8  2  0  0  0
  8  9  1  0  0  0
  9 10  2  0  0  0
 10 17  1  0  0  0
 17 18  1  0  0  0
 10 11  1  0  0  0
 11 12  2  0  0  0
 12 13  1  0  0  0
 13 14  1  0  0  0
  6  1  1  0  0  0
 12  7  1  0  0  0
 13  4  1  0  0  0
M  END
> <minimizedAffinity>
-6.17586

> <CNNscore>
0.6668447852

> <CNNaffinity>
5.7636561394

> <CNN_VS>
3.8434641361

> <CNNaffinity_variance>
0.1311242133

$$$$
[H]c1c(OC([H])([H])[H])c([H])c2c3nnc(SC([H])([H])[H])nc3n(C([H])([H])[H])c2c1[H]


 18 20  0  0  0  0  0  0  0  0999 V2000
   -6.1765   -6.8478    6.9739 C   0  0  0  0  0  0  0  0  0  0  0  0
   -6.1038   -8.0924    6.3853 C   0  0  0  0  0  0  0  0  0  0  0  0
   -7.2167   -8.9332    6.4449 C   0  0  0  0  0  0  0  0  0  0  0  0
   -8.3905   -8.5499    7.0794 C   0  0  0  0  0  0  0  0  0  0  0  0
   -8.4452   -7.3043    7.6613 C   0  0  0  0  0  0  0  0  0  0  0  0
   -7.3367   -6.4584    7.6055 C   0  0  0  0  0  0  0  0  0  0  0  0
   -9.6950   -7.1559    8.2194 C   0  0  0  0  0  0  0  0  0  0  0  0
  -10.2484   -6.1368    8.8952 N   0  0  0  0  0  0  0  0  0  0  0  0
  -11.4911   -6.2489    9.3325 N   0  0  0  0  0  0  0  0  0  0  0  0
  -12.1548   -7.3803    9.0842 C   0  0  0  0  0  0  0  0  0  0  0  0
  -11.6340   -8.4192    8.4126 N   0  0  0  0  0  0  0  0  0  0  0  0
  -10.3629   -8.3403    7.9489 C   0  0  0  0  0  0  0  0  0  0  0  0
   -9.5752   -9.1838    7.2597 N   0  0  0  0  0  0  0  0  0  0  0  0
   -9.9339  -10.5290    6.7960 C   0  0  0  0  0  0  0  0  0  0  0  0
   -4.4598   -5.5209    5.7986 C   0  0  0  0  0  0  0  0  0  0  0  0
   -5.1096   -5.9703    6.9487 O   0  0  0  0  0  0  0  0  0  0  0  0
  -13.8348   -7.4991    9.6914 S   0  0  0  0  0  0  0  0  0  0  0  0
  -14.8806   -8.2444    8.3975 C   0  0  0  0  0  0  0  0  0  0  0  0
 15 16  1  0  0  0
 16  1  1  0  0  0
  1  2  2  0  0  0
  2  3  1  0  0  0
  3  4  2  0  0  0
  4  5  1  0  0  0
  5  6  2  0  0  0
  5  7  1  0  0  0
  7  8  2  0  0  0
  8  9  1  0  0  0
  9 10  2  0  0  0
 10 17  1  0  0  0
 17 18  1  0  0  0
 10 11  1  0  0  0
 11 12  2  0  0  0
 12 13  1  0  0  0
 13 14  1  0  0  0
  6  1  1  0  0  0
 12  7  1  0  0  0
 13  4  1  0  0  0
M  END
> <minimizedAffinity>
-6.48702

> <CNNscore>
0.6214109659

> <CNNaffinity>
5.6110944748

> <CNN_VS>
3.4867956638

> <CNNaffinity_variance>
0.1069528908

$$$$
[H]c1c(OC([H])([H])[H])c([H])c2c3nnc(SC([H])([H])[H])nc3n(C([H])([H])[H])c2c1[H]


 18 20  0  0  0  0  0  0  0  0999 V2000
   -2.7248   -4.9246    8.8909 C   0  0  0  0  0  0  0  0  0  0  0  0
   -2.2875   -6.2300    8.9646 C   0  0  0  0  0  0  0  0  0  0  0  0
   -1.9062   -6.8814    7.7901 C   0  0  0  0  0  0  0  0  0  0  0  0
   -1.9559   -6.2508    6.5543 C   0  0  0  0  0  0  0  0  0  0  0  0
   -2.3948   -4.9480    6.4995 C   0  0  0  0  0  0  0  0  0  0  0  0
   -2.7775   -4.2905    7.6695 C   0  0  0  0  0  0  0  0  0  0  0  0
   -2.3549   -4.5461    5.1834 C   0  0  0  0  0  0  0  0  0  0  0  0
   -2.6760   -3.3793    4.6029 N   0  0  0  0  0  0  0  0  0  0  0  0
   -2.5431   -3.2492    3.2939 N   0  0  0  0  0  0  0  0  0  0  0  0
   -2.0913   -4.2912    2.5922 C   0  0  0  0  0  0  0  0  0  0  0  0
   -1.7609   -5.4720    3.1381 N   0  0  0  0  0  0  0  0  0  0  0  0
   -1.8838   -5.6422    4.4771 C   0  0  0  0  0  0  0  0  0  0  0  0
   -1.6423   -6.6734    5.3048 N   0  0  0  0  0  0  0  0  0  0  0  0
   -1.1377   -7.9976    4.9236 C   0  0  0  0  0  0  0  0  0  0  0  0
   -4.2737   -4.4678   10.7567 C   0  0  0  0  0  0  0  0  0  0  0  0
   -3.1156   -4.2261   10.0171 O   0  0  0  0  0  0  0  0  0  0  0  0
   -1.9245   -4.0811    0.8220 S   0  0  0  0  0  0  0  0  0  0  0  0
   -3.4617   -3.3542    0.1647 C   0  0  0  0  0  0  0  0  0  0  0  0
 15 16  1  0  0  0
 16  1  1  0  0  0
  1  2  2  0  0  0
  2  3  1  0  0  0
  3  4  2  0  0  0
  4  5  1  0  0  0
  5  6  2  0  0  0
  5  7  1  0  0  0
  7  8  2  0  0  0
  8  9  1  0  0  0
  9 10  2  0  0  0
 10 17  1  0  0  0
 17 18  1  0  0  0
 10 11  1  0  0  0
 11 12  2  0  0  0
 12 13  1  0  0  0
 13 14  1  0  0  0
  6  1  1  0  0  0
 12  7  1  0  0  0
 13  4  1  0  0  0
M  END
> <minimizedAffinity>
-2.79449

> <CNNscore>
0.4009089470

> <CNNaffinity>
4.0742845535

> <CNN_VS>
1.6334171295

> <CNNaffinity_variance>
0.2949305177

$$$$
[H]c1c(OC([H])([H])[H])c([H])c2c3nnc(SC([H])([H])[H])nc3n(C([H])([H])[H])c2c1[H]


 18 20  0  0  0  0  0  0  0  0999 V2000
  -19.6586   -9.7824    7.5960 C   0  0  0  0  0  0  0  0  0  0  0  0
  -20.3461  -10.0124    6.4234 C   0  0  0  0  0  0  0  0  0  0  0  0
  -19.8917   -9.4149    5.2463 C   0  0  0  0  0  0  0  0  0  0  0  0
  -18.7694   -8.5980    5.2262 C   0  0  0  0  0  0  0  0  0  0  0  0
  -18.0956   -8.3795    6.4057 C   0  0  0  0  0  0  0  0  0  0  0  0
  -18.5440   -8.9736    7.5862 C   0  0  0  0  0  0  0  0  0  0  0  0
  -17.0321   -7.5484    6.1344 C   0  0  0  0  0  0  0  0  0  0  0  0
  -16.0785   -7.0405    6.9308 N   0  0  0  0  0  0  0  0  0  0  0  0
  -15.1524   -6.2531    6.4110 N   0  0  0  0  0  0  0  0  0  0  0  0
  -15.2002   -5.9897    5.1031 C   0  0  0  0  0  0  0  0  0  0  0  0
  -16.1380   -6.4791    4.2768 N   0  0  0  0  0  0  0  0  0  0  0  0
  -17.1034   -7.2901    4.7741 C   0  0  0  0  0  0  0  0  0  0  0  0
  -18.1533   -7.9241    4.2240 N   0  0  0  0  0  0  0  0  0  0  0  0
  -18.5506   -7.8890    2.8118 C   0  0  0  0  0  0  0  0  0  0  0  0
  -20.6690  -11.5911    8.9365 C   0  0  0  0  0  0  0  0  0  0  0  0
  -20.0582  -10.3449    8.7931 O   0  0  0  0  0  0  0  0  0  0  0  0
  -13.9317   -4.9191    4.4323 S   0  0  0  0  0  0  0  0  0  0  0  0
  -14.5453   -3.2024    4.4319 C   0  0  0  0  0  0  0  0  0  0  0  0
 15 16  1  0  0  0
 16  1  1  0  0  0
  1  2  2  0  0  0
  2  3  1  0  0  0
  3  4  2  0  0  0
  4  5  1  0  0  0
  5  6  2  0  0  0
  5  7  1  0  0  0
  7  8  2  0  0  0
  8  9  1  0  0  0
  9 10  2  0  0  0
 10 17  1  0  0  0
 17 18  1  0  0  0
 10 11  1  0  0  0
 11 12  2  0  0  0
 12 13  1  0  0  0
 13 14  1  0  0  0
  6  1  1  0  0  0
 12  7  1  0  0  0
 13  4  1  0  0  0
M  END
> <minimizedAffinity>
4.04839

> <CNNscore>
0.3987464011

> <CNNaffinity>
5.2158842087

> <CNN_VS>
2.0798151493

> <CNNaffinity_variance>
0.4581027925

$$$$
[H]c1c(OC([H])([H])[H])c([H])c2c3nnc(SC([H])([H])[H])nc3n(C([H])([H])[H])c2c1[H]


 18 20  0  0  0  0  0  0  0  0999 V2000
  -12.8918   -8.6352    9.0353 C   0  0  0  0  0  0  0  0  0  0  0  0
  -11.8914   -7.9346    8.3958 C   0  0  0  0  0  0  0  0  0  0  0  0
  -12.2081   -7.1972    7.2534 C   0  0  0  0  0  0  0  0  0  0  0  0
  -13.4998   -7.1513    6.7466 C   0  0  0  0  0  0  0  0  0  0  0  0
  -14.4856   -7.8565    7.3977 C   0  0  0  0  0  0  0  0  0  0  0  0
  -14.1763   -8.5958    8.5402 C   0  0  0  0  0  0  0  0  0  0  0  0
  -15.6647   -7.6576    6.7156 C   0  0  0  0  0  0  0  0  0  0  0  0
  -16.9056   -8.1187    6.9377 N   0  0  0  0  0  0  0  0  0  0  0  0
  -17.8821   -7.7705    6.1171 N   0  0  0  0  0  0  0  0  0  0  0  0
  -17.5959   -6.9674    5.0898 C   0  0  0  0  0  0  0  0  0  0  0  0
  -16.3681   -6.4877    4.8368 N   0  0  0  0  0  0  0  0  0  0  0  0
  -15.3422   -6.8230    5.6566 C   0  0  0  0  0  0  0  0  0  0  0  0
  -14.0336   -6.5162    5.6743 N   0  0  0  0  0  0  0  0  0  0  0  0
  -13.3259   -5.6599    4.7155 C   0  0  0  0  0  0  0  0  0  0  0  0
  -13.3037   -9.2456   11.3905 C   0  0  0  0  0  0  0  0  0  0  0  0
  -12.6420   -9.3832   10.1699 O   0  0  0  0  0  0  0  0  0  0  0  0
  -18.9412   -6.5168    3.9979 S   0  0  0  0  0  0  0  0  0  0  0  0
  -19.2446   -4.7249    4.1407 C   0  0  0  0  0  0  0  0  0  0  0  0
 15 16  1  0  0  0
 16  1  1  0  0  0
  1  2  2  0  0  0
  2  3  1  0  0  0
  3  4  2  0  0  0
  4  5  1  0  0  0
  5  6  2  0  0  0
  5  7  1  0  0  0
  7  8  2  0  0  0
  8  9  1  0  0  0
  9 10  2  0  0  0
 10 17  1  0  0  0
 17 18  1  0  0  0
 10 11  1  0  0  0
 11 12  2  0  0  0
 12 13  1  0  0  0
 13 14  1  0  0  0
  6  1  1  0  0  0
 12  7  1  0  0  0
 13  4  1  0  0  0
M  END
> <minimizedAffinity>
1.00565

> <CNNscore>
0.2948553562

> <CNNaffinity>
5.5807743073

> <CNN_VS>
1.6455211639

> <CNNaffinity_variance>
0.3768739998

$$$$
[H]c1c(OC([H])([H])[H])c([H])c2c3nnc(SC([H])([H])[H])nc3n(C([H])([H])[H])c2c1[H]


 18 20  0  0  0  0  0  0  0  0999 V2000
   -5.8340   -8.0693    6.9528 C   0  0  0  0  0  0  0  0  0  0  0  0
   -5.9314   -6.8604    7.6082 C   0  0  0  0  0  0  0  0  0  0  0  0
   -7.1752   -6.4559    8.0968 C   0  0  0  0  0  0  0  0  0  0  0  0
   -8.3123   -7.2369    7.9401 C   0  0  0  0  0  0  0  0  0  0  0  0
   -8.1964   -8.4404    7.2834 C   0  0  0  0  0  0  0  0  0  0  0  0
   -6.9563   -8.8512    6.7925 C   0  0  0  0  0  0  0  0  0  0  0  0
   -9.4425   -9.0249    7.2545 C   0  0  0  0  0  0  0  0  0  0  0  0
   -9.8630  -10.1901    6.7376 N   0  0  0  0  0  0  0  0  0  0  0  0
  -11.1375  -10.5244    6.8470 N   0  0  0  0  0  0  0  0  0  0  0  0
  -11.9657   -9.6844    7.4719 C   0  0  0  0  0  0  0  0  0  0  0  0
  -11.5811   -8.5120    8.0004 N   0  0  0  0  0  0  0  0  0  0  0  0
  -10.2823   -8.1360    7.9077 C   0  0  0  0  0  0  0  0  0  0  0  0
   -9.6001   -7.0546    8.3226 N   0  0  0  0  0  0  0  0  0  0  0  0
  -10.1489   -5.9031    9.0479 C   0  0  0  0  0  0  0  0  0  0  0  0
   -3.3685   -8.0912    6.8508 C   0  0  0  0  0  0  0  0  0  0  0  0
   -4.6316   -8.5249    6.4468 O   0  0  0  0  0  0  0  0  0  0  0  0
  -13.6848  -10.1676    7.6013 S   0  0  0  0  0  0  0  0  0  0  0  0
  -14.7106   -8.6689    7.7594 C   0  0  0  0  0  0  0  0  0  0  0  0
 15 16  1  0  0  0
 16  1  1  0  0  0
  1  2  2  0  0  0
  2  3  1  0  0  0
  3  4  2  0  0  0
  4  5  1  0  0  0
  5  6  2  0  0  0
  5  7  1  0  0  0
  7  8  2  0  0  0
  8  9  1  0  0  0
  9 10  2  0  0  0
 10 17  1  0  0  0
 17 18  1  0  0  0
 10 11  1  0  0  0
 11 12  2  0  0  0
 12 13  1  0  0  0
 13 14  1  0  0  0
  6  1  1  0  0  0
 12  7  1  0  0  0
 13  4  1  0  0  0
M  END
> <minimizedAffinity>
-5.20058

> <CNNscore>
0.2904340625

> <CNNaffinity>
5.2240500450

> <CNN_VS>
1.5172420740

> <CNNaffinity_variance>
0.0707251877

$$$$
[H]c1c(OC([H])([H])[H])c([H])c2c3nnc(SC([H])([H])[H])nc3n(C([H])([H])[H])c2c1[H]


 18 20  0  0  0  0  0  0  0  0999 V2000
  -13.9431   -8.3067    8.1275 C   0  0  0  0  0  0  0  0  0  0  0  0
  -13.8781   -9.6186    7.7087 C   0  0  0  0  0  0  0  0  0  0  0  0
  -12.6409  -10.1476    7.3363 C   0  0  0  0  0  0  0  0  0  0  0  0
  -11.4786   -9.3895    7.3768 C   0  0  0  0  0  0  0  0  0  0  0  0
  -11.5622   -8.0821    7.7973 C   0  0  0  0  0  0  0  0  0  0  0  0
  -12.7955   -7.5466    8.1711 C   0  0  0  0  0  0  0  0  0  0  0  0
  -10.2957   -7.5444    7.7522 C   0  0  0  0  0  0  0  0  0  0  0  0
   -9.8419   -6.3187    8.0574 N   0  0  0  0  0  0  0  0  0  0  0  0
   -8.5534   -6.0536    7.9246 N   0  0  0  0  0  0  0  0  0  0  0  0
   -7.7449   -7.0221    7.4880 C   0  0  0  0  0  0  0  0  0  0  0  0
   -8.1629   -8.2582    7.1733 N   0  0  0  0  0  0  0  0  0  0  0  0
   -9.4769   -8.5665    7.2972 C   0  0  0  0  0  0  0  0  0  0  0  0
  -10.1910   -9.6825    7.0699 N   0  0  0  0  0  0  0  0  0  0  0  0
   -9.6716  -10.9657    6.5833 C   0  0  0  0  0  0  0  0  0  0  0  0
  -16.3657   -7.9116    7.8740 C   0  0  0  0  0  0  0  0  0  0  0  0
  -15.1373   -7.7257    8.5090 O   0  0  0  0  0  0  0  0  0  0  0  0
   -6.0065   -6.6289    7.3186 S   0  0  0  0  0  0  0  0  0  0  0  0
   -5.1236   -8.1014    6.7057 C   0  0  0  0  0  0  0  0  0  0  0  0
 15 16  1  0  0  0
 16  1  1  0  0  0
  1  2  2  0  0  0
  2  3  1  0  0  0
  3  4  2  0  0  0
  4  5  1  0  0  0
  5  6  2  0  0  0
  5  7  1  0  0  0
  7  8  2  0  0  0
  8  9  1  0  0  0
  9 10  2  0  0  0
 10 17  1  0  0  0
 17 18  1  0  0  0
 10 11  1  0  0  0
 11 12  2  0  0  0
 12 13  1  0  0  0
 13 14  1  0  0  0
  6  1  1  0  0  0
 12  7  1  0  0  0
 13  4  1  0  0  0
M  END
> <minimizedAffinity>
-5.66429

> <CNNscore>
0.2533487380

> <CNNaffinity>
5.5603036880

> <CNN_VS>
1.4086959362

> <CNNaffinity_variance>
0.0832433850

$$$$
[H]c1c(OC([H])([H])[H])c([H])c2c3nnc(SC([H])([H])[H])nc3n(C([H])([H])[H])c2c1[H]


 18 20  0  0  0  0  0  0  0  0999 V2000
   -2.3728   -4.0081    4.6927 C   0  0  0  0  0  0  0  0  0  0  0  0
   -3.5335   -4.7138    4.4574 C   0  0  0  0  0  0  0  0  0  0  0  0
   -4.2326   -5.2444    5.5432 C   0  0  0  0  0  0  0  0  0  0  0  0
   -3.7908   -5.0803    6.8490 C   0  0  0  0  0  0  0  0  0  0  0  0
   -2.6305   -4.3731    7.0652 C   0  0  0  0  0  0  0  0  0  0  0  0
   -1.9265   -3.8398    5.9846 C   0  0  0  0  0  0  0  0  0  0  0  0
   -2.4016   -4.3460    8.4224 C   0  0  0  0  0  0  0  0  0  0  0  0
   -1.4154   -3.7906    9.1439 N   0  0  0  0  0  0  0  0  0  0  0  0
   -1.4296   -3.9112   10.4605 N   0  0  0  0  0  0  0  0  0  0  0  0
   -2.4316   -4.5864   11.0282 C   0  0  0  0  0  0  0  0  0  0  0  0
   -3.4336   -5.1547   10.3393 N   0  0  0  0  0  0  0  0  0  0  0  0
   -3.4526   -5.0515    8.9880 C   0  0  0  0  0  0  0  0  0  0  0  0
   -4.2930   -5.4959    8.0377 N   0  0  0  0  0  0  0  0  0  0  0  0
   -5.5153   -6.2792    8.2519 C   0  0  0  0  0  0  0  0  0  0  0  0
   -2.1338   -3.1281    2.3997 C   0  0  0  0  0  0  0  0  0  0  0  0
   -1.6364   -3.4586    3.6607 O   0  0  0  0  0  0  0  0  0  0  0  0
   -2.4193   -4.7314   12.8127 S   0  0  0  0  0  0  0  0  0  0  0  0
   -1.4620   -6.2109   13.2796 C   0  0  0  0  0  0  0  0  0  0  0  0
 15 16  1  0  0  0
 16  1  1  0  0  0
  1  2  2  0  0  0
  2  3  1  0  0  0
  3  4  2  0  0  0
  4  5  1  0  0  0
  5  6  2  0  0  0
  5  7  1  0  0  0
  7  8  2  0  0  0
  8  9  1  0  0  0
  9 10  2  0  0  0
 10 17  1  0  0  0
 17 18  1  0  0  0
 10 11  1  0  0  0
 11 12  2  0  0  0
 12 13  1  0  0  0
 13 14  1  0  0  0
  6  1  1  0  0  0
 12  7  1  0  0  0
 13  4  1  0  0  0
M  END
> <minimizedAffinity>
-2.43032

> <CNNscore>
0.2398871779

> <CNNaffinity>
4.0320296288

> <CNN_VS>
0.9672322273

> <CNNaffinity_variance>
0.4884413183

$$$$
[H]c1c(OC([H])([H])[H])c([H])c2c3nnc(SC([H])([H])[H])nc3n(C([H])([H])[H])c2c1[H]


 18 20  0  0  0  0  0  0  0  0999 V2000
   -4.9342   -6.9401    7.9494 C   0  0  0  0  0  0  0  0  0  0  0  0
   -3.8734   -7.8073    7.7973 C   0  0  0  0  0  0  0  0  0  0  0  0
   -2.9413   -7.5627    6.7871 C   0  0  0  0  0  0  0  0  0  0  0  0
   -3.0547   -6.4726    5.9348 C   0  0  0  0  0  0  0  0  0  0  0  0
   -4.1198   -5.6176    6.1013 C   0  0  0  0  0  0  0  0  0  0  0  0
   -5.0554   -5.8558    7.1090 C   0  0  0  0  0  0  0  0  0  0  0  0
   -4.0160   -4.6271    5.1508 C   0  0  0  0  0  0  0  0  0  0  0  0
   -4.7928   -3.5641    4.8901 N   0  0  0  0  0  0  0  0  0  0  0  0
   -4.4649   -2.7493    3.9019 N   0  0  0  0  0  0  0  0  0  0  0  0
   -3.3649   -3.0160    3.1939 C   0  0  0  0  0  0  0  0  0  0  0  0
   -2.5650   -4.0687    3.4256 N   0  0  0  0  0  0  0  0  0  0  0  0
   -2.8695   -4.9256    4.4306 C   0  0  0  0  0  0  0  0  0  0  0  0
   -2.2875   -6.0410    4.9038 N   0  0  0  0  0  0  0  0  0  0  0  0
   -1.0600   -6.6658    4.3975 C   0  0  0  0  0  0  0  0  0  0  0  0
   -7.1975   -7.5613    8.7116 C   0  0  0  0  0  0  0  0  0  0  0  0
   -5.8894   -7.1279    8.9300 O   0  0  0  0  0  0  0  0  0  0  0  0
   -2.9507   -1.8930    1.8625 S   0  0  0  0  0  0  0  0  0  0  0  0
   -1.1915   -2.1056    1.4345 C   0  0  0  0  0  0  0  0  0  0  0  0
 15 16  1  0  0  0
 16  1  1  0  0  0
  1  2  2  0  0  0
  2  3  1  0  0  0
  3  4  2  0  0  0
  4  5  1  0  0  0
  5  6  2  0  0  0
  5  7  1  0  0  0
  7  8  2  0  0  0
  8  9  1  0  0  0
  9 10  2  0  0  0
 10 17  1  0  0  0
 17 18  1  0  0  0
 10 11  1  0  0  0
 11 12  2  0  0  0
 12 13  1  0  0  0
 13 14  1  0  0  0
  6  1  1  0  0  0
 12  7  1  0  0  0
 13  4  1  0  0  0
M  END
> <minimizedAffinity>
-3.01063

> <CNNscore>
0.2159744352

> <CNNaffinity>
4.0344743729

> <CNN_VS>
0.8713433146

> <CNNaffinity_variance>
0.0212336425

$$$$
[H]OC1(c2c([H])c([H])c(C([H])([H])C([H])([H])C([H])([H])[H])c([H])c2[H])C([H])([H])C([H])([H])N(C([H])(c2c([H])c([H])c([H])c([H])c2[H])c2c([H])c([H])c([H])c([H])c2[H])C([H])([H])C1([H])[H]


 30 33  0  0  0  0  0  0  0  0999 V2000
  -14.1840   -7.2070    7.4683 C   0  0  0  0  0  0  0  0  0  0  0  0
  -15.3953   -7.7702    7.0091 O   0  0  0  0  0  0  0  0  0  0  0  0
  -14.3486   -5.7357    7.4837 C   0  0  0  0  0  0  0  0  0  0  0  0
  -14.8195   -5.3013    6.1225 C   0  0  0  0  0  0  0  0  0  0  0  0
  -14.4289   -6.1613    5.0683 N   0  0  0  0  0  0  0  0  0  0  0  0
  -13.3003   -6.9586    5.1505 C   0  0  0  0  0  0  0  0  0  0  0  0
  -13.1024   -7.5948    6.5065 C   0  0  0  0  0  0  0  0  0  0  0  0
  -15.9649   -8.0108    7.7834 H   0  0  0  0  0  0  0  0  0  0  0  0
  -13.6324   -8.7365   11.4352 C   0  0  0  0  0  0  0  0  0  0  0  0
  -13.2604   -9.4886   10.3374 C   0  0  0  0  0  0  0  0  0  0  0  0
  -13.4115   -9.0062    9.0388 C   0  0  0  0  0  0  0  0  0  0  0  0
  -13.9442   -7.7499    8.8120 C   0  0  0  0  0  0  0  0  0  0  0  0
  -14.3025   -7.0207    9.9236 C   0  0  0  0  0  0  0  0  0  0  0  0
  -14.1601   -7.4815   11.2108 C   0  0  0  0  0  0  0  0  0  0  0  0
  -13.5577   -9.3427   12.7806 C   0  0  0  0  0  0  0  0  0  0  0  0
  -12.1392  -10.9723   13.9785 C   0  0  0  0  0  0  0  0  0  0  0  0
  -12.9454  -10.7325   12.7308 C   0  0  0  0  0  0  0  0  0  0  0  0
  -15.3772   -6.3110    4.0371 C   0  0  0  0  0  0  0  0  0  0  0  0
  -15.7417   -7.7589    3.7532 C   0  0  0  0  0  0  0  0  0  0  0  0
  -16.8583   -8.3295    4.3686 C   0  0  0  0  0  0  0  0  0  0  0  0
  -17.1873   -9.6420    4.1717 C   0  0  0  0  0  0  0  0  0  0  0  0
  -16.3783  -10.3949    3.3401 C   0  0  0  0  0  0  0  0  0  0  0  0
  -15.2902   -9.8374    2.7356 C   0  0  0  0  0  0  0  0  0  0  0  0
  -14.9614   -8.4877    2.9448 C   0  0  0  0  0  0  0  0  0  0  0  0
  -16.6704   -5.6484    4.1962 C   0  0  0  0  0  0  0  0  0  0  0  0
  -17.7738   -6.0567    3.4519 C   0  0  0  0  0  0  0  0  0  0  0  0
  -19.0136   -5.5096    3.6226 C   0  0  0  0  0  0  0  0  0  0  0  0
  -19.2169   -4.5083    4.5680 C   0  0  0  0  0  0  0  0  0  0  0  0
  -18.1452   -4.0895    5.3046 C   0  0  0  0  0  0  0  0  0  0  0  0
  -16.8966   -4.6602    5.1084 C   0  0  0  0  0  0  0  0  0  0  0  0
 16 17  1  0  0  0
 17 15  1  0  0  0
 15  9  1  0  0  0
  9 10  2  0  0  0
 10 11  1  0  0  0
 11 12  2  0  0  0
 12  1  1  0  0  0
  1  2  1  0  0  0
  1  3  1  0  0  0
  3  4  1  0  0  0
  4  5  1  0  0  0
  5 18  1  0  0  0
 18 19  1  0  0  0
 19 20  2  0  0  0
 20 21  1  0  0  0
 21 22  2  0  0  0
 22 23  1  0  0  0
 23 24  2  0  0  0
 18 25  1  0  0  0
 25 26  2  0  0  0
 26 27  1  0  0  0
 27 28  2  0  0  0
 28 29  1  0  0  0
 29 30  2  0  0  0
  5  6  1  0  0  0
  6  7  1  0  0  0
 12 13  1  0  0  0
 13 14  2  0  0  0
 14  9  1  0  0  0
  7  1  1  0  0  0
 24 19  1  0  0  0
 30 25  1  0  0  0
  2  8  1  0  0  0
M  END
> <minimizedAffinity>
8.84982

> <CNNscore>
0.5262050629

> <CNNaffinity>
6.5669469833

> <CNN_VS>
3.4555606842

> <CNNaffinity_variance>
0.8764495850

$$$$
[H]OC1(c2c([H])c([H])c(C([H])([H])C([H])([H])C([H])([H])[H])c([H])c2[H])C([H])([H])C([H])([H])N(C([H])(c2c([H])c([H])c([H])c([H])c2[H])c2c([H])c([H])c([H])c([H])c2[H])C([H])([H])C1([H])[H]


 30 33  0  0  0  0  0  0  0  0999 V2000
  -13.0317   -7.6605    7.2173 C   0  0  0  0  0  0  0  0  0  0  0  0
  -12.3474   -7.8973    6.0045 O   0  0  0  0  0  0  0  0  0  0  0  0
  -12.5334   -6.3822    7.7737 C   0  0  0  0  0  0  0  0  0  0  0  0
  -11.0328   -6.4566    7.8510 C   0  0  0  0  0  0  0  0  0  0  0  0
  -10.5203   -7.7689    7.9881 N   0  0  0  0  0  0  0  0  0  0  0  0
  -11.2599   -8.7906    8.5583 C   0  0  0  0  0  0  0  0  0  0  0  0
  -12.7151   -8.7880    8.1522 C   0  0  0  0  0  0  0  0  0  0  0  0
  -12.8845   -7.5524    5.2467 H   0  0  0  0  0  0  0  0  0  0  0  0
  -17.2360   -7.4098    6.4165 C   0  0  0  0  0  0  0  0  0  0  0  0
  -16.3170   -7.1500    5.4180 C   0  0  0  0  0  0  0  0  0  0  0  0
  -14.9457   -7.2435    5.6479 C   0  0  0  0  0  0  0  0  0  0  0  0
  -14.4635   -7.6012    6.8940 C   0  0  0  0  0  0  0  0  0  0  0  0
  -15.4011   -7.8582    7.8690 C   0  0  0  0  0  0  0  0  0  0  0  0
  -16.7566   -7.7707    7.6590 C   0  0  0  0  0  0  0  0  0  0  0  0
  -18.6714   -7.1827    6.1493 C   0  0  0  0  0  0  0  0  0  0  0  0
  -18.1445   -9.0137    4.5767 C   0  0  0  0  0  0  0  0  0  0  0  0
  -19.2562   -8.2845    5.2814 C   0  0  0  0  0  0  0  0  0  0  0  0
   -9.3077   -8.0102    7.3123 C   0  0  0  0  0  0  0  0  0  0  0  0
   -8.0926   -7.4368    8.0226 C   0  0  0  0  0  0  0  0  0  0  0  0
   -7.2228   -6.5852    7.3374 C   0  0  0  0  0  0  0  0  0  0  0  0
   -6.0958   -6.0894    7.9321 C   0  0  0  0  0  0  0  0  0  0  0  0
   -5.8385   -6.4567    9.2404 C   0  0  0  0  0  0  0  0  0  0  0  0
   -6.6894   -7.2850    9.9114 C   0  0  0  0  0  0  0  0  0  0  0  0
   -7.8448   -7.7886    9.2908 C   0  0  0  0  0  0  0  0  0  0  0  0
   -8.9369   -9.3993    7.0486 C   0  0  0  0  0  0  0  0  0  0  0  0
   -7.8590   -9.9839    7.7078 C   0  0  0  0  0  0  0  0  0  0  0  0
   -7.5251  -11.2977    7.5403 C   0  0  0  0  0  0  0  0  0  0  0  0
   -8.2698  -12.1103    6.6901 C   0  0  0  0  0  0  0  0  0  0  0  0
   -9.3281  -11.5538    6.0292 C   0  0  0  0  0  0  0  0  0  0  0  0
   -9.6429  -10.2161    6.2154 C   0  0  0  0  0  0  0  0  0  0  0  0
 16 17  1  0  0  0
 17 15  1  0  0  0
 15  9  1  0  0  0
  9 10  2  0  0  0
 10 11  1  0  0  0
 11 12  2  0  0  0
 12  1  1  0  0  0
  1  2  1  0  0  0
  1  3  1  0  0  0
  3  4  1  0  0  0
  4  5  1  0  0  0
  5 18  1  0  0  0
 18 19  1  0  0  0
 19 20  2  0  0  0
 20 21  1  0  0  0
 21 22  2  0  0  0
 22 23  1  0  0  0
 23 24  2  0  0  0
 18 25  1  0  0  0
 25 26  2  0  0  0
 26 27  1  0  0  0
 27 28  2  0  0  0
 28 29  1  0  0  0
 29 30  2  0  0  0
  5  6  1  0  0  0
  6  7  1  0  0  0
 12 13  1  0  0  0
 13 14  2  0  0  0
 14  9  1  0  0  0
  7  1  1  0  0  0
 24 19  1  0  0  0
 30 25  1  0  0  0
  2  8  1  0  0  0
M  END
> <minimizedAffinity>
5.24016

> <CNNscore>
0.4510872662

> <CNNaffinity>
6.5829038620

> <CNN_VS>
2.9694640636

> <CNNaffinity_variance>
1.9969413280

$$$$
[H]OC1(c2c([H])c([H])c(C([H])([H])C([H])([H])C([H])([H])[H])c([H])c2[H])C([H])([H])C([H])([H])N(C([H])(c2c([H])c([H])c([H])c([H])c2[H])c2c([H])c([H])c([H])c([H])c2[H])C([H])([H])C1([H])[H]


 30 33  0  0  0  0  0  0  0  0999 V2000
   -6.9151   -7.3339    7.1286 C   0  0  0  0  0  0  0  0  0  0  0  0
   -6.4463   -6.4712    8.1442 O   0  0  0  0  0  0  0  0  0  0  0  0
   -5.9962   -8.4928    7.0623 C   0  0  0  0  0  0  0  0  0  0  0  0
   -4.5932   -7.9719    6.9085 C   0  0  0  0  0  0  0  0  0  0  0  0
   -4.5066   -6.7061    6.2809 N   0  0  0  0  0  0  0  0  0  0  0  0
   -5.4764   -6.2536    5.4030 C   0  0  0  0  0  0  0  0  0  0  0  0
   -6.8872   -6.5791    5.8344 C   0  0  0  0  0  0  0  0  0  0  0  0
   -6.9120   -6.6748    8.9948 H   0  0  0  0  0  0  0  0  0  0  0  0
  -10.9508   -8.3537    8.1547 C   0  0  0  0  0  0  0  0  0  0  0  0
  -10.0985   -9.3089    7.6347 C   0  0  0  0  0  0  0  0  0  0  0  0
   -8.7770   -9.0073    7.3113 C   0  0  0  0  0  0  0  0  0  0  0  0
   -8.2789   -7.7312    7.5030 C   0  0  0  0  0  0  0  0  0  0  0  0
   -9.1484   -6.8005    8.0260 C   0  0  0  0  0  0  0  0  0  0  0  0
  -10.4542   -7.0813    8.3503 C   0  0  0  0  0  0  0  0  0  0  0  0
  -12.3714   -8.6986    8.3700 C   0  0  0  0  0  0  0  0  0  0  0  0
  -13.8068   -7.4000    9.9050 C   0  0  0  0  0  0  0  0  0  0  0  0
  -13.2297   -7.4533    8.5163 C   0  0  0  0  0  0  0  0  0  0  0  0
   -3.4933   -5.8619    6.7764 C   0  0  0  0  0  0  0  0  0  0  0  0
   -3.5665   -4.4435    6.2355 C   0  0  0  0  0  0  0  0  0  0  0  0
   -3.3408   -3.3604    7.0882 C   0  0  0  0  0  0  0  0  0  0  0  0
   -3.4448   -2.0711    6.6450 C   0  0  0  0  0  0  0  0  0  0  0  0
   -3.7821   -1.8670    5.3193 C   0  0  0  0  0  0  0  0  0  0  0  0
   -3.9987   -2.9240    4.4852 C   0  0  0  0  0  0  0  0  0  0  0  0
   -3.8890   -4.2449    4.9510 C   0  0  0  0  0  0  0  0  0  0  0  0
   -3.4014   -5.6810    8.2240 C   0  0  0  0  0  0  0  0  0  0  0  0
   -2.2346   -6.0107    8.9082 C   0  0  0  0  0  0  0  0  0  0  0  0
   -2.0862   -5.7910   10.2481 C   0  0  0  0  0  0  0  0  0  0  0  0
   -3.1173   -5.2159   10.9855 C   0  0  0  0  0  0  0  0  0  0  0  0
   -4.2729   -4.8907   10.3335 C   0  0  0  0  0  0  0  0  0  0  0  0
   -4.3978   -5.1276    8.9728 C   0  0  0  0  0  0  0  0  0  0  0  0
 16 17  1  0  0  0
 17 15  1  0  0  0
 15  9  1  0  0  0
  9 10  2  0  0  0
 10 11  1  0  0  0
 11 12  2  0  0  0
 12  1  1  0  0  0
  1  2  1  0  0  0
  1  3  1  0  0  0
  3  4  1  0  0  0
  4  5  1  0  0  0
  5 18  1  0  0  0
 18 19  1  0  0  0
 19 20  2  0  0  0
 20 21  1  0  0  0
 21 22  2  0  0  0
 22 23  1  0  0  0
 23 24  2  0  0  0
 18 25  1  0  0  0
 25 26  2  0  0  0
 26 27  1  0  0  0
 27 28  2  0  0  0
 28 29  1  0  0  0
 29 30  2  0  0  0
  5  6  1  0  0  0
  6  7  1  0  0  0
 12 13  1  0  0  0
 13 14  2  0  0  0
 14  9  1  0  0  0
  7  1  1  0  0  0
 24 19  1  0  0  0
 30 25  1  0  0  0
  2  8  1  0  0  0
M  END
> <minimizedAffinity>
-7.78148

> <CNNscore>
0.3584791124

> <CNNaffinity>
5.8885569572

> <CNN_VS>
2.1109247208

> <CNNaffinity_variance>
0.1219327450

$$$$
[H]OC1(c2c([H])c([H])c(C([H])([H])C([H])([H])C([H])([H])[H])c([H])c2[H])C([H])([H])C([H])([H])N(C([H])(c2c([H])c([H])c([H])c([H])c2[H])c2c([H])c([H])c([H])c([H])c2[H])C([H])([H])C1([H])[H]


 30 33  0  0  0  0  0  0  0  0999 V2000
   -8.1137   -7.2205    7.3632 C   0  0  0  0  0  0  0  0  0  0  0  0
   -7.2905   -7.8401    8.3295 O   0  0  0  0  0  0  0  0  0  0  0  0
   -7.7266   -7.7494    6.0356 C   0  0  0  0  0  0  0  0  0  0  0  0
   -6.2423   -7.5673    5.8719 C   0  0  0  0  0  0  0  0  0  0  0  0
   -5.7014   -6.4903    6.6143 N   0  0  0  0  0  0  0  0  0  0  0  0
   -6.4628   -5.3929    6.9775 C   0  0  0  0  0  0  0  0  0  0  0  0
   -7.8629   -5.7444    7.4232 C   0  0  0  0  0  0  0  0  0  0  0  0
   -7.7520   -8.6355    8.6989 H   0  0  0  0  0  0  0  0  0  0  0  0
  -12.1147   -8.2359    8.5215 C   0  0  0  0  0  0  0  0  0  0  0  0
  -11.8724   -7.1135    7.7528 C   0  0  0  0  0  0  0  0  0  0  0  0
  -10.5835   -6.7728    7.3472 C   0  0  0  0  0  0  0  0  0  0  0  0
   -9.5018   -7.5559    7.7079 C   0  0  0  0  0  0  0  0  0  0  0  0
   -9.7723   -8.6700    8.4703 C   0  0  0  0  0  0  0  0  0  0  0  0
  -11.0372   -9.0203    8.8785 C   0  0  0  0  0  0  0  0  0  0  0  0
  -13.4835   -8.4846    9.0191 C   0  0  0  0  0  0  0  0  0  0  0  0
  -14.5279   -8.7884    6.8011 C   0  0  0  0  0  0  0  0  0  0  0  0
  -14.5307   -7.9548    8.0539 C   0  0  0  0  0  0  0  0  0  0  0  0
   -4.4133   -6.7142    7.1394 C   0  0  0  0  0  0  0  0  0  0  0  0
   -3.5474   -7.6050    6.2639 C   0  0  0  0  0  0  0  0  0  0  0  0
   -2.4415   -7.0671    5.6015 C   0  0  0  0  0  0  0  0  0  0  0  0
   -1.6692   -7.8296    4.7697 C   0  0  0  0  0  0  0  0  0  0  0  0
   -2.0153   -9.1580    4.6010 C   0  0  0  0  0  0  0  0  0  0  0  0
   -3.0926   -9.6848    5.2507 C   0  0  0  0  0  0  0  0  0  0  0  0
   -3.8793   -8.8924    6.1032 C   0  0  0  0  0  0  0  0  0  0  0  0
   -3.5689   -5.5495    7.3985 C   0  0  0  0  0  0  0  0  0  0  0  0
   -2.6965   -5.5321    8.4834 C   0  0  0  0  0  0  0  0  0  0  0  0
   -1.8424   -4.4924    8.7178 C   0  0  0  0  0  0  0  0  0  0  0  0
   -1.8151   -3.3967    7.8596 C   0  0  0  0  0  0  0  0  0  0  0  0
   -2.6679   -3.3920    6.7924 C   0  0  0  0  0  0  0  0  0  0  0  0
   -3.5271   -4.4597    6.5798 C   0  0  0  0  0  0  0  0  0  0  0  0
 16 17  1  0  0  0
 17 15  1  0  0  0
 15  9  1  0  0  0
  9 10  2  0  0  0
 10 11  1  0  0  0
 11 12  2  0  0  0
 12  1  1  0  0  0
  1  2  1  0  0  0
  1  3  1  0  0  0
  3  4  1  0  0  0
  4  5  1  0  0  0
  5 18  1  0  0  0
 18 19  1  0  0  0
 19 20  2  0  0  0
 20 21  1  0  0  0
 21 22  2  0  0  0
 22 23  1  0  0  0
 23 24  2  0  0  0
 18 25  1  0  0  0
 25 26  2  0  0  0
 26 27  1  0  0  0
 27 28  2  0  0  0
 28 29  1  0  0  0
 29 30  2  0  0  0
  5  6  1  0  0  0
  6  7  1  0  0  0
 12 13  1  0  0  0
 13 14  2  0  0  0
 14  9  1  0  0  0
  7  1  1  0  0  0
 24 19  1  0  0  0
 30 25  1  0  0  0
  2  8  1  0  0  0
M  END
> <minimizedAffinity>
-0.32292

> <CNNscore>
0.3529122472

> <CNNaffinity>
5.8179898262

> <CNN_VS>
2.0532398224

> <CNNaffinity_variance>
0.9549186826

$$$$
[H]OC1(c2c([H])c([H])c(C([H])([H])C([H])([H])C([H])([H])[H])c([H])c2[H])C([H])([H])C([H])([H])N(C([H])(c2c([H])c([H])c([H])c([H])c2[H])c2c([H])c([H])c([H])c([H])c2[H])C([H])([H])C1([H])[H]


 30 33  0  0  0  0  0  0  0  0999 V2000
   -8.1470   -7.5557    7.8218 C   0  0  0  0  0  0  0  0  0  0  0  0
   -7.5164   -7.2400    9.0457 O   0  0  0  0  0  0  0  0  0  0  0  0
   -7.6213   -8.8634    7.3683 C   0  0  0  0  0  0  0  0  0  0  0  0
   -6.1190   -8.7855    7.3510 C   0  0  0  0  0  0  0  0  0  0  0  0
   -5.6048   -7.4814    7.1545 N   0  0  0  0  0  0  0  0  0  0  0  0
   -6.3221   -6.5014    6.4903 C   0  0  0  0  0  0  0  0  0  0  0  0
   -7.7935   -6.4869    6.8328 C   0  0  0  0  0  0  0  0  0  0  0  0
   -8.0848   -7.5402    9.7999 H   0  0  0  0  0  0  0  0  0  0  0  0
  -12.3712   -7.5340    8.5537 C   0  0  0  0  0  0  0  0  0  0  0  0
  -11.7834   -8.5874    7.8797 C   0  0  0  0  0  0  0  0  0  0  0  0
  -10.4101   -8.6272    7.6464 C   0  0  0  0  0  0  0  0  0  0  0  0
   -9.5912   -7.6029    8.0864 C   0  0  0  0  0  0  0  0  0  0  0  0
  -10.2025   -6.5682    8.7582 C   0  0  0  0  0  0  0  0  0  0  0  0
  -11.5551   -6.5135    8.9968 C   0  0  0  0  0  0  0  0  0  0  0  0
  -13.8434   -7.4876    8.6708 C   0  0  0  0  0  0  0  0  0  0  0  0
  -14.5259   -6.5290    6.4987 C   0  0  0  0  0  0  0  0  0  0  0  0
  -14.5162   -7.7769    7.3394 C   0  0  0  0  0  0  0  0  0  0  0  0
   -4.4234   -7.1918    7.8653 C   0  0  0  0  0  0  0  0  0  0  0  0
   -3.2055   -7.9403    7.3491 C   0  0  0  0  0  0  0  0  0  0  0  0
   -3.1745   -8.3929    6.0280 C   0  0  0  0  0  0  0  0  0  0  0  0
   -2.1149   -9.1097    5.5452 C   0  0  0  0  0  0  0  0  0  0  0  0
   -1.0666   -9.3762    6.4071 C   0  0  0  0  0  0  0  0  0  0  0  0
   -1.0943   -8.9311    7.6960 C   0  0  0  0  0  0  0  0  0  0  0  0
   -2.1881   -8.1952    8.1817 C   0  0  0  0  0  0  0  0  0  0  0  0
   -3.9823   -5.7992    7.9195 C   0  0  0  0  0  0  0  0  0  0  0  0
   -3.9263   -5.1189    9.1329 C   0  0  0  0  0  0  0  0  0  0  0  0
   -3.4539   -3.8412    9.2333 C   0  0  0  0  0  0  0  0  0  0  0  0
   -3.0016   -3.1671    8.1024 C   0  0  0  0  0  0  0  0  0  0  0  0
   -3.0540   -3.8155    6.9011 C   0  0  0  0  0  0  0  0  0  0  0  0
   -3.5413   -5.1118    6.8274 C   0  0  0  0  0  0  0  0  0  0  0  0
 16 17  1  0  0  0
 17 15  1  0  0  0
 15  9  1  0  0  0
  9 10  2  0  0  0
 10 11  1  0  0  0
 11 12  2  0  0  0
 12  1  1  0  0  0
  1  2  1  0  0  0
  1  3  1  0  0  0
  3  4  1  0  0  0
  4  5  1  0  0  0
  5 18  1  0  0  0
 18 19  1  0  0  0
 19 20  2  0  0  0
 20 21  1  0  0  0
 21 22  2  0  0  0
 22 23  1  0  0  0
 23 24  2  0  0  0
 18 25  1  0  0  0
 25 26  2  0  0  0
 26 27  1  0  0  0
 27 28  2  0  0  0
 28 29  1  0  0  0
 29 30  2  0  0  0
  5  6  1  0  0  0
  6  7  1  0  0  0
 12 13  1  0  0  0
 13 14  2  0  0  0
 14  9  1  0  0  0
  7  1  1  0  0  0
 24 19  1  0  0  0
 30 25  1  0  0  0
  2  8  1  0  0  0
M  END
> <minimizedAffinity>
-8.01195

> <CNNscore>
0.2888874710

> <CNNaffinity>
6.0919060707

> <CNN_VS>
1.7598752975

> <CNNaffinity_variance>
0.0929179192

$$$$
[H]OC1(c2c([H])c([H])c(C([H])([H])C([H])([H])C([H])([H])[H])c([H])c2[H])C([H])([H])C([H])([H])N(C([H])(c2c([H])c([H])c([H])c([H])c2[H])c2c([H])c([H])c([H])c([H])c2[H])C([H])([H])C1([H])[H]


 30 33  0  0  0  0  0  0  0  0999 V2000
   -7.8681   -7.5321    7.3727 C   0  0  0  0  0  0  0  0  0  0  0  0
   -7.2173   -6.8662    8.4350 O   0  0  0  0  0  0  0  0  0  0  0  0
   -7.1553   -8.8081    7.1368 C   0  0  0  0  0  0  0  0  0  0  0  0
   -5.6948   -8.5021    6.9454 C   0  0  0  0  0  0  0  0  0  0  0  0
   -5.4319   -7.2069    6.4387 N   0  0  0  0  0  0  0  0  0  0  0  0
   -6.3547   -6.5168    5.6717 C   0  0  0  0  0  0  0  0  0  0  0  0
   -7.7779   -6.6590    6.1582 C   0  0  0  0  0  0  0  0  0  0  0  0
   -7.6696   -7.0822    9.2898 H   0  0  0  0  0  0  0  0  0  0  0  0
  -11.9608   -8.0002    8.5605 C   0  0  0  0  0  0  0  0  0  0  0  0
  -11.3302   -8.9824    7.8209 C   0  0  0  0  0  0  0  0  0  0  0  0
   -9.9954   -8.8627    7.4392 C   0  0  0  0  0  0  0  0  0  0  0  0
   -9.2594   -7.7462    7.7928 C   0  0  0  0  0  0  0  0  0  0  0  0
   -9.9111   -6.7853    8.5327 C   0  0  0  0  0  0  0  0  0  0  0  0
  -11.2267   -6.8878    8.9175 C   0  0  0  0  0  0  0  0  0  0  0  0
  -13.4067   -8.1257    8.8375 C   0  0  0  0  0  0  0  0  0  0  0  0
  -14.3258   -6.8637    6.9229 C   0  0  0  0  0  0  0  0  0  0  0  0
  -14.1634   -6.8763    8.4188 C   0  0  0  0  0  0  0  0  0  0  0  0
   -4.2719   -6.5904    6.9480 C   0  0  0  0  0  0  0  0  0  0  0  0
   -3.1026   -7.5458    7.1203 C   0  0  0  0  0  0  0  0  0  0  0  0
   -2.8682   -8.5389    6.1663 C   0  0  0  0  0  0  0  0  0  0  0  0
   -1.8539   -9.4437    6.3143 C   0  0  0  0  0  0  0  0  0  0  0  0
   -1.0600   -9.3481    7.4428 C   0  0  0  0  0  0  0  0  0  0  0  0
   -1.2857   -8.3762    8.3727 C   0  0  0  0  0  0  0  0  0  0  0  0
   -2.3308   -7.4515    8.2106 C   0  0  0  0  0  0  0  0  0  0  0  0
   -3.7044   -5.4736    6.1947 C   0  0  0  0  0  0  0  0  0  0  0  0
   -3.6839   -4.1905    6.7346 C   0  0  0  0  0  0  0  0  0  0  0  0
   -3.1002   -3.1362    6.0914 C   0  0  0  0  0  0  0  0  0  0  0  0
   -2.4927   -3.3168    4.8520 C   0  0  0  0  0  0  0  0  0  0  0  0
   -2.5076   -4.5674    4.3025 C   0  0  0  0  0  0  0  0  0  0  0  0
   -3.1100   -5.6194    4.9760 C   0  0  0  0  0  0  0  0  0  0  0  0
 16 17  1  0  0  0
 17 15  1  0  0  0
 15  9  1  0  0  0
  9 10  2  0  0  0
 10 11  1  0  0  0
 11 12  2  0  0  0
 12  1  1  0  0  0
  1  2  1  0  0  0
  1  3  1  0  0  0
  3  4  1  0  0  0
  4  5  1  0  0  0
  5 18  1  0  0  0
 18 19  1  0  0  0
 19 20  2  0  0  0
 20 21  1  0  0  0
 21 22  2  0  0  0
 22 23  1  0  0  0
 23 24  2  0  0  0
 18 25  1  0  0  0
 25 26  2  0  0  0
 26 27  1  0  0  0
 27 28  2  0  0  0
 28 29  1  0  0  0
 29 30  2  0  0  0
  5  6  1  0  0  0
  6  7  1  0  0  0
 12 13  1  0  0  0
 13 14  2  0  0  0
 14  9  1  0  0  0
  7  1  1  0  0  0
 24 19  1  0  0  0
 30 25  1  0  0  0
  2  8  1  0  0  0
M  END
> <minimizedAffinity>
-8.63727

> <CNNscore>
0.2857622206

> <CNNaffinity>
6.0154008865

> <CNN_VS>
1.7189743519

> <CNNaffinity_variance>
0.1167916059

$$$$
[H]OC1(c2c([H])c([H])c(C([H])([H])C([H])([H])C([H])([H])[H])c([H])c2[H])C([H])([H])C([H])([H])N(C([H])(c2c([H])c([H])c([H])c([H])c2[H])c2c([H])c([H])c([H])c([H])c2[H])C([H])([H])C1([H])[H]


 30 33  0  0  0  0  0  0  0  0999 V2000
  -14.9792   -8.2423    6.7962 C   0  0  0  0  0  0  0  0  0  0  0  0
  -14.7312   -6.8720    7.0336 O   0  0  0  0  0  0  0  0  0  0  0  0
  -14.6259   -8.9841    8.0278 C   0  0  0  0  0  0  0  0  0  0  0  0
  -13.2204   -8.6115    8.4139 C   0  0  0  0  0  0  0  0  0  0  0  0
  -12.4047   -8.2097    7.3291 N   0  0  0  0  0  0  0  0  0  0  0  0
  -12.6391   -8.6405    6.0347 C   0  0  0  0  0  0  0  0  0  0  0  0
  -14.1027   -8.6789    5.6620 C   0  0  0  0  0  0  0  0  0  0  0  0
  -15.5650   -6.4308    7.3370 H   0  0  0  0  0  0  0  0  0  0  0  0
  -19.1058   -8.7360    5.7437 C   0  0  0  0  0  0  0  0  0  0  0  0
  -18.7468   -8.4314    7.0428 C   0  0  0  0  0  0  0  0  0  0  0  0
  -17.4141   -8.2469    7.4060 C   0  0  0  0  0  0  0  0  0  0  0  0
  -16.4055   -8.3662    6.4669 C   0  0  0  0  0  0  0  0  0  0  0  0
  -16.7917   -8.6663    5.1799 C   0  0  0  0  0  0  0  0  0  0  0  0
  -18.1012   -8.8512    4.8050 C   0  0  0  0  0  0  0  0  0  0  0  0
  -20.5207   -9.0345    5.4402 C   0  0  0  0  0  0  0  0  0  0  0  0
  -20.9103  -11.2290    6.5057 C   0  0  0  0  0  0  0  0  0  0  0  0
  -21.1969   -9.7545    6.5949 C   0  0  0  0  0  0  0  0  0  0  0  0
  -11.4873   -7.1808    7.6206 C   0  0  0  0  0  0  0  0  0  0  0  0
  -11.7243   -6.5204    8.9688 C   0  0  0  0  0  0  0  0  0  0  0  0
  -12.9626   -5.9389    9.2514 C   0  0  0  0  0  0  0  0  0  0  0  0
  -13.1939   -5.2960   10.4358 C   0  0  0  0  0  0  0  0  0  0  0  0
  -12.1608   -5.2369   11.3534 C   0  0  0  0  0  0  0  0  0  0  0  0
  -10.9528   -5.8080   11.0798 C   0  0  0  0  0  0  0  0  0  0  0  0
  -10.7259   -6.4662    9.8596 C   0  0  0  0  0  0  0  0  0  0  0  0
  -10.0652   -7.5184    7.6404 C   0  0  0  0  0  0  0  0  0  0  0  0
   -9.6509   -8.8382    7.7975 C   0  0  0  0  0  0  0  0  0  0  0  0
   -8.3350   -9.2016    7.7513 C   0  0  0  0  0  0  0  0  0  0  0  0
   -7.3475   -8.2439    7.5382 C   0  0  0  0  0  0  0  0  0  0  0  0
   -7.7333   -6.9421    7.3877 C   0  0  0  0  0  0  0  0  0  0  0  0
   -9.0763   -6.6006    7.4421 C   0  0  0  0  0  0  0  0  0  0  0  0
 16 17  1  0  0  0
 17 15  1  0  0  0
 15  9  1  0  0  0
  9 10  2  0  0  0
 10 11  1  0  0  0
 11 12  2  0  0  0
 12  1  1  0  0  0
  1  2  1  0  0  0
  1  3  1  0  0  0
  3  4  1  0  0  0
  4  5  1  0  0  0
  5 18  1  0  0  0
 18 19  1  0  0  0
 19 20  2  0  0  0
 20 21  1  0  0  0
 21 22  2  0  0  0
 22 23  1  0  0  0
 23 24  2  0  0  0
 18 25  1  0  0  0
 25 26  2  0  0  0
 26 27  1  0  0  0
 27 28  2  0  0  0
 28 29  1  0  0  0
 29 30  2  0  0  0
  5  6  1  0  0  0
  6  7  1  0  0  0
 12 13  1  0  0  0
 13 14  2  0  0  0
 14  9  1  0  0  0
  7  1  1  0  0  0
 24 19  1  0  0  0
 30 25  1  0  0  0
  2  8  1  0  0  0
M  END
> <minimizedAffinity>
-4.15583

> <CNNscore>
0.2571712434

> <CNNaffinity>
6.5086073875

> <CNN_VS>
1.6738266945

> <CNNaffinity_variance>
0.1405545473

$$$$
[H]OC1(c2c([H])c([H])c(C([H])([H])C([H])([H])C([H])([H])[H])c([H])c2[H])C([H])([H])C([H])([H])N(C([H])(c2c([H])c([H])c([H])c([H])c2[H])c2c([H])c([H])c([H])c([H])c2[H])C([H])([H])C1([H])[H]


 30 33  0  0  0  0  0  0  0  0999 V2000
  -16.3472   -9.3113    7.9167 C   0  0  0  0  0  0  0  0  0  0  0  0
  -16.4636   -7.9052    7.9863 O   0  0  0  0  0  0  0  0  0  0  0  0
  -15.2644   -9.7200    8.8400 C   0  0  0  0  0  0  0  0  0  0  0  0
  -14.0329   -8.9250    8.5011 C   0  0  0  0  0  0  0  0  0  0  0  0
  -13.9656   -8.5005    7.1525 N   0  0  0  0  0  0  0  0  0  0  0  0
  -14.6088   -9.1831    6.1345 C   0  0  0  0  0  0  0  0  0  0  0  0
  -15.9879   -9.6742    6.5079 C   0  0  0  0  0  0  0  0  0  0  0  0
  -17.1626   -7.6615    8.6449 H   0  0  0  0  0  0  0  0  0  0  0  0
  -20.0995  -10.9188    9.2269 C   0  0  0  0  0  0  0  0  0  0  0  0
  -20.0554   -9.9857    8.2086 C   0  0  0  0  0  0  0  0  0  0  0  0
  -18.8473   -9.4627    7.7518 C   0  0  0  0  0  0  0  0  0  0  0  0
  -17.6486   -9.8666    8.3117 C   0  0  0  0  0  0  0  0  0  0  0  0
  -17.7215  -10.7998    9.3213 C   0  0  0  0  0  0  0  0  0  0  0  0
  -18.9044  -11.3257    9.7835 C   0  0  0  0  0  0  0  0  0  0  0  0
  -21.4123  -11.3516    9.7490 C   0  0  0  0  0  0  0  0  0  0  0  0
  -20.5838  -11.3027   12.0758 C   0  0  0  0  0  0  0  0  0  0  0  0
  -21.6603  -10.8102   11.1469 C   0  0  0  0  0  0  0  0  0  0  0  0
  -13.3909   -7.2294    6.9545 C   0  0  0  0  0  0  0  0  0  0  0  0
  -14.2865   -6.2715    6.1862 C   0  0  0  0  0  0  0  0  0  0  0  0
  -15.6522   -6.2127    6.4737 C   0  0  0  0  0  0  0  0  0  0  0  0
  -16.4937   -5.3964    5.7701 C   0  0  0  0  0  0  0  0  0  0  0  0
  -15.9518   -4.6245    4.7585 C   0  0  0  0  0  0  0  0  0  0  0  0
  -14.6178   -4.6784    4.4799 C   0  0  0  0  0  0  0  0  0  0  0  0
  -13.7620   -5.5206    5.2092 C   0  0  0  0  0  0  0  0  0  0  0  0
  -12.9942   -6.4669    8.1368 C   0  0  0  0  0  0  0  0  0  0  0  0
  -13.9538   -5.8982    8.9698 C   0  0  0  0  0  0  0  0  0  0  0  0
  -13.6250   -5.2390   10.1201 C   0  0  0  0  0  0  0  0  0  0  0  0
  -12.2927   -5.1157   10.5043 C   0  0  0  0  0  0  0  0  0  0  0  0
  -11.3355   -5.6619    9.6971 C   0  0  0  0  0  0  0  0  0  0  0  0
  -11.6973   -6.3232    8.5330 C   0  0  0  0  0  0  0  0  0  0  0  0
 16 17  1  0  0  0
 17 15  1  0  0  0
 15  9  1  0  0  0
  9 10  2  0  0  0
 10 11  1  0  0  0
 11 12  2  0  0  0
 12  1  1  0  0  0
  1  2  1  0  0  0
  1  3  1  0  0  0
  3  4  1  0  0  0
  4  5  1  0  0  0
  5 18  1  0  0  0
 18 19  1  0  0  0
 19 20  2  0  0  0
 20 21  1  0  0  0
 21 22  2  0  0  0
 22 23  1  0  0  0
 23 24  2  0  0  0
 18 25  1  0  0  0
 25 26  2  0  0  0
 26 27  1  0  0  0
 27 28  2  0  0  0
 28 29  1  0  0  0
 29 30  2  0  0  0
  5  6  1  0  0  0
  6  7  1  0  0  0
 12 13  1  0  0  0
 13 14  2  0  0  0
 14  9  1  0  0  0
  7  1  1  0  0  0
 24 19  1  0  0  0
 30 25  1  0  0  0
  2  8  1  0  0  0
M  END
> <minimizedAffinity>
19.06820

> <CNNscore>
0.2516540885

> <CNNaffinity>
6.0907812119

> <CNN_VS>
1.5327700377

> <CNNaffinity_variance>
0.4778141975

$$$$
[H]OC1(c2c([H])c([H])c(C([H])([H])C([H])([H])C([H])([H])[H])c([H])c2[H])C([H])([H])C([H])([H])N(C([H])(c2c([H])c([H])c([H])c([H])c2[H])c2c([H])c([H])c([H])c([H])c2[H])C([H])([H])C1([H])[H]


 30 33  0  0  0  0  0  0  0  0999 V2000
   -7.9884   -7.6700    7.6436 C   0  0  0  0  0  0  0  0  0  0  0  0
   -7.2380   -7.6020    8.8384 O   0  0  0  0  0  0  0  0  0  0  0  0
   -7.4995   -8.8339    6.8701 C   0  0  0  0  0  0  0  0  0  0  0  0
   -6.0078   -8.7063    6.7218 C   0  0  0  0  0  0  0  0  0  0  0  0
   -5.5296   -7.3746    6.7602 N   0  0  0  0  0  0  0  0  0  0  0  0
   -6.3214   -6.2990    6.3963 C   0  0  0  0  0  0  0  0  0  0  0  0
   -7.7496   -6.4046    6.8775 C   0  0  0  0  0  0  0  0  0  0  0  0
   -7.7225   -8.0736    9.5628 H   0  0  0  0  0  0  0  0  0  0  0  0
  -12.1214   -7.9425    8.7501 C   0  0  0  0  0  0  0  0  0  0  0  0
  -11.5402   -8.9231    7.9690 C   0  0  0  0  0  0  0  0  0  0  0  0
  -10.1943   -8.8673    7.6121 C   0  0  0  0  0  0  0  0  0  0  0  0
   -9.3971   -7.8183    8.0331 C   0  0  0  0  0  0  0  0  0  0  0  0
  -10.0008   -6.8577    8.8132 C   0  0  0  0  0  0  0  0  0  0  0  0
  -11.3264   -6.8976    9.1743 C   0  0  0  0  0  0  0  0  0  0  0  0
  -13.5768   -7.9918    9.0006 C   0  0  0  0  0  0  0  0  0  0  0  0
  -14.4650   -7.0709    6.8874 C   0  0  0  0  0  0  0  0  0  0  0  0
  -14.2913   -6.8138    8.3598 C   0  0  0  0  0  0  0  0  0  0  0  0
   -4.2840   -7.2053    7.3965 C   0  0  0  0  0  0  0  0  0  0  0  0
   -3.1114   -7.1532    6.4310 C   0  0  0  0  0  0  0  0  0  0  0  0
   -3.0371   -6.1327    5.4800 C   0  0  0  0  0  0  0  0  0  0  0  0
   -2.0209   -6.0829    4.5665 C   0  0  0  0  0  0  0  0  0  0  0  0
   -1.0611   -7.0778    4.6103 C   0  0  0  0  0  0  0  0  0  0  0  0
   -1.1308   -8.0722    5.5411 C   0  0  0  0  0  0  0  0  0  0  0  0
   -2.1794   -8.1138    6.4752 C   0  0  0  0  0  0  0  0  0  0  0  0
   -4.1003   -6.0227    8.2357 C   0  0  0  0  0  0  0  0  0  0  0  0
   -4.6151   -5.9826    9.5286 C   0  0  0  0  0  0  0  0  0  0  0  0
   -4.4044   -4.9248   10.3667 C   0  0  0  0  0  0  0  0  0  0  0  0
   -3.6502   -3.8330    9.9461 C   0  0  0  0  0  0  0  0  0  0  0  0
   -3.1412   -3.8506    8.6785 C   0  0  0  0  0  0  0  0  0  0  0  0
   -3.3732   -4.9363    7.8474 C   0  0  0  0  0  0  0  0  0  0  0  0
 16 17  1  0  0  0
 17 15  1  0  0  0
 15  9  1  0  0  0
  9 10  2  0  0  0
 10 11  1  0  0  0
 11 12  2  0  0  0
 12  1  1  0  0  0
  1  2  1  0  0  0
  1  3  1  0  0  0
  3  4  1  0  0  0
  4  5  1  0  0  0
  5 18  1  0  0  0
 18 19  1  0  0  0
 19 20  2  0  0  0
 20 21  1  0  0  0
 21 22  2  0  0  0
 22 23  1  0  0  0
 23 24  2  0  0  0
 18 25  1  0  0  0
 25 26  2  0  0  0
 26 27  1  0  0  0
 27 28  2  0  0  0
 28 29  1  0  0  0
 29 30  2  0  0  0
  5  6  1  0  0  0
  6  7  1  0  0  0
 12 13  1  0  0  0
 13 14  2  0  0  0
 14  9  1  0  0  0
  7  1  1  0  0  0
 24 19  1  0  0  0
 30 25  1  0  0  0
  2  8  1  0  0  0
M  END
> <minimizedAffinity>
-8.02557

> <CNNscore>
0.2492128611

> <CNNaffinity>
5.9994688034

> <CNN_VS>
1.4951448441

> <CNNaffinity_variance>
0.1303255111

$$$$
[H]N=C(c1c([H])c([H])c([H])c(Oc2nc(Oc3c([H])c([H])c([H])c(N([H])C(=O)C([H])([H])[H])c3[H])c(F)c(C([H])([H])[H])c2F)c1[H])N([H])[H]


 34 36  0  0  0  0  0  0  0  0999 V2000
  -14.5066   -7.7151    6.2348 C   0  0  0  0  0  0  0  0  0  0  0  0
  -14.0979   -7.9177    7.5108 N   0  0  0  0  0  0  0  0  0  0  0  0
  -13.8123   -6.9445    8.3792 C   0  0  0  0  0  0  0  0  0  0  0  0
  -13.9375   -5.6350    7.9637 C   0  0  0  0  0  0  0  0  0  0  0  0
  -13.6507   -4.6255    8.8361 F   0  0  0  0  0  0  0  0  0  0  0  0
  -14.3474   -5.3454    6.6826 C   0  0  0  0  0  0  0  0  0  0  0  0
  -14.4895   -3.9448    6.2128 C   0  0  0  0  0  0  0  0  0  0  0  0
  -14.6245   -6.3998    5.8415 C   0  0  0  0  0  0  0  0  0  0  0  0
  -15.0271   -6.0601    4.5802 F   0  0  0  0  0  0  0  0  0  0  0  0
  -14.7801   -8.7594    5.4048 O   0  0  0  0  0  0  0  0  0  0  0  0
  -17.6983   -7.7380    3.4276 C   0  0  0  0  0  0  0  0  0  0  0  0
  -17.7233   -8.7933    2.5493 C   0  0  0  0  0  0  0  0  0  0  0  0
  -16.8167   -9.8342    2.5780 C   0  0  0  0  0  0  0  0  0  0  0  0
  -15.8290   -9.8470    3.5163 C   0  0  0  0  0  0  0  0  0  0  0  0
  -15.7505   -8.8186    4.4239 C   0  0  0  0  0  0  0  0  0  0  0  0
  -16.6643   -7.7988    4.3714 C   0  0  0  0  0  0  0  0  0  0  0  0
  -19.7444   -4.5447    4.1636 C   0  0  0  0  0  0  0  0  0  0  0  0
  -18.6769   -5.5857    4.3273 C   0  0  0  0  0  0  0  0  0  0  0  0
  -17.8950   -5.4149    5.2697 O   0  0  0  0  0  0  0  0  0  0  0  0
  -18.6086   -6.6580    3.4516 N   0  0  0  0  0  0  0  0  0  0  0  0
  -19.3496   -6.7027    2.6652 H   0  0  0  0  0  0  0  0  0  0  0  0
  -13.3986   -7.2601    9.6730 O   0  0  0  0  0  0  0  0  0  0  0  0
  -12.1738   -6.8644   10.1746 C   0  0  0  0  0  0  0  0  0  0  0  0
  -10.9982   -6.9193    9.4383 C   0  0  0  0  0  0  0  0  0  0  0  0
   -9.8045   -6.5137    9.9819 C   0  0  0  0  0  0  0  0  0  0  0  0
   -9.7420   -6.0341   11.2940 C   0  0  0  0  0  0  0  0  0  0  0  0
  -10.8824   -5.9704   12.0380 C   0  0  0  0  0  0  0  0  0  0  0  0
  -12.0939   -6.3928   11.4559 C   0  0  0  0  0  0  0  0  0  0  0  0
  -10.8821   -5.4805   13.4080 C   0  0  0  0  0  0  0  0  0  0  0  0
   -9.8949   -4.8551   13.8924 N   0  0  0  0  0  0  0  0  0  0  0  0
  -12.0162   -5.7068   14.2264 N   0  0  0  0  0  0  0  0  0  0  0  0
   -9.0446   -4.6532   13.3685 H   0  0  0  0  0  0  0  0  0  0  0  0
  -11.8918   -6.2142   15.1176 H   0  0  0  0  0  0  0  0  0  0  0  0
  -12.9443   -5.3660   13.9263 H   0  0  0  0  0  0  0  0  0  0  0  0
 17 18  1  0  0  0
 18 19  2  0  0  0
 18 20  1  0  0  0
 20 11  1  0  0  0
 11 12  2  0  0  0
 12 13  1  0  0  0
 13 14  2  0  0  0
 14 15  1  0  0  0
 15 10  1  0  0  0
 10  1  1  0  0  0
  1  2  2  0  0  0
  2  3  1  0  0  0
  3 22  1  0  0  0
 22 23  1  0  0  0
 23 24  2  0  0  0
 24 25  1  0  0  0
 25 26  2  0  0  0
 26 27  1  0  0  0
 27 29  1  0  0  0
 29 30  2  0  0  0
 29 31  1  0  0  0
 27 28  2  0  0  0
  3  4  2  0  0  0
  4  5  1  0  0  0
  4  6  1  0  0  0
  6  7  1  0  0  0
  6  8  2  0  0  0
  8  9  1  0  0  0
 15 16  2  0  0  0
 16 11  1  0  0  0
  8  1  1  0  0  0
 28 23  1  0  0  0
 20 21  1  0  0  0
 30 32  1  0  0  0
 31 33  1  0  0  0
 31 34  1  0  0  0
M  END
> <minimizedAffinity>
13.91932

> <CNNscore>
0.4967141747

> <CNNaffinity>
6.7368021011

> <CNN_VS>
3.3462650776

> <CNNaffinity_variance>
1.8117244244

$$$$
[H]N=C(c1c([H])c([H])c([H])c(Oc2nc(Oc3c([H])c([H])c([H])c(N([H])C(=O)C([H])([H])[H])c3[H])c(F)c(C([H])([H])[H])c2F)c1[H])N([H])[H]


 34 36  0  0  0  0  0  0  0  0999 V2000
  -10.4979   -9.7912    7.1113 C   0  0  0  0  0  0  0  0  0  0  0  0
  -10.2084   -8.6528    7.7868 N   0  0  0  0  0  0  0  0  0  0  0  0
  -10.9917   -7.5722    7.8228 C   0  0  0  0  0  0  0  0  0  0  0  0
  -12.1836   -7.6008    7.1286 C   0  0  0  0  0  0  0  0  0  0  0  0
  -12.9987   -6.5067    7.1527 F   0  0  0  0  0  0  0  0  0  0  0  0
  -12.5504   -8.7201    6.4174 C   0  0  0  0  0  0  0  0  0  0  0  0
  -13.8273   -8.7745    5.6630 C   0  0  0  0  0  0  0  0  0  0  0  0
  -11.6928   -9.7974    6.4253 C   0  0  0  0  0  0  0  0  0  0  0  0
  -12.1018  -10.8840    5.7039 F   0  0  0  0  0  0  0  0  0  0  0  0
   -9.6483  -10.8554    7.1204 O   0  0  0  0  0  0  0  0  0  0  0  0
   -8.6091  -11.8777    3.7524 C   0  0  0  0  0  0  0  0  0  0  0  0
   -8.7368  -13.2360    3.9080 C   0  0  0  0  0  0  0  0  0  0  0  0
   -9.1526  -13.8361    5.0799 C   0  0  0  0  0  0  0  0  0  0  0  0
   -9.4613  -13.0682    6.1621 C   0  0  0  0  0  0  0  0  0  0  0  0
   -9.3535  -11.7016    6.0696 C   0  0  0  0  0  0  0  0  0  0  0  0
   -8.9383  -11.1339    4.8935 C   0  0  0  0  0  0  0  0  0  0  0  0
   -6.8800   -9.7714    1.0140 C   0  0  0  0  0  0  0  0  0  0  0  0
   -7.1173  -10.3775    2.3653 C   0  0  0  0  0  0  0  0  0  0  0  0
   -6.2973  -10.0821    3.2422 O   0  0  0  0  0  0  0  0  0  0  0  0
   -8.2036  -11.2130    2.5736 N   0  0  0  0  0  0  0  0  0  0  0  0
   -8.8551  -11.3974    1.7303 H   0  0  0  0  0  0  0  0  0  0  0  0
  -10.6009   -6.4482    8.5498 O   0  0  0  0  0  0  0  0  0  0  0  0
  -11.3196   -5.9822    9.6336 C   0  0  0  0  0  0  0  0  0  0  0  0
  -12.6220   -5.5117    9.5354 C   0  0  0  0  0  0  0  0  0  0  0  0
  -13.2950   -5.0588   10.6430 C   0  0  0  0  0  0  0  0  0  0  0  0
  -12.6846   -5.0595   11.9011 C   0  0  0  0  0  0  0  0  0  0  0  0
  -11.4062   -5.5164   12.0241 C   0  0  0  0  0  0  0  0  0  0  0  0
  -10.7385   -5.9755   10.8716 C   0  0  0  0  0  0  0  0  0  0  0  0
  -10.7175   -5.5430   13.3055 C   0  0  0  0  0  0  0  0  0  0  0  0
  -11.3465   -5.6403   14.3988 N   0  0  0  0  0  0  0  0  0  0  0  0
   -9.3036   -5.4582   13.3355 N   0  0  0  0  0  0  0  0  0  0  0  0
  -12.3615   -5.7058   14.4601 H   0  0  0  0  0  0  0  0  0  0  0  0
   -8.8636   -4.6941   13.8738 H   0  0  0  0  0  0  0  0  0  0  0  0
   -8.7349   -6.1533   12.8247 H   0  0  0  0  0  0  0  0  0  0  0  0
 17 18  1  0  0  0
 18 19  2  0  0  0
 18 20  1  0  0  0
 20 11  1  0  0  0
 11 12  2  0  0  0
 12 13  1  0  0  0
 13 14  2  0  0  0
 14 15  1  0  0  0
 15 10  1  0  0  0
 10  1  1  0  0  0
  1  2  2  0  0  0
  2  3  1  0  0  0
  3 22  1  0  0  0
 22 23  1  0  0  0
 23 24  2  0  0  0
 24 25  1  0  0  0
 25 26  2  0  0  0
 26 27  1  0  0  0
 27 29  1  0  0  0
 29 30  2  0  0  0
 29 31  1  0  0  0
 27 28  2  0  0  0
  3  4  2  0  0  0
  4  5  1  0  0  0
  4  6  1  0  0  0
  6  7  1  0  0  0
  6  8  2  0  0  0
  8  9  1  0  0  0
 15 16  2  0  0  0
 16 11  1  0  0  0
  8  1  1  0  0  0
 28 23  1  0  0  0
 20 21  1  0  0  0
 30 32  1  0  0  0
 31 33  1  0  0  0
 31 34  1  0  0  0
M  END
> <minimizedAffinity>
17.51455

> <CNNscore>
0.4728606939

> <CNNaffinity>
6.2059950829

> <CNN_VS>
2.9345710278

> <CNNaffinity_variance>
1.3256394863

$$$$
[H]N=C(c1c([H])c([H])c([H])c(Oc2nc(Oc3c([H])c([H])c([H])c(N([H])C(=O)C([H])([H])[H])c3[H])c(F)c(C([H])([H])[H])c2F)c1[H])N([H])[H]


 34 36  0  0  0  0  0  0  0  0999 V2000
  -13.2481   -5.8767    5.2825 C   0  0  0  0  0  0  0  0  0  0  0  0
  -13.7150   -6.9989    5.8816 N   0  0  0  0  0  0  0  0  0  0  0  0
  -14.9861   -7.4057    5.8442 C   0  0  0  0  0  0  0  0  0  0  0  0
  -15.9011   -6.6408    5.1506 C   0  0  0  0  0  0  0  0  0  0  0  0
  -17.2053   -7.0393    5.1001 F   0  0  0  0  0  0  0  0  0  0  0  0
  -15.5062   -5.4864    4.5146 C   0  0  0  0  0  0  0  0  0  0  0  0
  -16.4720   -4.6473    3.7624 C   0  0  0  0  0  0  0  0  0  0  0  0
  -14.1791   -5.1284    4.5957 C   0  0  0  0  0  0  0  0  0  0  0  0
  -13.8373   -3.9741    3.9482 F   0  0  0  0  0  0  0  0  0  0  0  0
  -11.9352   -5.5245    5.3641 O   0  0  0  0  0  0  0  0  0  0  0  0
   -8.6238   -6.2735    6.7580 C   0  0  0  0  0  0  0  0  0  0  0  0
   -9.0295   -6.8598    7.9315 C   0  0  0  0  0  0  0  0  0  0  0  0
  -10.3534   -7.0215    8.2883 C   0  0  0  0  0  0  0  0  0  0  0  0
  -11.3383   -6.5865    7.4535 C   0  0  0  0  0  0  0  0  0  0  0  0
  -10.9967   -5.9908    6.2636 C   0  0  0  0  0  0  0  0  0  0  0  0
   -9.6742   -5.8439    5.9359 C   0  0  0  0  0  0  0  0  0  0  0  0
   -4.9232   -6.6242    5.7056 C   0  0  0  0  0  0  0  0  0  0  0  0
   -6.2897   -7.0440    6.1599 C   0  0  0  0  0  0  0  0  0  0  0  0
   -6.4468   -8.2549    6.3540 O   0  0  0  0  0  0  0  0  0  0  0  0
   -7.2864   -6.0975    6.3384 N   0  0  0  0  0  0  0  0  0  0  0  0
   -7.0306   -5.0657    6.1392 H   0  0  0  0  0  0  0  0  0  0  0  0
  -15.3651   -8.5789    6.4958 O   0  0  0  0  0  0  0  0  0  0  0  0
  -14.4671   -9.3552    7.2023 C   0  0  0  0  0  0  0  0  0  0  0  0
  -14.8025  -10.0366    8.3645 C   0  0  0  0  0  0  0  0  0  0  0  0
  -13.8735  -10.7964    9.0311 C   0  0  0  0  0  0  0  0  0  0  0  0
  -12.5627  -10.9035    8.5560 C   0  0  0  0  0  0  0  0  0  0  0  0
  -12.2080  -10.2440    7.4169 C   0  0  0  0  0  0  0  0  0  0  0  0
  -13.1808   -9.4713    6.7524 C   0  0  0  0  0  0  0  0  0  0  0  0
  -10.8608  -10.3165    6.8724 C   0  0  0  0  0  0  0  0  0  0  0  0
  -10.6483  -10.4140    5.6291 N   0  0  0  0  0  0  0  0  0  0  0  0
   -9.7526  -10.2768    7.7541 N   0  0  0  0  0  0  0  0  0  0  0  0
  -11.3911  -10.4484    4.9323 H   0  0  0  0  0  0  0  0  0  0  0  0
   -9.0787  -11.0597    7.7398 H   0  0  0  0  0  0  0  0  0  0  0  0
   -9.6321   -9.4747    8.3942 H   0  0  0  0  0  0  0  0  0  0  0  0
 17 18  1  0  0  0
 18 19  2  0  0  0
 18 20  1  0  0  0
 20 11  1  0  0  0
 11 12  2  0  0  0
 12 13  1  0  0  0
 13 14  2  0  0  0
 14 15  1  0  0  0
 15 10  1  0  0  0
 10  1  1  0  0  0
  1  2  2  0  0  0
  2  3  1  0  0  0
  3 22  1  0  0  0
 22 23  1  0  0  0
 23 24  2  0  0  0
 24 25  1  0  0  0
 25 26  2  0  0  0
 26 27  1  0  0  0
 27 29  1  0  0  0
 29 30  2  0  0  0
 29 31  1  0  0  0
 27 28  2  0  0  0
  3  4  2  0  0  0
  4  5  1  0  0  0
  4  6  1  0  0  0
  6  7  1  0  0  0
  6  8  2  0  0  0
  8  9  1  0  0  0
 15 16  2  0  0  0
 16 11  1  0  0  0
  8  1  1  0  0  0
 28 23  1  0  0  0
 20 21  1  0  0  0
 30 32  1  0  0  0
 31 33  1  0  0  0
 31 34  1  0  0  0
M  END
> <minimizedAffinity>
12.05499

> <CNNscore>
0.4292040467

> <CNNaffinity>
6.4905881882

> <CNN_VS>
2.7857866287

> <CNNaffinity_variance>
0.8726658821

$$$$
[H]N=C(c1c([H])c([H])c([H])c(Oc2nc(Oc3c([H])c([H])c([H])c(N([H])C(=O)C([H])([H])[H])c3[H])c(F)c(C([H])([H])[H])c2F)c1[H])N([H])[H]


 34 36  0  0  0  0  0  0  0  0999 V2000
  -10.6347   -7.1043    8.7018 C   0  0  0  0  0  0  0  0  0  0  0  0
  -11.3702   -7.5915    7.6733 N   0  0  0  0  0  0  0  0  0  0  0  0
  -12.6914   -7.4443    7.5492 C   0  0  0  0  0  0  0  0  0  0  0  0
  -13.3703   -6.7492    8.5287 C   0  0  0  0  0  0  0  0  0  0  0  0
  -14.7210   -6.5873    8.4205 F   0  0  0  0  0  0  0  0  0  0  0  0
  -12.6954   -6.2228    9.6060 C   0  0  0  0  0  0  0  0  0  0  0  0
  -13.4039   -5.4715   10.6719 C   0  0  0  0  0  0  0  0  0  0  0  0
  -11.3332   -6.4139    9.6682 C   0  0  0  0  0  0  0  0  0  0  0  0
  -10.7092   -5.8727   10.7573 F   0  0  0  0  0  0  0  0  0  0  0  0
   -9.2876   -7.2945    8.7612 O   0  0  0  0  0  0  0  0  0  0  0  0
   -6.7501   -7.0102    6.1251 C   0  0  0  0  0  0  0  0  0  0  0  0
   -6.7490   -8.3183    5.7076 C   0  0  0  0  0  0  0  0  0  0  0  0
   -7.5515   -9.2978    6.2579 C   0  0  0  0  0  0  0  0  0  0  0  0
   -8.4036   -8.9843    7.2737 C   0  0  0  0  0  0  0  0  0  0  0  0
   -8.4511   -7.6916    7.7366 C   0  0  0  0  0  0  0  0  0  0  0  0
   -7.6430   -6.7404    7.1709 C   0  0  0  0  0  0  0  0  0  0  0  0
   -3.9990   -4.4794    5.1498 C   0  0  0  0  0  0  0  0  0  0  0  0
   -4.6379   -5.6472    5.8409 C   0  0  0  0  0  0  0  0  0  0  0  0
   -3.9148   -6.2744    6.6235 O   0  0  0  0  0  0  0  0  0  0  0  0
   -5.9624   -5.9680    5.5876 N   0  0  0  0  0  0  0  0  0  0  0  0
   -6.4967   -5.3445    4.8837 H   0  0  0  0  0  0  0  0  0  0  0  0
  -13.3559   -7.9858    6.4493 O   0  0  0  0  0  0  0  0  0  0  0  0
  -14.2796   -7.2666    5.7160 C   0  0  0  0  0  0  0  0  0  0  0  0
  -14.0321   -5.9923    5.2239 C   0  0  0  0  0  0  0  0  0  0  0  0
  -14.9833   -5.3177    4.4993 C   0  0  0  0  0  0  0  0  0  0  0  0
  -16.2285   -5.8979    4.2380 C   0  0  0  0  0  0  0  0  0  0  0  0
  -16.4962   -7.1484    4.7102 C   0  0  0  0  0  0  0  0  0  0  0  0
  -15.5025   -7.8184    5.4508 C   0  0  0  0  0  0  0  0  0  0  0  0
  -17.7721   -7.8054    4.4710 C   0  0  0  0  0  0  0  0  0  0  0  0
  -18.6715   -7.2755    3.7564 N   0  0  0  0  0  0  0  0  0  0  0  0
  -18.0193   -9.0739    5.0514 N   0  0  0  0  0  0  0  0  0  0  0  0
  -18.5697   -6.3674    3.3054 H   0  0  0  0  0  0  0  0  0  0  0  0
  -18.8397   -9.1857    5.6691 H   0  0  0  0  0  0  0  0  0  0  0  0
  -17.3836   -9.8640    4.8529 H   0  0  0  0  0  0  0  0  0  0  0  0
 17 18  1  0  0  0
 18 19  2  0  0  0
 18 20  1  0  0  0
 20 11  1  0  0  0
 11 12  2  0  0  0
 12 13  1  0  0  0
 13 14  2  0  0  0
 14 15  1  0  0  0
 15 10  1  0  0  0
 10  1  1  0  0  0
  1  2  2  0  0  0
  2  3  1  0  0  0
  3 22  1  0  0  0
 22 23  1  0  0  0
 23 24  2  0  0  0
 24 25  1  0  0  0
 25 26  2  0  0  0
 26 27  1  0  0  0
 27 29  1  0  0  0
 29 30  2  0  0  0
 29 31  1  0  0  0
 27 28  2  0  0  0
  3  4  2  0  0  0
  4  5  1  0  0  0
  4  6  1  0  0  0
  6  7  1  0  0  0
  6  8  2  0  0  0
  8  9  1  0  0  0
 15 16  2  0  0  0
 16 11  1  0  0  0
  8  1  1  0  0  0
 28 23  1  0  0  0
 20 21  1  0  0  0
 30 32  1  0  0  0
 31 33  1  0  0  0
 31 34  1  0  0  0
M  END
> <minimizedAffinity>
-10.16486

> <CNNscore>
0.4030193985

> <CNNaffinity>
7.1757369041

> <CNN_VS>
2.8919610977

> <CNNaffinity_variance>
0.1977143735

$$$$
[H]N=C(c1c([H])c([H])c([H])c(Oc2nc(Oc3c([H])c([H])c([H])c(N([H])C(=O)C([H])([H])[H])c3[H])c(F)c(C([H])([H])[H])c2F)c1[H])N([H])[H]


 34 36  0  0  0  0  0  0  0  0999 V2000
  -15.1318   -5.7895    5.3433 C   0  0  0  0  0  0  0  0  0  0  0  0
  -16.0722   -6.5649    4.7512 N   0  0  0  0  0  0  0  0  0  0  0  0
  -17.3083   -6.1607    4.4493 C   0  0  0  0  0  0  0  0  0  0  0  0
  -17.6692   -4.8647    4.7551 C   0  0  0  0  0  0  0  0  0  0  0  0
  -18.9280   -4.4317    4.4545 F   0  0  0  0  0  0  0  0  0  0  0  0
  -16.7714   -4.0138    5.3574 C   0  0  0  0  0  0  0  0  0  0  0  0
  -17.1364   -2.6156    5.6959 C   0  0  0  0  0  0  0  0  0  0  0  0
  -15.5141   -4.4993    5.6397 C   0  0  0  0  0  0  0  0  0  0  0  0
  -14.6597   -3.6161    6.2382 F   0  0  0  0  0  0  0  0  0  0  0  0
  -13.8891   -6.2718    5.6216 O   0  0  0  0  0  0  0  0  0  0  0  0
  -11.8212   -8.7918    7.3074 C   0  0  0  0  0  0  0  0  0  0  0  0
  -12.7933   -9.7383    7.5190 C   0  0  0  0  0  0  0  0  0  0  0  0
  -14.1088   -9.5843    7.1292 C   0  0  0  0  0  0  0  0  0  0  0  0
  -14.4992   -8.4422    6.4972 C   0  0  0  0  0  0  0  0  0  0  0  0
  -13.5727   -7.4567    6.2566 C   0  0  0  0  0  0  0  0  0  0  0  0
  -12.2740   -7.6374    6.6547 C   0  0  0  0  0  0  0  0  0  0  0  0
   -8.1407   -9.8205    7.8732 C   0  0  0  0  0  0  0  0  0  0  0  0
   -9.5514   -9.9069    7.3710 C   0  0  0  0  0  0  0  0  0  0  0  0
   -9.8245  -10.9052    6.6947 O   0  0  0  0  0  0  0  0  0  0  0  0
  -10.4610   -8.9051    7.6714 N   0  0  0  0  0  0  0  0  0  0  0  0
  -10.1071   -8.0797    8.2741 H   0  0  0  0  0  0  0  0  0  0  0  0
  -18.2027   -7.0394    3.8389 O   0  0  0  0  0  0  0  0  0  0  0  0
  -18.4157   -8.3213    4.3075 C   0  0  0  0  0  0  0  0  0  0  0  0
  -17.6563   -9.4122    3.9066 C   0  0  0  0  0  0  0  0  0  0  0  0
  -17.9070  -10.6678    4.4019 C   0  0  0  0  0  0  0  0  0  0  0  0
  -18.9359  -10.8808    5.3246 C   0  0  0  0  0  0  0  0  0  0  0  0
  -19.6962   -9.8260    5.7341 C   0  0  0  0  0  0  0  0  0  0  0  0
  -19.4176   -8.5481    5.2103 C   0  0  0  0  0  0  0  0  0  0  0  0
  -20.7801   -9.9834    6.6919 C   0  0  0  0  0  0  0  0  0  0  0  0
  -20.9409   -9.1793    7.6551 N   0  0  0  0  0  0  0  0  0  0  0  0
  -21.6836  -11.0649    6.5461 N   0  0  0  0  0  0  0  0  0  0  0  0
  -20.3346   -8.3786    7.8270 H   0  0  0  0  0  0  0  0  0  0  0  0
  -21.7922  -11.7297    7.3293 H   0  0  0  0  0  0  0  0  0  0  0  0
  -22.2175  -11.1755    5.6684 H   0  0  0  0  0  0  0  0  0  0  0  0
 17 18  1  0  0  0
 18 19  2  0  0  0
 18 20  1  0  0  0
 20 11  1  0  0  0
 11 12  2  0  0  0
 12 13  1  0  0  0
 13 14  2  0  0  0
 14 15  1  0  0  0
 15 10  1  0  0  0
 10  1  1  0  0  0
  1  2  2  0  0  0
  2  3  1  0  0  0
  3 22  1  0  0  0
 22 23  1  0  0  0
 23 24  2  0  0  0
 24 25  1  0  0  0
 25 26  2  0  0  0
 26 27  1  0  0  0
 27 29  1  0  0  0
 29 30  2  0  0  0
 29 31  1  0  0  0
 27 28  2  0  0  0
  3  4  2  0  0  0
  4  5  1  0  0  0
  4  6  1  0  0  0
  6  7  1  0  0  0
  6  8  2  0  0  0
  8  9  1  0  0  0
 15 16  2  0  0  0
 16 11  1  0  0  0
  8  1  1  0  0  0
 28 23  1  0  0  0
 20 21  1  0  0  0
 30 32  1  0  0  0
 31 33  1  0  0  0
 31 34  1  0  0  0
M  END
> <minimizedAffinity>
12.39749

> <CNNscore>
0.3979455829

> <CNNaffinity>
6.6612386703

> <CNN_VS>
2.6508104801

> <CNNaffinity_variance>
1.1293154955

$$$$
[H]N=C(c1c([H])c([H])c([H])c(Oc2nc(Oc3c([H])c([H])c([H])c(N([H])C(=O)C([H])([H])[H])c3[H])c(F)c(C([H])([H])[H])c2F)c1[H])N([H])[H]


 34 36  0  0  0  0  0  0  0  0999 V2000
  -12.1823   -7.6152    7.7209 C   0  0  0  0  0  0  0  0  0  0  0  0
  -12.6571   -7.2673    6.5003 N   0  0  0  0  0  0  0  0  0  0  0  0
  -13.5213   -7.9938    5.7875 C   0  0  0  0  0  0  0  0  0  0  0  0
  -13.9726   -9.1850    6.3172 C   0  0  0  0  0  0  0  0  0  0  0  0
  -14.8564   -9.9422    5.6047 F   0  0  0  0  0  0  0  0  0  0  0  0
  -13.5379   -9.6090    7.5518 C   0  0  0  0  0  0  0  0  0  0  0  0
  -14.0091  -10.8864    8.1423 C   0  0  0  0  0  0  0  0  0  0  0  0
  -12.6463   -8.8084    8.2302 C   0  0  0  0  0  0  0  0  0  0  0  0
  -12.2445   -9.2733    9.4512 F   0  0  0  0  0  0  0  0  0  0  0  0
  -11.3006   -6.8219    8.3899 O   0  0  0  0  0  0  0  0  0  0  0  0
   -7.8749   -7.6939    7.4035 C   0  0  0  0  0  0  0  0  0  0  0  0
   -7.2463   -7.4054    8.5897 C   0  0  0  0  0  0  0  0  0  0  0  0
   -7.9032   -6.9334    9.7087 C   0  0  0  0  0  0  0  0  0  0  0  0
   -9.2498   -6.7306    9.6688 C   0  0  0  0  0  0  0  0  0  0  0  0
   -9.9364   -7.0005    8.5098 C   0  0  0  0  0  0  0  0  0  0  0  0
   -9.2579   -7.4683    7.4150 C   0  0  0  0  0  0  0  0  0  0  0  0
   -5.4747   -8.9790    4.6626 C   0  0  0  0  0  0  0  0  0  0  0  0
   -5.9135   -8.4483    5.9951 C   0  0  0  0  0  0  0  0  0  0  0  0
   -5.0168   -8.2656    6.8264 O   0  0  0  0  0  0  0  0  0  0  0  0
   -7.2542   -8.1923    6.2364 N   0  0  0  0  0  0  0  0  0  0  0  0
   -7.9486   -8.3892    5.4309 H   0  0  0  0  0  0  0  0  0  0  0  0
  -13.9490   -7.5456    4.5382 O   0  0  0  0  0  0  0  0  0  0  0  0
  -14.7447   -6.4266    4.3869 C   0  0  0  0  0  0  0  0  0  0  0  0
  -14.2364   -5.1362    4.3251 C   0  0  0  0  0  0  0  0  0  0  0  0
  -15.0691   -4.0552    4.1735 C   0  0  0  0  0  0  0  0  0  0  0  0
  -16.4536   -4.2265    4.0775 C   0  0  0  0  0  0  0  0  0  0  0  0
  -16.9778   -5.4835    4.1355 C   0  0  0  0  0  0  0  0  0  0  0  0
  -16.1009   -6.5752    4.2913 C   0  0  0  0  0  0  0  0  0  0  0  0
  -18.4092   -5.7265    4.0409 C   0  0  0  0  0  0  0  0  0  0  0  0
  -18.8728   -6.8086    3.5778 N   0  0  0  0  0  0  0  0  0  0  0  0
  -19.3133   -4.7273    4.4783 N   0  0  0  0  0  0  0  0  0  0  0  0
  -18.2886   -7.5738    3.2438 H   0  0  0  0  0  0  0  0  0  0  0  0
  -20.0106   -4.3617    3.8094 H   0  0  0  0  0  0  0  0  0  0  0  0
  -19.2658   -4.3793    5.4501 H   0  0  0  0  0  0  0  0  0  0  0  0
 17 18  1  0  0  0
 18 19  2  0  0  0
 18 20  1  0  0  0
 20 11  1  0  0  0
 11 12  2  0  0  0
 12 13  1  0  0  0
 13 14  2  0  0  0
 14 15  1  0  0  0
 15 10  1  0  0  0
 10  1  1  0  0  0
  1  2  2  0  0  0
  2  3  1  0  0  0
  3 22  1  0  0  0
 22 23  1  0  0  0
 23 24  2  0  0  0
 24 25  1  0  0  0
 25 26  2  0  0  0
 26 27  1  0  0  0
 27 29  1  0  0  0
 29 30  2  0  0  0
 29 31  1  0  0  0
 27 28  2  0  0  0
  3  4  2  0  0  0
  4  5  1  0  0  0
  4  6  1  0  0  0
  6  7  1  0  0  0
  6  8  2  0  0  0
  8  9  1  0  0  0
 15 16  2  0  0  0
 16 11  1  0  0  0
  8  1  1  0  0  0
 28 23  1  0  0  0
 20 21  1  0  0  0
 30 32  1  0  0  0
 31 33  1  0  0  0
 31 34  1  0  0  0
M  END
> <minimizedAffinity>
-1.13856

> <CNNscore>
0.3307592273

> <CNNaffinity>
6.5469160080

> <CNN_VS>
2.1654529572

> <CNNaffinity_variance>
1.0762302876

$$$$
[H]N=C(c1c([H])c([H])c([H])c(Oc2nc(Oc3c([H])c([H])c([H])c(N([H])C(=O)C([H])([H])[H])c3[H])c(F)c(C([H])([H])[H])c2F)c1[H])N([H])[H]


 34 36  0  0  0  0  0  0  0  0999 V2000
  -14.0439   -8.0620    6.8778 C   0  0  0  0  0  0  0  0  0  0  0  0
  -12.7605   -7.6306    6.8239 N   0  0  0  0  0  0  0  0  0  0  0  0
  -12.0440   -7.2476    7.8834 C   0  0  0  0  0  0  0  0  0  0  0  0
  -12.6378   -7.2882    9.1280 C   0  0  0  0  0  0  0  0  0  0  0  0
  -11.9225   -6.9012   10.2239 F   0  0  0  0  0  0  0  0  0  0  0  0
  -13.9386   -7.7144    9.2672 C   0  0  0  0  0  0  0  0  0  0  0  0
  -14.5986   -7.7668   10.5954 C   0  0  0  0  0  0  0  0  0  0  0  0
  -14.6166   -8.0942    8.1305 C   0  0  0  0  0  0  0  0  0  0  0  0
  -15.9051   -8.5087    8.3213 F   0  0  0  0  0  0  0  0  0  0  0  0
  -14.7125   -8.4371    5.7523 O   0  0  0  0  0  0  0  0  0  0  0  0
  -18.2906   -8.2706    4.9535 C   0  0  0  0  0  0  0  0  0  0  0  0
  -18.3057   -7.0306    4.3638 C   0  0  0  0  0  0  0  0  0  0  0  0
  -17.1835   -6.2401    4.2155 C   0  0  0  0  0  0  0  0  0  0  0  0
  -15.9775   -6.6836    4.6683 C   0  0  0  0  0  0  0  0  0  0  0  0
  -15.8968   -7.9169    5.2684 C   0  0  0  0  0  0  0  0  0  0  0  0
  -17.0275   -8.6796    5.4016 C   0  0  0  0  0  0  0  0  0  0  0  0
  -21.2243  -10.4453    6.2141 C   0  0  0  0  0  0  0  0  0  0  0  0
  -20.0489   -9.5158    6.2792 C   0  0  0  0  0  0  0  0  0  0  0  0
  -19.7164   -9.1428    7.4101 O   0  0  0  0  0  0  0  0  0  0  0  0
  -19.4041   -9.1246    5.1162 N   0  0  0  0  0  0  0  0  0  0  0  0
  -19.7841   -9.5180    4.1832 H   0  0  0  0  0  0  0  0  0  0  0  0
  -10.7270   -6.8191    7.7201 O   0  0  0  0  0  0  0  0  0  0  0  0
   -9.6632   -7.6992    7.6771 C   0  0  0  0  0  0  0  0  0  0  0  0
   -9.8186   -9.0721    7.5407 C   0  0  0  0  0  0  0  0  0  0  0  0
   -8.7288   -9.9062    7.5027 C   0  0  0  0  0  0  0  0  0  0  0  0
   -7.4316   -9.3934    7.6010 C   0  0  0  0  0  0  0  0  0  0  0  0
   -7.2521   -8.0488    7.7358 C   0  0  0  0  0  0  0  0  0  0  0  0
   -8.3875   -7.2155    7.7718 C   0  0  0  0  0  0  0  0  0  0  0  0
   -5.9280   -7.4551    7.8422 C   0  0  0  0  0  0  0  0  0  0  0  0
   -4.9355   -7.9214    7.2114 N   0  0  0  0  0  0  0  0  0  0  0  0
   -5.7395   -6.3233    8.6732 N   0  0  0  0  0  0  0  0  0  0  0  0
   -4.9902   -8.7310    6.5951 H   0  0  0  0  0  0  0  0  0  0  0  0
   -5.0423   -6.3766    9.4336 H   0  0  0  0  0  0  0  0  0  0  0  0
   -6.2950   -5.4672    8.5115 H   0  0  0  0  0  0  0  0  0  0  0  0
 17 18  1  0  0  0
 18 19  2  0  0  0
 18 20  1  0  0  0
 20 11  1  0  0  0
 11 12  2  0  0  0
 12 13  1  0  0  0
 13 14  2  0  0  0
 14 15  1  0  0  0
 15 10  1  0  0  0
 10  1  1  0  0  0
  1  2  2  0  0  0
  2  3  1  0  0  0
  3 22  1  0  0  0
 22 23  1  0  0  0
 23 24  2  0  0  0
 24 25  1  0  0  0
 25 26  2  0  0  0
 26 27  1  0  0  0
 27 29  1  0  0  0
 29 30  2  0  0  0
 29 31  1  0  0  0
 27 28  2  0  0  0
  3  4  2  0  0  0
  4  5  1  0  0  0
  4  6  1  0  0  0
  6  7  1  0  0  0
  6  8  2  0  0  0
  8  9  1  0  0  0
 15 16  2  0  0  0
 16 11  1  0  0  0
  8  1  1  0  0  0
 28 23  1  0  0  0
 20 21  1  0  0  0
 30 32  1  0  0  0
 31 33  1  0  0  0
 31 34  1  0  0  0
M  END
> <minimizedAffinity>
-7.79386

> <CNNscore>
0.3159375787

> <CNNaffinity>
6.8980379105

> <CNN_VS>
2.1793494225

> <CNNaffinity_variance>
0.1993041188

$$$$
[H]N=C(c1c([H])c([H])c([H])c(Oc2nc(Oc3c([H])c([H])c([H])c(N([H])C(=O)C([H])([H])[H])c3[H])c(F)c(C([H])([H])[H])c2F)c1[H])N([H])[H]


 34 36  0  0  0  0  0  0  0  0999 V2000
  -12.3499   -7.2872    7.6276 C   0  0  0  0  0  0  0  0  0  0  0  0
  -11.0430   -7.5619    7.8573 N   0  0  0  0  0  0  0  0  0  0  0  0
  -10.3549   -7.1401    8.9209 C   0  0  0  0  0  0  0  0  0  0  0  0
  -11.0061   -6.3694    9.8617 C   0  0  0  0  0  0  0  0  0  0  0  0
  -10.3208   -5.9284   10.9563 F   0  0  0  0  0  0  0  0  0  0  0  0
  -12.3339   -6.0463    9.7015 C   0  0  0  0  0  0  0  0  0  0  0  0
  -13.0557   -5.2187   10.6999 C   0  0  0  0  0  0  0  0  0  0  0  0
  -12.9799   -6.5161    8.5799 C   0  0  0  0  0  0  0  0  0  0  0  0
  -14.2967   -6.1676    8.4664 F   0  0  0  0  0  0  0  0  0  0  0  0
  -12.9867   -7.7528    6.5176 O   0  0  0  0  0  0  0  0  0  0  0  0
  -16.5585   -7.5898    5.6903 C   0  0  0  0  0  0  0  0  0  0  0  0
  -16.5334   -6.4520    4.9220 C   0  0  0  0  0  0  0  0  0  0  0  0
  -15.3859   -5.7299    4.6614 C   0  0  0  0  0  0  0  0  0  0  0  0
  -14.1946   -6.1402    5.1796 C   0  0  0  0  0  0  0  0  0  0  0  0
  -14.1538   -7.2721    5.9573 C   0  0  0  0  0  0  0  0  0  0  0  0
  -15.3089   -7.9687    6.1988 C   0  0  0  0  0  0  0  0  0  0  0  0
  -19.8729   -9.5746    5.6677 C   0  0  0  0  0  0  0  0  0  0  0  0
  -18.7509   -8.7278    5.1443 C   0  0  0  0  0  0  0  0  0  0  0  0
  -18.8383   -8.3865    3.9593 O   0  0  0  0  0  0  0  0  0  0  0  0
  -17.6994   -8.3729    5.9747 N   0  0  0  0  0  0  0  0  0  0  0  0
  -17.7325   -8.7293    6.9953 H   0  0  0  0  0  0  0  0  0  0  0  0
   -9.0098   -7.4790    9.0638 O   0  0  0  0  0  0  0  0  0  0  0  0
   -8.2049   -7.7821    7.9829 C   0  0  0  0  0  0  0  0  0  0  0  0
   -8.3767   -8.9178    7.2031 C   0  0  0  0  0  0  0  0  0  0  0  0
   -7.5499   -9.1750    6.1377 C   0  0  0  0  0  0  0  0  0  0  0  0
   -6.5112   -8.2979    5.8099 C   0  0  0  0  0  0  0  0  0  0  0  0
   -6.3215   -7.1756    6.5601 C   0  0  0  0  0  0  0  0  0  0  0  0
   -7.1842   -6.9357    7.6478 C   0  0  0  0  0  0  0  0  0  0  0  0
   -5.2592   -6.2250    6.2692 C   0  0  0  0  0  0  0  0  0  0  0  0
   -5.3651   -5.3693    5.3434 N   0  0  0  0  0  0  0  0  0  0  0  0
   -4.0715   -6.2535    7.0411 N   0  0  0  0  0  0  0  0  0  0  0  0
   -6.1861   -5.2856    4.7457 H   0  0  0  0  0  0  0  0  0  0  0  0
   -3.1685   -6.3875    6.5576 H   0  0  0  0  0  0  0  0  0  0  0  0
   -4.1212   -6.1412    8.0670 H   0  0  0  0  0  0  0  0  0  0  0  0
 17 18  1  0  0  0
 18 19  2  0  0  0
 18 20  1  0  0  0
 20 11  1  0  0  0
 11 12  2  0  0  0
 12 13  1  0  0  0
 13 14  2  0  0  0
 14 15  1  0  0  0
 15 10  1  0  0  0
 10  1  1  0  0  0
  1  2  2  0  0  0
  2  3  1  0  0  0
  3 22  1  0  0  0
 22 23  1  0  0  0
 23 24  2  0  0  0
 24 25  1  0  0  0
 25 26  2  0  0  0
 26 27  1  0  0  0
 27 29  1  0  0  0
 29 30  2  0  0  0
 29 31  1  0  0  0
 27 28  2  0  0  0
  3  4  2  0  0  0
  4  5  1  0  0  0
  4  6  1  0  0  0
  6  7  1  0  0  0
  6  8  2  0  0  0
  8  9  1  0  0  0
 15 16  2  0  0  0
 16 11  1  0  0  0
  8  1  1  0  0  0
 28 23  1  0  0  0
 20 21  1  0  0  0
 30 32  1  0  0  0
 31 33  1  0  0  0
 31 34  1  0  0  0
M  END
> <minimizedAffinity>
-8.34578

> <CNNscore>
0.2729115784

> <CNNaffinity>
6.7426118851

> <CNN_VS>
1.8401368856

> <CNNaffinity_variance>
0.2026300132

$$$$
[H]N=C(c1c([H])c([H])c([H])c(Oc2nc(Oc3c([H])c([H])c([H])c(N([H])C(=O)C([H])([H])[H])c3[H])c(F)c(C([H])([H])[H])c2F)c1[H])N([H])[H]


 34 36  0  0  0  0  0  0  0  0999 V2000
  -10.6015   -7.5225    8.4413 C   0  0  0  0  0  0  0  0  0  0  0  0
  -11.4946   -8.0218    7.5529 N   0  0  0  0  0  0  0  0  0  0  0  0
  -12.7987   -7.7354    7.5462 C   0  0  0  0  0  0  0  0  0  0  0  0
  -13.2870   -6.8715    8.5046 C   0  0  0  0  0  0  0  0  0  0  0  0
  -14.6169   -6.5657    8.5149 F   0  0  0  0  0  0  0  0  0  0  0  0
  -12.4443   -6.3216    9.4429 C   0  0  0  0  0  0  0  0  0  0  0  0
  -12.9462   -5.3899   10.4834 C   0  0  0  0  0  0  0  0  0  0  0  0
  -11.1112   -6.6622    9.3892 C   0  0  0  0  0  0  0  0  0  0  0  0
  -10.3159   -6.0905   10.3426 F   0  0  0  0  0  0  0  0  0  0  0  0
   -9.2836   -7.8608    8.3863 O   0  0  0  0  0  0  0  0  0  0  0  0
   -6.0824   -7.7271    6.5966 C   0  0  0  0  0  0  0  0  0  0  0  0
   -6.4135   -6.7723    5.6669 C   0  0  0  0  0  0  0  0  0  0  0  0
   -7.6518   -6.1654    5.6012 C   0  0  0  0  0  0  0  0  0  0  0  0
   -8.6231   -6.5090    6.4926 C   0  0  0  0  0  0  0  0  0  0  0  0
   -8.3535   -7.4589    7.4478 C   0  0  0  0  0  0  0  0  0  0  0  0
   -7.1152   -8.0443    7.4890 C   0  0  0  0  0  0  0  0  0  0  0  0
   -2.4088   -8.7374    7.2364 C   0  0  0  0  0  0  0  0  0  0  0  0
   -3.6311   -7.8685    7.2057 C   0  0  0  0  0  0  0  0  0  0  0  0
   -3.4876   -6.7179    7.6347 O   0  0  0  0  0  0  0  0  0  0  0  0
   -4.8287   -8.3669    6.7172 N   0  0  0  0  0  0  0  0  0  0  0  0
   -4.8327   -9.3900    6.3664 H   0  0  0  0  0  0  0  0  0  0  0  0
  -13.6353   -8.3039    6.5862 O   0  0  0  0  0  0  0  0  0  0  0  0
  -14.4972   -7.5478    5.8158 C   0  0  0  0  0  0  0  0  0  0  0  0
  -14.1585   -6.3070    5.2932 C   0  0  0  0  0  0  0  0  0  0  0  0
  -15.0509   -5.5933    4.5322 C   0  0  0  0  0  0  0  0  0  0  0  0
  -16.3267   -6.0987    4.2635 C   0  0  0  0  0  0  0  0  0  0  0  0
  -16.6839   -7.3149    4.7652 C   0  0  0  0  0  0  0  0  0  0  0  0
  -15.7490   -8.0264    5.5429 C   0  0  0  0  0  0  0  0  0  0  0  0
  -17.9958   -7.8943    4.5203 C   0  0  0  0  0  0  0  0  0  0  0  0
  -18.8569   -7.3137    3.7979 N   0  0  0  0  0  0  0  0  0  0  0  0
  -18.3231   -9.1430    5.1039 N   0  0  0  0  0  0  0  0  0  0  0  0
  -18.6973   -6.4155    3.3441 H   0  0  0  0  0  0  0  0  0  0  0  0
  -19.1527   -9.2022    5.7167 H   0  0  0  0  0  0  0  0  0  0  0  0
  -17.7354   -9.9710    4.9125 H   0  0  0  0  0  0  0  0  0  0  0  0
 17 18  1  0  0  0
 18 19  2  0  0  0
 18 20  1  0  0  0
 20 11  1  0  0  0
 11 12  2  0  0  0
 12 13  1  0  0  0
 13 14  2  0  0  0
 14 15  1  0  0  0
 15 10  1  0  0  0
 10  1  1  0  0  0
  1  2  2  0  0  0
  2  3  1  0  0  0
  3 22  1  0  0  0
 22 23  1  0  0  0
 23 24  2  0  0  0
 24 25  1  0  0  0
 25 26  2  0  0  0
 26 27  1  0  0  0
 27 29  1  0  0  0
 29 30  2  0  0  0
 29 31  1  0  0  0
 27 28  2  0  0  0
  3  4  2  0  0  0
  4  5  1  0  0  0
  4  6  1  0  0  0
  6  7  1  0  0  0
  6  8  2  0  0  0
  8  9  1  0  0  0
 15 16  2  0  0  0
 16 11  1  0  0  0
  8  1  1  0  0  0
 28 23  1  0  0  0
 20 21  1  0  0  0
 30 32  1  0  0  0
 31 33  1  0  0  0
 31 34  1  0  0  0
M  END
> <minimizedAffinity>
-9.87439

> <CNNscore>
0.2694571018

> <CNNaffinity>
6.9591321945

> <CNN_VS>
1.8751876354

> <CNNaffinity_variance>
0.1771055758

$$$$
[H]c1c([H])c(C(N=[N+]=[N-])(C([H])([H])[H])C([H])([H])[H])c(Cl)c([H])c1C(F)(F)F


 17 17  0  0  0  0  0  0  0  0999 V2000
  -13.3577   -8.2572    6.9503 C   0  0  0  0  0  0  0  0  0  0  0  0
  -13.6196   -8.9140    5.7291 C   0  0  0  0  0  0  0  0  0  0  0  0
  -14.5955   -8.3340    4.9684 C   0  0  0  0  0  0  0  0  0  0  0  0
  -15.3309   -7.2426    5.2577 C   0  0  0  0  0  0  0  0  0  0  0  0
  -15.0614   -6.5964    6.4900 C   0  0  0  0  0  0  0  0  0  0  0  0
  -14.0636   -7.1291    7.3163 C   0  0  0  0  0  0  0  0  0  0  0  0
  -13.7466   -6.3352    8.8716 Cl  0  0  0  0  0  0  0  0  0  0  0  0
  -16.3645   -6.6452    4.3721 C   0  0  0  0  0  0  0  0  0  0  0  0
  -16.7763   -7.5209    3.3697 F   0  0  0  0  0  0  0  0  0  0  0  0
  -15.9691   -5.4515    3.8666 F   0  0  0  0  0  0  0  0  0  0  0  0
  -17.5491   -6.4154    5.0862 F   0  0  0  0  0  0  0  0  0  0  0  0
  -11.3074   -7.5021    8.1030 C   0  0  0  0  0  0  0  0  0  0  0  0
  -12.2397   -8.7258    7.8140 C   0  0  0  0  0  0  0  0  0  0  0  0
  -12.6685   -9.2319    9.1459 C   0  0  0  0  0  0  0  0  0  0  0  0
  -11.4288   -9.7121    7.1396 N   0  0  0  0  0  0  0  0  0  0  0  0
  -10.2352   -9.7427    7.3288 N   0  0  0  0  0  0  0  0  0  0  0  0
   -9.1189  -10.3047    7.0829 N   0  0  0  0  0  0  0  0  0  0  0  0
 12 13  1  0  0  0
 13 14  1  0  0  0
 13 15  1  0  0  0
 15 16  2  0  0  0
 16 17  2  0  0  0
 13  1  1  0  0  0
  1  2  2  0  0  0
  2  3  1  0  0  0
  3  4  2  0  0  0
  4  8  1  0  0  0
  8  9  1  0  0  0
  8 10  1  0  0  0
  8 11  1  0  0  0
  4  5  1  0  0  0
  5  6  2  0  0  0
  6  7  1  0  0  0
  6  1  1  0  0  0
M  CHG 1  16   1
M  CHG 1  17  -1
M  END
> <minimizedAffinity>
-7.42777

> <CNNscore>
0.7468178868

> <CNNaffinity>
5.8992853165

> <CNN_VS>
4.4056916237

> <CNNaffinity_variance>
0.2748432457

$$$$
[H]c1c([H])c(C(N=[N+]=[N-])(C([H])([H])[H])C([H])([H])[H])c(Cl)c([H])c1C(F)(F)F


 17 17  0  0  0  0  0  0  0  0999 V2000
  -13.3070   -8.3169    6.8323 C   0  0  0  0  0  0  0  0  0  0  0  0
  -13.6340   -8.9919    5.6370 C   0  0  0  0  0  0  0  0  0  0  0  0
  -14.6604   -8.4323    4.9295 C   0  0  0  0  0  0  0  0  0  0  0  0
  -15.3899   -7.3454    5.2493 C   0  0  0  0  0  0  0  0  0  0  0  0
  -15.0545   -6.6808    6.4554 C   0  0  0  0  0  0  0  0  0  0  0  0
  -14.0028   -7.1921    7.2265 C   0  0  0  0  0  0  0  0  0  0  0  0
  -13.6025   -6.3752    8.7504 Cl  0  0  0  0  0  0  0  0  0  0  0  0
  -16.4816   -6.7706    4.4204 C   0  0  0  0  0  0  0  0  0  0  0  0
  -17.5813   -6.3838    5.1835 F   0  0  0  0  0  0  0  0  0  0  0  0
  -16.8375   -7.5982    3.4079 F   0  0  0  0  0  0  0  0  0  0  0  0
  -16.0712   -5.5633    3.8374 F   0  0  0  0  0  0  0  0  0  0  0  0
  -12.6681   -9.3949    8.9613 C   0  0  0  0  0  0  0  0  0  0  0  0
  -12.1339   -8.7623    7.6328 C   0  0  0  0  0  0  0  0  0  0  0  0
  -11.3164   -9.8206    6.9803 C   0  0  0  0  0  0  0  0  0  0  0  0
  -11.2996   -7.6468    8.0133 N   0  0  0  0  0  0  0  0  0  0  0  0
  -10.1811   -7.5501    7.5651 N   0  0  0  0  0  0  0  0  0  0  0  0
   -9.0983   -6.8820    7.5043 N   0  0  0  0  0  0  0  0  0  0  0  0
 12 13  1  0  0  0
 13 14  1  0  0  0
 13 15  1  0  0  0
 15 16  2  0  0  0
 16 17  2  0  0  0
 13  1  1  0  0  0
  1  2  2  0  0  0
  2  3  1  0  0  0
  3  4  2  0  0  0
  4  8  1  0  0  0
  8  9  1  0  0  0
  8 10  1  0  0  0
  8 11  1  0  0  0
  4  5  1  0  0  0
  5  6  2  0  0  0
  6  7  1  0  0  0
  6  1  1  0  0  0
M  CHG 1  16   1
M  CHG 1  17  -1
M  END
> <minimizedAffinity>
-7.43476

> <CNNscore>
0.6889704466

> <CNNaffinity>
5.8904829025

> <CNN_VS>
4.0583686829

> <CNNaffinity_variance>
0.2726217210

$$$$
[H]c1c([H])c(C(N=[N+]=[N-])(C([H])([H])[H])C([H])([H])[H])c(Cl)c([H])c1C(F)(F)F


 17 17  0  0  0  0  0  0  0  0999 V2000
  -11.4796   -8.5596    7.9907 C   0  0  0  0  0  0  0  0  0  0  0  0
  -10.8151   -9.6081    7.3196 C   0  0  0  0  0  0  0  0  0  0  0  0
   -9.4649   -9.4386    7.1945 C   0  0  0  0  0  0  0  0  0  0  0  0
   -8.7193   -8.3973    7.6133 C   0  0  0  0  0  0  0  0  0  0  0  0
   -9.4005   -7.3487    8.2805 C   0  0  0  0  0  0  0  0  0  0  0  0
  -10.7857   -7.4610    8.4560 C   0  0  0  0  0  0  0  0  0  0  0  0
  -11.6413   -6.1342    9.2668 Cl  0  0  0  0  0  0  0  0  0  0  0  0
   -7.2443   -8.2849    7.4679 C   0  0  0  0  0  0  0  0  0  0  0  0
   -6.6347   -9.5205    7.2605 F   0  0  0  0  0  0  0  0  0  0  0  0
   -6.6835   -7.6144    8.5036 F   0  0  0  0  0  0  0  0  0  0  0  0
   -6.9187   -7.5807    6.2999 F   0  0  0  0  0  0  0  0  0  0  0  0
  -13.3832  -10.1323    7.9169 C   0  0  0  0  0  0  0  0  0  0  0  0
  -12.9326   -8.6803    8.2898 C   0  0  0  0  0  0  0  0  0  0  0  0
  -13.2763   -8.5061    9.7270 C   0  0  0  0  0  0  0  0  0  0  0  0
  -13.7163   -7.7829    7.4740 N   0  0  0  0  0  0  0  0  0  0  0  0
  -14.8236   -8.1074    7.1136 N   0  0  0  0  0  0  0  0  0  0  0  0
  -15.8843   -7.7991    6.4793 N   0  0  0  0  0  0  0  0  0  0  0  0
 12 13  1  0  0  0
 13 14  1  0  0  0
 13 15  1  0  0  0
 15 16  2  0  0  0
 16 17  2  0  0  0
 13  1  1  0  0  0
  1  2  2  0  0  0
  2  3  1  0  0  0
  3  4  2  0  0  0
  4  8  1  0  0  0
  8  9  1  0  0  0
  8 10  1  0  0  0
  8 11  1  0  0  0
  4  5  1  0  0  0
  5  6  2  0  0  0
  6  7  1  0  0  0
  6  1  1  0  0  0
M  CHG 1  16   1
M  CHG 1  17  -1
M  END
> <minimizedAffinity>
-7.28252

> <CNNscore>
0.6227222681

> <CNNaffinity>
5.8102498055

> <CNN_VS>
3.6181719303

> <CNNaffinity_variance>
0.2135318965

$$$$
[H]c1c([H])c(C(N=[N+]=[N-])(C([H])([H])[H])C([H])([H])[H])c(Cl)c([H])c1C(F)(F)F


 17 17  0  0  0  0  0  0  0  0999 V2000
  -10.0986   -7.9572    7.9126 C   0  0  0  0  0  0  0  0  0  0  0  0
   -9.3759   -6.8134    8.3136 C   0  0  0  0  0  0  0  0  0  0  0  0
   -8.0658   -6.8024    7.9251 C   0  0  0  0  0  0  0  0  0  0  0  0
   -7.3993   -7.7490    7.2355 C   0  0  0  0  0  0  0  0  0  0  0  0
   -8.1359   -8.8949    6.8443 C   0  0  0  0  0  0  0  0  0  0  0  0
   -9.4894   -8.9684    7.1977 C   0  0  0  0  0  0  0  0  0  0  0  0
  -10.4032  -10.4166    6.7314 Cl  0  0  0  0  0  0  0  0  0  0  0  0
   -5.9744   -7.6647    6.8207 C   0  0  0  0  0  0  0  0  0  0  0  0
   -5.6530   -6.4253    6.2715 F   0  0  0  0  0  0  0  0  0  0  0  0
   -5.6252   -8.6850    5.9999 F   0  0  0  0  0  0  0  0  0  0  0  0
   -5.1328   -7.7332    7.9401 F   0  0  0  0  0  0  0  0  0  0  0  0
  -11.8661   -7.1877    9.4575 C   0  0  0  0  0  0  0  0  0  0  0  0
  -11.5614   -8.0345    8.1767 C   0  0  0  0  0  0  0  0  0  0  0  0
  -12.4075   -7.4562    7.0980 C   0  0  0  0  0  0  0  0  0  0  0  0
  -11.9748   -9.3870    8.4683 N   0  0  0  0  0  0  0  0  0  0  0  0
  -13.0291   -9.7997    8.0446 N   0  0  0  0  0  0  0  0  0  0  0  0
  -13.8456  -10.7726    7.9487 N   0  0  0  0  0  0  0  0  0  0  0  0
 12 13  1  0  0  0
 13 14  1  0  0  0
 13 15  1  0  0  0
 15 16  2  0  0  0
 16 17  2  0  0  0
 13  1  1  0  0  0
  1  2  2  0  0  0
  2  3  1  0  0  0
  3  4  2  0  0  0
  4  8  1  0  0  0
  8  9  1  0  0  0
  8 10  1  0  0  0
  8 11  1  0  0  0
  4  5  1  0  0  0
  5  6  2  0  0  0
  6  7  1  0  0  0
  6  1  1  0  0  0
M  CHG 1  16   1
M  CHG 1  17  -1
M  END
> <minimizedAffinity>
-6.41537

> <CNNscore>
0.5470560789

> <CNNaffinity>
5.6130266190

> <CNN_VS>
3.0706403255

> <CNNaffinity_variance>
0.1268238723

$$$$
[H]c1c([H])c(C(N=[N+]=[N-])(C([H])([H])[H])C([H])([H])[H])c(Cl)c([H])c1C(F)(F)F


 17 17  0  0  0  0  0  0  0  0999 V2000
  -11.9643   -8.1787    8.1871 C   0  0  0  0  0  0  0  0  0  0  0  0
  -11.6590   -9.3634    7.4838 C   0  0  0  0  0  0  0  0  0  0  0  0
  -10.3234   -9.5935    7.3086 C   0  0  0  0  0  0  0  0  0  0  0  0
   -9.2919   -8.8229    7.7059 C   0  0  0  0  0  0  0  0  0  0  0  0
   -9.6132   -7.6331    8.4060 C   0  0  0  0  0  0  0  0  0  0  0  0
  -10.9638   -7.3391    8.6333 C   0  0  0  0  0  0  0  0  0  0  0  0
  -11.3655   -5.8350    9.4854 Cl  0  0  0  0  0  0  0  0  0  0  0  0
   -7.8544   -9.1436    7.5054 C   0  0  0  0  0  0  0  0  0  0  0  0
   -7.4580   -9.0002    6.1773 F   0  0  0  0  0  0  0  0  0  0  0  0
   -7.5352  -10.3655    7.9969 F   0  0  0  0  0  0  0  0  0  0  0  0
   -7.0462   -8.2107    8.1706 F   0  0  0  0  0  0  0  0  0  0  0  0
  -14.2708   -9.0447    8.0065 C   0  0  0  0  0  0  0  0  0  0  0  0
  -13.3779   -7.8751    8.5404 C   0  0  0  0  0  0  0  0  0  0  0  0
  -13.6389   -7.8016   10.0035 C   0  0  0  0  0  0  0  0  0  0  0  0
  -13.8392   -6.6727    7.8873 N   0  0  0  0  0  0  0  0  0  0  0  0
  -14.2456   -6.7224    6.7499 N   0  0  0  0  0  0  0  0  0  0  0  0
  -14.7413   -6.1015    5.7542 N   0  0  0  0  0  0  0  0  0  0  0  0
 12 13  1  0  0  0
 13 14  1  0  0  0
 13 15  1  0  0  0
 15 16  2  0  0  0
 16 17  2  0  0  0
 13  1  1  0  0  0
  1  2  2  0  0  0
  2  3  1  0  0  0
  3  4  2  0  0  0
  4  8  1  0  0  0
  8  9  1  0  0  0
  8 10  1  0  0  0
  8 11  1  0  0  0
  4  5  1  0  0  0
  5  6  2  0  0  0
  6  7  1  0  0  0
  6  1  1  0  0  0
M  CHG 1  16   1
M  CHG 1  17  -1
M  END
> <minimizedAffinity>
-7.72646

> <CNNscore>
0.5334446430

> <CNNaffinity>
5.6655459404

> <CNN_VS>
3.0222551823

> <CNNaffinity_variance>
0.2377969474

$$$$
[H]c1c([H])c(C(N=[N+]=[N-])(C([H])([H])[H])C([H])([H])[H])c(Cl)c([H])c1C(F)(F)F


 17 17  0  0  0  0  0  0  0  0999 V2000
   -9.4151   -8.0684    7.9688 C   0  0  0  0  0  0  0  0  0  0  0  0
   -9.6153   -6.8554    8.6615 C   0  0  0  0  0  0  0  0  0  0  0  0
  -10.9256   -6.5288    8.8710 C   0  0  0  0  0  0  0  0  0  0  0  0
  -12.0207   -7.2103    8.4814 C   0  0  0  0  0  0  0  0  0  0  0  0
  -11.8050   -8.4239    7.7816 C   0  0  0  0  0  0  0  0  0  0  0  0
  -10.4854   -8.8281    7.5419 C   0  0  0  0  0  0  0  0  0  0  0  0
  -10.2172  -10.3335    6.6411 Cl  0  0  0  0  0  0  0  0  0  0  0  0
  -13.4246   -6.8121    8.7639 C   0  0  0  0  0  0  0  0  0  0  0  0
  -14.1257   -7.7938    9.4610 F   0  0  0  0  0  0  0  0  0  0  0  0
  -14.0779   -6.4291    7.6400 F   0  0  0  0  0  0  0  0  0  0  0  0
  -13.4575   -5.7239    9.6476 F   0  0  0  0  0  0  0  0  0  0  0  0
   -7.0746   -7.7586    8.6959 C   0  0  0  0  0  0  0  0  0  0  0  0
   -8.0338   -8.5893    7.7792 C   0  0  0  0  0  0  0  0  0  0  0  0
   -7.8557  -10.0090    8.1877 C   0  0  0  0  0  0  0  0  0  0  0  0
   -7.5779   -8.3963    6.4228 N   0  0  0  0  0  0  0  0  0  0  0  0
   -7.2073   -7.3040    6.0610 N   0  0  0  0  0  0  0  0  0  0  0  0
   -6.7347   -6.5817    5.1243 N   0  0  0  0  0  0  0  0  0  0  0  0
 12 13  1  0  0  0
 13 14  1  0  0  0
 13 15  1  0  0  0
 15 16  2  0  0  0
 16 17  2  0  0  0
 13  1  1  0  0  0
  1  2  2  0  0  0
  2  3  1  0  0  0
  3  4  2  0  0  0
  4  8  1  0  0  0
  8  9  1  0  0  0
  8 10  1  0  0  0
  8 11  1  0  0  0
  4  5  1  0  0  0
  5  6  2  0  0  0
  6  7  1  0  0  0
  6  1  1  0  0  0
M  CHG 1  16   1
M  CHG 1  17  -1
M  END
> <minimizedAffinity>
-7.71154

> <CNNscore>
0.5309302807

> <CNNaffinity>
5.5121736526

> <CNN_VS>
2.9265799522

> <CNNaffinity_variance>
0.3860528171

$$$$
[H]c1c([H])c(C(N=[N+]=[N-])(C([H])([H])[H])C([H])([H])[H])c(Cl)c([H])c1C(F)(F)F


 17 17  0  0  0  0  0  0  0  0999 V2000
  -11.8093   -7.7017    8.1938 C   0  0  0  0  0  0  0  0  0  0  0  0
  -10.7577   -6.9025    8.6904 C   0  0  0  0  0  0  0  0  0  0  0  0
   -9.5055   -7.3891    8.4400 C   0  0  0  0  0  0  0  0  0  0  0  0
   -9.1729   -8.5297    7.8044 C   0  0  0  0  0  0  0  0  0  0  0  0
  -10.2392   -9.3256    7.3161 C   0  0  0  0  0  0  0  0  0  0  0  0
  -11.5511   -8.8814    7.5258 C   0  0  0  0  0  0  0  0  0  0  0  0
  -12.8858   -9.8930    6.9383 Cl  0  0  0  0  0  0  0  0  0  0  0  0
   -7.7849   -8.9918    7.5414 C   0  0  0  0  0  0  0  0  0  0  0  0
   -6.8313   -8.2000    8.1778 F   0  0  0  0  0  0  0  0  0  0  0  0
   -7.5347   -9.1129    6.2149 F   0  0  0  0  0  0  0  0  0  0  0  0
   -7.5706  -10.2531    8.1153 F   0  0  0  0  0  0  0  0  0  0  0  0
  -14.0729   -8.3792    8.9149 C   0  0  0  0  0  0  0  0  0  0  0  0
  -13.2141   -7.2221    8.3033 C   0  0  0  0  0  0  0  0  0  0  0  0
  -13.3927   -6.0597    9.2148 C   0  0  0  0  0  0  0  0  0  0  0  0
  -13.7763   -6.9329    7.0050 N   0  0  0  0  0  0  0  0  0  0  0  0
  -14.9622   -7.0730    6.8169 N   0  0  0  0  0  0  0  0  0  0  0  0
  -15.9439   -6.9811    6.0104 N   0  0  0  0  0  0  0  0  0  0  0  0
 12 13  1  0  0  0
 13 14  1  0  0  0
 13 15  1  0  0  0
 15 16  2  0  0  0
 16 17  2  0  0  0
 13  1  1  0  0  0
  1  2  2  0  0  0
  2  3  1  0  0  0
  3  4  2  0  0  0
  4  8  1  0  0  0
  8  9  1  0  0  0
  8 10  1  0  0  0
  8 11  1  0  0  0
  4  5  1  0  0  0
  5  6  2  0  0  0
  6  7  1  0  0  0
  6  1  1  0  0  0
M  CHG 1  16   1
M  CHG 1  17  -1
M  END
> <minimizedAffinity>
-7.63073

> <CNNscore>
0.4904476106

> <CNNaffinity>
5.7028694153

> <CNN_VS>
2.7969586849

> <CNNaffinity_variance>
0.2483863086

$$$$
[H]c1c([H])c(C(N=[N+]=[N-])(C([H])([H])[H])C([H])([H])[H])c(Cl)c([H])c1C(F)(F)F


 17 17  0  0  0  0  0  0  0  0999 V2000
  -13.2515   -7.7130    7.5022 C   0  0  0  0  0  0  0  0  0  0  0  0
  -14.1300   -6.6786    7.1157 C   0  0  0  0  0  0  0  0  0  0  0  0
  -14.7930   -6.9034    5.9420 C   0  0  0  0  0  0  0  0  0  0  0  0
  -14.6881   -7.9684    5.1233 C   0  0  0  0  0  0  0  0  0  0  0  0
  -13.7977   -8.9971    5.5209 C   0  0  0  0  0  0  0  0  0  0  0  0
  -13.0929   -8.8398    6.7212 C   0  0  0  0  0  0  0  0  0  0  0  0
  -11.9576  -10.1158    7.2034 Cl  0  0  0  0  0  0  0  0  0  0  0  0
  -15.4594   -8.1647    3.8679 C   0  0  0  0  0  0  0  0  0  0  0  0
  -14.6804   -8.6981    2.8432 F   0  0  0  0  0  0  0  0  0  0  0  0
  -16.0928   -7.0309    3.4807 F   0  0  0  0  0  0  0  0  0  0  0  0
  -16.4463   -9.1446    4.0466 F   0  0  0  0  0  0  0  0  0  0  0  0
  -12.7707   -6.1980    9.3933 C   0  0  0  0  0  0  0  0  0  0  0  0
  -12.5578   -7.6377    8.8169 C   0  0  0  0  0  0  0  0  0  0  0  0
  -13.0960   -8.5692    9.8449 C   0  0  0  0  0  0  0  0  0  0  0  0
  -11.1324   -7.8180    8.6733 N   0  0  0  0  0  0  0  0  0  0  0  0
  -10.4617   -6.9453    8.1733 N   0  0  0  0  0  0  0  0  0  0  0  0
   -9.3053   -6.5403    7.8252 N   0  0  0  0  0  0  0  0  0  0  0  0
 12 13  1  0  0  0
 13 14  1  0  0  0
 13 15  1  0  0  0
 15 16  2  0  0  0
 16 17  2  0  0  0
 13  1  1  0  0  0
  1  2  2  0  0  0
  2  3  1  0  0  0
  3  4  2  0  0  0
  4  8  1  0  0  0
  8  9  1  0  0  0
  8 10  1  0  0  0
  8 11  1  0  0  0
  4  5  1  0  0  0
  5  6  2  0  0  0
  6  7  1  0  0  0
  6  1  1  0  0  0
M  CHG 1  16   1
M  CHG 1  17  -1
M  END
> <minimizedAffinity>
-7.46172

> <CNNscore>
0.4726646245

> <CNNaffinity>
5.7485079765

> <CNN_VS>
2.7171163559

> <CNNaffinity_variance>
0.4696571231

$$$$
[H]c1c([H])c(C(N=[N+]=[N-])(C([H])([H])[H])C([H])([H])[H])c(Cl)c([H])c1C(F)(F)F


 17 17  0  0  0  0  0  0  0  0999 V2000
   -8.3799   -7.5180    7.2594 C   0  0  0  0  0  0  0  0  0  0  0  0
   -8.8353   -6.2186    7.5685 C   0  0  0  0  0  0  0  0  0  0  0  0
  -10.0203   -6.1771    8.2478 C   0  0  0  0  0  0  0  0  0  0  0  0
  -10.7928   -7.2137    8.6282 C   0  0  0  0  0  0  0  0  0  0  0  0
  -10.3262   -8.5127    8.3060 C   0  0  0  0  0  0  0  0  0  0  0  0
   -9.1105   -8.6318    7.6204 C   0  0  0  0  0  0  0  0  0  0  0  0
   -8.5415  -10.2577    7.1931 Cl  0  0  0  0  0  0  0  0  0  0  0  0
  -12.0641   -7.1019    9.3901 C   0  0  0  0  0  0  0  0  0  0  0  0
  -13.0952   -6.5578    8.6271 F   0  0  0  0  0  0  0  0  0  0  0  0
  -11.8969   -6.4358   10.5584 F   0  0  0  0  0  0  0  0  0  0  0  0
  -12.5571   -8.3746    9.7112 F   0  0  0  0  0  0  0  0  0  0  0  0
   -6.0279   -8.1005    7.7406 C   0  0  0  0  0  0  0  0  0  0  0  0
   -7.0471   -7.6994    6.6222 C   0  0  0  0  0  0  0  0  0  0  0  0
   -6.9958   -8.7942    5.6158 C   0  0  0  0  0  0  0  0  0  0  0  0
   -6.5641   -6.4660    6.0471 N   0  0  0  0  0  0  0  0  0  0  0  0
   -5.3750   -6.2684    5.9559 N   0  0  0  0  0  0  0  0  0  0  0  0
   -4.4369   -5.4940    5.5780 N   0  0  0  0  0  0  0  0  0  0  0  0
 12 13  1  0  0  0
 13 14  1  0  0  0
 13 15  1  0  0  0
 15 16  2  0  0  0
 16 17  2  0  0  0
 13  1  1  0  0  0
  1  2  2  0  0  0
  2  3  1  0  0  0
  3  4  2  0  0  0
  4  8  1  0  0  0
  8  9  1  0  0  0
  8 10  1  0  0  0
  8 11  1  0  0  0
  4  5  1  0  0  0
  5  6  2  0  0  0
  6  7  1  0  0  0
  6  1  1  0  0  0
M  CHG 1  16   1
M  CHG 1  17  -1
M  END
> <minimizedAffinity>
-6.15358

> <CNNscore>
0.4595561922

> <CNNaffinity>
5.1792311668

> <CNN_VS>
2.3801476955

> <CNNaffinity_variance>
0.2458077669

$$$$
[H]c1c([H])c(C([H])([H])OC([H])([H])C2([H])C([H])([H])C([H])([H])N(C([H])([H])C([H])([H])C([H])([H])C([H])([H])C([H])([H])[H])C([H])([H])C2([H])[H])c([H])c([H])c1F


 21 22  0  0  0  0  0  0  0  0999 V2000
  -15.8708   -8.1092    5.2042 N   0  0  0  0  0  0  0  0  0  0  0  0
  -16.0576   -7.8472    6.5771 C   0  0  0  0  0  0  0  0  0  0  0  0
  -14.8540   -7.8321    7.4386 C   0  0  0  0  0  0  0  0  0  0  0  0
  -14.1118   -9.1436    7.2117 C   0  0  0  0  0  0  0  0  0  0  0  0
  -13.6733   -9.0941    5.7645 C   0  0  0  0  0  0  0  0  0  0  0  0
  -14.7695   -8.8764    4.7956 C   0  0  0  0  0  0  0  0  0  0  0  0
  -17.1309   -8.5181    4.6393 C   0  0  0  0  0  0  0  0  0  0  0  0
  -17.9944   -7.4007    4.1735 C   0  0  0  0  0  0  0  0  0  0  0  0
  -17.2134   -6.3671    3.4024 C   0  0  0  0  0  0  0  0  0  0  0  0
  -15.6786   -4.6945    4.3286 C   0  0  0  0  0  0  0  0  0  0  0  0
  -17.1314   -5.0555    4.1400 C   0  0  0  0  0  0  0  0  0  0  0  0
  -12.8758   -9.2272    8.0757 C   0  0  0  0  0  0  0  0  0  0  0  0
  -11.7571   -8.8338    7.3389 O   0  0  0  0  0  0  0  0  0  0  0  0
  -11.0836   -7.8218    8.0176 C   0  0  0  0  0  0  0  0  0  0  0  0
   -9.6404   -7.8801    7.6316 C   0  0  0  0  0  0  0  0  0  0  0  0
   -8.9302   -6.7287    7.3432 C   0  0  0  0  0  0  0  0  0  0  0  0
   -7.5980   -6.7555    6.9845 C   0  0  0  0  0  0  0  0  0  0  0  0
   -6.9190   -7.9537    6.9005 C   0  0  0  0  0  0  0  0  0  0  0  0
   -5.6010   -8.0076    6.5479 F   0  0  0  0  0  0  0  0  0  0  0  0
   -7.6213   -9.1053    7.1867 C   0  0  0  0  0  0  0  0  0  0  0  0
   -8.9651   -9.0799    7.5486 C   0  0  0  0  0  0  0  0  0  0  0  0
 10 11  1  0  0  0
 11  9  1  0  0  0
  9  8  1  0  0  0
  8  7  1  0  0  0
  7  1  1  0  0  0
  1  2  1  0  0  0
  2  3  1  0  0  0
  3  4  1  0  0  0
  4 12  1  0  0  0
 12 13  1  0  0  0
 13 14  1  0  0  0
 14 15  1  0  0  0
 15 16  2  0  0  0
 16 17  1  0  0  0
 17 18  2  0  0  0
 18 19  1  0  0  0
 18 20  1  0  0  0
 20 21  2  0  0  0
  4  5  1  0  0  0
  5  6  1  0  0  0
  6  1  1  0  0  0
 21 15  1  0  0  0
M  END
> <minimizedAffinity>
-7.78028

> <CNNscore>
0.8354707956

> <CNNaffinity>
6.6880087852

> <CNN_VS>
5.5876359940

> <CNNaffinity_variance>
0.0361960754

$$$$
[H]c1c([H])c(C([H])([H])OC([H])([H])C2([H])C([H])([H])C([H])([H])N(C([H])([H])C([H])([H])C([H])([H])C([H])([H])C([H])([H])[H])C([H])([H])C2([H])[H])c([H])c([H])c1F


 21 22  0  0  0  0  0  0  0  0999 V2000
  -15.8566   -8.0804    6.6762 N   0  0  0  0  0  0  0  0  0  0  0  0
  -14.7543   -7.4478    6.0654 C   0  0  0  0  0  0  0  0  0  0  0  0
  -13.4587   -7.4951    6.7798 C   0  0  0  0  0  0  0  0  0  0  0  0
  -13.6953   -6.9739    8.1923 C   0  0  0  0  0  0  0  0  0  0  0  0
  -14.6340   -7.9791    8.8229 C   0  0  0  0  0  0  0  0  0  0  0  0
  -15.8891   -8.2046    8.0733 C   0  0  0  0  0  0  0  0  0  0  0  0
  -17.0659   -7.5617    6.0907 C   0  0  0  0  0  0  0  0  0  0  0  0
  -17.2202   -7.8377    4.6377 C   0  0  0  0  0  0  0  0  0  0  0  0
  -18.2334   -6.9255    3.9941 C   0  0  0  0  0  0  0  0  0  0  0  0
  -16.8294   -4.9293    3.7589 C   0  0  0  0  0  0  0  0  0  0  0  0
  -18.0589   -5.4928    4.4279 C   0  0  0  0  0  0  0  0  0  0  0  0
  -12.4132   -6.9616    8.9907 C   0  0  0  0  0  0  0  0  0  0  0  0
  -11.3504   -6.5760    8.1715 O   0  0  0  0  0  0  0  0  0  0  0  0
  -10.1589   -6.6481    8.8882 C   0  0  0  0  0  0  0  0  0  0  0  0
   -9.1116   -7.2340    7.9964 C   0  0  0  0  0  0  0  0  0  0  0  0
   -8.4180   -6.4468    7.0951 C   0  0  0  0  0  0  0  0  0  0  0  0
   -7.4472   -6.9630    6.2613 C   0  0  0  0  0  0  0  0  0  0  0  0
   -7.1314   -8.3056    6.3006 C   0  0  0  0  0  0  0  0  0  0  0  0
   -6.1751   -8.8413    5.4864 F   0  0  0  0  0  0  0  0  0  0  0  0
   -7.8194   -9.0958    7.1970 C   0  0  0  0  0  0  0  0  0  0  0  0
   -8.7989   -8.5767    8.0387 C   0  0  0  0  0  0  0  0  0  0  0  0
 10 11  1  0  0  0
 11  9  1  0  0  0
  9  8  1  0  0  0
  8  7  1  0  0  0
  7  1  1  0  0  0
  1  2  1  0  0  0
  2  3  1  0  0  0
  3  4  1  0  0  0
  4 12  1  0  0  0
 12 13  1  0  0  0
 13 14  1  0  0  0
 14 15  1  0  0  0
 15 16  2  0  0  0
 16 17  1  0  0  0
 17 18  2  0  0  0
 18 19  1  0  0  0
 18 20  1  0  0  0
 20 21  2  0  0  0
  4  5  1  0  0  0
  5  6  1  0  0  0
  6  1  1  0  0  0
 21 15  1  0  0  0
M  END
> <minimizedAffinity>
-7.71164

> <CNNscore>
0.7981573939

> <CNNaffinity>
6.5763444901

> <CNN_VS>
5.2489581108

> <CNNaffinity_variance>
0.0473169424

$$$$
[H]c1c([H])c(C([H])([H])OC([H])([H])C2([H])C([H])([H])C([H])([H])N(C([H])([H])C([H])([H])C([H])([H])C([H])([H])C([H])([H])[H])C([H])([H])C2([H])[H])c([H])c([H])c1F


 21 22  0  0  0  0  0  0  0  0999 V2000
  -14.9857   -8.4179    6.1283 N   0  0  0  0  0  0  0  0  0  0  0  0
  -13.7977   -9.1219    5.8433 C   0  0  0  0  0  0  0  0  0  0  0  0
  -12.7980   -9.2407    6.9285 C   0  0  0  0  0  0  0  0  0  0  0  0
  -12.5099   -7.8349    7.4417 C   0  0  0  0  0  0  0  0  0  0  0  0
  -13.8191   -7.3651    8.0372 C   0  0  0  0  0  0  0  0  0  0  0  0
  -14.9710   -7.4164    7.1107 C   0  0  0  0  0  0  0  0  0  0  0  0
  -15.5995   -8.0307    4.8844 C   0  0  0  0  0  0  0  0  0  0  0  0
  -17.0677   -8.2567    4.8195 C   0  0  0  0  0  0  0  0  0  0  0  0
  -17.7640   -7.2103    3.9870 C   0  0  0  0  0  0  0  0  0  0  0  0
  -16.9377   -4.9127    3.7647 C   0  0  0  0  0  0  0  0  0  0  0  0
  -17.7281   -5.8530    4.6410 C   0  0  0  0  0  0  0  0  0  0  0  0
  -11.4740   -7.8572    8.5405 C   0  0  0  0  0  0  0  0  0  0  0  0
  -10.2734   -7.3231    8.0686 O   0  0  0  0  0  0  0  0  0  0  0  0
   -9.3973   -8.3564    7.7474 C   0  0  0  0  0  0  0  0  0  0  0  0
   -8.0479   -7.7639    7.4956 C   0  0  0  0  0  0  0  0  0  0  0  0
   -7.7117   -7.2526    6.2552 C   0  0  0  0  0  0  0  0  0  0  0  0
   -6.4736   -6.7006    5.9971 C   0  0  0  0  0  0  0  0  0  0  0  0
   -5.5135   -6.6400    6.9862 C   0  0  0  0  0  0  0  0  0  0  0  0
   -4.2809   -6.0991    6.7568 F   0  0  0  0  0  0  0  0  0  0  0  0
   -5.8424   -7.1482    8.2251 C   0  0  0  0  0  0  0  0  0  0  0  0
   -7.0908   -7.7053    8.4870 C   0  0  0  0  0  0  0  0  0  0  0  0
 10 11  1  0  0  0
 11  9  1  0  0  0
  9  8  1  0  0  0
  8  7  1  0  0  0
  7  1  1  0  0  0
  1  2  1  0  0  0
  2  3  1  0  0  0
  3  4  1  0  0  0
  4 12  1  0  0  0
 12 13  1  0  0  0
 13 14  1  0  0  0
 14 15  1  0  0  0
 15 16  2  0  0  0
 16 17  1  0  0  0
 17 18  2  0  0  0
 18 19  1  0  0  0
 18 20  1  0  0  0
 20 21  2  0  0  0
  4  5  1  0  0  0
  5  6  1  0  0  0
  6  1  1  0  0  0
 21 15  1  0  0  0
M  END
> <minimizedAffinity>
-6.96477

> <CNNscore>
0.7864710093

> <CNNaffinity>
6.6028375626

> <CNN_VS>
5.1929402351

> <CNNaffinity_variance>
0.1853352487

$$$$
[H]c1c([H])c(C([H])([H])OC([H])([H])C2([H])C([H])([H])C([H])([H])N(C([H])([H])C([H])([H])C([H])([H])C([H])([H])C([H])([H])[H])C([H])([H])C2([H])[H])c([H])c([H])c1F


 21 22  0  0  0  0  0  0  0  0999 V2000
  -14.6745   -8.0228    5.0605 N   0  0  0  0  0  0  0  0  0  0  0  0
  -15.0290   -6.9756    5.9358 C   0  0  0  0  0  0  0  0  0  0  0  0
  -14.1110   -6.6862    7.0603 C   0  0  0  0  0  0  0  0  0  0  0  0
  -13.8792   -7.9926    7.8102 C   0  0  0  0  0  0  0  0  0  0  0  0
  -13.1658   -8.8858    6.8189 C   0  0  0  0  0  0  0  0  0  0  0  0
  -13.8781   -9.0752    5.5365 C   0  0  0  0  0  0  0  0  0  0  0  0
  -15.8510   -8.4375    4.3407 C   0  0  0  0  0  0  0  0  0  0  0  0
  -17.1180   -8.3401    5.1130 C   0  0  0  0  0  0  0  0  0  0  0  0
  -18.2532   -7.8144    4.2717 C   0  0  0  0  0  0  0  0  0  0  0  0
  -18.0731   -5.3708    4.3584 C   0  0  0  0  0  0  0  0  0  0  0  0
  -17.8568   -6.5872    3.4920 C   0  0  0  0  0  0  0  0  0  0  0  0
  -12.9689   -7.7855    8.9975 C   0  0  0  0  0  0  0  0  0  0  0  0
  -11.6749   -8.2016    8.6787 O   0  0  0  0  0  0  0  0  0  0  0  0
  -10.8167   -7.1052    8.6872 C   0  0  0  0  0  0  0  0  0  0  0  0
   -9.5892   -7.4663    7.9138 C   0  0  0  0  0  0  0  0  0  0  0  0
   -9.1905   -8.7839    7.7794 C   0  0  0  0  0  0  0  0  0  0  0  0
   -8.0621   -9.1433    7.0712 C   0  0  0  0  0  0  0  0  0  0  0  0
   -7.2808   -8.1823    6.4632 C   0  0  0  0  0  0  0  0  0  0  0  0
   -6.1596   -8.5114    5.7569 F   0  0  0  0  0  0  0  0  0  0  0  0
   -7.6728   -6.8667    6.5935 C   0  0  0  0  0  0  0  0  0  0  0  0
   -8.8107   -6.5026    7.3076 C   0  0  0  0  0  0  0  0  0  0  0  0
 10 11  1  0  0  0
 11  9  1  0  0  0
  9  8  1  0  0  0
  8  7  1  0  0  0
  7  1  1  0  0  0
  1  2  1  0  0  0
  2  3  1  0  0  0
  3  4  1  0  0  0
  4 12  1  0  0  0
 12 13  1  0  0  0
 13 14  1  0  0  0
 14 15  1  0  0  0
 15 16  2  0  0  0
 16 17  1  0  0  0
 17 18  2  0  0  0
 18 19  1  0  0  0
 18 20  1  0  0  0
 20 21  2  0  0  0
  4  5  1  0  0  0
  5  6  1  0  0  0
  6  1  1  0  0  0
 21 15  1  0  0  0
M  END
> <minimizedAffinity>
-7.68835

> <CNNscore>
0.7515966892

> <CNNaffinity>
6.6199927330

> <CNN_VS>
4.9755644798

> <CNNaffinity_variance>
0.0310857352

$$$$
[H]c1c([H])c(C([H])([H])OC([H])([H])C2([H])C([H])([H])C([H])([H])N(C([H])([H])C([H])([H])C([H])([H])C([H])([H])C([H])([H])[H])C([H])([H])C2([H])[H])c([H])c([H])c1F


 21 22  0  0  0  0  0  0  0  0999 V2000
  -16.5519   -8.3507    4.9185 N   0  0  0  0  0  0  0  0  0  0  0  0
  -15.1563   -8.2474    4.7452 C   0  0  0  0  0  0  0  0  0  0  0  0
  -14.3128   -8.2925    5.9608 C   0  0  0  0  0  0  0  0  0  0  0  0
  -14.8402   -7.2355    6.9237 C   0  0  0  0  0  0  0  0  0  0  0  0
  -16.2342   -7.7013    7.2829 C   0  0  0  0  0  0  0  0  0  0  0  0
  -17.1271   -7.9237    6.1248 C   0  0  0  0  0  0  0  0  0  0  0  0
  -17.1998   -7.8506    3.7335 C   0  0  0  0  0  0  0  0  0  0  0  0
  -17.9309   -6.5692    3.9194 C   0  0  0  0  0  0  0  0  0  0  0  0
  -17.1047   -5.3811    3.4966 C   0  0  0  0  0  0  0  0  0  0  0  0
  -14.9783   -4.5107    4.3522 C   0  0  0  0  0  0  0  0  0  0  0  0
  -16.4397   -4.7096    4.6706 C   0  0  0  0  0  0  0  0  0  0  0  0
  -14.0174   -7.1921    8.1895 C   0  0  0  0  0  0  0  0  0  0  0  0
  -12.6716   -6.9996    7.8717 O   0  0  0  0  0  0  0  0  0  0  0  0
  -11.8731   -7.5381    8.8771 C   0  0  0  0  0  0  0  0  0  0  0  0
  -10.5837   -7.9807    8.2633 C   0  0  0  0  0  0  0  0  0  0  0  0
   -9.4784   -7.1494    8.2440 C   0  0  0  0  0  0  0  0  0  0  0  0
   -8.2773   -7.5340    7.6838 C   0  0  0  0  0  0  0  0  0  0  0  0
   -8.1378   -8.7830    7.1145 C   0  0  0  0  0  0  0  0  0  0  0  0
   -6.9605   -9.1878    6.5537 F   0  0  0  0  0  0  0  0  0  0  0  0
   -9.2360   -9.6166    7.1304 C   0  0  0  0  0  0  0  0  0  0  0  0
  -10.4482   -9.2302    7.6950 C   0  0  0  0  0  0  0  0  0  0  0  0
 10 11  1  0  0  0
 11  9  1  0  0  0
  9  8  1  0  0  0
  8  7  1  0  0  0
  7  1  1  0  0  0
  1  2  1  0  0  0
  2  3  1  0  0  0
  3  4  1  0  0  0
  4 12  1  0  0  0
 12 13  1  0  0  0
 13 14  1  0  0  0
 14 15  1  0  0  0
 15 16  2  0  0  0
 16 17  1  0  0  0
 17 18  2  0  0  0
 18 19  1  0  0  0
 18 20  1  0  0  0
 20 21  2  0  0  0
  4  5  1  0  0  0
  5  6  1  0  0  0
  6  1  1  0  0  0
 21 15  1  0  0  0
M  END
> <minimizedAffinity>
-7.83825

> <CNNscore>
0.7137958407

> <CNNaffinity>
6.5589842796

> <CNN_VS>
4.6817755699

> <CNNaffinity_variance>
0.0140053378

$$$$
[H]c1c([H])c(C([H])([H])OC([H])([H])C2([H])C([H])([H])C([H])([H])N(C([H])([H])C([H])([H])C([H])([H])C([H])([H])C([H])([H])[H])C([H])([H])C2([H])[H])c([H])c([H])c1F


 21 22  0  0  0  0  0  0  0  0999 V2000
  -17.3326   -7.9843    4.5506 N   0  0  0  0  0  0  0  0  0  0  0  0
  -16.2732   -8.3506    3.6951 C   0  0  0  0  0  0  0  0  0  0  0  0
  -15.1302   -9.0743    4.2960 C   0  0  0  0  0  0  0  0  0  0  0  0
  -14.6383   -8.2509    5.4803 C   0  0  0  0  0  0  0  0  0  0  0  0
  -15.7893   -8.2607    6.4624 C   0  0  0  0  0  0  0  0  0  0  0  0
  -17.0724   -7.7715    5.9128 C   0  0  0  0  0  0  0  0  0  0  0  0
  -18.0966   -6.9421    3.9147 C   0  0  0  0  0  0  0  0  0  0  0  0
  -17.9411   -5.5962    4.5274 C   0  0  0  0  0  0  0  0  0  0  0  0
  -16.8279   -4.8084    3.8848 C   0  0  0  0  0  0  0  0  0  0  0  0
  -14.5679   -3.8803    4.0902 C   0  0  0  0  0  0  0  0  0  0  0  0
  -15.5882   -4.7812    4.7414 C   0  0  0  0  0  0  0  0  0  0  0  0
  -13.4487   -8.9047    6.1424 C   0  0  0  0  0  0  0  0  0  0  0  0
  -13.8391   -9.4800    7.3531 O   0  0  0  0  0  0  0  0  0  0  0  0
  -12.7485   -9.5350    8.2168 C   0  0  0  0  0  0  0  0  0  0  0  0
  -12.5885   -8.1920    8.8540 C   0  0  0  0  0  0  0  0  0  0  0  0
  -13.6527   -7.5641    9.4756 C   0  0  0  0  0  0  0  0  0  0  0  0
  -13.5312   -6.3252   10.0709 C   0  0  0  0  0  0  0  0  0  0  0  0
  -12.3221   -5.6606   10.0650 C   0  0  0  0  0  0  0  0  0  0  0  0
  -12.1754   -4.4340   10.6467 F   0  0  0  0  0  0  0  0  0  0  0  0
  -11.2572   -6.2811    9.4468 C   0  0  0  0  0  0  0  0  0  0  0  0
  -11.3781   -7.5308    8.8460 C   0  0  0  0  0  0  0  0  0  0  0  0
 10 11  1  0  0  0
 11  9  1  0  0  0
  9  8  1  0  0  0
  8  7  1  0  0  0
  7  1  1  0  0  0
  1  2  1  0  0  0
  2  3  1  0  0  0
  3  4  1  0  0  0
  4 12  1  0  0  0
 12 13  1  0  0  0
 13 14  1  0  0  0
 14 15  1  0  0  0
 15 16  2  0  0  0
 16 17  1  0  0  0
 17 18  2  0  0  0
 18 19  1  0  0  0
 18 20  1  0  0  0
 20 21  2  0  0  0
  4  5  1  0  0  0
  5  6  1  0  0  0
  6  1  1  0  0  0
 21 15  1  0  0  0
M  END
> <minimizedAffinity>
-8.15617

> <CNNscore>
0.6407117844

> <CNNaffinity>
6.5217924118

> <CNN_VS>
4.1785893440

> <CNNaffinity_variance>
0.0863752291

$$$$
[H]c1c([H])c(C([H])([H])OC([H])([H])C2([H])C([H])([H])C([H])([H])N(C([H])([H])C([H])([H])C([H])([H])C([H])([H])C([H])([H])[H])C([H])([H])C2([H])[H])c([H])c([H])c1F


 21 22  0  0  0  0  0  0  0  0999 V2000
  -16.2623   -7.9020    4.8401 N   0  0  0  0  0  0  0  0  0  0  0  0
  -15.9308   -7.8462    6.2096 C   0  0  0  0  0  0  0  0  0  0  0  0
  -14.5085   -8.0322    6.5752 C   0  0  0  0  0  0  0  0  0  0  0  0
  -14.0370   -9.3320    5.9344 C   0  0  0  0  0  0  0  0  0  0  0  0
  -14.1265   -9.0831    4.4446 C   0  0  0  0  0  0  0  0  0  0  0  0
  -15.4611   -8.6568    3.9703 C   0  0  0  0  0  0  0  0  0  0  0  0
  -17.6764   -8.1473    4.7198 C   0  0  0  0  0  0  0  0  0  0  0  0
  -18.4053   -7.1723    3.8660 C   0  0  0  0  0  0  0  0  0  0  0  0
  -18.2111   -5.7534    4.3369 C   0  0  0  0  0  0  0  0  0  0  0  0
  -16.0119   -4.6696    4.3553 C   0  0  0  0  0  0  0  0  0  0  0  0
  -17.2037   -5.0124    3.4958 C   0  0  0  0  0  0  0  0  0  0  0  0
  -12.5943   -9.6175    6.2783 C   0  0  0  0  0  0  0  0  0  0  0  0
  -12.4754   -9.8663    7.6469 O   0  0  0  0  0  0  0  0  0  0  0  0
  -11.3648   -9.1932    8.1488 C   0  0  0  0  0  0  0  0  0  0  0  0
  -11.8461   -8.0016    8.9128 C   0  0  0  0  0  0  0  0  0  0  0  0
  -13.0727   -8.0097    9.5521 C   0  0  0  0  0  0  0  0  0  0  0  0
  -13.5397   -6.9234   10.2633 C   0  0  0  0  0  0  0  0  0  0  0  0
  -12.7844   -5.7730   10.3615 C   0  0  0  0  0  0  0  0  0  0  0  0
  -13.2234   -4.6844   11.0590 F   0  0  0  0  0  0  0  0  0  0  0  0
  -11.5605   -5.7584    9.7264 C   0  0  0  0  0  0  0  0  0  0  0  0
  -11.0880   -6.8533    9.0086 C   0  0  0  0  0  0  0  0  0  0  0  0
 10 11  1  0  0  0
 11  9  1  0  0  0
  9  8  1  0  0  0
  8  7  1  0  0  0
  7  1  1  0  0  0
  1  2  1  0  0  0
  2  3  1  0  0  0
  3  4  1  0  0  0
  4 12  1  0  0  0
 12 13  1  0  0  0
 13 14  1  0  0  0
 14 15  1  0  0  0
 15 16  2  0  0  0
 16 17  1  0  0  0
 17 18  2  0  0  0
 18 19  1  0  0  0
 18 20  1  0  0  0
 20 21  2  0  0  0
  4  5  1  0  0  0
  5  6  1  0  0  0
  6  1  1  0  0  0
 21 15  1  0  0  0
M  END
> <minimizedAffinity>
-7.92679

> <CNNscore>
0.6406878233

> <CNNaffinity>
6.5093584061

> <CNN_VS>
4.1704668999

> <CNNaffinity_variance>
0.0876184776

$$$$
[H]c1c([H])c(C([H])([H])OC([H])([H])C2([H])C([H])([H])C([H])([H])N(C([H])([H])C([H])([H])C([H])([H])C([H])([H])C([H])([H])[H])C([H])([H])C2([H])[H])c([H])c([H])c1F


 21 22  0  0  0  0  0  0  0  0999 V2000
   -8.9944   -8.7286    7.3273 N   0  0  0  0  0  0  0  0  0  0  0  0
   -9.8609   -9.8344    7.2059 C   0  0  0  0  0  0  0  0  0  0  0  0
  -11.3133   -9.5581    7.1330 C   0  0  0  0  0  0  0  0  0  0  0  0
  -11.6748   -8.6885    8.3312 C   0  0  0  0  0  0  0  0  0  0  0  0
  -10.9230   -7.3942    8.1102 C   0  0  0  0  0  0  0  0  0  0  0  0
   -9.4632   -7.5524    7.9316 C   0  0  0  0  0  0  0  0  0  0  0  0
   -7.7240   -9.1932    7.8218 C   0  0  0  0  0  0  0  0  0  0  0  0
   -6.5600   -8.8494    6.9628 C   0  0  0  0  0  0  0  0  0  0  0  0
   -5.7970   -7.6626    7.4941 C   0  0  0  0  0  0  0  0  0  0  0  0
   -6.7342   -6.7952    5.4012 C   0  0  0  0  0  0  0  0  0  0  0  0
   -5.7131   -6.5473    6.4841 C   0  0  0  0  0  0  0  0  0  0  0  0
  -13.1525   -8.3769    8.3527 C   0  0  0  0  0  0  0  0  0  0  0  0
  -13.5646   -7.9548    7.0873 O   0  0  0  0  0  0  0  0  0  0  0  0
  -14.4006   -6.8485    7.2136 C   0  0  0  0  0  0  0  0  0  0  0  0
  -15.4482   -6.9303    6.1502 C   0  0  0  0  0  0  0  0  0  0  0  0
  -15.4748   -6.0285    5.1018 C   0  0  0  0  0  0  0  0  0  0  0  0
  -16.4307   -6.0823    4.1081 C   0  0  0  0  0  0  0  0  0  0  0  0
  -17.4087   -7.0553    4.1286 C   0  0  0  0  0  0  0  0  0  0  0  0
  -18.3659   -7.1305    3.1578 F   0  0  0  0  0  0  0  0  0  0  0  0
  -17.3879   -7.9575    5.1713 C   0  0  0  0  0  0  0  0  0  0  0  0
  -16.4243   -7.9045    6.1744 C   0  0  0  0  0  0  0  0  0  0  0  0
 10 11  1  0  0  0
 11  9  1  0  0  0
  9  8  1  0  0  0
  8  7  1  0  0  0
  7  1  1  0  0  0
  1  2  1  0  0  0
  2  3  1  0  0  0
  3  4  1  0  0  0
  4 12  1  0  0  0
 12 13  1  0  0  0
 13 14  1  0  0  0
 14 15  1  0  0  0
 15 16  2  0  0  0
 16 17  1  0  0  0
 17 18  2  0  0  0
 18 19  1  0  0  0
 18 20  1  0  0  0
 20 21  2  0  0  0
  4  5  1  0  0  0
  5  6  1  0  0  0
  6  1  1  0  0  0
 21 15  1  0  0  0
M  END
> <minimizedAffinity>
-7.35248

> <CNNscore>
0.5723879933

> <CNNaffinity>
6.2319374084

> <CNN_VS>
3.5670862198

> <CNNaffinity_variance>
0.1501584947

$$$$
[H]c1c([H])c(C([H])([H])OC([H])([H])C2([H])C([H])([H])C([H])([H])N(C([H])([H])C([H])([H])C([H])([H])C([H])([H])C([H])([H])[H])C([H])([H])C2([H])[H])c([H])c([H])c1F


 21 22  0  0  0  0  0  0  0  0999 V2000
   -8.3766   -8.6504    7.6209 N   0  0  0  0  0  0  0  0  0  0  0  0
   -8.7547   -7.3524    8.0215 C   0  0  0  0  0  0  0  0  0  0  0  0
  -10.0873   -7.1920    8.6456 C   0  0  0  0  0  0  0  0  0  0  0  0
  -11.1121   -7.8110    7.7026 C   0  0  0  0  0  0  0  0  0  0  0  0
  -10.7662   -9.2836    7.6687 C   0  0  0  0  0  0  0  0  0  0  0  0
   -9.3704   -9.5798    7.2788 C   0  0  0  0  0  0  0  0  0  0  0  0
   -7.3016   -8.5421    6.6687 C   0  0  0  0  0  0  0  0  0  0  0  0
   -7.0826   -7.1725    6.1326 C   0  0  0  0  0  0  0  0  0  0  0  0
   -5.6312   -6.7688    6.1907 C   0  0  0  0  0  0  0  0  0  0  0  0
   -5.0446   -6.2157    8.5061 C   0  0  0  0  0  0  0  0  0  0  0  0
   -4.9535   -7.2768    7.4372 C   0  0  0  0  0  0  0  0  0  0  0  0
  -12.5126   -7.6688    8.2501 C   0  0  0  0  0  0  0  0  0  0  0  0
  -13.2501   -6.8021    7.4413 O   0  0  0  0  0  0  0  0  0  0  0  0
  -13.7287   -7.4932    6.3315 C   0  0  0  0  0  0  0  0  0  0  0  0
  -14.9504   -6.7897    5.8337 C   0  0  0  0  0  0  0  0  0  0  0  0
  -14.8546   -5.6087    5.1201 C   0  0  0  0  0  0  0  0  0  0  0  0
  -15.9664   -4.9402    4.6499 C   0  0  0  0  0  0  0  0  0  0  0  0
  -17.2326   -5.4373    4.8806 C   0  0  0  0  0  0  0  0  0  0  0  0
  -18.3487   -4.7953    4.4264 F   0  0  0  0  0  0  0  0  0  0  0  0
  -17.3349   -6.6144    5.5916 C   0  0  0  0  0  0  0  0  0  0  0  0
  -16.2145   -7.2900    6.0665 C   0  0  0  0  0  0  0  0  0  0  0  0
 10 11  1  0  0  0
 11  9  1  0  0  0
  9  8  1  0  0  0
  8  7  1  0  0  0
  7  1  1  0  0  0
  1  2  1  0  0  0
  2  3  1  0  0  0
  3  4  1  0  0  0
  4 12  1  0  0  0
 12 13  1  0  0  0
 13 14  1  0  0  0
 14 15  1  0  0  0
 15 16  2  0  0  0
 16 17  1  0  0  0
 17 18  2  0  0  0
 18 19  1  0  0  0
 18 20  1  0  0  0
 20 21  2  0  0  0
  4  5  1  0  0  0
  5  6  1  0  0  0
  6  1  1  0  0  0
 21 15  1  0  0  0
M  END
> <minimizedAffinity>
-7.37832

> <CNNscore>
0.5092959404

> <CNNaffinity>
6.0119237900

> <CNN_VS>
3.0618484020

> <CNNaffinity_variance>
0.1261689812

$$$$
[H]c1c([H])c([H])c([C@@]2([H])C([H])([H])[C@]2([H])N([H])C([H])([H])C2([H])C([H])([H])C([H])([H])N([H])C([H])([H])C2([H])[H])c([H])c1[H]


 19 21  0  0  0  0  0  0  0  0999 V2000
  -14.9038   -8.9165    6.9534 N   0  0  0  0  0  0  0  0  0  0  0  0
  -15.6608   -9.3816    7.4794 H   0  0  0  0  0  0  0  0  0  0  0  0
  -12.4801   -9.7159    6.9652 C   0  0  0  0  0  0  0  0  0  0  0  0
  -13.2860  -10.4165    8.0633 C   0  0  0  0  0  0  0  0  0  0  0  0
  -13.6078   -8.9920    7.5990 C   0  0  0  0  0  0  0  0  0  0  0  0
   -8.5807   -8.1977    7.9802 C   0  0  0  0  0  0  0  0  0  0  0  0
   -9.7234   -7.4554    8.1910 C   0  0  0  0  0  0  0  0  0  0  0  0
  -10.9771   -7.9686    7.8541 C   0  0  0  0  0  0  0  0  0  0  0  0
  -11.1254   -9.2182    7.3052 C   0  0  0  0  0  0  0  0  0  0  0  0
   -9.9782   -9.9551    7.0971 C   0  0  0  0  0  0  0  0  0  0  0  0
   -8.7252   -9.4496    7.4306 C   0  0  0  0  0  0  0  0  0  0  0  0
  -15.1614   -7.5140    6.7004 C   0  0  0  0  0  0  0  0  0  0  0  0
  -15.1145   -7.1492    5.2459 C   0  0  0  0  0  0  0  0  0  0  0  0
  -16.4248   -6.5280    4.8540 C   0  0  0  0  0  0  0  0  0  0  0  0
  -17.5905   -7.4618    4.8909 C   0  0  0  0  0  0  0  0  0  0  0  0
  -17.2014   -8.8571    4.7831 N   0  0  0  0  0  0  0  0  0  0  0  0
  -16.1379   -8.8915    3.7674 C   0  0  0  0  0  0  0  0  0  0  0  0
  -14.8677   -8.4415    4.4751 C   0  0  0  0  0  0  0  0  0  0  0  0
  -18.0117   -9.4191    4.5036 H   0  0  0  0  0  0  0  0  0  0  0  0
  6  7  2  0  0  0
  7  8  1  0  0  0
  8  9  2  0  0  0
  9  3  1  0  0  0
  3  4  1  0  0  0
  4  5  1  0  0  0
  5  1  1  0  0  0
  1 12  1  0  0  0
 12 13  1  0  0  0
 13 14  1  0  0  0
 14 15  1  0  0  0
 15 16  1  0  0  0
 16 17  1  0  0  0
 17 18  1  0  0  0
  9 10  1  0  0  0
 10 11  2  0  0  0
 11  6  1  0  0  0
  5  3  1  0  0  0
 18 13  1  0  0  0
  1  2  1  0  0  0
 16 19  1  0  0  0
M  END
> <minimizedAffinity>
-7.97379

> <CNNscore>
0.7641941309

> <CNNaffinity>
6.4569816589

> <CNN_VS>
4.9343876839

> <CNNaffinity_variance>
0.2488643825

$$$$
[H]c1c([H])c([H])c([C@@]2([H])C([H])([H])[C@]2([H])N([H])C([H])([H])C2([H])C([H])([H])C([H])([H])N([H])C([H])([H])C2([H])[H])c([H])c1[H]


 19 21  0  0  0  0  0  0  0  0999 V2000
  -14.5639   -9.0430    5.4957 N   0  0  0  0  0  0  0  0  0  0  0  0
  -15.4633   -9.5480    5.4502 H   0  0  0  0  0  0  0  0  0  0  0  0
  -12.7327   -8.3936    7.1505 C   0  0  0  0  0  0  0  0  0  0  0  0
  -13.2715   -9.7933    7.4617 C   0  0  0  0  0  0  0  0  0  0  0  0
  -14.1498   -8.7010    6.8423 C   0  0  0  0  0  0  0  0  0  0  0  0
  -12.1672   -5.6940   10.4568 C   0  0  0  0  0  0  0  0  0  0  0  0
  -13.4232   -6.1111   10.0702 C   0  0  0  0  0  0  0  0  0  0  0  0
  -13.5821   -6.9870    8.9950 C   0  0  0  0  0  0  0  0  0  0  0  0
  -12.5089   -7.4652    8.2847 C   0  0  0  0  0  0  0  0  0  0  0  0
  -11.2556   -7.0438    8.6769 C   0  0  0  0  0  0  0  0  0  0  0  0
  -11.0899   -6.1706    9.7479 C   0  0  0  0  0  0  0  0  0  0  0  0
  -14.5607   -7.8111    4.7340 C   0  0  0  0  0  0  0  0  0  0  0  0
  -15.7398   -7.6707    3.8170 C   0  0  0  0  0  0  0  0  0  0  0  0
  -16.5194   -6.4468    4.2051 C   0  0  0  0  0  0  0  0  0  0  0  0
  -17.1865   -6.5325    5.5392 C   0  0  0  0  0  0  0  0  0  0  0  0
  -17.4054   -7.9006    5.9754 N   0  0  0  0  0  0  0  0  0  0  0  0
  -17.8441   -8.6305    4.7760 C   0  0  0  0  0  0  0  0  0  0  0  0
  -16.5802   -8.9321    3.9832 C   0  0  0  0  0  0  0  0  0  0  0  0
  -18.1185   -7.9165    6.7116 H   0  0  0  0  0  0  0  0  0  0  0  0
  6  7  2  0  0  0
  7  8  1  0  0  0
  8  9  2  0  0  0
  9  3  1  0  0  0
  3  4  1  0  0  0
  4  5  1  0  0  0
  5  1  1  0  0  0
  1 12  1  0  0  0
 12 13  1  0  0  0
 13 14  1  0  0  0
 14 15  1  0  0  0
 15 16  1  0  0  0
 16 17  1  0  0  0
 17 18  1  0  0  0
  9 10  1  0  0  0
 10 11  2  0  0  0
 11  6  1  0  0  0
  5  3  1  0  0  0
 18 13  1  0  0  0
  1  2  1  0  0  0
 16 19  1  0  0  0
M  END
> <minimizedAffinity>
-8.05927

> <CNNscore>
0.7619417310

> <CNNaffinity>
6.3797936440

> <CNN_VS>
4.8610310555

> <CNNaffinity_variance>
0.0628151074

$$$$
[H]c1c([H])c([H])c([C@@]2([H])C([H])([H])[C@]2([H])N([H])C([H])([H])C2([H])C([H])([H])C([H])([H])N([H])C([H])([H])C2([H])[H])c([H])c1[H]


 19 21  0  0  0  0  0  0  0  0999 V2000
  -14.5339   -9.2425    5.5278 N   0  0  0  0  0  0  0  0  0  0  0  0
  -15.2545   -9.9819    5.5229 H   0  0  0  0  0  0  0  0  0  0  0  0
  -12.7109   -8.4637    7.1352 C   0  0  0  0  0  0  0  0  0  0  0  0
  -13.1916   -9.8708    7.5032 C   0  0  0  0  0  0  0  0  0  0  0  0
  -14.1184   -8.8361    6.8560 C   0  0  0  0  0  0  0  0  0  0  0  0
  -12.2139   -5.6164   10.3267 C   0  0  0  0  0  0  0  0  0  0  0  0
  -13.4622   -5.9636    9.8548 C   0  0  0  0  0  0  0  0  0  0  0  0
  -13.5987   -6.8893    8.8190 C   0  0  0  0  0  0  0  0  0  0  0  0
  -12.5107   -7.4869    8.2325 C   0  0  0  0  0  0  0  0  0  0  0  0
  -11.2653   -7.1349    8.7094 C   0  0  0  0  0  0  0  0  0  0  0  0
  -11.1219   -6.2125    9.7418 C   0  0  0  0  0  0  0  0  0  0  0  0
  -14.9445   -8.0392    4.8341 C   0  0  0  0  0  0  0  0  0  0  0  0
  -15.7434   -7.0988    5.6875 C   0  0  0  0  0  0  0  0  0  0  0  0
  -17.2009   -7.4385    5.5586 C   0  0  0  0  0  0  0  0  0  0  0  0
  -17.7813   -7.1816    4.2061 C   0  0  0  0  0  0  0  0  0  0  0  0
  -17.0264   -6.2030    3.4430 N   0  0  0  0  0  0  0  0  0  0  0  0
  -16.6586   -5.1528    4.4051 C   0  0  0  0  0  0  0  0  0  0  0  0
  -15.4609   -5.6907    5.1752 C   0  0  0  0  0  0  0  0  0  0  0  0
  -17.6090   -5.8355    2.6840 H   0  0  0  0  0  0  0  0  0  0  0  0
  6  7  2  0  0  0
  7  8  1  0  0  0
  8  9  2  0  0  0
  9  3  1  0  0  0
  3  4  1  0  0  0
  4  5  1  0  0  0
  5  1  1  0  0  0
  1 12  1  0  0  0
 12 13  1  0  0  0
 13 14  1  0  0  0
 14 15  1  0  0  0
 15 16  1  0  0  0
 16 17  1  0  0  0
 17 18  1  0  0  0
  9 10  1  0  0  0
 10 11  2  0  0  0
 11  6  1  0  0  0
  5  3  1  0  0  0
 18 13  1  0  0  0
  1  2  1  0  0  0
 16 19  1  0  0  0
M  END
> <minimizedAffinity>
-8.13577

> <CNNscore>
0.6743180752

> <CNNaffinity>
6.3883962631

> <CNN_VS>
4.3078112602

> <CNNaffinity_variance>
0.1618821919

$$$$
[H]c1c([H])c([H])c([C@@]2([H])C([H])([H])[C@]2([H])N([H])C([H])([H])C2([H])C([H])([H])C([H])([H])N([H])C([H])([H])C2([H])[H])c([H])c1[H]


 19 21  0  0  0  0  0  0  0  0999 V2000
   -7.3876  -10.0369    4.1287 N   0  0  0  0  0  0  0  0  0  0  0  0
   -8.3985   -9.8276    4.1458 H   0  0  0  0  0  0  0  0  0  0  0  0
   -6.1970   -8.6680    5.9239 C   0  0  0  0  0  0  0  0  0  0  0  0
   -7.3328   -7.8585    5.2907 C   0  0  0  0  0  0  0  0  0  0  0  0
   -6.5492   -8.9155    4.5053 C   0  0  0  0  0  0  0  0  0  0  0  0
   -2.3985   -6.7638    6.6200 C   0  0  0  0  0  0  0  0  0  0  0  0
   -2.5912   -8.1062    6.8692 C   0  0  0  0  0  0  0  0  0  0  0  0
   -3.8319   -8.7019    6.6358 C   0  0  0  0  0  0  0  0  0  0  0  0
   -4.9004   -7.9869    6.1542 C   0  0  0  0  0  0  0  0  0  0  0  0
   -4.7005   -6.6448    5.9073 C   0  0  0  0  0  0  0  0  0  0  0  0
   -3.4662   -6.0444    6.1378 C   0  0  0  0  0  0  0  0  0  0  0  0
   -6.9192  -10.4906    2.8355 C   0  0  0  0  0  0  0  0  0  0  0  0
   -8.0269  -10.8364    1.8847 C   0  0  0  0  0  0  0  0  0  0  0  0
   -8.7885  -12.0122    2.4266 C   0  0  0  0  0  0  0  0  0  0  0  0
   -8.0152  -13.2900    2.4626 C   0  0  0  0  0  0  0  0  0  0  0  0
   -6.9049  -13.3060    1.5261 N   0  0  0  0  0  0  0  0  0  0  0  0
   -7.4161  -12.6755    0.2993 C   0  0  0  0  0  0  0  0  0  0  0  0
   -7.3724  -11.1748    0.5497 C   0  0  0  0  0  0  0  0  0  0  0  0
   -6.6086  -14.2732    1.3609 H   0  0  0  0  0  0  0  0  0  0  0  0
  6  7  2  0  0  0
  7  8  1  0  0  0
  8  9  2  0  0  0
  9  3  1  0  0  0
  3  4  1  0  0  0
  4  5  1  0  0  0
  5  1  1  0  0  0
  1 12  1  0  0  0
 12 13  1  0  0  0
 13 14  1  0  0  0
 14 15  1  0  0  0
 15 16  1  0  0  0
 16 17  1  0  0  0
 17 18  1  0  0  0
  9 10  1  0  0  0
 10 11  2  0  0  0
 11  6  1  0  0  0
  5  3  1  0  0  0
 18 13  1  0  0  0
  1  2  1  0  0  0
 16 19  1  0  0  0
M  END
> <minimizedAffinity>
5.43827

> <CNNscore>
0.6725869775

> <CNNaffinity>
4.9772720337

> <CNN_VS>
3.3476483822

> <CNNaffinity_variance>
0.3897707462

$$$$
[H]c1c([H])c([H])c([C@@]2([H])C([H])([H])[C@]2([H])N([H])C([H])([H])C2([H])C([H])([H])C([H])([H])N([H])C([H])([H])C2([H])[H])c([H])c1[H]


 19 21  0  0  0  0  0  0  0  0999 V2000
  -15.9981   -8.6815    6.6222 N   0  0  0  0  0  0  0  0  0  0  0  0
  -16.7144   -9.3806    6.8756 H   0  0  0  0  0  0  0  0  0  0  0  0
  -13.6522   -7.9549    7.3167 C   0  0  0  0  0  0  0  0  0  0  0  0
  -13.8473   -9.4551    7.5571 C   0  0  0  0  0  0  0  0  0  0  0  0
  -15.0056   -8.4566    7.6548 C   0  0  0  0  0  0  0  0  0  0  0  0
  -11.6212   -5.6774   10.3544 C   0  0  0  0  0  0  0  0  0  0  0  0
  -10.9275   -6.4102    9.4146 C   0  0  0  0  0  0  0  0  0  0  0  0
  -11.6077   -7.1410    8.4390 C   0  0  0  0  0  0  0  0  0  0  0  0
  -12.9789   -7.1619    8.3732 C   0  0  0  0  0  0  0  0  0  0  0  0
  -13.6661   -6.4268    9.3163 C   0  0  0  0  0  0  0  0  0  0  0  0
  -12.9944   -5.6960   10.2919 C   0  0  0  0  0  0  0  0  0  0  0  0
  -16.5551   -7.3861    6.2915 C   0  0  0  0  0  0  0  0  0  0  0  0
  -16.8133   -7.2017    4.8251 C   0  0  0  0  0  0  0  0  0  0  0  0
  -15.4992   -7.1452    4.0996 C   0  0  0  0  0  0  0  0  0  0  0  0
  -14.6690   -5.9427    4.4108 C   0  0  0  0  0  0  0  0  0  0  0  0
  -15.4530   -4.8295    4.9167 N   0  0  0  0  0  0  0  0  0  0  0  0
  -16.6776   -4.8085    4.1019 C   0  0  0  0  0  0  0  0  0  0  0  0
  -17.5802   -5.8924    4.6738 C   0  0  0  0  0  0  0  0  0  0  0  0
  -14.9179   -3.9605    4.8203 H   0  0  0  0  0  0  0  0  0  0  0  0
  6  7  2  0  0  0
  7  8  1  0  0  0
  8  9  2  0  0  0
  9  3  1  0  0  0
  3  4  1  0  0  0
  4  5  1  0  0  0
  5  1  1  0  0  0
  1 12  1  0  0  0
 12 13  1  0  0  0
 13 14  1  0  0  0
 14 15  1  0  0  0
 15 16  1  0  0  0
 16 17  1  0  0  0
 17 18  1  0  0  0
  9 10  1  0  0  0
 10 11  2  0  0  0
 11  6  1  0  0  0
  5  3  1  0  0  0
 18 13  1  0  0  0
  1  2  1  0  0  0
 16 19  1  0  0  0
M  END
> <minimizedAffinity>
-8.00810

> <CNNscore>
0.6717944145

> <CNNaffinity>
6.4439764023

> <CNN_VS>
4.3290271759

> <CNNaffinity_variance>
0.1747383773

$$$$
[H]c1c([H])c([H])c([C@@]2([H])C([H])([H])[C@]2([H])N([H])C([H])([H])C2([H])C([H])([H])C([H])([H])N([H])C([H])([H])C2([H])[H])c([H])c1[H]


 19 21  0  0  0  0  0  0  0  0999 V2000
  -14.9171   -7.2840    8.1297 N   0  0  0  0  0  0  0  0  0  0  0  0
  -15.4849   -6.4217    8.1291 H   0  0  0  0  0  0  0  0  0  0  0  0
  -12.5727   -7.8797    8.9438 C   0  0  0  0  0  0  0  0  0  0  0  0
  -12.9983   -6.5082    9.4769 C   0  0  0  0  0  0  0  0  0  0  0  0
  -13.4870   -7.0457    8.1276 C   0  0  0  0  0  0  0  0  0  0  0  0
   -8.5895   -8.3813    7.3875 C   0  0  0  0  0  0  0  0  0  0  0  0
   -9.5407   -9.3731    7.2740 C   0  0  0  0  0  0  0  0  0  0  0  0
  -10.8259   -9.1877    7.7863 C   0  0  0  0  0  0  0  0  0  0  0  0
  -11.1944   -8.0254    8.4172 C   0  0  0  0  0  0  0  0  0  0  0  0
  -10.2379   -7.0378    8.5272 C   0  0  0  0  0  0  0  0  0  0  0  0
   -8.9547   -7.2159    8.0188 C   0  0  0  0  0  0  0  0  0  0  0  0
  -15.1956   -8.1528    7.0049 C   0  0  0  0  0  0  0  0  0  0  0  0
  -14.6837   -7.6234    5.6978 C   0  0  0  0  0  0  0  0  0  0  0  0
  -15.7302   -6.7377    5.0842 C   0  0  0  0  0  0  0  0  0  0  0  0
  -16.9712   -7.4493    4.6533 C   0  0  0  0  0  0  0  0  0  0  0  0
  -16.7580   -8.8668    4.4183 N   0  0  0  0  0  0  0  0  0  0  0  0
  -15.4617   -8.9605    3.7292 C   0  0  0  0  0  0  0  0  0  0  0  0
  -14.4007   -8.8325    4.8129 C   0  0  0  0  0  0  0  0  0  0  0  0
  -17.5212   -9.2384    3.8437 H   0  0  0  0  0  0  0  0  0  0  0  0
  6  7  2  0  0  0
  7  8  1  0  0  0
  8  9  2  0  0  0
  9  3  1  0  0  0
  3  4  1  0  0  0
  4  5  1  0  0  0
  5  1  1  0  0  0
  1 12  1  0  0  0
 12 13  1  0  0  0
 13 14  1  0  0  0
 14 15  1  0  0  0
 15 16  1  0  0  0
 16 17  1  0  0  0
 17 18  1  0  0  0
  9 10  1  0  0  0
 10 11  2  0  0  0
 11  6  1  0  0  0
  5  3  1  0  0  0
 18 13  1  0  0  0
  1  2  1  0  0  0
 16 19  1  0  0  0
M  END
> <minimizedAffinity>
-7.64914

> <CNNscore>
0.6158072948

> <CNNaffinity>
6.3199963570

> <CNN_VS>
3.8918998241

> <CNNaffinity_variance>
0.1922964603

$$$$
[H]c1c([H])c([H])c([C@@]2([H])C([H])([H])[C@]2([H])N([H])C([H])([H])C2([H])C([H])([H])C([H])([H])N([H])C([H])([H])C2([H])[H])c([H])c1[H]


 19 21  0  0  0  0  0  0  0  0999 V2000
  -19.0633   -9.0131    7.6549 N   0  0  0  0  0  0  0  0  0  0  0  0
  -19.7082   -8.8090    8.4350 H   0  0  0  0  0  0  0  0  0  0  0  0
  -17.1120   -8.0522    6.3197 C   0  0  0  0  0  0  0  0  0  0  0  0
  -16.8318   -7.9688    7.8233 C   0  0  0  0  0  0  0  0  0  0  0  0
  -18.2513   -7.8814    7.2527 C   0  0  0  0  0  0  0  0  0  0  0  0
  -16.0795   -4.6309    3.9180 C   0  0  0  0  0  0  0  0  0  0  0  0
  -15.1415   -5.2815    4.6914 C   0  0  0  0  0  0  0  0  0  0  0  0
  -15.4996   -6.3890    5.4620 C   0  0  0  0  0  0  0  0  0  0  0  0
  -16.7843   -6.8726    5.4834 C   0  0  0  0  0  0  0  0  0  0  0  0
  -17.7173   -6.2169    4.7075 C   0  0  0  0  0  0  0  0  0  0  0  0
  -17.3672   -5.1122    3.9369 C   0  0  0  0  0  0  0  0  0  0  0  0
  -19.7382   -9.4851    6.4636 C   0  0  0  0  0  0  0  0  0  0  0  0
  -21.1769   -9.8437    6.6924 C   0  0  0  0  0  0  0  0  0  0  0  0
  -21.3163  -10.4670    8.0520 C   0  0  0  0  0  0  0  0  0  0  0  0
  -20.6498  -11.7962    8.1972 C   0  0  0  0  0  0  0  0  0  0  0  0
  -20.4514  -12.4715    6.9266 N   0  0  0  0  0  0  0  0  0  0  0  0
  -21.6847  -12.2369    6.1598 C   0  0  0  0  0  0  0  0  0  0  0  0
  -21.5657  -10.8285    5.5951 C   0  0  0  0  0  0  0  0  0  0  0  0
  -20.2901  -13.4705    7.0899 H   0  0  0  0  0  0  0  0  0  0  0  0
  6  7  2  0  0  0
  7  8  1  0  0  0
  8  9  2  0  0  0
  9  3  1  0  0  0
  3  4  1  0  0  0
  4  5  1  0  0  0
  5  1  1  0  0  0
  1 12  1  0  0  0
 12 13  1  0  0  0
 13 14  1  0  0  0
 14 15  1  0  0  0
 15 16  1  0  0  0
 16 17  1  0  0  0
 17 18  1  0  0  0
  9 10  1  0  0  0
 10 11  2  0  0  0
 11  6  1  0  0  0
  5  3  1  0  0  0
 18 13  1  0  0  0
  1  2  1  0  0  0
 16 19  1  0  0  0
M  END
> <minimizedAffinity>
0.22826

> <CNNscore>
0.5976705551

> <CNNaffinity>
5.5072698593

> <CNN_VS>
3.2915329933

> <CNNaffinity_variance>
0.3062744737

$$$$
[H]c1c([H])c([H])c([C@@]2([H])C([H])([H])[C@]2([H])N([H])C([H])([H])C2([H])C([H])([H])C([H])([H])N([H])C([H])([H])C2([H])[H])c([H])c1[H]


 19 21  0  0  0  0  0  0  0  0999 V2000
  -15.2280   -8.6987    6.9524 N   0  0  0  0  0  0  0  0  0  0  0  0
  -16.0172   -8.9728    7.5591 H   0  0  0  0  0  0  0  0  0  0  0  0
  -12.8580   -9.6381    6.8330 C   0  0  0  0  0  0  0  0  0  0  0  0
  -13.6811  -10.3795    7.8908 C   0  0  0  0  0  0  0  0  0  0  0  0
  -13.9252   -8.9046    7.5544 C   0  0  0  0  0  0  0  0  0  0  0  0
   -8.8512   -8.4414    7.8592 C   0  0  0  0  0  0  0  0  0  0  0  0
   -9.9335   -7.6189    8.0904 C   0  0  0  0  0  0  0  0  0  0  0  0
  -11.2236   -8.0284    7.7493 C   0  0  0  0  0  0  0  0  0  0  0  0
  -11.4684   -9.2518    7.1763 C   0  0  0  0  0  0  0  0  0  0  0  0
  -10.3812  -10.0693    6.9479 C   0  0  0  0  0  0  0  0  0  0  0  0
   -9.0922   -9.6673    7.2854 C   0  0  0  0  0  0  0  0  0  0  0  0
  -15.2801   -7.3119    6.5379 C   0  0  0  0  0  0  0  0  0  0  0  0
  -14.8625   -7.0964    5.1132 C   0  0  0  0  0  0  0  0  0  0  0  0
  -14.9682   -5.6338    4.7875 C   0  0  0  0  0  0  0  0  0  0  0  0
  -16.3635   -5.0997    4.7744 C   0  0  0  0  0  0  0  0  0  0  0  0
  -17.3625   -6.1321    4.5598 N   0  0  0  0  0  0  0  0  0  0  0  0
  -16.7990   -7.0163    3.5281 C   0  0  0  0  0  0  0  0  0  0  0  0
  -15.8084   -7.9211    4.2470 C   0  0  0  0  0  0  0  0  0  0  0  0
  -18.2407   -5.7018    4.2528 H   0  0  0  0  0  0  0  0  0  0  0  0
  6  7  2  0  0  0
  7  8  1  0  0  0
  8  9  2  0  0  0
  9  3  1  0  0  0
  3  4  1  0  0  0
  4  5  1  0  0  0
  5  1  1  0  0  0
  1 12  1  0  0  0
 12 13  1  0  0  0
 13 14  1  0  0  0
 14 15  1  0  0  0
 15 16  1  0  0  0
 16 17  1  0  0  0
 17 18  1  0  0  0
  9 10  1  0  0  0
 10 11  2  0  0  0
 11  6  1  0  0  0
  5  3  1  0  0  0
 18 13  1  0  0  0
  1  2  1  0  0  0
 16 19  1  0  0  0
M  END
> <minimizedAffinity>
-7.99507

> <CNNscore>
0.5802804232

> <CNNaffinity>
6.1691746712

> <CNN_VS>
3.5798513889

> <CNNaffinity_variance>
0.1524247825

$$$$
[H]c1c([H])c([H])c([C@@]2([H])C([H])([H])[C@]2([H])N([H])C([H])([H])C2([H])C([H])([H])C([H])([H])N([H])C([H])([H])C2([H])[H])c([H])c1[H]


 19 21  0  0  0  0  0  0  0  0999 V2000
  -13.8756   -9.6089    5.9132 N   0  0  0  0  0  0  0  0  0  0  0  0
  -12.9039   -9.7976    5.6195 H   0  0  0  0  0  0  0  0  0  0  0  0
  -15.8361   -8.6338    4.6020 C   0  0  0  0  0  0  0  0  0  0  0  0
  -14.5966   -8.7566    3.7104 C   0  0  0  0  0  0  0  0  0  0  0  0
  -14.4943   -8.4976    5.2172 C   0  0  0  0  0  0  0  0  0  0  0  0
  -18.2198   -5.0581    4.3335 C   0  0  0  0  0  0  0  0  0  0  0  0
  -18.7430   -6.2999    4.0413 C   0  0  0  0  0  0  0  0  0  0  0  0
  -17.9508   -7.4454    4.1354 C   0  0  0  0  0  0  0  0  0  0  0  0
  -16.6337   -7.3867    4.5182 C   0  0  0  0  0  0  0  0  0  0  0  0
  -16.1170   -6.1414    4.8090 C   0  0  0  0  0  0  0  0  0  0  0  0
  -16.9010   -4.9952    4.7171 C   0  0  0  0  0  0  0  0  0  0  0  0
  -14.0019   -9.3347    7.3297 C   0  0  0  0  0  0  0  0  0  0  0  0
  -12.8293   -9.8062    8.1380 C   0  0  0  0  0  0  0  0  0  0  0  0
  -12.7029   -8.9482    9.3645 C   0  0  0  0  0  0  0  0  0  0  0  0
  -12.3274   -7.5279    9.0929 C   0  0  0  0  0  0  0  0  0  0  0  0
  -11.6608   -7.3535    7.8143 N   0  0  0  0  0  0  0  0  0  0  0  0
  -10.7430   -8.4964    7.6901 C   0  0  0  0  0  0  0  0  0  0  0  0
  -11.5986   -9.6748    7.2474 C   0  0  0  0  0  0  0  0  0  0  0  0
  -11.1579   -6.4603    7.8080 H   0  0  0  0  0  0  0  0  0  0  0  0
  6  7  2  0  0  0
  7  8  1  0  0  0
  8  9  2  0  0  0
  9  3  1  0  0  0
  3  4  1  0  0  0
  4  5  1  0  0  0
  5  1  1  0  0  0
  1 12  1  0  0  0
 12 13  1  0  0  0
 13 14  1  0  0  0
 14 15  1  0  0  0
 15 16  1  0  0  0
 16 17  1  0  0  0
 17 18  1  0  0  0
  9 10  1  0  0  0
 10 11  2  0  0  0
 11  6  1  0  0  0
  5  3  1  0  0  0
 18 13  1  0  0  0
  1  2  1  0  0  0
 16 19  1  0  0  0
M  END
> <minimizedAffinity>
-7.65275

> <CNNscore>
0.5351762772

> <CNNaffinity>
5.9771337509

> <CNN_VS>
3.1988201141

> <CNNaffinity_variance>
0.0624652989

$$$$
[H]OC([H])([H])C(F)(F)C([H])([H])N1[C@]([H])(c2c(F)c([H])nc(OC([H])([H])C([H])([H])N([H])C([H])([H])C([H])([H])C([H])([H])F)c2F)c2c(c3c([H])c([H])c([H])c([H])c3n2[H])C([H])([H])[C@@]1([H])C([H])([H])[H]


 39 42  0  0  0  0  0  0  0  0999 V2000
  -18.2242   -7.7496    7.8338 C   0  0  0  0  0  0  0  0  0  0  0  0
  -16.9033   -7.0704    8.0777 C   0  0  0  0  0  0  0  0  0  0  0  0
  -16.6680   -6.3187    6.7346 C   0  0  0  0  0  0  0  0  0  0  0  0
  -16.3906   -7.3816    5.7512 C   0  0  0  0  0  0  0  0  0  0  0  0
  -15.7799   -8.5447    6.1441 C   0  0  0  0  0  0  0  0  0  0  0  0
  -15.6736   -9.2992    5.0282 N   0  0  0  0  0  0  0  0  0  0  0  0
  -16.1820   -8.6758    3.9595 C   0  0  0  0  0  0  0  0  0  0  0  0
  -16.3183   -8.9976    2.6219 C   0  0  0  0  0  0  0  0  0  0  0  0
  -16.9042   -8.1139    1.7442 C   0  0  0  0  0  0  0  0  0  0  0  0
  -17.3764   -6.8707    2.1782 C   0  0  0  0  0  0  0  0  0  0  0  0
  -17.2271   -6.5784    3.5149 C   0  0  0  0  0  0  0  0  0  0  0  0
  -16.6437   -7.4522    4.4008 C   0  0  0  0  0  0  0  0  0  0  0  0
  -15.3524   -8.8318    7.5443 C   0  0  0  0  0  0  0  0  0  0  0  0
  -15.8156   -7.8368    8.4600 N   0  0  0  0  0  0  0  0  0  0  0  0
  -15.2509  -10.2497    4.9904 H   0  0  0  0  0  0  0  0  0  0  0  0
  -13.9718   -9.2780    7.6353 C   0  0  0  0  0  0  0  0  0  0  0  0
  -13.6224  -10.5571    8.0111 C   0  0  0  0  0  0  0  0  0  0  0  0
  -14.5868  -11.4194    8.3065 F   0  0  0  0  0  0  0  0  0  0  0  0
  -12.3050  -10.9726    8.0908 C   0  0  0  0  0  0  0  0  0  0  0  0
  -11.3246  -10.1021    7.7925 N   0  0  0  0  0  0  0  0  0  0  0  0
  -11.5764   -8.8373    7.4178 C   0  0  0  0  0  0  0  0  0  0  0  0
  -12.9008   -8.4384    7.3433 C   0  0  0  0  0  0  0  0  0  0  0  0
  -13.1145   -7.1516    6.9618 F   0  0  0  0  0  0  0  0  0  0  0  0
  -10.5390   -7.9952    7.1253 O   0  0  0  0  0  0  0  0  0  0  0  0
   -9.6365   -7.4097    8.0104 C   0  0  0  0  0  0  0  0  0  0  0  0
   -9.8954   -5.9801    8.3372 C   0  0  0  0  0  0  0  0  0  0  0  0
   -9.7650   -5.6994    9.7567 N   0  0  0  0  0  0  0  0  0  0  0  0
   -9.0228   -6.2323   10.2246 H   0  0  0  0  0  0  0  0  0  0  0  0
  -11.0160   -5.7341   10.4565 C   0  0  0  0  0  0  0  0  0  0  0  0
  -10.9091   -5.2115   11.8673 C   0  0  0  0  0  0  0  0  0  0  0  0
  -11.1578   -6.2573   12.9140 C   0  0  0  0  0  0  0  0  0  0  0  0
  -10.0764   -6.4832   13.7357 F   0  0  0  0  0  0  0  0  0  0  0  0
  -15.1463   -7.7436    9.6561 C   0  0  0  0  0  0  0  0  0  0  0  0
  -15.5147   -8.3118   10.9410 C   0  0  0  0  0  0  0  0  0  0  0  0
  -14.4731   -8.9396   11.6233 F   0  0  0  0  0  0  0  0  0  0  0  0
  -15.7438   -7.2050   11.8753 F   0  0  0  0  0  0  0  0  0  0  0  0
  -16.7450   -9.1165   11.1306 C   0  0  0  0  0  0  0  0  0  0  0  0
  -17.3257   -9.7233   10.0692 O   0  0  0  0  0  0  0  0  0  0  0  0
  -16.9941  -10.6397    9.9233 H   0  0  0  0  0  0  0  0  0  0  0  0
  1  2  1  0  0  0
  2  3  1  0  0  0
  3  4  1  0  0  0
  4  5  2  0  0  0
  5  6  1  0  0  0
  6  7  1  0  0  0
  7  8  2  0  0  0
  8  9  1  0  0  0
  9 10  2  0  0  0
 10 11  1  0  0  0
 11 12  2  0  0  0
  5 13  1  0  0  0
 13 16  1  0  0  0
 16 17  2  0  0  0
 17 18  1  0  0  0
 17 19  1  0  0  0
 19 20  2  0  0  0
 20 21  1  0  0  0
 21 24  1  0  0  0
 24 25  1  0  0  0
 25 26  1  0  0  0
 26 27  1  0  0  0
 27 29  1  0  0  0
 29 30  1  0  0  0
 30 31  1  0  0  0
 31 32  1  0  0  0
 21 22  2  0  0  0
 22 23  1  0  0  0
 13 14  1  0  0  0
 14 33  1  0  0  0
 33 34  1  0  0  0
 34 35  1  0  0  0
 34 36  1  0  0  0
 34 37  1  0  0  0
 37 38  1  0  0  0
 14  2  1  0  0  0
 12  4  1  0  0  0
 22 16  1  0  0  0
 12  7  1  0  0  0
  6 15  1  0  0  0
 27 28  1  0  0  0
 38 39  1  0  0  0
M  END
> <minimizedAffinity>
14.93444

> <CNNscore>
0.3694520593

> <CNNaffinity>
7.0217313766

> <CNN_VS>
2.5941932201

> <CNNaffinity_variance>
0.6308597326

$$$$
[H]OC([H])([H])C(F)(F)C([H])([H])N1[C@]([H])(c2c(F)c([H])nc(OC([H])([H])C([H])([H])N([H])C([H])([H])C([H])([H])C([H])([H])F)c2F)c2c(c3c([H])c([H])c([H])c([H])c3n2[H])C([H])([H])[C@@]1([H])C([H])([H])[H]


 39 42  0  0  0  0  0  0  0  0999 V2000
   -6.6403   -9.1764    8.9831 C   0  0  0  0  0  0  0  0  0  0  0  0
   -7.0796   -8.7778    7.5999 C   0  0  0  0  0  0  0  0  0  0  0  0
   -6.2944   -9.7807    6.7045 C   0  0  0  0  0  0  0  0  0  0  0  0
   -4.8860   -9.3573    6.8096 C   0  0  0  0  0  0  0  0  0  0  0  0
   -4.5741   -8.0372    7.0097 C   0  0  0  0  0  0  0  0  0  0  0  0
   -3.2250   -7.9822    7.0628 N   0  0  0  0  0  0  0  0  0  0  0  0
   -2.6743   -9.1912    6.9073 C   0  0  0  0  0  0  0  0  0  0  0  0
   -1.3780   -9.6711    6.8813 C   0  0  0  0  0  0  0  0  0  0  0  0
   -1.1305  -11.0124    6.6965 C   0  0  0  0  0  0  0  0  0  0  0  0
   -2.1783  -11.9243    6.5304 C   0  0  0  0  0  0  0  0  0  0  0  0
   -3.4576  -11.4173    6.5610 C   0  0  0  0  0  0  0  0  0  0  0  0
   -3.7174  -10.0803    6.7446 C   0  0  0  0  0  0  0  0  0  0  0  0
   -5.5872   -6.9487    7.1310 C   0  0  0  0  0  0  0  0  0  0  0  0
   -6.9193   -7.4626    7.1982 N   0  0  0  0  0  0  0  0  0  0  0  0
   -2.6699   -7.1133    7.2066 H   0  0  0  0  0  0  0  0  0  0  0  0
   -5.3156   -5.8213    6.2545 C   0  0  0  0  0  0  0  0  0  0  0  0
   -5.6425   -5.8192    4.9155 C   0  0  0  0  0  0  0  0  0  0  0  0
   -6.2274   -6.8937    4.4016 F   0  0  0  0  0  0  0  0  0  0  0  0
   -5.3829   -4.7390    4.0907 C   0  0  0  0  0  0  0  0  0  0  0  0
   -4.7903   -3.6481    4.6072 N   0  0  0  0  0  0  0  0  0  0  0  0
   -4.4384   -3.5662    5.9008 C   0  0  0  0  0  0  0  0  0  0  0  0
   -4.7058   -4.6568    6.7119 C   0  0  0  0  0  0  0  0  0  0  0  0
   -4.3341   -4.5360    8.0136 F   0  0  0  0  0  0  0  0  0  0  0  0
   -3.8386   -2.4309    6.3719 O   0  0  0  0  0  0  0  0  0  0  0  0
   -3.2396   -1.4110    5.6359 C   0  0  0  0  0  0  0  0  0  0  0  0
   -3.0714   -0.1168    6.3533 C   0  0  0  0  0  0  0  0  0  0  0  0
   -3.0347   -0.2792    7.7965 N   0  0  0  0  0  0  0  0  0  0  0  0
   -3.1422    0.5965    8.3214 H   0  0  0  0  0  0  0  0  0  0  0  0
   -1.9335   -1.0793    8.2470 C   0  0  0  0  0  0  0  0  0  0  0  0
   -1.6237   -0.8739    9.7088 C   0  0  0  0  0  0  0  0  0  0  0  0
   -2.8185   -0.4753   10.5241 C   0  0  0  0  0  0  0  0  0  0  0  0
   -3.7121   -1.5021   10.7311 F   0  0  0  0  0  0  0  0  0  0  0  0
   -7.9309   -6.5911    6.8749 C   0  0  0  0  0  0  0  0  0  0  0  0
   -9.3220   -6.6319    7.2905 C   0  0  0  0  0  0  0  0  0  0  0  0
  -10.1907   -5.8791    6.5008 F   0  0  0  0  0  0  0  0  0  0  0  0
   -9.8488   -7.9636    6.9753 F   0  0  0  0  0  0  0  0  0  0  0  0
   -9.7331   -6.4803    8.7065 C   0  0  0  0  0  0  0  0  0  0  0  0
  -10.1971   -5.2892    9.1515 O   0  0  0  0  0  0  0  0  0  0  0  0
  -11.1757   -5.2053    9.0715 H   0  0  0  0  0  0  0  0  0  0  0  0
  1  2  1  0  0  0
  2  3  1  0  0  0
  3  4  1  0  0  0
  4  5  2  0  0  0
  5  6  1  0  0  0
  6  7  1  0  0  0
  7  8  2  0  0  0
  8  9  1  0  0  0
  9 10  2  0  0  0
 10 11  1  0  0  0
 11 12  2  0  0  0
  5 13  1  0  0  0
 13 16  1  0  0  0
 16 17  2  0  0  0
 17 18  1  0  0  0
 17 19  1  0  0  0
 19 20  2  0  0  0
 20 21  1  0  0  0
 21 24  1  0  0  0
 24 25  1  0  0  0
 25 26  1  0  0  0
 26 27  1  0  0  0
 27 29  1  0  0  0
 29 30  1  0  0  0
 30 31  1  0  0  0
 31 32  1  0  0  0
 21 22  2  0  0  0
 22 23  1  0  0  0
 13 14  1  0  0  0
 14 33  1  0  0  0
 33 34  1  0  0  0
 34 35  1  0  0  0
 34 36  1  0  0  0
 34 37  1  0  0  0
 37 38  1  0  0  0
 14  2  1  0  0  0
 12  4  1  0  0  0
 22 16  1  0  0  0
 12  7  1  0  0  0
  6 15  1  0  0  0
 27 28  1  0  0  0
 38 39  1  0  0  0
M  END
> <minimizedAffinity>
8.62440

> <CNNscore>
0.3392874897

> <CNNaffinity>
6.1023955345

> <CNN_VS>
2.0704665184

> <CNNaffinity_variance>
0.9548301697

$$$$
[H]OC([H])([H])C(F)(F)C([H])([H])N1[C@]([H])(c2c(F)c([H])nc(OC([H])([H])C([H])([H])N([H])C([H])([H])C([H])([H])C([H])([H])F)c2F)c2c(c3c([H])c([H])c([H])c([H])c3n2[H])C([H])([H])[C@@]1([H])C([H])([H])[H]


 39 42  0  0  0  0  0  0  0  0999 V2000
  -10.8072   -8.1145    7.3284 C   0  0  0  0  0  0  0  0  0  0  0  0
  -10.7651   -6.7081    7.8628 C   0  0  0  0  0  0  0  0  0  0  0  0
   -9.5403   -6.1082    7.1118 C   0  0  0  0  0  0  0  0  0  0  0  0
   -8.3698   -6.7885    7.6957 C   0  0  0  0  0  0  0  0  0  0  0  0
   -8.3924   -7.2042    9.0022 C   0  0  0  0  0  0  0  0  0  0  0  0
   -7.1916   -7.7827    9.2246 N   0  0  0  0  0  0  0  0  0  0  0  0
   -6.4186   -7.7530    8.1334 C   0  0  0  0  0  0  0  0  0  0  0  0
   -5.1424   -8.1934    7.8358 C   0  0  0  0  0  0  0  0  0  0  0  0
   -4.6116   -8.0076    6.5795 C   0  0  0  0  0  0  0  0  0  0  0  0
   -5.3446   -7.3708    5.5725 C   0  0  0  0  0  0  0  0  0  0  0  0
   -6.6118   -6.9435    5.8981 C   0  0  0  0  0  0  0  0  0  0  0  0
   -7.1526   -7.1231    7.1487 C   0  0  0  0  0  0  0  0  0  0  0  0
   -9.5530   -7.0126    9.9197 C   0  0  0  0  0  0  0  0  0  0  0  0
  -10.7020   -6.5125    9.2319 N   0  0  0  0  0  0  0  0  0  0  0  0
   -6.8920   -8.2037   10.1283 H   0  0  0  0  0  0  0  0  0  0  0  0
   -9.1792   -6.4089   11.1882 C   0  0  0  0  0  0  0  0  0  0  0  0
  -10.0998   -5.8645   12.0575 C   0  0  0  0  0  0  0  0  0  0  0  0
  -11.3834   -5.8885   11.7221 F   0  0  0  0  0  0  0  0  0  0  0  0
   -9.7335   -5.2956   13.2645 C   0  0  0  0  0  0  0  0  0  0  0  0
   -8.4339   -5.2691   13.6084 N   0  0  0  0  0  0  0  0  0  0  0  0
   -7.4718   -5.7766   12.8206 C   0  0  0  0  0  0  0  0  0  0  0  0
   -7.8565   -6.3423   11.6161 C   0  0  0  0  0  0  0  0  0  0  0  0
   -6.8545   -6.8437   10.8469 F   0  0  0  0  0  0  0  0  0  0  0  0
   -6.1653   -5.7226   13.2218 O   0  0  0  0  0  0  0  0  0  0  0  0
   -5.4114   -4.5930   13.5322 C   0  0  0  0  0  0  0  0  0  0  0  0
   -4.1030   -4.8574   14.1924 C   0  0  0  0  0  0  0  0  0  0  0  0
   -2.9800   -4.3282   13.4377 N   0  0  0  0  0  0  0  0  0  0  0  0
   -2.3720   -3.6983   13.9739 H   0  0  0  0  0  0  0  0  0  0  0  0
   -3.3572   -3.8005   12.1590 C   0  0  0  0  0  0  0  0  0  0  0  0
   -2.4561   -2.6806   11.7020 C   0  0  0  0  0  0  0  0  0  0  0  0
   -2.2148   -1.6387   12.7544 C   0  0  0  0  0  0  0  0  0  0  0  0
   -1.9946   -2.1625   14.0085 F   0  0  0  0  0  0  0  0  0  0  0  0
  -11.6581   -5.8954   10.0014 C   0  0  0  0  0  0  0  0  0  0  0  0
  -13.1021   -6.0305    9.9235 C   0  0  0  0  0  0  0  0  0  0  0  0
  -13.6589   -6.9056   10.8557 F   0  0  0  0  0  0  0  0  0  0  0  0
  -13.6996   -4.7858   10.4177 F   0  0  0  0  0  0  0  0  0  0  0  0
  -13.8153   -6.2086    8.6363 C   0  0  0  0  0  0  0  0  0  0  0  0
  -13.8447   -7.4247    8.0429 O   0  0  0  0  0  0  0  0  0  0  0  0
  -14.6232   -7.9646    8.3145 H   0  0  0  0  0  0  0  0  0  0  0  0
  1  2  1  0  0  0
  2  3  1  0  0  0
  3  4  1  0  0  0
  4  5  2  0  0  0
  5  6  1  0  0  0
  6  7  1  0  0  0
  7  8  2  0  0  0
  8  9  1  0  0  0
  9 10  2  0  0  0
 10 11  1  0  0  0
 11 12  2  0  0  0
  5 13  1  0  0  0
 13 16  1  0  0  0
 16 17  2  0  0  0
 17 18  1  0  0  0
 17 19  1  0  0  0
 19 20  2  0  0  0
 20 21  1  0  0  0
 21 24  1  0  0  0
 24 25  1  0  0  0
 25 26  1  0  0  0
 26 27  1  0  0  0
 27 29  1  0  0  0
 29 30  1  0  0  0
 30 31  1  0  0  0
 31 32  1  0  0  0
 21 22  2  0  0  0
 22 23  1  0  0  0
 13 14  1  0  0  0
 14 33  1  0  0  0
 33 34  1  0  0  0
 34 35  1  0  0  0
 34 36  1  0  0  0
 34 37  1  0  0  0
 37 38  1  0  0  0
 14  2  1  0  0  0
 12  4  1  0  0  0
 22 16  1  0  0  0
 12  7  1  0  0  0
  6 15  1  0  0  0
 27 28  1  0  0  0
 38 39  1  0  0  0
M  END
> <minimizedAffinity>
6.98168

> <CNNscore>
0.3068566918

> <CNNaffinity>
6.5388503075

> <CNN_VS>
2.0064899921

> <CNNaffinity_variance>
0.1747265309

$$$$
[H]OC([H])([H])C(F)(F)C([H])([H])N1[C@]([H])(c2c(F)c([H])nc(OC([H])([H])C([H])([H])N([H])C([H])([H])C([H])([H])C([H])([H])F)c2F)c2c(c3c([H])c([H])c([H])c([H])c3n2[H])C([H])([H])[C@@]1([H])C([H])([H])[H]


 39 42  0  0  0  0  0  0  0  0999 V2000
  -10.3985   -5.6622    7.9097 C   0  0  0  0  0  0  0  0  0  0  0  0
  -11.8762   -5.6054    7.6294 C   0  0  0  0  0  0  0  0  0  0  0  0
  -12.4147   -4.8255    8.8646 C   0  0  0  0  0  0  0  0  0  0  0  0
  -12.2623   -5.7589    9.9957 C   0  0  0  0  0  0  0  0  0  0  0  0
  -12.3518   -7.1120    9.7923 C   0  0  0  0  0  0  0  0  0  0  0  0
  -12.1677   -7.6789   11.0049 N   0  0  0  0  0  0  0  0  0  0  0  0
  -11.9684   -6.7594   11.9556 C   0  0  0  0  0  0  0  0  0  0  0  0
  -11.7381   -6.8062   13.3180 C   0  0  0  0  0  0  0  0  0  0  0  0
  -11.5683   -5.6471   14.0407 C   0  0  0  0  0  0  0  0  0  0  0  0
  -11.6234   -4.3944   13.4205 C   0  0  0  0  0  0  0  0  0  0  0  0
  -11.8539   -4.3794   12.0635 C   0  0  0  0  0  0  0  0  0  0  0  0
  -12.0252   -5.5297   11.3313 C   0  0  0  0  0  0  0  0  0  0  0  0
  -12.6053   -7.7419    8.4639 C   0  0  0  0  0  0  0  0  0  0  0  0
  -12.5615   -6.7865    7.4015 N   0  0  0  0  0  0  0  0  0  0  0  0
  -12.1770   -8.7032   11.1907 H   0  0  0  0  0  0  0  0  0  0  0  0
  -13.6918   -8.7073    8.4923 C   0  0  0  0  0  0  0  0  0  0  0  0
  -13.4839  -10.0689    8.4423 C   0  0  0  0  0  0  0  0  0  0  0  0
  -12.2387  -10.5199    8.3612 F   0  0  0  0  0  0  0  0  0  0  0  0
  -14.5254  -10.9794    8.4739 C   0  0  0  0  0  0  0  0  0  0  0  0
  -15.7888  -10.5267    8.5560 N   0  0  0  0  0  0  0  0  0  0  0  0
  -16.0806   -9.2168    8.6089 C   0  0  0  0  0  0  0  0  0  0  0  0
  -15.0258   -8.3195    8.5763 C   0  0  0  0  0  0  0  0  0  0  0  0
  -15.3617   -7.0037    8.6307 F   0  0  0  0  0  0  0  0  0  0  0  0
  -17.3849   -8.8134    8.6925 O   0  0  0  0  0  0  0  0  0  0  0  0
  -18.1236   -8.1045    7.7478 C   0  0  0  0  0  0  0  0  0  0  0  0
  -19.4773   -8.6501    7.4521 C   0  0  0  0  0  0  0  0  0  0  0  0
  -19.9549   -9.5501    8.4877 N   0  0  0  0  0  0  0  0  0  0  0  0
  -19.2390   -9.8232    9.1709 H   0  0  0  0  0  0  0  0  0  0  0  0
  -20.6995  -10.6612    7.9710 C   0  0  0  0  0  0  0  0  0  0  0  0
  -20.1347  -11.1893    6.6760 C   0  0  0  0  0  0  0  0  0  0  0  0
  -20.4394  -10.3206    5.4912 C   0  0  0  0  0  0  0  0  0  0  0  0
  -21.6834   -9.7328    5.5439 F   0  0  0  0  0  0  0  0  0  0  0  0
  -13.1918   -7.1384    6.2327 C   0  0  0  0  0  0  0  0  0  0  0  0
  -14.4314   -6.6158    5.6852 C   0  0  0  0  0  0  0  0  0  0  0  0
  -15.5678   -6.8883    6.4462 F   0  0  0  0  0  0  0  0  0  0  0  0
  -14.4155   -5.1579    5.8422 F   0  0  0  0  0  0  0  0  0  0  0  0
  -14.7881   -6.7537    4.2531 C   0  0  0  0  0  0  0  0  0  0  0  0
  -16.0171   -6.3828    3.8242 O   0  0  0  0  0  0  0  0  0  0  0  0
  -16.0531   -5.4424    3.5319 H   0  0  0  0  0  0  0  0  0  0  0  0
  1  2  1  0  0  0
  2  3  1  0  0  0
  3  4  1  0  0  0
  4  5  2  0  0  0
  5  6  1  0  0  0
  6  7  1  0  0  0
  7  8  2  0  0  0
  8  9  1  0  0  0
  9 10  2  0  0  0
 10 11  1  0  0  0
 11 12  2  0  0  0
  5 13  1  0  0  0
 13 16  1  0  0  0
 16 17  2  0  0  0
 17 18  1  0  0  0
 17 19  1  0  0  0
 19 20  2  0  0  0
 20 21  1  0  0  0
 21 24  1  0  0  0
 24 25  1  0  0  0
 25 26  1  0  0  0
 26 27  1  0  0  0
 27 29  1  0  0  0
 29 30  1  0  0  0
 30 31  1  0  0  0
 31 32  1  0  0  0
 21 22  2  0  0  0
 22 23  1  0  0  0
 13 14  1  0  0  0
 14 33  1  0  0  0
 33 34  1  0  0  0
 34 35  1  0  0  0
 34 36  1  0  0  0
 34 37  1  0  0  0
 37 38  1  0  0  0
 14  2  1  0  0  0
 12  4  1  0  0  0
 22 16  1  0  0  0
 12  7  1  0  0  0
  6 15  1  0  0  0
 27 28  1  0  0  0
 38 39  1  0  0  0
M  END
> <minimizedAffinity>
19.59819

> <CNNscore>
0.2926873863

> <CNNaffinity>
6.7350249290

> <CNN_VS>
1.9712568521

> <CNNaffinity_variance>
0.7216228843

$$$$
[H]OC([H])([H])C(F)(F)C([H])([H])N1[C@]([H])(c2c(F)c([H])nc(OC([H])([H])C([H])([H])N([H])C([H])([H])C([H])([H])C([H])([H])F)c2F)c2c(c3c([H])c([H])c([H])c([H])c3n2[H])C([H])([H])[C@@]1([H])C([H])([H])[H]


 39 42  0  0  0  0  0  0  0  0999 V2000
  -13.8182   -5.2491    8.5814 C   0  0  0  0  0  0  0  0  0  0  0  0
  -13.6625   -6.7431    8.4860 C   0  0  0  0  0  0  0  0  0  0  0  0
  -13.5290   -7.1552    9.9815 C   0  0  0  0  0  0  0  0  0  0  0  0
  -12.2092   -6.6457   10.3967 C   0  0  0  0  0  0  0  0  0  0  0  0
  -11.1858   -6.5564    9.4886 C   0  0  0  0  0  0  0  0  0  0  0  0
  -10.1311   -6.0589   10.1712 N   0  0  0  0  0  0  0  0  0  0  0  0
  -10.4348   -5.8319   11.4540 C   0  0  0  0  0  0  0  0  0  0  0  0
   -9.7389   -5.3439   12.5443 C   0  0  0  0  0  0  0  0  0  0  0  0
  -10.3512   -5.2265   13.7715 C   0  0  0  0  0  0  0  0  0  0  0  0
  -11.6886   -5.5958   13.9500 C   0  0  0  0  0  0  0  0  0  0  0  0
  -12.3555   -6.0779   12.8466 C   0  0  0  0  0  0  0  0  0  0  0  0
  -11.7551   -6.1999   11.6164 C   0  0  0  0  0  0  0  0  0  0  0  0
  -11.3039   -6.9532    8.0553 C   0  0  0  0  0  0  0  0  0  0  0  0
  -12.6521   -7.2630    7.6952 N   0  0  0  0  0  0  0  0  0  0  0  0
   -9.1926   -5.8704    9.7621 H   0  0  0  0  0  0  0  0  0  0  0  0
  -10.2417   -7.8476    7.6253 C   0  0  0  0  0  0  0  0  0  0  0  0
  -10.3265   -9.2186    7.7392 C   0  0  0  0  0  0  0  0  0  0  0  0
  -11.4233   -9.7466    8.2673 F   0  0  0  0  0  0  0  0  0  0  0  0
   -9.3109  -10.0612    7.3231 C   0  0  0  0  0  0  0  0  0  0  0  0
   -8.1977   -9.5304    6.7875 N   0  0  0  0  0  0  0  0  0  0  0  0
   -8.0326   -8.2058    6.6398 C   0  0  0  0  0  0  0  0  0  0  0  0
   -9.0593   -7.3772    7.0616 C   0  0  0  0  0  0  0  0  0  0  0  0
   -8.8543   -6.0438    6.8965 F   0  0  0  0  0  0  0  0  0  0  0  0
   -6.8788   -7.7215    6.0874 O   0  0  0  0  0  0  0  0  0  0  0  0
   -5.5812   -7.8318    6.5822 C   0  0  0  0  0  0  0  0  0  0  0  0
   -5.4070   -7.4572    8.0129 C   0  0  0  0  0  0  0  0  0  0  0  0
   -5.5511   -6.0292    8.2377 N   0  0  0  0  0  0  0  0  0  0  0  0
   -5.9434   -5.5152    7.4403 H   0  0  0  0  0  0  0  0  0  0  0  0
   -4.3715   -5.4209    8.7801 C   0  0  0  0  0  0  0  0  0  0  0  0
   -3.2883   -5.2280    7.7483 C   0  0  0  0  0  0  0  0  0  0  0  0
   -3.7400   -4.4578    6.5425 C   0  0  0  0  0  0  0  0  0  0  0  0
   -3.7123   -5.1912    5.3776 F   0  0  0  0  0  0  0  0  0  0  0  0
  -12.8257   -8.0389    6.5749 C   0  0  0  0  0  0  0  0  0  0  0  0
  -13.9774   -8.8433    6.2061 C   0  0  0  0  0  0  0  0  0  0  0  0
  -13.7220   -9.8277    5.2519 F   0  0  0  0  0  0  0  0  0  0  0  0
  -14.2959   -9.7213    7.3366 F   0  0  0  0  0  0  0  0  0  0  0  0
  -15.3027   -8.2469    5.9141 C   0  0  0  0  0  0  0  0  0  0  0  0
  -16.3466   -8.4819    6.7429 O   0  0  0  0  0  0  0  0  0  0  0  0
  -16.4282   -7.8076    7.4569 H   0  0  0  0  0  0  0  0  0  0  0  0
  1  2  1  0  0  0
  2  3  1  0  0  0
  3  4  1  0  0  0
  4  5  2  0  0  0
  5  6  1  0  0  0
  6  7  1  0  0  0
  7  8  2  0  0  0
  8  9  1  0  0  0
  9 10  2  0  0  0
 10 11  1  0  0  0
 11 12  2  0  0  0
  5 13  1  0  0  0
 13 16  1  0  0  0
 16 17  2  0  0  0
 17 18  1  0  0  0
 17 19  1  0  0  0
 19 20  2  0  0  0
 20 21  1  0  0  0
 21 24  1  0  0  0
 24 25  1  0  0  0
 25 26  1  0  0  0
 26 27  1  0  0  0
 27 29  1  0  0  0
 29 30  1  0  0  0
 30 31  1  0  0  0
 31 32  1  0  0  0
 21 22  2  0  0  0
 22 23  1  0  0  0
 13 14  1  0  0  0
 14 33  1  0  0  0
 33 34  1  0  0  0
 34 35  1  0  0  0
 34 36  1  0  0  0
 34 37  1  0  0  0
 37 38  1  0  0  0
 14  2  1  0  0  0
 12  4  1  0  0  0
 22 16  1  0  0  0
 12  7  1  0  0  0
  6 15  1  0  0  0
 27 28  1  0  0  0
 38 39  1  0  0  0
M  END
> <minimizedAffinity>
-0.18349

> <CNNscore>
0.2683375180

> <CNNaffinity>
7.1815352440

> <CNN_VS>
1.9270753860

> <CNNaffinity_variance>
0.0693163723

$$$$
[H]OC([H])([H])C(F)(F)C([H])([H])N1[C@]([H])(c2c(F)c([H])nc(OC([H])([H])C([H])([H])N([H])C([H])([H])C([H])([H])C([H])([H])F)c2F)c2c(c3c([H])c([H])c([H])c([H])c3n2[H])C([H])([H])[C@@]1([H])C([H])([H])[H]


 39 42  0  0  0  0  0  0  0  0999 V2000
   -9.4343   -5.9459    8.3492 C   0  0  0  0  0  0  0  0  0  0  0  0
  -10.8223   -5.6808    7.8310 C   0  0  0  0  0  0  0  0  0  0  0  0
  -11.4424   -4.8268    8.9757 C   0  0  0  0  0  0  0  0  0  0  0  0
  -11.6124   -5.7675   10.0981 C   0  0  0  0  0  0  0  0  0  0  0  0
  -11.8568   -7.0950    9.8568 C   0  0  0  0  0  0  0  0  0  0  0  0
  -11.9577   -7.6770   11.0720 N   0  0  0  0  0  0  0  0  0  0  0  0
  -11.7908   -6.7910   12.0601 C   0  0  0  0  0  0  0  0  0  0  0  0
  -11.7981   -6.8641   13.4407 C   0  0  0  0  0  0  0  0  0  0  0  0
  -11.5885   -5.7378   14.2036 C   0  0  0  0  0  0  0  0  0  0  0  0
  -11.3632   -4.4928   13.6070 C   0  0  0  0  0  0  0  0  0  0  0  0
  -11.3615   -4.4511   12.2312 C   0  0  0  0  0  0  0  0  0  0  0  0
  -11.5697   -5.5685   11.4588 C   0  0  0  0  0  0  0  0  0  0  0  0
  -11.9732   -7.6882    8.4929 C   0  0  0  0  0  0  0  0  0  0  0  0
  -11.6200   -6.7534    7.4708 N   0  0  0  0  0  0  0  0  0  0  0  0
  -12.1419   -8.6887   11.2340 H   0  0  0  0  0  0  0  0  0  0  0  0
  -13.1745   -8.4892    8.3237 C   0  0  0  0  0  0  0  0  0  0  0  0
  -13.1406   -9.8405    8.0546 C   0  0  0  0  0  0  0  0  0  0  0  0
  -11.9610  -10.4374    7.9412 F   0  0  0  0  0  0  0  0  0  0  0  0
  -14.2904  -10.5944    7.8991 C   0  0  0  0  0  0  0  0  0  0  0  0
  -15.4879   -9.9936    8.0132 N   0  0  0  0  0  0  0  0  0  0  0  0
  -15.6117   -8.6820    8.2738 C   0  0  0  0  0  0  0  0  0  0  0  0
  -14.4503   -7.9426    8.4264 C   0  0  0  0  0  0  0  0  0  0  0  0
  -14.6170   -6.6194    8.6880 F   0  0  0  0  0  0  0  0  0  0  0  0
  -16.8560   -8.1240    8.3798 O   0  0  0  0  0  0  0  0  0  0  0  0
  -17.3570   -7.0148    7.7021 C   0  0  0  0  0  0  0  0  0  0  0  0
  -17.5555   -7.1947    6.2372 C   0  0  0  0  0  0  0  0  0  0  0  0
  -17.5755   -8.5931    5.8441 N   0  0  0  0  0  0  0  0  0  0  0  0
  -17.1638   -9.2306    6.5356 H   0  0  0  0  0  0  0  0  0  0  0  0
  -17.0926   -8.8124    4.5120 C   0  0  0  0  0  0  0  0  0  0  0  0
  -16.5851   -7.5499    3.8611 C   0  0  0  0  0  0  0  0  0  0  0  0
  -17.6658   -6.7308    3.2190 C   0  0  0  0  0  0  0  0  0  0  0  0
  -18.6081   -7.4843    2.5555 F   0  0  0  0  0  0  0  0  0  0  0  0
  -12.0914   -7.0172    6.2077 C   0  0  0  0  0  0  0  0  0  0  0  0
  -13.3806   -6.6690    5.6365 C   0  0  0  0  0  0  0  0  0  0  0  0
  -14.2007   -7.7563    5.3371 F   0  0  0  0  0  0  0  0  0  0  0  0
  -14.1983   -6.0722    6.6974 F   0  0  0  0  0  0  0  0  0  0  0  0
  -13.5254   -5.6667    4.5541 C   0  0  0  0  0  0  0  0  0  0  0  0
  -14.6893   -4.9908    4.4106 O   0  0  0  0  0  0  0  0  0  0  0  0
  -14.7062   -4.1455    4.9168 H   0  0  0  0  0  0  0  0  0  0  0  0
  1  2  1  0  0  0
  2  3  1  0  0  0
  3  4  1  0  0  0
  4  5  2  0  0  0
  5  6  1  0  0  0
  6  7  1  0  0  0
  7  8  2  0  0  0
  8  9  1  0  0  0
  9 10  2  0  0  0
 10 11  1  0  0  0
 11 12  2  0  0  0
  5 13  1  0  0  0
 13 16  1  0  0  0
 16 17  2  0  0  0
 17 18  1  0  0  0
 17 19  1  0  0  0
 19 20  2  0  0  0
 20 21  1  0  0  0
 21 24  1  0  0  0
 24 25  1  0  0  0
 25 26  1  0  0  0
 26 27  1  0  0  0
 27 29  1  0  0  0
 29 30  1  0  0  0
 30 31  1  0  0  0
 31 32  1  0  0  0
 21 22  2  0  0  0
 22 23  1  0  0  0
 13 14  1  0  0  0
 14 33  1  0  0  0
 33 34  1  0  0  0
 34 35  1  0  0  0
 34 36  1  0  0  0
 34 37  1  0  0  0
 37 38  1  0  0  0
 14  2  1  0  0  0
 12  4  1  0  0  0
 22 16  1  0  0  0
 12  7  1  0  0  0
  6 15  1  0  0  0
 27 28  1  0  0  0
 38 39  1  0  0  0
M  END
> <minimizedAffinity>
12.35510

> <CNNscore>
0.2658676505

> <CNNaffinity>
7.1120796204

> <CNN_VS>
1.8908718824

> <CNNaffinity_variance>
0.4670127034

$$$$
[H]OC([H])([H])C(F)(F)C([H])([H])N1[C@]([H])(c2c(F)c([H])nc(OC([H])([H])C([H])([H])N([H])C([H])([H])C([H])([H])C([H])([H])F)c2F)c2c(c3c([H])c([H])c([H])c([H])c3n2[H])C([H])([H])[C@@]1([H])C([H])([H])[H]


 39 42  0  0  0  0  0  0  0  0999 V2000
   -6.9164   -9.5784    7.4708 C   0  0  0  0  0  0  0  0  0  0  0  0
   -6.9575   -8.1708    6.9395 C   0  0  0  0  0  0  0  0  0  0  0  0
   -5.9959   -8.2531    5.7178 C   0  0  0  0  0  0  0  0  0  0  0  0
   -4.6533   -8.4151    6.3050 C   0  0  0  0  0  0  0  0  0  0  0  0
   -4.3623   -7.8654    7.5270 C   0  0  0  0  0  0  0  0  0  0  0  0
   -3.0751   -8.1903    7.7791 N   0  0  0  0  0  0  0  0  0  0  0  0
   -2.5434   -8.9112    6.7857 C   0  0  0  0  0  0  0  0  0  0  0  0
   -1.3038   -9.4775    6.5535 C   0  0  0  0  0  0  0  0  0  0  0  0
   -1.0606  -10.1826    5.3966 C   0  0  0  0  0  0  0  0  0  0  0  0
   -2.0559  -10.3456    4.4272 C   0  0  0  0  0  0  0  0  0  0  0  0
   -3.2795   -9.7709    4.6862 C   0  0  0  0  0  0  0  0  0  0  0  0
   -3.5343   -9.0646    5.8373 C   0  0  0  0  0  0  0  0  0  0  0  0
   -5.3342   -7.0808    8.3427 C   0  0  0  0  0  0  0  0  0  0  0  0
   -6.6524   -7.1232    7.7915 N   0  0  0  0  0  0  0  0  0  0  0  0
   -2.5498   -7.9199    8.6363 H   0  0  0  0  0  0  0  0  0  0  0  0
   -4.8015   -5.8024    8.7846 C   0  0  0  0  0  0  0  0  0  0  0  0
   -4.8436   -5.3886   10.0986 C   0  0  0  0  0  0  0  0  0  0  0  0
   -5.3973   -6.1892   11.0004 F   0  0  0  0  0  0  0  0  0  0  0  0
   -4.3300   -4.1712   10.5092 C   0  0  0  0  0  0  0  0  0  0  0  0
   -3.7681   -3.3568    9.5988 N   0  0  0  0  0  0  0  0  0  0  0  0
   -3.6856   -3.6816    8.2982 C   0  0  0  0  0  0  0  0  0  0  0  0
   -4.2048   -4.9041    7.9048 C   0  0  0  0  0  0  0  0  0  0  0  0
   -4.1033   -5.1958    6.5813 F   0  0  0  0  0  0  0  0  0  0  0  0
   -3.1024   -2.8140    7.4161 O   0  0  0  0  0  0  0  0  0  0  0  0
   -2.9452   -1.4361    7.5484 C   0  0  0  0  0  0  0  0  0  0  0  0
   -2.4483   -0.7286    6.3359 C   0  0  0  0  0  0  0  0  0  0  0  0
   -2.8155   -1.4062    5.1043 N   0  0  0  0  0  0  0  0  0  0  0  0
   -3.1834   -2.3550    5.2396 H   0  0  0  0  0  0  0  0  0  0  0  0
   -1.8016   -1.3295    4.0935 C   0  0  0  0  0  0  0  0  0  0  0  0
   -1.4832   -2.6722    3.4845 C   0  0  0  0  0  0  0  0  0  0  0  0
   -1.7967   -3.8288    4.3873 C   0  0  0  0  0  0  0  0  0  0  0  0
   -2.8334   -4.6147    3.9366 F   0  0  0  0  0  0  0  0  0  0  0  0
   -7.5116   -6.1228    8.1764 C   0  0  0  0  0  0  0  0  0  0  0  0
   -8.9470   -6.0397    7.9711 C   0  0  0  0  0  0  0  0  0  0  0  0
   -9.5013   -4.7837    8.2157 F   0  0  0  0  0  0  0  0  0  0  0  0
   -9.2016   -6.1068    6.5285 F   0  0  0  0  0  0  0  0  0  0  0  0
   -9.8838   -7.0679    8.4835 C   0  0  0  0  0  0  0  0  0  0  0  0
  -10.7024   -7.7227    7.6273 O   0  0  0  0  0  0  0  0  0  0  0  0
  -10.3045   -8.5534    7.2767 H   0  0  0  0  0  0  0  0  0  0  0  0
  1  2  1  0  0  0
  2  3  1  0  0  0
  3  4  1  0  0  0
  4  5  2  0  0  0
  5  6  1  0  0  0
  6  7  1  0  0  0
  7  8  2  0  0  0
  8  9  1  0  0  0
  9 10  2  0  0  0
 10 11  1  0  0  0
 11 12  2  0  0  0
  5 13  1  0  0  0
 13 16  1  0  0  0
 16 17  2  0  0  0
 17 18  1  0  0  0
 17 19  1  0  0  0
 19 20  2  0  0  0
 20 21  1  0  0  0
 21 24  1  0  0  0
 24 25  1  0  0  0
 25 26  1  0  0  0
 26 27  1  0  0  0
 27 29  1  0  0  0
 29 30  1  0  0  0
 30 31  1  0  0  0
 31 32  1  0  0  0
 21 22  2  0  0  0
 22 23  1  0  0  0
 13 14  1  0  0  0
 14 33  1  0  0  0
 33 34  1  0  0  0
 34 35  1  0  0  0
 34 36  1  0  0  0
 34 37  1  0  0  0
 37 38  1  0  0  0
 14  2  1  0  0  0
 12  4  1  0  0  0
 22 16  1  0  0  0
 12  7  1  0  0  0
  6 15  1  0  0  0
 27 28  1  0  0  0
 38 39  1  0  0  0
M  END
> <minimizedAffinity>
-1.01280

> <CNNscore>
0.2655660510

> <CNNaffinity>
6.2548894882

> <CNN_VS>
1.6610863209

> <CNNaffinity_variance>
0.6393569708

$$$$
[H]OC([H])([H])C(F)(F)C([H])([H])N1[C@]([H])(c2c(F)c([H])nc(OC([H])([H])C([H])([H])N([H])C([H])([H])C([H])([H])C([H])([H])F)c2F)c2c(c3c([H])c([H])c([H])c([H])c3n2[H])C([H])([H])[C@@]1([H])C([H])([H])[H]


 39 42  0  0  0  0  0  0  0  0999 V2000
  -12.2646   -8.3606    6.6389 C   0  0  0  0  0  0  0  0  0  0  0  0
  -11.1315   -9.0197    7.3785 C   0  0  0  0  0  0  0  0  0  0  0  0
  -11.5009   -8.7370    8.8643 C   0  0  0  0  0  0  0  0  0  0  0  0
  -11.2943   -7.2871    9.0348 C   0  0  0  0  0  0  0  0  0  0  0  0
  -10.3369   -6.6344    8.3018 C   0  0  0  0  0  0  0  0  0  0  0  0
  -10.4012   -5.3397    8.6832 N   0  0  0  0  0  0  0  0  0  0  0  0
  -11.3430   -5.1441    9.6126 C   0  0  0  0  0  0  0  0  0  0  0  0
  -11.8007   -4.0442   10.3141 C   0  0  0  0  0  0  0  0  0  0  0  0
  -12.8172   -4.1721   11.2333 C   0  0  0  0  0  0  0  0  0  0  0  0
  -13.4136   -5.4126   11.4830 C   0  0  0  0  0  0  0  0  0  0  0  0
  -12.9372   -6.4891   10.7697 C   0  0  0  0  0  0  0  0  0  0  0  0
  -11.9229   -6.3740    9.8495 C   0  0  0  0  0  0  0  0  0  0  0  0
   -9.4478   -7.3014    7.3066 C   0  0  0  0  0  0  0  0  0  0  0  0
   -9.8306   -8.6585    7.0721 N   0  0  0  0  0  0  0  0  0  0  0  0
   -9.7986   -4.5780    8.3083 H   0  0  0  0  0  0  0  0  0  0  0  0
   -8.0410   -6.9963    7.5090 C   0  0  0  0  0  0  0  0  0  0  0  0
   -7.3970   -7.1994    8.7105 C   0  0  0  0  0  0  0  0  0  0  0  0
   -8.0906   -7.6916    9.7290 F   0  0  0  0  0  0  0  0  0  0  0  0
   -6.0563   -6.9090    8.8913 C   0  0  0  0  0  0  0  0  0  0  0  0
   -5.3496   -6.4100    7.8620 N   0  0  0  0  0  0  0  0  0  0  0  0
   -5.8984   -6.1813    6.6577 C   0  0  0  0  0  0  0  0  0  0  0  0
   -7.2416   -6.4778    6.4945 C   0  0  0  0  0  0  0  0  0  0  0  0
   -7.7602   -6.2315    5.2627 F   0  0  0  0  0  0  0  0  0  0  0  0
   -5.1310   -5.6728    5.6461 O   0  0  0  0  0  0  0  0  0  0  0  0
   -3.8308   -5.1788    5.7237 C   0  0  0  0  0  0  0  0  0  0  0  0
   -3.6850   -3.7171    5.4792 C   0  0  0  0  0  0  0  0  0  0  0  0
   -3.0274   -3.4250    4.2172 N   0  0  0  0  0  0  0  0  0  0  0  0
   -2.0264   -3.2139    4.3032 H   0  0  0  0  0  0  0  0  0  0  0  0
   -3.7409   -2.4744    3.4152 C   0  0  0  0  0  0  0  0  0  0  0  0
   -3.2600   -2.4404    1.9860 C   0  0  0  0  0  0  0  0  0  0  0  0
   -2.1988   -1.4096    1.7354 C   0  0  0  0  0  0  0  0  0  0  0  0
   -2.7005   -0.1726    1.3982 F   0  0  0  0  0  0  0  0  0  0  0  0
   -8.8703   -9.4844    6.5401 C   0  0  0  0  0  0  0  0  0  0  0  0
   -8.0407  -10.4596    7.2257 C   0  0  0  0  0  0  0  0  0  0  0  0
   -6.6714  -10.1996    7.1779 F   0  0  0  0  0  0  0  0  0  0  0  0
   -8.2391  -10.2870    8.6684 F   0  0  0  0  0  0  0  0  0  0  0  0
   -8.2410  -11.9204    7.0737 C   0  0  0  0  0  0  0  0  0  0  0  0
   -9.3941  -12.3928    6.5454 O   0  0  0  0  0  0  0  0  0  0  0  0
   -9.3501  -12.5036    5.5672 H   0  0  0  0  0  0  0  0  0  0  0  0
  1  2  1  0  0  0
  2  3  1  0  0  0
  3  4  1  0  0  0
  4  5  2  0  0  0
  5  6  1  0  0  0
  6  7  1  0  0  0
  7  8  2  0  0  0
  8  9  1  0  0  0
  9 10  2  0  0  0
 10 11  1  0  0  0
 11 12  2  0  0  0
  5 13  1  0  0  0
 13 16  1  0  0  0
 16 17  2  0  0  0
 17 18  1  0  0  0
 17 19  1  0  0  0
 19 20  2  0  0  0
 20 21  1  0  0  0
 21 24  1  0  0  0
 24 25  1  0  0  0
 25 26  1  0  0  0
 26 27  1  0  0  0
 27 29  1  0  0  0
 29 30  1  0  0  0
 30 31  1  0  0  0
 31 32  1  0  0  0
 21 22  2  0  0  0
 22 23  1  0  0  0
 13 14  1  0  0  0
 14 33  1  0  0  0
 33 34  1  0  0  0
 34 35  1  0  0  0
 34 36  1  0  0  0
 34 37  1  0  0  0
 37 38  1  0  0  0
 14  2  1  0  0  0
 12  4  1  0  0  0
 22 16  1  0  0  0
 12  7  1  0  0  0
  6 15  1  0  0  0
 27 28  1  0  0  0
 38 39  1  0  0  0
M  END
> <minimizedAffinity>
1.36334

> <CNNscore>
0.2548805475

> <CNNaffinity>
6.5836663246

> <CNN_VS>
1.6780484915

> <CNNaffinity_variance>
0.2883643210

$$$$
[H]OC([H])([H])C(F)(F)C([H])([H])N1[C@]([H])(c2c(F)c([H])nc(OC([H])([H])C([H])([H])N([H])C([H])([H])C([H])([H])C([H])([H])F)c2F)c2c(c3c([H])c([H])c([H])c([H])c3n2[H])C([H])([H])[C@@]1([H])C([H])([H])[H]


 39 42  0  0  0  0  0  0  0  0999 V2000
   -1.9553   -9.1901    9.1291 C   0  0  0  0  0  0  0  0  0  0  0  0
   -1.9055   -8.5427    7.7713 C   0  0  0  0  0  0  0  0  0  0  0  0
   -1.2814   -7.1530    8.0931 C   0  0  0  0  0  0  0  0  0  0  0  0
   -2.3304   -6.4318    8.8368 C   0  0  0  0  0  0  0  0  0  0  0  0
   -3.6544   -6.6844    8.5849 C   0  0  0  0  0  0  0  0  0  0  0  0
   -4.3475   -5.8778    9.4184 N   0  0  0  0  0  0  0  0  0  0  0  0
   -3.5344   -5.1347   10.1773 C   0  0  0  0  0  0  0  0  0  0  0  0
   -3.7262   -4.1804   11.1590 C   0  0  0  0  0  0  0  0  0  0  0  0
   -2.6505   -3.5781   11.7712 C   0  0  0  0  0  0  0  0  0  0  0  0
   -1.3386   -3.9127   11.4194 C   0  0  0  0  0  0  0  0  0  0  0  0
   -1.1789   -4.8658   10.4393 C   0  0  0  0  0  0  0  0  0  0  0  0
   -2.2449   -5.4740    9.8207 C   0  0  0  0  0  0  0  0  0  0  0  0
   -4.1392   -7.6687    7.5741 C   0  0  0  0  0  0  0  0  0  0  0  0
   -3.0711   -8.4476    7.0304 N   0  0  0  0  0  0  0  0  0  0  0  0
   -5.3860   -5.8304    9.4739 H   0  0  0  0  0  0  0  0  0  0  0  0
   -5.1292   -7.1099    6.6681 C   0  0  0  0  0  0  0  0  0  0  0  0
   -6.3471   -7.7092    6.4291 C   0  0  0  0  0  0  0  0  0  0  0  0
   -6.6286   -8.8479    7.0495 F   0  0  0  0  0  0  0  0  0  0  0  0
   -7.2840   -7.1667    5.5675 C   0  0  0  0  0  0  0  0  0  0  0  0
   -7.0029   -6.0130    4.9366 N   0  0  0  0  0  0  0  0  0  0  0  0
   -5.8407   -5.3631    5.1117 C   0  0  0  0  0  0  0  0  0  0  0  0
   -4.9145   -5.9205    5.9778 C   0  0  0  0  0  0  0  0  0  0  0  0
   -3.7510   -5.2342    6.1275 F   0  0  0  0  0  0  0  0  0  0  0  0
   -5.6089   -4.1921    4.4440 O   0  0  0  0  0  0  0  0  0  0  0  0
   -4.3805   -3.6154    4.1289 C   0  0  0  0  0  0  0  0  0  0  0  0
   -3.3114   -4.5680    3.7203 C   0  0  0  0  0  0  0  0  0  0  0  0
   -1.9865   -3.9735    3.7665 N   0  0  0  0  0  0  0  0  0  0  0  0
   -1.4159   -4.2788    4.5634 H   0  0  0  0  0  0  0  0  0  0  0  0
   -1.9994   -2.5507    3.5896 C   0  0  0  0  0  0  0  0  0  0  0  0
   -1.9293   -1.8005    4.8962 C   0  0  0  0  0  0  0  0  0  0  0  0
   -2.2612   -2.6456    6.0907 C   0  0  0  0  0  0  0  0  0  0  0  0
   -1.3301   -3.6267    6.3478 F   0  0  0  0  0  0  0  0  0  0  0  0
   -3.3070   -9.0536    5.8203 C   0  0  0  0  0  0  0  0  0  0  0  0
   -2.3781   -9.8013    4.9911 C   0  0  0  0  0  0  0  0  0  0  0  0
   -2.5595   -9.6400    3.6179 F   0  0  0  0  0  0  0  0  0  0  0  0
   -1.0599   -9.1692    5.1066 F   0  0  0  0  0  0  0  0  0  0  0  0
   -2.0469  -11.2224    5.2516 C   0  0  0  0  0  0  0  0  0  0  0  0
   -1.0670  -11.5376    6.1304 O   0  0  0  0  0  0  0  0  0  0  0  0
   -1.4014  -11.6594    7.0494 H   0  0  0  0  0  0  0  0  0  0  0  0
  1  2  1  0  0  0
  2  3  1  0  0  0
  3  4  1  0  0  0
  4  5  2  0  0  0
  5  6  1  0  0  0
  6  7  1  0  0  0
  7  8  2  0  0  0
  8  9  1  0  0  0
  9 10  2  0  0  0
 10 11  1  0  0  0
 11 12  2  0  0  0
  5 13  1  0  0  0
 13 16  1  0  0  0
 16 17  2  0  0  0
 17 18  1  0  0  0
 17 19  1  0  0  0
 19 20  2  0  0  0
 20 21  1  0  0  0
 21 24  1  0  0  0
 24 25  1  0  0  0
 25 26  1  0  0  0
 26 27  1  0  0  0
 27 29  1  0  0  0
 29 30  1  0  0  0
 30 31  1  0  0  0
 31 32  1  0  0  0
 21 22  2  0  0  0
 22 23  1  0  0  0
 13 14  1  0  0  0
 14 33  1  0  0  0
 33 34  1  0  0  0
 34 35  1  0  0  0
 34 36  1  0  0  0
 34 37  1  0  0  0
 37 38  1  0  0  0
 14  2  1  0  0  0
 12  4  1  0  0  0
 22 16  1  0  0  0
 12  7  1  0  0  0
  6 15  1  0  0  0
 27 28  1  0  0  0
 38 39  1  0  0  0
M  END
> <minimizedAffinity>
0.67803

> <CNNscore>
0.2450813651

> <CNNaffinity>
5.8277354240

> <CNN_VS>
1.4282693863

> <CNNaffinity_variance>
0.5407961607

$$$$
[H]c1c([H])c(C([H])(C(=O)N([H])C([H])([H])c2c([H])c([H])c(C(F)(F)F)c([H])c2C2([H])C([H])([H])C([H])([H])C([H])([H])C([H])([H])C2([H])[H])C([H])([H])[H])c([H])c(F)c1N([H])S(=O)(=O)C([H])([H])[H]


 36 38  0  0  0  0  0  0  0  0999 V2000
  -12.9117   -8.6337    8.2982 C   0  0  0  0  0  0  0  0  0  0  0  0
  -12.7059   -9.1269    9.2536 O   0  0  0  0  0  0  0  0  0  0  0  0
  -13.4716   -8.6264    7.0150 N   0  0  0  0  0  0  0  0  0  0  0  0
  -14.0287   -9.8924    7.2520 H   0  0  0  0  0  0  0  0  0  0  0  0
  -11.0499   -7.5274    7.4771 C   0  0  0  0  0  0  0  0  0  0  0  0
  -12.4066   -7.0640    8.0580 C   0  0  0  0  0  0  0  0  0  0  0  0
  -12.2076   -6.4385    9.3160 C   0  0  0  0  0  0  0  0  0  0  0  0
  -13.1880   -5.9070   10.0521 C   0  0  0  0  0  0  0  0  0  0  0  0
  -13.0373   -5.4351   11.2849 C   0  0  0  0  0  0  0  0  0  0  0  0
  -11.7088   -5.4669   11.8760 C   0  0  0  0  0  0  0  0  0  0  0  0
  -10.7470   -5.9719   11.1472 C   0  0  0  0  0  0  0  0  0  0  0  0
   -9.4497   -5.8867   11.6739 F   0  0  0  0  0  0  0  0  0  0  0  0
  -10.8728   -6.4945    9.8777 C   0  0  0  0  0  0  0  0  0  0  0  0
  -11.8189   -5.1874   13.2518 N   0  0  0  0  0  0  0  0  0  0  0  0
  -12.8242   -5.5706   13.6226 H   0  0  0  0  0  0  0  0  0  0  0  0
  -10.8254   -4.5654   14.4082 S   0  0  0  0  0  0  0  0  0  0  0  0
  -10.5648   -2.8074   14.1516 C   0  0  0  0  0  0  0  0  0  0  0  0
   -9.5927   -5.3636   14.5712 O   0  0  0  0  0  0  0  0  0  0  0  0
  -11.6232   -4.6207   15.7522 O   0  0  0  0  0  0  0  0  0  0  0  0
  -13.9740   -8.6273    5.8704 C   0  0  0  0  0  0  0  0  0  0  0  0
  -14.4136   -7.5250    4.9771 C   0  0  0  0  0  0  0  0  0  0  0  0
  -13.6425   -6.6329    4.2787 C   0  0  0  0  0  0  0  0  0  0  0  0
  -14.1503   -5.3608    3.8664 C   0  0  0  0  0  0  0  0  0  0  0  0
  -15.3987   -5.0869    4.1901 C   0  0  0  0  0  0  0  0  0  0  0  0
  -16.1988   -5.9666    4.9071 C   0  0  0  0  0  0  0  0  0  0  0  0
  -15.7441   -7.1426    5.2880 C   0  0  0  0  0  0  0  0  0  0  0  0
  -16.4946   -8.3057    5.8652 C   0  0  0  0  0  0  0  0  0  0  0  0
  -17.0369   -9.1870    4.7185 C   0  0  0  0  0  0  0  0  0  0  0  0
  -18.0519   -8.5951    3.8528 C   0  0  0  0  0  0  0  0  0  0  0  0
  -19.2181   -8.0573    4.6471 C   0  0  0  0  0  0  0  0  0  0  0  0
  -19.0229   -8.2850    6.1248 C   0  0  0  0  0  0  0  0  0  0  0  0
  -17.6994   -7.8611    6.6718 C   0  0  0  0  0  0  0  0  0  0  0  0
  -15.9268   -3.6363    4.0895 C   0  0  0  0  0  0  0  0  0  0  0  0
  -15.0495   -2.7001    3.9878 F   0  0  0  0  0  0  0  0  0  0  0  0
  -16.8231   -3.4817    5.1233 F   0  0  0  0  0  0  0  0  0  0  0  0
  -16.7572   -3.6447    2.9255 F   0  0  0  0  0  0  0  0  0  0  0  0
  5  6  1  0  0  0
  6  1  1  0  0  0
  1  2  2  0  0  0
  1  3  1  0  0  0
  3 20  1  0  0  0
 20 21  1  0  0  0
 21 22  2  0  0  0
 22 23  1  0  0  0
 23 24  2  0  0  0
 24 33  1  0  0  0
 33 34  1  0  0  0
 33 35  1  0  0  0
 33 36  1  0  0  0
 24 25  1  0  0  0
 25 26  2  0  0  0
 26 27  1  0  0  0
 27 28  1  0  0  0
 28 29  1  0  0  0
 29 30  1  0  0  0
 30 31  1  0  0  0
 31 32  1  0  0  0
  6  7  1  0  0  0
  7  8  2  0  0  0
  8  9  1  0  0  0
  9 10  2  0  0  0
 10 14  1  0  0  0
 14 16  1  0  0  0
 16 17  1  0  0  0
 16 18  2  0  0  0
 16 19  2  0  0  0
 10 11  1  0  0  0
 11 12  1  0  0  0
 11 13  2  0  0  0
 26 21  1  0  0  0
 32 27  1  0  0  0
 13  7  1  0  0  0
  3  4  1  0  0  0
 14 15  1  0  0  0
M  END
> <minimizedAffinity>
4.58427

> <CNNscore>
0.4532344639

> <CNNaffinity>
7.0662446022

> <CNN_VS>
3.2026655674

> <CNNaffinity_variance>
0.6423319578

$$$$
[H]c1c([H])c(C([H])(C(=O)N([H])C([H])([H])c2c([H])c([H])c(C(F)(F)F)c([H])c2C2([H])C([H])([H])C([H])([H])C([H])([H])C([H])([H])C2([H])[H])C([H])([H])[H])c([H])c(F)c1N([H])S(=O)(=O)C([H])([H])[H]


 36 38  0  0  0  0  0  0  0  0999 V2000
  -13.7035   -8.8925    5.8077 C   0  0  0  0  0  0  0  0  0  0  0  0
  -12.7573   -9.2772    6.2014 O   0  0  0  0  0  0  0  0  0  0  0  0
  -14.7851   -8.9641    4.9215 N   0  0  0  0  0  0  0  0  0  0  0  0
  -14.2882  -10.1745    4.4144 H   0  0  0  0  0  0  0  0  0  0  0  0
  -14.0130   -6.6513    5.3122 C   0  0  0  0  0  0  0  0  0  0  0  0
  -14.4009   -7.5514    6.5089 C   0  0  0  0  0  0  0  0  0  0  0  0
  -13.6536   -7.1812    7.6569 C   0  0  0  0  0  0  0  0  0  0  0  0
  -14.1837   -6.6187    8.7468 C   0  0  0  0  0  0  0  0  0  0  0  0
  -13.5224   -6.3856    9.8754 C   0  0  0  0  0  0  0  0  0  0  0  0
  -12.1120   -6.7368    9.9312 C   0  0  0  0  0  0  0  0  0  0  0  0
  -11.5907   -7.2716    8.8572 C   0  0  0  0  0  0  0  0  0  0  0  0
  -10.2057   -7.4934    8.8756 F   0  0  0  0  0  0  0  0  0  0  0  0
  -12.2528   -7.5522    7.6810 C   0  0  0  0  0  0  0  0  0  0  0  0
  -11.6818   -6.6700   11.2705 N   0  0  0  0  0  0  0  0  0  0  0  0
  -11.6376   -7.7259   11.6925 H   0  0  0  0  0  0  0  0  0  0  0  0
  -11.1476   -5.4802   12.2755 S   0  0  0  0  0  0  0  0  0  0  0  0
  -11.7921   -3.8808   11.7752 C   0  0  0  0  0  0  0  0  0  0  0  0
   -9.6838   -5.5319   12.4708 O   0  0  0  0  0  0  0  0  0  0  0  0
  -11.8329   -5.7301   13.6590 O   0  0  0  0  0  0  0  0  0  0  0  0
  -15.7476   -9.0344    4.1270 C   0  0  0  0  0  0  0  0  0  0  0  0
  -16.8091   -8.0612    3.7633 C   0  0  0  0  0  0  0  0  0  0  0  0
  -16.8496   -7.2005    2.6976 C   0  0  0  0  0  0  0  0  0  0  0  0
  -17.6464   -6.0128    2.7194 C   0  0  0  0  0  0  0  0  0  0  0  0
  -18.3425   -5.7852    3.8158 C   0  0  0  0  0  0  0  0  0  0  0  0
  -18.3112   -6.6334    4.9146 C   0  0  0  0  0  0  0  0  0  0  0  0
  -17.5853   -7.7325    4.9046 C   0  0  0  0  0  0  0  0  0  0  0  0
  -17.5822   -8.8735    5.8778 C   0  0  0  0  0  0  0  0  0  0  0  0
  -18.6279   -9.9232    5.4418 C   0  0  0  0  0  0  0  0  0  0  0  0
  -20.0293   -9.5177    5.4835 C   0  0  0  0  0  0  0  0  0  0  0  0
  -20.4147   -8.9813    6.8414 C   0  0  0  0  0  0  0  0  0  0  0  0
  -19.2462   -9.0170    7.7937 C   0  0  0  0  0  0  0  0  0  0  0  0
  -17.9746   -8.4307    7.2742 C   0  0  0  0  0  0  0  0  0  0  0  0
  -18.9588   -4.3890    4.0686 C   0  0  0  0  0  0  0  0  0  0  0  0
  -18.8736   -3.5303    3.1138 F   0  0  0  0  0  0  0  0  0  0  0  0
  -18.4591   -3.9625    5.2788 F   0  0  0  0  0  0  0  0  0  0  0  0
  -20.3344   -4.6582    4.3511 F   0  0  0  0  0  0  0  0  0  0  0  0
  5  6  1  0  0  0
  6  1  1  0  0  0
  1  2  2  0  0  0
  1  3  1  0  0  0
  3 20  1  0  0  0
 20 21  1  0  0  0
 21 22  2  0  0  0
 22 23  1  0  0  0
 23 24  2  0  0  0
 24 33  1  0  0  0
 33 34  1  0  0  0
 33 35  1  0  0  0
 33 36  1  0  0  0
 24 25  1  0  0  0
 25 26  2  0  0  0
 26 27  1  0  0  0
 27 28  1  0  0  0
 28 29  1  0  0  0
 29 30  1  0  0  0
 30 31  1  0  0  0
 31 32  1  0  0  0
  6  7  1  0  0  0
  7  8  2  0  0  0
  8  9  1  0  0  0
  9 10  2  0  0  0
 10 14  1  0  0  0
 14 16  1  0  0  0
 16 17  1  0  0  0
 16 18  2  0  0  0
 16 19  2  0  0  0
 10 11  1  0  0  0
 11 12  1  0  0  0
 11 13  2  0  0  0
 26 21  1  0  0  0
 32 27  1  0  0  0
 13  7  1  0  0  0
  3  4  1  0  0  0
 14 15  1  0  0  0
M  END
> <minimizedAffinity>
7.32296

> <CNNscore>
0.4260671437

> <CNNaffinity>
7.0756273270

> <CNN_VS>
3.0146923065

> <CNNaffinity_variance>
1.2931605577

$$$$
[H]c1c([H])c(C([H])(C(=O)N([H])C([H])([H])c2c([H])c([H])c(C(F)(F)F)c([H])c2C2([H])C([H])([H])C([H])([H])C([H])([H])C([H])([H])C2([H])[H])C([H])([H])[H])c([H])c(F)c1N([H])S(=O)(=O)C([H])([H])[H]


 36 38  0  0  0  0  0  0  0  0999 V2000
  -10.8742   -7.3262    6.5614 C   0  0  0  0  0  0  0  0  0  0  0  0
  -10.2262   -8.1496    6.2444 O   0  0  0  0  0  0  0  0  0  0  0  0
  -11.9066   -6.4121    6.3190 N   0  0  0  0  0  0  0  0  0  0  0  0
  -12.1308   -6.9994    5.0645 H   0  0  0  0  0  0  0  0  0  0  0  0
   -9.2386   -7.0846    8.1834 C   0  0  0  0  0  0  0  0  0  0  0  0
  -10.7415   -6.7254    8.1100 C   0  0  0  0  0  0  0  0  0  0  0  0
  -11.4813   -7.5495    8.9970 C   0  0  0  0  0  0  0  0  0  0  0  0
  -11.9232   -7.1542   10.1944 C   0  0  0  0  0  0  0  0  0  0  0  0
  -12.7242   -7.8677   10.9784 C   0  0  0  0  0  0  0  0  0  0  0  0
  -13.1330   -9.1879   10.5249 C   0  0  0  0  0  0  0  0  0  0  0  0
  -12.6853   -9.5801    9.3600 C   0  0  0  0  0  0  0  0  0  0  0  0
  -12.9819  -10.8989    8.9854 F   0  0  0  0  0  0  0  0  0  0  0  0
  -11.8768   -8.8560    8.5099 C   0  0  0  0  0  0  0  0  0  0  0  0
  -14.1767   -9.6470   11.3513 N   0  0  0  0  0  0  0  0  0  0  0  0
  -14.4217  -10.7213   11.0666 H   0  0  0  0  0  0  0  0  0  0  0  0
  -15.0019   -9.0489   12.6445 S   0  0  0  0  0  0  0  0  0  0  0  0
  -15.7942   -7.4906   12.2346 C   0  0  0  0  0  0  0  0  0  0  0  0
  -14.1769   -9.0283   13.8702 O   0  0  0  0  0  0  0  0  0  0  0  0
  -16.2074  -10.0159   12.8846 O   0  0  0  0  0  0  0  0  0  0  0  0
  -12.8291   -5.5989    6.0953 C   0  0  0  0  0  0  0  0  0  0  0  0
  -14.0106   -5.6586    5.1971 C   0  0  0  0  0  0  0  0  0  0  0  0
  -14.3093   -4.8592    4.1247 C   0  0  0  0  0  0  0  0  0  0  0  0
  -15.6520   -4.6939    3.6602 C   0  0  0  0  0  0  0  0  0  0  0  0
  -16.5909   -5.3495    4.3136 C   0  0  0  0  0  0  0  0  0  0  0  0
  -16.3187   -6.1565    5.4102 C   0  0  0  0  0  0  0  0  0  0  0  0
  -15.0859   -6.3205    5.8442 C   0  0  0  0  0  0  0  0  0  0  0  0
  -14.5594   -7.2995    6.8509 C   0  0  0  0  0  0  0  0  0  0  0  0
  -15.0577   -8.7180    6.4969 C   0  0  0  0  0  0  0  0  0  0  0  0
  -16.4943   -8.9572    6.5920 C   0  0  0  0  0  0  0  0  0  0  0  0
  -17.0348   -8.5757    7.9494 C   0  0  0  0  0  0  0  0  0  0  0  0
  -15.9397   -8.0565    8.8463 C   0  0  0  0  0  0  0  0  0  0  0  0
  -15.0644   -7.0035    8.2499 C   0  0  0  0  0  0  0  0  0  0  0  0
  -18.0799   -4.9829    4.1090 C   0  0  0  0  0  0  0  0  0  0  0  0
  -18.3486   -4.1139    3.1985 F   0  0  0  0  0  0  0  0  0  0  0  0
  -18.5774   -4.6868    5.3584 F   0  0  0  0  0  0  0  0  0  0  0  0
  -18.7067   -6.2267    3.7857 F   0  0  0  0  0  0  0  0  0  0  0  0
  5  6  1  0  0  0
  6  1  1  0  0  0
  1  2  2  0  0  0
  1  3  1  0  0  0
  3 20  1  0  0  0
 20 21  1  0  0  0
 21 22  2  0  0  0
 22 23  1  0  0  0
 23 24  2  0  0  0
 24 33  1  0  0  0
 33 34  1  0  0  0
 33 35  1  0  0  0
 33 36  1  0  0  0
 24 25  1  0  0  0
 25 26  2  0  0  0
 26 27  1  0  0  0
 27 28  1  0  0  0
 28 29  1  0  0  0
 29 30  1  0  0  0
 30 31  1  0  0  0
 31 32  1  0  0  0
  6  7  1  0  0  0
  7  8  2  0  0  0
  8  9  1  0  0  0
  9 10  2  0  0  0
 10 14  1  0  0  0
 14 16  1  0  0  0
 16 17  1  0  0  0
 16 18  2  0  0  0
 16 19  2  0  0  0
 10 11  1  0  0  0
 11 12  1  0  0  0
 11 13  2  0  0  0
 26 21  1  0  0  0
 32 27  1  0  0  0
 13  7  1  0  0  0
  3  4  1  0  0  0
 14 15  1  0  0  0
M  END
> <minimizedAffinity>
17.69702

> <CNNscore>
0.4062808454

> <CNNaffinity>
6.9846138954

> <CNN_VS>
2.8377149105

> <CNNaffinity_variance>
1.7303158045

$$$$
[H]c1c([H])c(C([H])(C(=O)N([H])C([H])([H])c2c([H])c([H])c(C(F)(F)F)c([H])c2C2([H])C([H])([H])C([H])([H])C([H])([H])C([H])([H])C2([H])[H])C([H])([H])[H])c([H])c(F)c1N([H])S(=O)(=O)C([H])([H])[H]


 36 38  0  0  0  0  0  0  0  0999 V2000
  -10.1129  -10.9586    6.5451 C   0  0  0  0  0  0  0  0  0  0  0  0
   -9.6870  -11.9638    6.6257 O   0  0  0  0  0  0  0  0  0  0  0  0
  -11.2093  -10.0893    6.4960 N   0  0  0  0  0  0  0  0  0  0  0  0
  -12.0756  -11.1708    6.7169 H   0  0  0  0  0  0  0  0  0  0  0  0
   -7.9636  -10.3892    7.1936 C   0  0  0  0  0  0  0  0  0  0  0  0
   -9.0973   -9.6407    6.4539 C   0  0  0  0  0  0  0  0  0  0  0  0
   -9.6064   -8.5997    7.2727 C   0  0  0  0  0  0  0  0  0  0  0  0
  -10.4080   -8.7967    8.3234 C   0  0  0  0  0  0  0  0  0  0  0  0
  -10.7871   -7.8489    9.1738 C   0  0  0  0  0  0  0  0  0  0  0  0
  -10.3268   -6.4894    8.9384 C   0  0  0  0  0  0  0  0  0  0  0  0
   -9.5561   -6.2955    7.8993 C   0  0  0  0  0  0  0  0  0  0  0  0
   -9.2177   -4.9656    7.6085 F   0  0  0  0  0  0  0  0  0  0  0  0
   -9.1217   -7.2586    7.0137 C   0  0  0  0  0  0  0  0  0  0  0  0
  -10.6033   -5.7138   10.0808 N   0  0  0  0  0  0  0  0  0  0  0  0
   -9.6276   -5.5146   10.6314 H   0  0  0  0  0  0  0  0  0  0  0  0
  -11.9352   -4.9737   10.7048 S   0  0  0  0  0  0  0  0  0  0  0  0
  -12.0349   -5.2236   12.4802 C   0  0  0  0  0  0  0  0  0  0  0  0
  -13.1627   -5.3120    9.9552 O   0  0  0  0  0  0  0  0  0  0  0  0
  -11.6897   -3.4351   10.5691 O   0  0  0  0  0  0  0  0  0  0  0  0
  -12.1929   -9.3192    6.4527 C   0  0  0  0  0  0  0  0  0  0  0  0
  -13.3967   -9.2927    5.5828 C   0  0  0  0  0  0  0  0  0  0  0  0
  -13.4739   -9.0325    4.2395 C   0  0  0  0  0  0  0  0  0  0  0  0
  -14.6809   -8.5634    3.6320 C   0  0  0  0  0  0  0  0  0  0  0  0
  -15.7185   -8.3936    4.4275 C   0  0  0  0  0  0  0  0  0  0  0  0
  -15.6655   -8.6379    5.7933 C   0  0  0  0  0  0  0  0  0  0  0  0
  -14.5613   -9.0747    6.3633 C   0  0  0  0  0  0  0  0  0  0  0  0
  -14.3578   -9.6002    7.7531 C   0  0  0  0  0  0  0  0  0  0  0  0
  -15.6931   -9.5361    8.5270 C   0  0  0  0  0  0  0  0  0  0  0  0
  -16.2355   -8.2092    8.8012 C   0  0  0  0  0  0  0  0  0  0  0  0
  -15.2266   -7.3268    9.4967 C   0  0  0  0  0  0  0  0  0  0  0  0
  -13.9293   -8.0594    9.7286 C   0  0  0  0  0  0  0  0  0  0  0  0
  -13.3660   -8.7633    8.5378 C   0  0  0  0  0  0  0  0  0  0  0  0
  -16.9456   -7.5865    3.9418 C   0  0  0  0  0  0  0  0  0  0  0  0
  -17.9769   -8.2589    3.5665 F   0  0  0  0  0  0  0  0  0  0  0  0
  -16.4705   -6.6869    3.0138 F   0  0  0  0  0  0  0  0  0  0  0  0
  -17.2897   -6.7636    5.0594 F   0  0  0  0  0  0  0  0  0  0  0  0
  5  6  1  0  0  0
  6  1  1  0  0  0
  1  2  2  0  0  0
  1  3  1  0  0  0
  3 20  1  0  0  0
 20 21  1  0  0  0
 21 22  2  0  0  0
 22 23  1  0  0  0
 23 24  2  0  0  0
 24 33  1  0  0  0
 33 34  1  0  0  0
 33 35  1  0  0  0
 33 36  1  0  0  0
 24 25  1  0  0  0
 25 26  2  0  0  0
 26 27  1  0  0  0
 27 28  1  0  0  0
 28 29  1  0  0  0
 29 30  1  0  0  0
 30 31  1  0  0  0
 31 32  1  0  0  0
  6  7  1  0  0  0
  7  8  2  0  0  0
  8  9  1  0  0  0
  9 10  2  0  0  0
 10 14  1  0  0  0
 14 16  1  0  0  0
 16 17  1  0  0  0
 16 18  2  0  0  0
 16 19  2  0  0  0
 10 11  1  0  0  0
 11 12  1  0  0  0
 11 13  2  0  0  0
 26 21  1  0  0  0
 32 27  1  0  0  0
 13  7  1  0  0  0
  3  4  1  0  0  0
 14 15  1  0  0  0
M  END
> <minimizedAffinity>
-0.61385

> <CNNscore>
0.2513834834

> <CNNaffinity>
6.8571424484

> <CNN_VS>
1.7237724066

> <CNNaffinity_variance>
0.1908086687

$$$$
[H]c1c([H])c(C([H])(C(=O)N([H])C([H])([H])c2c([H])c([H])c(C(F)(F)F)c([H])c2C2([H])C([H])([H])C([H])([H])C([H])([H])C([H])([H])C2([H])[H])C([H])([H])[H])c([H])c(F)c1N([H])S(=O)(=O)C([H])([H])[H]


 36 38  0  0  0  0  0  0  0  0999 V2000
   -8.8561   -8.2010    8.0356 C   0  0  0  0  0  0  0  0  0  0  0  0
   -8.3667   -7.4463    8.6595 O   0  0  0  0  0  0  0  0  0  0  0  0
   -9.9935   -8.9085    7.6284 N   0  0  0  0  0  0  0  0  0  0  0  0
  -10.7856   -8.1236    8.4801 H   0  0  0  0  0  0  0  0  0  0  0  0
   -7.4830  -10.0635    7.9365 C   0  0  0  0  0  0  0  0  0  0  0  0
   -7.9660   -9.0271    6.8946 C   0  0  0  0  0  0  0  0  0  0  0  0
   -6.8783   -8.2188    6.4740 C   0  0  0  0  0  0  0  0  0  0  0  0
   -7.0031   -7.1417    5.6933 C   0  0  0  0  0  0  0  0  0  0  0  0
   -6.0157   -6.3033    5.3976 C   0  0  0  0  0  0  0  0  0  0  0  0
   -4.6924   -6.5832    5.9325 C   0  0  0  0  0  0  0  0  0  0  0  0
   -4.5686   -7.6478    6.6826 C   0  0  0  0  0  0  0  0  0  0  0  0
   -3.2685   -7.9789    7.0924 F   0  0  0  0  0  0  0  0  0  0  0  0
   -5.5754   -8.5225    7.0314 C   0  0  0  0  0  0  0  0  0  0  0  0
   -3.8768   -5.4519    5.7372 N   0  0  0  0  0  0  0  0  0  0  0  0
   -4.3639   -4.5587    6.2472 H   0  0  0  0  0  0  0  0  0  0  0  0
   -2.3986   -5.1696    5.0693 S   0  0  0  0  0  0  0  0  0  0  0  0
   -2.4869   -3.8557    3.8486 C   0  0  0  0  0  0  0  0  0  0  0  0
   -1.7511   -6.4136    4.6041 O   0  0  0  0  0  0  0  0  0  0  0  0
   -1.5130   -4.5531    6.2013 O   0  0  0  0  0  0  0  0  0  0  0  0
  -11.0132   -9.5364    7.2701 C   0  0  0  0  0  0  0  0  0  0  0  0
  -12.3773   -9.0847    6.8938 C   0  0  0  0  0  0  0  0  0  0  0  0
  -13.1199   -9.4338    5.7961 C   0  0  0  0  0  0  0  0  0  0  0  0
  -14.1667   -8.5957    5.2982 C   0  0  0  0  0  0  0  0  0  0  0  0
  -14.3845   -7.4692    5.9475 C   0  0  0  0  0  0  0  0  0  0  0  0
  -13.6401   -7.0848    7.0549 C   0  0  0  0  0  0  0  0  0  0  0  0
  -12.6771   -7.8502    7.5256 C   0  0  0  0  0  0  0  0  0  0  0  0
  -11.9162   -7.7301    8.8124 C   0  0  0  0  0  0  0  0  0  0  0  0
  -12.8163   -8.1784    9.9849 C   0  0  0  0  0  0  0  0  0  0  0  0
  -13.9888   -7.3574   10.2700 C   0  0  0  0  0  0  0  0  0  0  0  0
  -13.6195   -5.9065   10.4667 C   0  0  0  0  0  0  0  0  0  0  0  0
  -12.1332   -5.6976   10.3231 C   0  0  0  0  0  0  0  0  0  0  0  0
  -11.5140   -6.2971    9.1034 C   0  0  0  0  0  0  0  0  0  0  0  0
  -15.2476   -6.3572    5.3058 C   0  0  0  0  0  0  0  0  0  0  0  0
  -14.7880   -5.1562    5.3584 F   0  0  0  0  0  0  0  0  0  0  0  0
  -16.5173   -6.5153    5.8146 F   0  0  0  0  0  0  0  0  0  0  0  0
  -15.3818   -6.7606    3.9406 F   0  0  0  0  0  0  0  0  0  0  0  0
  5  6  1  0  0  0
  6  1  1  0  0  0
  1  2  2  0  0  0
  1  3  1  0  0  0
  3 20  1  0  0  0
 20 21  1  0  0  0
 21 22  2  0  0  0
 22 23  1  0  0  0
 23 24  2  0  0  0
 24 33  1  0  0  0
 33 34  1  0  0  0
 33 35  1  0  0  0
 33 36  1  0  0  0
 24 25  1  0  0  0
 25 26  2  0  0  0
 26 27  1  0  0  0
 27 28  1  0  0  0
 28 29  1  0  0  0
 29 30  1  0  0  0
 30 31  1  0  0  0
 31 32  1  0  0  0
  6  7  1  0  0  0
  7  8  2  0  0  0
  8  9  1  0  0  0
  9 10  2  0  0  0
 10 14  1  0  0  0
 14 16  1  0  0  0
 16 17  1  0  0  0
 16 18  2  0  0  0
 16 19  2  0  0  0
 10 11  1  0  0  0
 11 12  1  0  0  0
 11 13  2  0  0  0
 26 21  1  0  0  0
 32 27  1  0  0  0
 13  7  1  0  0  0
  3  4  1  0  0  0
 14 15  1  0  0  0
M  END
> <minimizedAffinity>
-10.24258

> <CNNscore>
0.2236609161

> <CNNaffinity>
6.9042921066

> <CNN_VS>
1.5442203283

> <CNNaffinity_variance>
0.2721275687

$$$$
[H]c1c([H])c(C([H])(C(=O)N([H])C([H])([H])c2c([H])c([H])c(C(F)(F)F)c([H])c2C2([H])C([H])([H])C([H])([H])C([H])([H])C([H])([H])C2([H])[H])C([H])([H])[H])c([H])c(F)c1N([H])S(=O)(=O)C([H])([H])[H]


 36 38  0  0  0  0  0  0  0  0999 V2000
  -14.0161   -8.4617    8.5144 C   0  0  0  0  0  0  0  0  0  0  0  0
  -14.5324   -9.2959    9.0000 O   0  0  0  0  0  0  0  0  0  0  0  0
  -13.8208   -7.6051    7.4243 N   0  0  0  0  0  0  0  0  0  0  0  0
  -14.9047   -8.2019    6.7624 H   0  0  0  0  0  0  0  0  0  0  0  0
  -13.4809   -6.2616    9.0020 C   0  0  0  0  0  0  0  0  0  0  0  0
  -12.8397   -7.6262    9.3479 C   0  0  0  0  0  0  0  0  0  0  0  0
  -11.5995   -7.7648    8.6725 C   0  0  0  0  0  0  0  0  0  0  0  0
  -10.6482   -6.8267    8.6526 C   0  0  0  0  0  0  0  0  0  0  0  0
   -9.4351   -6.9906    8.1359 C   0  0  0  0  0  0  0  0  0  0  0  0
   -9.1173   -8.2687    7.5186 C   0  0  0  0  0  0  0  0  0  0  0  0
  -10.0559   -9.1799    7.5239 C   0  0  0  0  0  0  0  0  0  0  0  0
   -9.7859  -10.3629    6.8201 F   0  0  0  0  0  0  0  0  0  0  0  0
  -11.3136   -9.0535    8.0742 C   0  0  0  0  0  0  0  0  0  0  0  0
   -7.7288   -8.3287    7.2916 N   0  0  0  0  0  0  0  0  0  0  0  0
   -7.2478   -8.9300    8.1295 H   0  0  0  0  0  0  0  0  0  0  0  0
   -6.7124   -7.8463    6.0894 S   0  0  0  0  0  0  0  0  0  0  0  0
   -5.0072   -7.8485    6.6520 C   0  0  0  0  0  0  0  0  0  0  0  0
   -7.1597   -6.5903    5.4526 O   0  0  0  0  0  0  0  0  0  0  0  0
   -6.7385   -8.9767    5.0089 O   0  0  0  0  0  0  0  0  0  0  0  0
  -13.6520   -6.8442    6.4471 C   0  0  0  0  0  0  0  0  0  0  0  0
  -14.6114   -6.1635    5.5401 C   0  0  0  0  0  0  0  0  0  0  0  0
  -14.7731   -4.8204    5.3207 C   0  0  0  0  0  0  0  0  0  0  0  0
  -16.0030   -4.2811    4.8281 C   0  0  0  0  0  0  0  0  0  0  0  0
  -16.9757   -5.1396    4.5937 C   0  0  0  0  0  0  0  0  0  0  0  0
  -16.8438   -6.5035    4.8180 C   0  0  0  0  0  0  0  0  0  0  0  0
  -15.7149   -7.0125    5.2667 C   0  0  0  0  0  0  0  0  0  0  0  0
  -15.2980   -8.4497    5.3655 C   0  0  0  0  0  0  0  0  0  0  0  0
  -14.1066   -8.7052    4.4161 C   0  0  0  0  0  0  0  0  0  0  0  0
  -14.3631   -8.5813    2.9848 C   0  0  0  0  0  0  0  0  0  0  0  0
  -15.5257   -9.4412    2.5497 C   0  0  0  0  0  0  0  0  0  0  0  0
  -16.1048  -10.2050    3.7136 C   0  0  0  0  0  0  0  0  0  0  0  0
  -16.4030   -9.3934    4.9314 C   0  0  0  0  0  0  0  0  0  0  0  0
  -18.4233   -4.6352    4.3853 C   0  0  0  0  0  0  0  0  0  0  0  0
  -18.8775   -3.7903    5.2433 F   0  0  0  0  0  0  0  0  0  0  0  0
  -19.1998   -5.7589    4.2107 F   0  0  0  0  0  0  0  0  0  0  0  0
  -18.4035   -4.0374    3.0866 F   0  0  0  0  0  0  0  0  0  0  0  0
  5  6  1  0  0  0
  6  1  1  0  0  0
  1  2  2  0  0  0
  1  3  1  0  0  0
  3 20  1  0  0  0
 20 21  1  0  0  0
 21 22  2  0  0  0
 22 23  1  0  0  0
 23 24  2  0  0  0
 24 33  1  0  0  0
 33 34  1  0  0  0
 33 35  1  0  0  0
 33 36  1  0  0  0
 24 25  1  0  0  0
 25 26  2  0  0  0
 26 27  1  0  0  0
 27 28  1  0  0  0
 28 29  1  0  0  0
 29 30  1  0  0  0
 30 31  1  0  0  0
 31 32  1  0  0  0
  6  7  1  0  0  0
  7  8  2  0  0  0
  8  9  1  0  0  0
  9 10  2  0  0  0
 10 14  1  0  0  0
 14 16  1  0  0  0
 16 17  1  0  0  0
 16 18  2  0  0  0
 16 19  2  0  0  0
 10 11  1  0  0  0
 11 12  1  0  0  0
 11 13  2  0  0  0
 26 21  1  0  0  0
 32 27  1  0  0  0
 13  7  1  0  0  0
  3  4  1  0  0  0
 14 15  1  0  0  0
M  END
> <minimizedAffinity>
-5.44698

> <CNNscore>
0.2185006440

> <CNNaffinity>
7.2238655090

> <CNN_VS>
1.5784192085

> <CNNaffinity_variance>
0.0755438209

$$$$
[H]c1c([H])c(C([H])(C(=O)N([H])C([H])([H])c2c([H])c([H])c(C(F)(F)F)c([H])c2C2([H])C([H])([H])C([H])([H])C([H])([H])C([H])([H])C2([H])[H])C([H])([H])[H])c([H])c(F)c1N([H])S(=O)(=O)C([H])([H])[H]


 36 38  0  0  0  0  0  0  0  0999 V2000
  -13.5569   -6.8936   10.1849 C   0  0  0  0  0  0  0  0  0  0  0  0
  -13.9236   -7.5600   10.9722 O   0  0  0  0  0  0  0  0  0  0  0  0
  -13.7163   -6.2357    8.9594 N   0  0  0  0  0  0  0  0  0  0  0  0
  -15.0245   -6.7341    8.8631 H   0  0  0  0  0  0  0  0  0  0  0  0
  -12.6423   -4.7816    9.9260 C   0  0  0  0  0  0  0  0  0  0  0  0
  -12.0741   -6.1536   10.3593 C   0  0  0  0  0  0  0  0  0  0  0  0
  -11.1858   -6.6457    9.3683 C   0  0  0  0  0  0  0  0  0  0  0  0
  -10.2867   -5.8931    8.7275 C   0  0  0  0  0  0  0  0  0  0  0  0
   -9.3641   -6.3619    7.8942 C   0  0  0  0  0  0  0  0  0  0  0  0
   -9.3392   -7.7919    7.6296 C   0  0  0  0  0  0  0  0  0  0  0  0
  -10.2312   -8.5248    8.2447 C   0  0  0  0  0  0  0  0  0  0  0  0
  -10.2806   -9.8814    7.8913 F   0  0  0  0  0  0  0  0  0  0  0  0
  -11.1834   -8.0762    9.1350 C   0  0  0  0  0  0  0  0  0  0  0  0
   -8.1418   -8.1071    6.9587 N   0  0  0  0  0  0  0  0  0  0  0  0
   -8.1683   -9.2053    6.6616 H   0  0  0  0  0  0  0  0  0  0  0  0
   -6.8300   -7.2609    6.4351 S   0  0  0  0  0  0  0  0  0  0  0  0
   -6.0629   -6.3647    7.7888 C   0  0  0  0  0  0  0  0  0  0  0  0
   -7.1328   -6.4485    5.2386 O   0  0  0  0  0  0  0  0  0  0  0  0
   -5.7484   -8.3207    6.0437 O   0  0  0  0  0  0  0  0  0  0  0  0
  -13.8657   -5.6518    7.8643 C   0  0  0  0  0  0  0  0  0  0  0  0
  -14.6005   -6.0281    6.6295 C   0  0  0  0  0  0  0  0  0  0  0  0
  -15.2689   -5.2146    5.7522 C   0  0  0  0  0  0  0  0  0  0  0  0
  -16.3128   -5.7124    4.9105 C   0  0  0  0  0  0  0  0  0  0  0  0
  -16.6014   -6.9943    5.0181 C   0  0  0  0  0  0  0  0  0  0  0  0
  -15.9490   -7.8389    5.9063 C   0  0  0  0  0  0  0  0  0  0  0  0
  -14.9829   -7.3934    6.6829 C   0  0  0  0  0  0  0  0  0  0  0  0
  -14.0208   -8.1666    7.5347 C   0  0  0  0  0  0  0  0  0  0  0  0
  -12.7829   -8.5486    6.6936 C   0  0  0  0  0  0  0  0  0  0  0  0
  -12.9951   -9.4782    5.5888 C   0  0  0  0  0  0  0  0  0  0  0  0
  -13.6813  -10.7427    6.0476 C   0  0  0  0  0  0  0  0  0  0  0  0
  -13.9557  -10.7075    7.5297 C   0  0  0  0  0  0  0  0  0  0  0  0
  -14.6204   -9.4678    8.0318 C   0  0  0  0  0  0  0  0  0  0  0  0
  -17.9118   -7.5489    4.4111 C   0  0  0  0  0  0  0  0  0  0  0  0
  -18.8259   -6.6937    4.1118 F   0  0  0  0  0  0  0  0  0  0  0  0
  -18.3200   -8.5666    5.2441 F   0  0  0  0  0  0  0  0  0  0  0  0
  -17.4893   -8.2336    3.2291 F   0  0  0  0  0  0  0  0  0  0  0  0
  5  6  1  0  0  0
  6  1  1  0  0  0
  1  2  2  0  0  0
  1  3  1  0  0  0
  3 20  1  0  0  0
 20 21  1  0  0  0
 21 22  2  0  0  0
 22 23  1  0  0  0
 23 24  2  0  0  0
 24 33  1  0  0  0
 33 34  1  0  0  0
 33 35  1  0  0  0
 33 36  1  0  0  0
 24 25  1  0  0  0
 25 26  2  0  0  0
 26 27  1  0  0  0
 27 28  1  0  0  0
 28 29  1  0  0  0
 29 30  1  0  0  0
 30 31  1  0  0  0
 31 32  1  0  0  0
  6  7  1  0  0  0
  7  8  2  0  0  0
  8  9  1  0  0  0
  9 10  2  0  0  0
 10 14  1  0  0  0
 14 16  1  0  0  0
 16 17  1  0  0  0
 16 18  2  0  0  0
 16 19  2  0  0  0
 10 11  1  0  0  0
 11 12  1  0  0  0
 11 13  2  0  0  0
 26 21  1  0  0  0
 32 27  1  0  0  0
 13  7  1  0  0  0
  3  4  1  0  0  0
 14 15  1  0  0  0
M  END
> <minimizedAffinity>
-5.45025

> <CNNscore>
0.1771293730

> <CNNaffinity>
6.9808592796

> <CNN_VS>
1.2365152836

> <CNNaffinity_variance>
0.0584438741

$$$$
[H]c1c([H])c(C([H])(C(=O)N([H])C([H])([H])c2c([H])c([H])c(C(F)(F)F)c([H])c2C2([H])C([H])([H])C([H])([H])C([H])([H])C([H])([H])C2([H])[H])C([H])([H])[H])c([H])c(F)c1N([H])S(=O)(=O)C([H])([H])[H]


 36 38  0  0  0  0  0  0  0  0999 V2000
   -7.6639  -10.4911    7.5599 C   0  0  0  0  0  0  0  0  0  0  0  0
   -7.7572  -11.1605    8.4210 O   0  0  0  0  0  0  0  0  0  0  0  0
   -6.9986   -9.4798    6.8565 N   0  0  0  0  0  0  0  0  0  0  0  0
   -5.9787   -9.4817    7.8203 H   0  0  0  0  0  0  0  0  0  0  0  0
   -8.1200   -9.4060    5.5652 C   0  0  0  0  0  0  0  0  0  0  0  0
   -8.7707  -10.5902    6.3182 C   0  0  0  0  0  0  0  0  0  0  0  0
  -10.0508  -10.2138    6.8009 C   0  0  0  0  0  0  0  0  0  0  0  0
  -10.2727   -9.6984    8.0136 C   0  0  0  0  0  0  0  0  0  0  0  0
  -11.4409   -9.2229    8.4311 C   0  0  0  0  0  0  0  0  0  0  0  0
  -12.5748   -9.2888    7.5225 C   0  0  0  0  0  0  0  0  0  0  0  0
  -12.3596   -9.8094    6.3419 C   0  0  0  0  0  0  0  0  0  0  0  0
  -13.4819   -9.9823    5.5183 F   0  0  0  0  0  0  0  0  0  0  0  0
  -11.1565  -10.2863    5.8667 C   0  0  0  0  0  0  0  0  0  0  0  0
  -13.6177   -8.4981    8.0424 N   0  0  0  0  0  0  0  0  0  0  0  0
  -13.9601   -8.9489    9.0295 H   0  0  0  0  0  0  0  0  0  0  0  0
  -14.3385   -7.0787    7.6217 S   0  0  0  0  0  0  0  0  0  0  0  0
  -14.2311   -6.8054    5.8503 C   0  0  0  0  0  0  0  0  0  0  0  0
  -13.8779   -5.9511    8.4581 O   0  0  0  0  0  0  0  0  0  0  0  0
  -15.8711   -7.2725    7.8658 O   0  0  0  0  0  0  0  0  0  0  0  0
   -6.3994   -8.5763    6.2343 C   0  0  0  0  0  0  0  0  0  0  0  0
   -5.8204   -7.2815    6.6754 C   0  0  0  0  0  0  0  0  0  0  0  0
   -4.6708   -6.6703    6.2477 C   0  0  0  0  0  0  0  0  0  0  0  0
   -3.9797   -5.7157    7.0582 C   0  0  0  0  0  0  0  0  0  0  0  0
   -4.5028   -5.4503    8.2390 C   0  0  0  0  0  0  0  0  0  0  0  0
   -5.6593   -6.0631    8.7027 C   0  0  0  0  0  0  0  0  0  0  0  0
   -6.3072   -6.9399    7.9636 C   0  0  0  0  0  0  0  0  0  0  0  0
   -7.6647   -7.5399    8.1789 C   0  0  0  0  0  0  0  0  0  0  0  0
   -8.6188   -7.0657    7.0606 C   0  0  0  0  0  0  0  0  0  0  0  0
   -8.9395   -5.6424    7.0241 C   0  0  0  0  0  0  0  0  0  0  0  0
   -9.4660   -5.1549    8.3528 C   0  0  0  0  0  0  0  0  0  0  0  0
   -9.5266   -6.2754    9.3599 C   0  0  0  0  0  0  0  0  0  0  0  0
   -8.2829   -7.0921    9.4893 C   0  0  0  0  0  0  0  0  0  0  0  0
   -3.6700   -4.7030    9.3072 C   0  0  0  0  0  0  0  0  0  0  0  0
   -2.5091   -4.2767    8.9511 F   0  0  0  0  0  0  0  0  0  0  0  0
   -3.6755   -5.5038   10.4274 F   0  0  0  0  0  0  0  0  0  0  0  0
   -4.4934   -3.5962    9.6835 F   0  0  0  0  0  0  0  0  0  0  0  0
  5  6  1  0  0  0
  6  1  1  0  0  0
  1  2  2  0  0  0
  1  3  1  0  0  0
  3 20  1  0  0  0
 20 21  1  0  0  0
 21 22  2  0  0  0
 22 23  1  0  0  0
 23 24  2  0  0  0
 24 33  1  0  0  0
 33 34  1  0  0  0
 33 35  1  0  0  0
 33 36  1  0  0  0
 24 25  1  0  0  0
 25 26  2  0  0  0
 26 27  1  0  0  0
 27 28  1  0  0  0
 28 29  1  0  0  0
 29 30  1  0  0  0
 30 31  1  0  0  0
 31 32  1  0  0  0
  6  7  1  0  0  0
  7  8  2  0  0  0
  8  9  1  0  0  0
  9 10  2  0  0  0
 10 14  1  0  0  0
 14 16  1  0  0  0
 16 17  1  0  0  0
 16 18  2  0  0  0
 16 19  2  0  0  0
 10 11  1  0  0  0
 11 12  1  0  0  0
 11 13  2  0  0  0
 26 21  1  0  0  0
 32 27  1  0  0  0
 13  7  1  0  0  0
  3  4  1  0  0  0
 14 15  1  0  0  0
M  END
> <minimizedAffinity>
0.70079

> <CNNscore>
0.1766426265

> <CNNaffinity>
6.2298002243

> <CNN_VS>
1.1004482508

> <CNNaffinity_variance>
0.1619484872

$$$$
[H]c1c([H])c(C([H])(C(=O)N([H])C([H])([H])c2c([H])c([H])c(C(F)(F)F)c([H])c2C2([H])C([H])([H])C([H])([H])C([H])([H])C([H])([H])C2([H])[H])C([H])([H])[H])c([H])c(F)c1N([H])S(=O)(=O)C([H])([H])[H]


 36 38  0  0  0  0  0  0  0  0999 V2000
   -9.6492  -10.4835    6.3309 C   0  0  0  0  0  0  0  0  0  0  0  0
   -9.2520  -11.1276    5.5399 O   0  0  0  0  0  0  0  0  0  0  0  0
  -10.7115   -9.8230    6.9598 N   0  0  0  0  0  0  0  0  0  0  0  0
  -11.6102  -10.4098    6.0559 H   0  0  0  0  0  0  0  0  0  0  0  0
   -9.8005   -9.2951    8.3131 C   0  0  0  0  0  0  0  0  0  0  0  0
   -8.6270   -9.9127    7.5167 C   0  0  0  0  0  0  0  0  0  0  0  0
   -7.8121   -8.8841    6.9772 C   0  0  0  0  0  0  0  0  0  0  0  0
   -8.2480   -7.6527    6.6958 C   0  0  0  0  0  0  0  0  0  0  0  0
   -7.4716   -6.6446    6.3133 C   0  0  0  0  0  0  0  0  0  0  0  0
   -6.0471   -6.8941    6.1578 C   0  0  0  0  0  0  0  0  0  0  0  0
   -5.6250   -8.1047    6.4172 C   0  0  0  0  0  0  0  0  0  0  0  0
   -4.2742   -8.3696    6.1471 F   0  0  0  0  0  0  0  0  0  0  0  0
   -6.3968   -9.1652    6.8417 C   0  0  0  0  0  0  0  0  0  0  0  0
   -5.3836   -5.6593    6.0230 N   0  0  0  0  0  0  0  0  0  0  0  0
   -6.1606   -4.8430    5.8646 H   0  0  0  0  0  0  0  0  0  0  0  0
   -3.8256   -5.1420    6.1496 S   0  0  0  0  0  0  0  0  0  0  0  0
   -3.7427   -3.3484    6.1415 C   0  0  0  0  0  0  0  0  0  0  0  0
   -2.9354   -5.8141    5.1806 O   0  0  0  0  0  0  0  0  0  0  0  0
   -3.3507   -5.5199    7.5910 O   0  0  0  0  0  0  0  0  0  0  0  0
  -11.6648   -9.2360    7.5157 C   0  0  0  0  0  0  0  0  0  0  0  0
  -11.8219   -7.8447    8.0119 C   0  0  0  0  0  0  0  0  0  0  0  0
  -10.8648   -7.0071    8.5223 C   0  0  0  0  0  0  0  0  0  0  0  0
  -11.2008   -5.9219    9.3915 C   0  0  0  0  0  0  0  0  0  0  0  0
  -12.4780   -5.7647    9.6783 C   0  0  0  0  0  0  0  0  0  0  0  0
  -13.4672   -6.6051    9.1852 C   0  0  0  0  0  0  0  0  0  0  0  0
  -13.1709   -7.6046    8.3801 C   0  0  0  0  0  0  0  0  0  0  0  0
  -14.0890   -8.4768    7.5768 C   0  0  0  0  0  0  0  0  0  0  0  0
  -13.9170   -8.1578    6.0753 C   0  0  0  0  0  0  0  0  0  0  0  0
  -14.3254   -6.8291    5.6305 C   0  0  0  0  0  0  0  0  0  0  0  0
  -15.7466   -6.5177    6.0348 C   0  0  0  0  0  0  0  0  0  0  0  0
  -16.3654   -7.6703    6.7844 C   0  0  0  0  0  0  0  0  0  0  0  0
  -15.5474   -8.2221    7.9056 C   0  0  0  0  0  0  0  0  0  0  0  0
  -12.9038   -4.8503   10.8512 C   0  0  0  0  0  0  0  0  0  0  0  0
  -13.0566   -3.5990   10.5917 F   0  0  0  0  0  0  0  0  0  0  0  0
  -12.0392   -5.1266   11.8867 F   0  0  0  0  0  0  0  0  0  0  0  0
  -14.1452   -5.4037   11.2954 F   0  0  0  0  0  0  0  0  0  0  0  0
  5  6  1  0  0  0
  6  1  1  0  0  0
  1  2  2  0  0  0
  1  3  1  0  0  0
  3 20  1  0  0  0
 20 21  1  0  0  0
 21 22  2  0  0  0
 22 23  1  0  0  0
 23 24  2  0  0  0
 24 33  1  0  0  0
 33 34  1  0  0  0
 33 35  1  0  0  0
 33 36  1  0  0  0
 24 25  1  0  0  0
 25 26  2  0  0  0
 26 27  1  0  0  0
 27 28  1  0  0  0
 28 29  1  0  0  0
 29 30  1  0  0  0
 30 31  1  0  0  0
 31 32  1  0  0  0
  6  7  1  0  0  0
  7  8  2  0  0  0
  8  9  1  0  0  0
  9 10  2  0  0  0
 10 14  1  0  0  0
 14 16  1  0  0  0
 16 17  1  0  0  0
 16 18  2  0  0  0
 16 19  2  0  0  0
 10 11  1  0  0  0
 11 12  1  0  0  0
 11 13  2  0  0  0
 26 21  1  0  0  0
 32 27  1  0  0  0
 13  7  1  0  0  0
  3  4  1  0  0  0
 14 15  1  0  0  0
M  END
> <minimizedAffinity>
-8.60991

> <CNNscore>
0.1564714164

> <CNNaffinity>
6.7654442787

> <CNN_VS>
1.0585986376

> <CNNaffinity_variance>
0.1854400337

$$$$
[H]OC(=O)C([H])([H])N(C([H])([H])c1c([H])c([H])c([H])c(OC([H])([H])C([H])([H])c2nc(-c3c([H])c([H])c([H])c([H])c3[H])oc2C([H])([H])[H])c1[H])C([H])([H])c1c([H])c([H])c2c([H])c([H])c([H])c([H])c2c1[H]


 39 43  0  0  0  0  0  0  0  0999 V2000
   -8.9590   -7.3968    7.5795 C   0  0  0  0  0  0  0  0  0  0  0  0
   -8.7320   -8.7173    7.8468 C   0  0  0  0  0  0  0  0  0  0  0  0
   -7.5462   -9.2968    7.4630 C   0  0  0  0  0  0  0  0  0  0  0  0
   -6.5543   -8.6004    6.8102 C   0  0  0  0  0  0  0  0  0  0  0  0
   -6.7507   -7.2692    6.5261 C   0  0  0  0  0  0  0  0  0  0  0  0
   -7.9365   -6.7028    6.9131 C   0  0  0  0  0  0  0  0  0  0  0  0
  -10.0996   -6.7479    7.9203 O   0  0  0  0  0  0  0  0  0  0  0  0
  -10.8141   -6.6242    9.0729 C   0  0  0  0  0  0  0  0  0  0  0  0
  -12.0064   -7.5017    9.2640 C   0  0  0  0  0  0  0  0  0  0  0  0
  -12.0573   -9.8070    7.1353 C   0  0  0  0  0  0  0  0  0  0  0  0
  -12.8746   -8.5818    7.0734 C   0  0  0  0  0  0  0  0  0  0  0  0
  -13.7421   -8.2513    6.1433 O   0  0  0  0  0  0  0  0  0  0  0  0
  -14.2807   -7.0898    6.4187 C   0  0  0  0  0  0  0  0  0  0  0  0
  -13.7281   -6.6716    7.5723 N   0  0  0  0  0  0  0  0  0  0  0  0
  -12.8456   -7.5666    8.0199 C   0  0  0  0  0  0  0  0  0  0  0  0
  -15.2836   -6.3731    5.6428 C   0  0  0  0  0  0  0  0  0  0  0  0
  -14.9360   -5.2744    4.8849 C   0  0  0  0  0  0  0  0  0  0  0  0
  -15.8766   -4.5720    4.1362 C   0  0  0  0  0  0  0  0  0  0  0  0
  -17.1922   -4.9749    4.1446 C   0  0  0  0  0  0  0  0  0  0  0  0
  -17.5610   -6.0596    4.8869 C   0  0  0  0  0  0  0  0  0  0  0  0
  -16.6053   -6.7551    5.6336 C   0  0  0  0  0  0  0  0  0  0  0  0
   -5.7005   -6.5212    5.8259 C   0  0  0  0  0  0  0  0  0  0  0  0
   -4.8703   -5.6949    6.6347 N   0  0  0  0  0  0  0  0  0  0  0  0
   -4.5068   -6.3059    7.8629 C   0  0  0  0  0  0  0  0  0  0  0  0
   -3.2396   -7.0486    7.8562 C   0  0  0  0  0  0  0  0  0  0  0  0
   -3.0286   -8.1506    7.3222 O   0  0  0  0  0  0  0  0  0  0  0  0
   -2.1410   -6.4667    8.5188 O   0  0  0  0  0  0  0  0  0  0  0  0
   -1.8139   -6.8709    9.3848 H   0  0  0  0  0  0  0  0  0  0  0  0
   -3.8129   -5.0547    5.9106 C   0  0  0  0  0  0  0  0  0  0  0  0
   -3.6849   -3.6137    6.1062 C   0  0  0  0  0  0  0  0  0  0  0  0
   -3.1964   -2.9934    7.2328 C   0  0  0  0  0  0  0  0  0  0  0  0
   -3.1211   -1.6119    7.3229 C   0  0  0  0  0  0  0  0  0  0  0  0
   -3.5292   -0.7924    6.2939 C   0  0  0  0  0  0  0  0  0  0  0  0
   -3.4400    0.5778    6.4195 C   0  0  0  0  0  0  0  0  0  0  0  0
   -3.8478    1.4071    5.3939 C   0  0  0  0  0  0  0  0  0  0  0  0
   -4.3425    0.8166    4.2516 C   0  0  0  0  0  0  0  0  0  0  0  0
   -4.4317   -0.5709    4.1266 C   0  0  0  0  0  0  0  0  0  0  0  0
   -4.0220   -1.3984    5.1559 C   0  0  0  0  0  0  0  0  0  0  0  0
   -4.0950   -2.7737    5.0711 C   0  0  0  0  0  0  0  0  0  0  0  0
 10 11  1  0  0  0
 11 12  1  0  0  0
 12 13  1  0  0  0
 13 16  1  0  0  0
 16 17  2  0  0  0
 17 18  1  0  0  0
 18 19  2  0  0  0
 19 20  1  0  0  0
 20 21  2  0  0  0
 13 14  2  0  0  0
 14 15  1  0  0  0
 15  9  1  0  0  0
  9  8  1  0  0  0
  8  7  1  0  0  0
  7  1  1  0  0  0
  1  2  2  0  0  0
  2  3  1  0  0  0
  3  4  2  0  0  0
  4  5  1  0  0  0
  5 22  1  0  0  0
 22 23  1  0  0  0
 23 24  1  0  0  0
 24 25  1  0  0  0
 25 26  2  0  0  0
 25 27  1  0  0  0
 23 29  1  0  0  0
 29 30  1  0  0  0
 30 31  2  0  0  0
 31 32  1  0  0  0
 32 33  2  0  0  0
 33 34  1  0  0  0
 34 35  2  0  0  0
 35 36  1  0  0  0
 36 37  2  0  0  0
 37 38  1  0  0  0
 38 39  2  0  0  0
  5  6  2  0  0  0
 15 11  2  0  0  0
  6  1  1  0  0  0
 21 16  1  0  0  0
 39 30  1  0  0  0
 38 33  1  0  0  0
 27 28  1  0  0  0
M  END
> <minimizedAffinity>
-9.16430

> <CNNscore>
0.4120824635

> <CNNaffinity>
6.8538002968

> <CNN_VS>
2.8243308067

> <CNNaffinity_variance>
0.0516862385

$$$$
[H]OC(=O)C([H])([H])N(C([H])([H])c1c([H])c([H])c([H])c(OC([H])([H])C([H])([H])c2nc(-c3c([H])c([H])c([H])c([H])c3[H])oc2C([H])([H])[H])c1[H])C([H])([H])c1c([H])c([H])c2c([H])c([H])c([H])c([H])c2c1[H]


 39 43  0  0  0  0  0  0  0  0999 V2000
   -9.0614   -7.5603    7.6364 C   0  0  0  0  0  0  0  0  0  0  0  0
   -8.8708   -8.9077    7.7587 C   0  0  0  0  0  0  0  0  0  0  0  0
   -7.6311   -9.4465    7.5088 C   0  0  0  0  0  0  0  0  0  0  0  0
   -6.5490   -8.6824    7.1346 C   0  0  0  0  0  0  0  0  0  0  0  0
   -6.7068   -7.3226    7.0026 C   0  0  0  0  0  0  0  0  0  0  0  0
   -7.9468   -6.7972    7.2539 C   0  0  0  0  0  0  0  0  0  0  0  0
  -10.2497   -6.9476    7.8613 O   0  0  0  0  0  0  0  0  0  0  0  0
  -10.9756   -6.6630    8.9779 C   0  0  0  0  0  0  0  0  0  0  0  0
  -12.1278   -7.5492    9.3177 C   0  0  0  0  0  0  0  0  0  0  0  0
  -12.9959  -10.1637    7.8147 C   0  0  0  0  0  0  0  0  0  0  0  0
  -13.4839   -8.8082    7.5025 C   0  0  0  0  0  0  0  0  0  0  0  0
  -14.3430   -8.4685    6.5680 O   0  0  0  0  0  0  0  0  0  0  0  0
  -14.5400   -7.1738    6.5831 C   0  0  0  0  0  0  0  0  0  0  0  0
  -13.7716   -6.6778    7.5702 N   0  0  0  0  0  0  0  0  0  0  0  0
  -13.0942   -7.6566    8.1728 C   0  0  0  0  0  0  0  0  0  0  0  0
  -15.4154   -6.4017    5.7119 C   0  0  0  0  0  0  0  0  0  0  0  0
  -14.9199   -5.3543    4.9637 C   0  0  0  0  0  0  0  0  0  0  0  0
  -15.7367   -4.6006    4.1251 C   0  0  0  0  0  0  0  0  0  0  0  0
  -17.0768   -4.8986    4.0317 C   0  0  0  0  0  0  0  0  0  0  0  0
  -17.5909   -5.9308    4.7624 C   0  0  0  0  0  0  0  0  0  0  0  0
  -16.7584   -6.6789    5.6001 C   0  0  0  0  0  0  0  0  0  0  0  0
   -5.5596   -6.5018    6.5991 C   0  0  0  0  0  0  0  0  0  0  0  0
   -4.2955   -6.8809    7.1326 N   0  0  0  0  0  0  0  0  0  0  0  0
   -3.6410   -7.8736    6.3578 C   0  0  0  0  0  0  0  0  0  0  0  0
   -2.3023   -8.2640    6.8193 C   0  0  0  0  0  0  0  0  0  0  0  0
   -2.0325   -8.9354    7.8295 O   0  0  0  0  0  0  0  0  0  0  0  0
   -1.2003   -7.8419    6.0499 O   0  0  0  0  0  0  0  0  0  0  0  0
   -0.5873   -7.1261    6.4134 H   0  0  0  0  0  0  0  0  0  0  0  0
   -3.4895   -5.7726    7.5501 C   0  0  0  0  0  0  0  0  0  0  0  0
   -3.4219   -5.5372    8.9892 C   0  0  0  0  0  0  0  0  0  0  0  0
   -4.4410   -5.0506    9.7750 C   0  0  0  0  0  0  0  0  0  0  0  0
   -4.2739   -4.8558   11.1375 C   0  0  0  0  0  0  0  0  0  0  0  0
   -3.0847   -5.1383   11.7724 C   0  0  0  0  0  0  0  0  0  0  0  0
   -2.9550   -4.9313   13.1294 C   0  0  0  0  0  0  0  0  0  0  0  0
   -1.7666   -5.2104   13.7741 C   0  0  0  0  0  0  0  0  0  0  0  0
   -0.7259   -5.6989   13.0147 C   0  0  0  0  0  0  0  0  0  0  0  0
   -0.8596   -5.9079   11.6409 C   0  0  0  0  0  0  0  0  0  0  0  0
   -2.0516   -5.6274   10.9987 C   0  0  0  0  0  0  0  0  0  0  0  0
   -2.2229   -5.8195    9.6431 C   0  0  0  0  0  0  0  0  0  0  0  0
 10 11  1  0  0  0
 11 12  1  0  0  0
 12 13  1  0  0  0
 13 16  1  0  0  0
 16 17  2  0  0  0
 17 18  1  0  0  0
 18 19  2  0  0  0
 19 20  1  0  0  0
 20 21  2  0  0  0
 13 14  2  0  0  0
 14 15  1  0  0  0
 15  9  1  0  0  0
  9  8  1  0  0  0
  8  7  1  0  0  0
  7  1  1  0  0  0
  1  2  2  0  0  0
  2  3  1  0  0  0
  3  4  2  0  0  0
  4  5  1  0  0  0
  5 22  1  0  0  0
 22 23  1  0  0  0
 23 24  1  0  0  0
 24 25  1  0  0  0
 25 26  2  0  0  0
 25 27  1  0  0  0
 23 29  1  0  0  0
 29 30  1  0  0  0
 30 31  2  0  0  0
 31 32  1  0  0  0
 32 33  2  0  0  0
 33 34  1  0  0  0
 34 35  2  0  0  0
 35 36  1  0  0  0
 36 37  2  0  0  0
 37 38  1  0  0  0
 38 39  2  0  0  0
  5  6  2  0  0  0
 15 11  2  0  0  0
  6  1  1  0  0  0
 21 16  1  0  0  0
 39 30  1  0  0  0
 38 33  1  0  0  0
 27 28  1  0  0  0
M  END
> <minimizedAffinity>
-8.68814

> <CNNscore>
0.4015898705

> <CNNaffinity>
6.6777038574

> <CNN_VS>
2.6816983223

> <CNNaffinity_variance>
0.2334569991

$$$$
[H]OC(=O)C([H])([H])N(C([H])([H])c1c([H])c([H])c([H])c(OC([H])([H])C([H])([H])c2nc(-c3c([H])c([H])c([H])c([H])c3[H])oc2C([H])([H])[H])c1[H])C([H])([H])c1c([H])c([H])c2c([H])c([H])c([H])c([H])c2c1[H]


 39 43  0  0  0  0  0  0  0  0999 V2000
   -8.7759   -7.4146    7.6079 C   0  0  0  0  0  0  0  0  0  0  0  0
   -8.5234   -8.7414    7.8143 C   0  0  0  0  0  0  0  0  0  0  0  0
   -7.2904   -9.2586    7.4958 C   0  0  0  0  0  0  0  0  0  0  0  0
   -6.2752   -8.4924    6.9692 C   0  0  0  0  0  0  0  0  0  0  0  0
   -6.4962   -7.1530    6.7493 C   0  0  0  0  0  0  0  0  0  0  0  0
   -7.7290   -6.6490    7.0702 C   0  0  0  0  0  0  0  0  0  0  0  0
   -9.9629   -6.8240    7.8915 O   0  0  0  0  0  0  0  0  0  0  0  0
  -10.6958   -6.6618    9.0276 C   0  0  0  0  0  0  0  0  0  0  0  0
  -11.8901   -7.5342    9.2298 C   0  0  0  0  0  0  0  0  0  0  0  0
  -11.8975   -9.7783    7.0361 C   0  0  0  0  0  0  0  0  0  0  0  0
  -12.7542   -8.5788    7.0205 C   0  0  0  0  0  0  0  0  0  0  0  0
  -13.6449   -8.2501    6.1119 O   0  0  0  0  0  0  0  0  0  0  0  0
  -14.2163   -7.1149    6.4279 C   0  0  0  0  0  0  0  0  0  0  0  0
  -13.6611   -6.7122    7.5857 N   0  0  0  0  0  0  0  0  0  0  0  0
  -12.7443   -7.5906    7.9955 C   0  0  0  0  0  0  0  0  0  0  0  0
  -15.2524   -6.4091    5.6863 C   0  0  0  0  0  0  0  0  0  0  0  0
  -14.9413   -5.3111    4.9119 C   0  0  0  0  0  0  0  0  0  0  0  0
  -15.9139   -4.6190    4.1953 C   0  0  0  0  0  0  0  0  0  0  0  0
  -17.2253   -5.0317    4.2534 C   0  0  0  0  0  0  0  0  0  0  0  0
  -17.5583   -6.1160    5.0130 C   0  0  0  0  0  0  0  0  0  0  0  0
  -16.5706   -6.8011    5.7270 C   0  0  0  0  0  0  0  0  0  0  0  0
   -5.4209   -6.3306    6.1835 C   0  0  0  0  0  0  0  0  0  0  0  0
   -4.4814   -5.7980    7.1107 N   0  0  0  0  0  0  0  0  0  0  0  0
   -4.8032   -6.0960    8.4604 C   0  0  0  0  0  0  0  0  0  0  0  0
   -4.3915   -5.0931    9.4514 C   0  0  0  0  0  0  0  0  0  0  0  0
   -3.6249   -4.1338    9.2615 O   0  0  0  0  0  0  0  0  0  0  0  0
   -4.9091   -5.2168   10.7558 O   0  0  0  0  0  0  0  0  0  0  0  0
   -4.2969   -5.5031   11.5066 H   0  0  0  0  0  0  0  0  0  0  0  0
   -3.1156   -5.9990    6.7281 C   0  0  0  0  0  0  0  0  0  0  0  0
   -2.5635   -7.3228    6.9995 C   0  0  0  0  0  0  0  0  0  0  0  0
   -2.5704   -8.3920    6.1337 C   0  0  0  0  0  0  0  0  0  0  0  0
   -2.0234   -9.6151    6.4902 C   0  0  0  0  0  0  0  0  0  0  0  0
   -1.4469   -9.8223    7.7238 C   0  0  0  0  0  0  0  0  0  0  0  0
   -0.9133  -11.0529    8.0437 C   0  0  0  0  0  0  0  0  0  0  0  0
   -0.3346  -11.2702    9.2780 C   0  0  0  0  0  0  0  0  0  0  0  0
   -0.3121  -10.2190   10.1684 C   0  0  0  0  0  0  0  0  0  0  0  0
   -0.8528   -8.9740    9.8423 C   0  0  0  0  0  0  0  0  0  0  0  0
   -1.4314   -8.7600    8.6048 C   0  0  0  0  0  0  0  0  0  0  0  0
   -1.9772   -7.5447    8.2453 C   0  0  0  0  0  0  0  0  0  0  0  0
 10 11  1  0  0  0
 11 12  1  0  0  0
 12 13  1  0  0  0
 13 16  1  0  0  0
 16 17  2  0  0  0
 17 18  1  0  0  0
 18 19  2  0  0  0
 19 20  1  0  0  0
 20 21  2  0  0  0
 13 14  2  0  0  0
 14 15  1  0  0  0
 15  9  1  0  0  0
  9  8  1  0  0  0
  8  7  1  0  0  0
  7  1  1  0  0  0
  1  2  2  0  0  0
  2  3  1  0  0  0
  3  4  2  0  0  0
  4  5  1  0  0  0
  5 22  1  0  0  0
 22 23  1  0  0  0
 23 24  1  0  0  0
 24 25  1  0  0  0
 25 26  2  0  0  0
 25 27  1  0  0  0
 23 29  1  0  0  0
 29 30  1  0  0  0
 30 31  2  0  0  0
 31 32  1  0  0  0
 32 33  2  0  0  0
 33 34  1  0  0  0
 34 35  2  0  0  0
 35 36  1  0  0  0
 36 37  2  0  0  0
 37 38  1  0  0  0
 38 39  2  0  0  0
  5  6  2  0  0  0
 15 11  2  0  0  0
  6  1  1  0  0  0
 21 16  1  0  0  0
 39 30  1  0  0  0
 38 33  1  0  0  0
 27 28  1  0  0  0
M  END
> <minimizedAffinity>
-9.53075

> <CNNscore>
0.3835035264

> <CNNaffinity>
6.8010969162

> <CNN_VS>
2.6082446575

> <CNNaffinity_variance>
0.2477152795

$$$$
[H]OC(=O)C([H])([H])N(C([H])([H])c1c([H])c([H])c([H])c(OC([H])([H])C([H])([H])c2nc(-c3c([H])c([H])c([H])c([H])c3[H])oc2C([H])([H])[H])c1[H])C([H])([H])c1c([H])c([H])c2c([H])c([H])c([H])c([H])c2c1[H]


 39 43  0  0  0  0  0  0  0  0999 V2000
   -8.5929   -7.3329    7.3011 C   0  0  0  0  0  0  0  0  0  0  0  0
   -8.3730   -8.6640    7.5165 C   0  0  0  0  0  0  0  0  0  0  0  0
   -7.1411   -9.2058    7.2369 C   0  0  0  0  0  0  0  0  0  0  0  0
   -6.0952   -8.4604    6.7413 C   0  0  0  0  0  0  0  0  0  0  0  0
   -6.2831   -7.1172    6.5133 C   0  0  0  0  0  0  0  0  0  0  0  0
   -7.5151   -6.5888    6.7954 C   0  0  0  0  0  0  0  0  0  0  0  0
   -9.7764   -6.7188    7.5472 O   0  0  0  0  0  0  0  0  0  0  0  0
  -10.5915   -6.6278    8.6342 C   0  0  0  0  0  0  0  0  0  0  0  0
  -11.4557   -7.7975    8.9706 C   0  0  0  0  0  0  0  0  0  0  0  0
  -14.1390   -7.6195   10.5882 C   0  0  0  0  0  0  0  0  0  0  0  0
  -14.0322   -7.5562    9.1193 C   0  0  0  0  0  0  0  0  0  0  0  0
  -15.0136   -7.4175    8.2565 O   0  0  0  0  0  0  0  0  0  0  0  0
  -14.5431   -7.4015    7.0344 C   0  0  0  0  0  0  0  0  0  0  0  0
  -13.2077   -7.5357    7.1330 N   0  0  0  0  0  0  0  0  0  0  0  0
  -12.8405   -7.6359    8.4117 C   0  0  0  0  0  0  0  0  0  0  0  0
  -15.2990   -7.2653    5.7968 C   0  0  0  0  0  0  0  0  0  0  0  0
  -16.1870   -6.2243    5.6240 C   0  0  0  0  0  0  0  0  0  0  0  0
  -16.9221   -6.0736    4.4512 C   0  0  0  0  0  0  0  0  0  0  0  0
  -16.7675   -6.9819    3.4292 C   0  0  0  0  0  0  0  0  0  0  0  0
  -15.8944   -8.0210    3.5763 C   0  0  0  0  0  0  0  0  0  0  0  0
  -15.1630   -8.1592    4.7598 C   0  0  0  0  0  0  0  0  0  0  0  0
   -5.1749   -6.3168    5.9804 C   0  0  0  0  0  0  0  0  0  0  0  0
   -4.4924   -5.4864    6.9134 N   0  0  0  0  0  0  0  0  0  0  0  0
   -4.3425   -6.0908    8.1887 C   0  0  0  0  0  0  0  0  0  0  0  0
   -3.6624   -5.2770    9.2050 C   0  0  0  0  0  0  0  0  0  0  0  0
   -4.1181   -4.2731    9.7781 O   0  0  0  0  0  0  0  0  0  0  0  0
   -2.3595   -5.6597    9.5796 O   0  0  0  0  0  0  0  0  0  0  0  0
   -1.5750   -5.0900    9.2961 H   0  0  0  0  0  0  0  0  0  0  0  0
   -3.3271   -4.8503    6.3752 C   0  0  0  0  0  0  0  0  0  0  0  0
   -3.5523   -3.5889    5.6759 C   0  0  0  0  0  0  0  0  0  0  0  0
   -3.8164   -2.3753    6.2677 C   0  0  0  0  0  0  0  0  0  0  0  0
   -4.0225   -1.2315    5.5117 C   0  0  0  0  0  0  0  0  0  0  0  0
   -3.9734   -1.2504    4.1354 C   0  0  0  0  0  0  0  0  0  0  0  0
   -4.1841   -0.0928    3.4165 C   0  0  0  0  0  0  0  0  0  0  0  0
   -4.1381   -0.1024    2.0368 C   0  0  0  0  0  0  0  0  0  0  0  0
   -3.8760   -1.3029    1.4135 C   0  0  0  0  0  0  0  0  0  0  0  0
   -3.6628   -2.4736    2.1434 C   0  0  0  0  0  0  0  0  0  0  0  0
   -3.7094   -2.4600    3.5254 C   0  0  0  0  0  0  0  0  0  0  0  0
   -3.5050   -3.5956    4.2821 C   0  0  0  0  0  0  0  0  0  0  0  0
 10 11  1  0  0  0
 11 12  1  0  0  0
 12 13  1  0  0  0
 13 16  1  0  0  0
 16 17  2  0  0  0
 17 18  1  0  0  0
 18 19  2  0  0  0
 19 20  1  0  0  0
 20 21  2  0  0  0
 13 14  2  0  0  0
 14 15  1  0  0  0
 15  9  1  0  0  0
  9  8  1  0  0  0
  8  7  1  0  0  0
  7  1  1  0  0  0
  1  2  2  0  0  0
  2  3  1  0  0  0
  3  4  2  0  0  0
  4  5  1  0  0  0
  5 22  1  0  0  0
 22 23  1  0  0  0
 23 24  1  0  0  0
 24 25  1  0  0  0
 25 26  2  0  0  0
 25 27  1  0  0  0
 23 29  1  0  0  0
 29 30  1  0  0  0
 30 31  2  0  0  0
 31 32  1  0  0  0
 32 33  2  0  0  0
 33 34  1  0  0  0
 34 35  2  0  0  0
 35 36  1  0  0  0
 36 37  2  0  0  0
 37 38  1  0  0  0
 38 39  2  0  0  0
  5  6  2  0  0  0
 15 11  2  0  0  0
  6  1  1  0  0  0
 21 16  1  0  0  0
 39 30  1  0  0  0
 38 33  1  0  0  0
 27 28  1  0  0  0
M  END
> <minimizedAffinity>
-8.09786

> <CNNscore>
0.3440291584

> <CNNaffinity>
6.6650667191

> <CNN_VS>
2.2929773331

> <CNNaffinity_variance>
0.0407666713

$$$$
[H]OC(=O)C([H])([H])N(C([H])([H])c1c([H])c([H])c([H])c(OC([H])([H])C([H])([H])c2nc(-c3c([H])c([H])c([H])c([H])c3[H])oc2C([H])([H])[H])c1[H])C([H])([H])c1c([H])c([H])c2c([H])c([H])c([H])c([H])c2c1[H]


 39 43  0  0  0  0  0  0  0  0999 V2000
   -8.7081   -7.2420    7.5093 C   0  0  0  0  0  0  0  0  0  0  0  0
   -8.5357   -8.5872    7.6741 C   0  0  0  0  0  0  0  0  0  0  0  0
   -7.3448   -9.1714    7.3138 C   0  0  0  0  0  0  0  0  0  0  0  0
   -6.2945   -8.4556    6.7851 C   0  0  0  0  0  0  0  0  0  0  0  0
   -6.4350   -7.0993    6.6064 C   0  0  0  0  0  0  0  0  0  0  0  0
   -7.6265   -6.5285    6.9688 C   0  0  0  0  0  0  0  0  0  0  0  0
   -9.8492   -6.5866    7.8356 O   0  0  0  0  0  0  0  0  0  0  0  0
  -10.5867   -6.4725    8.9746 C   0  0  0  0  0  0  0  0  0  0  0  0
  -11.6917   -7.4498    9.2029 C   0  0  0  0  0  0  0  0  0  0  0  0
  -11.8394   -9.7970    7.1250 C   0  0  0  0  0  0  0  0  0  0  0  0
  -12.6685   -8.5788    7.0839 C   0  0  0  0  0  0  0  0  0  0  0  0
  -13.5876   -8.2727    6.1960 O   0  0  0  0  0  0  0  0  0  0  0  0
  -14.1197   -7.1097    6.4776 C   0  0  0  0  0  0  0  0  0  0  0  0
  -13.5088   -6.6651    7.5913 N   0  0  0  0  0  0  0  0  0  0  0  0
  -12.5964   -7.5450    8.0076 C   0  0  0  0  0  0  0  0  0  0  0  0
  -15.1687   -6.4153    5.7436 C   0  0  0  0  0  0  0  0  0  0  0  0
  -14.8729   -5.3227    4.9555 C   0  0  0  0  0  0  0  0  0  0  0  0
  -15.8582   -4.6415    4.2457 C   0  0  0  0  0  0  0  0  0  0  0  0
  -17.1666   -5.0599    4.3245 C   0  0  0  0  0  0  0  0  0  0  0  0
  -17.4845   -6.1390    5.0979 C   0  0  0  0  0  0  0  0  0  0  0  0
  -16.4844   -6.8131    5.8048 C   0  0  0  0  0  0  0  0  0  0  0  0
   -5.3220   -6.3301    6.0386 C   0  0  0  0  0  0  0  0  0  0  0  0
   -4.5957   -5.5096    6.9471 N   0  0  0  0  0  0  0  0  0  0  0  0
   -3.9079   -6.2547    7.9400 C   0  0  0  0  0  0  0  0  0  0  0  0
   -3.7579   -5.5951    9.2438 C   0  0  0  0  0  0  0  0  0  0  0  0
   -2.6905   -5.3068    9.8108 O   0  0  0  0  0  0  0  0  0  0  0  0
   -4.9346   -5.2472    9.9360 O   0  0  0  0  0  0  0  0  0  0  0  0
   -5.1896   -5.7596   10.7683 H   0  0  0  0  0  0  0  0  0  0  0  0
   -3.8493   -4.4652    6.3113 C   0  0  0  0  0  0  0  0  0  0  0  0
   -3.0032   -4.8729    5.1937 C   0  0  0  0  0  0  0  0  0  0  0  0
   -2.1548   -5.9558    5.1783 C   0  0  0  0  0  0  0  0  0  0  0  0
   -1.3854   -6.2562    4.0646 C   0  0  0  0  0  0  0  0  0  0  0  0
   -1.4306   -5.4899    2.9210 C   0  0  0  0  0  0  0  0  0  0  0  0
   -0.6504   -5.8189    1.8328 C   0  0  0  0  0  0  0  0  0  0  0  0
   -0.6881   -5.0561    0.6828 C   0  0  0  0  0  0  0  0  0  0  0  0
   -1.5279   -3.9640    0.6664 C   0  0  0  0  0  0  0  0  0  0  0  0
   -2.3171   -3.6330    1.7693 C   0  0  0  0  0  0  0  0  0  0  0  0
   -2.2768   -4.3996    2.9195 C   0  0  0  0  0  0  0  0  0  0  0  0
   -3.0404   -4.1048    4.0303 C   0  0  0  0  0  0  0  0  0  0  0  0
 10 11  1  0  0  0
 11 12  1  0  0  0
 12 13  1  0  0  0
 13 16  1  0  0  0
 16 17  2  0  0  0
 17 18  1  0  0  0
 18 19  2  0  0  0
 19 20  1  0  0  0
 20 21  2  0  0  0
 13 14  2  0  0  0
 14 15  1  0  0  0
 15  9  1  0  0  0
  9  8  1  0  0  0
  8  7  1  0  0  0
  7  1  1  0  0  0
  1  2  2  0  0  0
  2  3  1  0  0  0
  3  4  2  0  0  0
  4  5  1  0  0  0
  5 22  1  0  0  0
 22 23  1  0  0  0
 23 24  1  0  0  0
 24 25  1  0  0  0
 25 26  2  0  0  0
 25 27  1  0  0  0
 23 29  1  0  0  0
 29 30  1  0  0  0
 30 31  2  0  0  0
 31 32  1  0  0  0
 32 33  2  0  0  0
 33 34  1  0  0  0
 34 35  2  0  0  0
 35 36  1  0  0  0
 36 37  2  0  0  0
 37 38  1  0  0  0
 38 39  2  0  0  0
  5  6  2  0  0  0
 15 11  2  0  0  0
  6  1  1  0  0  0
 21 16  1  0  0  0
 39 30  1  0  0  0
 38 33  1  0  0  0
 27 28  1  0  0  0
M  END
> <minimizedAffinity>
-9.48924

> <CNNscore>
0.3243765831

> <CNNaffinity>
6.5490694046

> <CNN_VS>
2.1243648529

> <CNNaffinity_variance>
0.1659434140

$$$$
[H]OC(=O)C([H])([H])N(C([H])([H])c1c([H])c([H])c([H])c(OC([H])([H])C([H])([H])c2nc(-c3c([H])c([H])c([H])c([H])c3[H])oc2C([H])([H])[H])c1[H])C([H])([H])c1c([H])c([H])c2c([H])c([H])c([H])c([H])c2c1[H]


 39 43  0  0  0  0  0  0  0  0999 V2000
   -8.7882   -7.3309    7.6363 C   0  0  0  0  0  0  0  0  0  0  0  0
   -8.5674   -8.6552    7.8894 C   0  0  0  0  0  0  0  0  0  0  0  0
   -7.3613   -9.2221    7.5526 C   0  0  0  0  0  0  0  0  0  0  0  0
   -6.3427   -8.5090    6.9619 C   0  0  0  0  0  0  0  0  0  0  0  0
   -6.5322   -7.1735    6.6938 C   0  0  0  0  0  0  0  0  0  0  0  0
   -7.7383   -6.6199    7.0335 C   0  0  0  0  0  0  0  0  0  0  0  0
   -9.9473   -6.6936    7.9335 O   0  0  0  0  0  0  0  0  0  0  0  0
  -10.6941   -6.5583    9.0642 C   0  0  0  0  0  0  0  0  0  0  0  0
  -11.8491   -7.4826    9.2642 C   0  0  0  0  0  0  0  0  0  0  0  0
  -11.9498   -9.8066    7.1577 C   0  0  0  0  0  0  0  0  0  0  0  0
  -12.7640   -8.5790    7.1010 C   0  0  0  0  0  0  0  0  0  0  0  0
  -13.6487   -8.2538    6.1853 O   0  0  0  0  0  0  0  0  0  0  0  0
  -14.1779   -7.0880    6.4609 C   0  0  0  0  0  0  0  0  0  0  0  0
  -13.6011   -6.6615    7.5995 N   0  0  0  0  0  0  0  0  0  0  0  0
  -12.7129   -7.5556    8.0376 C   0  0  0  0  0  0  0  0  0  0  0  0
  -15.1935   -6.3747    5.6985 C   0  0  0  0  0  0  0  0  0  0  0  0
  -16.5140   -6.7706    5.7405 C   0  0  0  0  0  0  0  0  0  0  0  0
  -17.5027   -6.1062    5.0196 C   0  0  0  0  0  0  0  0  0  0  0  0
  -17.1658   -5.0235    4.2401 C   0  0  0  0  0  0  0  0  0  0  0  0
  -15.8653   -4.6123    4.1823 C   0  0  0  0  0  0  0  0  0  0  0  0
  -14.8835   -5.2894    4.9118 C   0  0  0  0  0  0  0  0  0  0  0  0
   -5.4533   -6.4077    6.0596 C   0  0  0  0  0  0  0  0  0  0  0  0
   -4.2272   -6.3334    6.7788 N   0  0  0  0  0  0  0  0  0  0  0  0
   -3.1334   -6.8964    6.0712 C   0  0  0  0  0  0  0  0  0  0  0  0
   -2.6061   -8.1574    6.6091 C   0  0  0  0  0  0  0  0  0  0  0  0
   -2.4664   -8.4515    7.8082 O   0  0  0  0  0  0  0  0  0  0  0  0
   -2.2134   -9.1452    5.6846 O   0  0  0  0  0  0  0  0  0  0  0  0
   -1.2313   -9.3483    5.5638 H   0  0  0  0  0  0  0  0  0  0  0  0
   -3.9941   -5.0598    7.3920 C   0  0  0  0  0  0  0  0  0  0  0  0
   -3.4884   -5.0921    8.7610 C   0  0  0  0  0  0  0  0  0  0  0  0
   -2.1644   -5.1538    9.1299 C   0  0  0  0  0  0  0  0  0  0  0  0
   -1.7857   -5.1864   10.4632 C   0  0  0  0  0  0  0  0  0  0  0  0
   -2.7109   -5.1585   11.4832 C   0  0  0  0  0  0  0  0  0  0  0  0
   -2.2971   -5.1931   12.7980 C   0  0  0  0  0  0  0  0  0  0  0  0
   -3.2172   -5.1668   13.8269 C   0  0  0  0  0  0  0  0  0  0  0  0
   -4.5519   -5.1054   13.4905 C   0  0  0  0  0  0  0  0  0  0  0  0
   -4.9685   -5.0703   12.1586 C   0  0  0  0  0  0  0  0  0  0  0  0
   -4.0439   -5.0966   11.1307 C   0  0  0  0  0  0  0  0  0  0  0  0
   -4.4157   -5.0643    9.8023 C   0  0  0  0  0  0  0  0  0  0  0  0
 10 11  1  0  0  0
 11 12  1  0  0  0
 12 13  1  0  0  0
 13 16  1  0  0  0
 16 17  2  0  0  0
 17 18  1  0  0  0
 18 19  2  0  0  0
 19 20  1  0  0  0
 20 21  2  0  0  0
 13 14  2  0  0  0
 14 15  1  0  0  0
 15  9  1  0  0  0
  9  8  1  0  0  0
  8  7  1  0  0  0
  7  1  1  0  0  0
  1  2  2  0  0  0
  2  3  1  0  0  0
  3  4  2  0  0  0
  4  5  1  0  0  0
  5 22  1  0  0  0
 22 23  1  0  0  0
 23 24  1  0  0  0
 24 25  1  0  0  0
 25 26  2  0  0  0
 25 27  1  0  0  0
 23 29  1  0  0  0
 29 30  1  0  0  0
 30 31  2  0  0  0
 31 32  1  0  0  0
 32 33  2  0  0  0
 33 34  1  0  0  0
 34 35  2  0  0  0
 35 36  1  0  0  0
 36 37  2  0  0  0
 37 38  1  0  0  0
 38 39  2  0  0  0
  5  6  2  0  0  0
 15 11  2  0  0  0
  6  1  1  0  0  0
 21 16  1  0  0  0
 39 30  1  0  0  0
 38 33  1  0  0  0
 27 28  1  0  0  0
M  END
> <minimizedAffinity>
-9.11489

> <CNNscore>
0.3243104815

> <CNNaffinity>
6.7027540207

> <CNN_VS>
2.1737732887

> <CNNaffinity_variance>
0.1867132336

$$$$
[H]OC(=O)C([H])([H])N(C([H])([H])c1c([H])c([H])c([H])c(OC([H])([H])C([H])([H])c2nc(-c3c([H])c([H])c([H])c([H])c3[H])oc2C([H])([H])[H])c1[H])C([H])([H])c1c([H])c([H])c2c([H])c([H])c([H])c([H])c2c1[H]


 39 43  0  0  0  0  0  0  0  0999 V2000
   -7.5872   -7.7316    7.4320 C   0  0  0  0  0  0  0  0  0  0  0  0
   -7.6090   -7.4326    6.0991 C   0  0  0  0  0  0  0  0  0  0  0  0
   -6.5698   -6.7265    5.5414 C   0  0  0  0  0  0  0  0  0  0  0  0
   -5.4852   -6.2967    6.2720 C   0  0  0  0  0  0  0  0  0  0  0  0
   -5.4320   -6.5812    7.6165 C   0  0  0  0  0  0  0  0  0  0  0  0
   -6.4734   -7.2852    8.1610 C   0  0  0  0  0  0  0  0  0  0  0  0
   -8.5700   -8.4208    8.0622 O   0  0  0  0  0  0  0  0  0  0  0  0
   -9.9308   -8.3858    8.0221 C   0  0  0  0  0  0  0  0  0  0  0  0
  -10.6239   -7.1802    8.5646 C   0  0  0  0  0  0  0  0  0  0  0  0
  -12.9910   -5.9613   10.2258 C   0  0  0  0  0  0  0  0  0  0  0  0
  -13.1323   -6.6332    8.9213 C   0  0  0  0  0  0  0  0  0  0  0  0
  -14.2420   -6.8324    8.2462 O   0  0  0  0  0  0  0  0  0  0  0  0
  -13.9844   -7.4625    7.1274 C   0  0  0  0  0  0  0  0  0  0  0  0
  -12.6548   -7.6683    7.0976 N   0  0  0  0  0  0  0  0  0  0  0  0
  -12.0793   -7.1698    8.1932 C   0  0  0  0  0  0  0  0  0  0  0  0
  -14.9351   -7.8698    6.1019 C   0  0  0  0  0  0  0  0  0  0  0  0
  -16.2892   -7.6765    6.2792 C   0  0  0  0  0  0  0  0  0  0  0  0
  -17.2176   -8.0586    5.3146 C   0  0  0  0  0  0  0  0  0  0  0  0
  -16.7850   -8.6465    4.1481 C   0  0  0  0  0  0  0  0  0  0  0  0
  -15.4496   -8.8483    3.9493 C   0  0  0  0  0  0  0  0  0  0  0  0
  -14.5291   -8.4592    4.9270 C   0  0  0  0  0  0  0  0  0  0  0  0
   -4.2817   -6.1222    8.4032 C   0  0  0  0  0  0  0  0  0  0  0  0
   -3.0173   -6.6716    8.0492 N   0  0  0  0  0  0  0  0  0  0  0  0
   -3.1221   -7.8068    7.2040 C   0  0  0  0  0  0  0  0  0  0  0  0
   -2.1534   -8.8819    7.4557 C   0  0  0  0  0  0  0  0  0  0  0  0
   -1.8397   -9.7956    6.6741 O   0  0  0  0  0  0  0  0  0  0  0  0
   -1.5048   -8.8935    8.7061 O   0  0  0  0  0  0  0  0  0  0  0  0
   -1.7409   -9.6079    9.3801 H   0  0  0  0  0  0  0  0  0  0  0  0
   -2.0471   -5.6886    7.6687 C   0  0  0  0  0  0  0  0  0  0  0  0
   -2.3216   -4.9645    6.4313 C   0  0  0  0  0  0  0  0  0  0  0  0
   -3.0271   -3.7881    6.3253 C   0  0  0  0  0  0  0  0  0  0  0  0
   -3.2394   -3.1800    5.0975 C   0  0  0  0  0  0  0  0  0  0  0  0
   -2.7570   -3.7192    3.9255 C   0  0  0  0  0  0  0  0  0  0  0  0
   -2.9883   -3.0864    2.7225 C   0  0  0  0  0  0  0  0  0  0  0  0
   -2.5098   -3.6200    1.5426 C   0  0  0  0  0  0  0  0  0  0  0  0
   -1.7992   -4.7982    1.6148 C   0  0  0  0  0  0  0  0  0  0  0  0
   -1.5660   -5.4369    2.8340 C   0  0  0  0  0  0  0  0  0  0  0  0
   -2.0467   -4.8993    4.0138 C   0  0  0  0  0  0  0  0  0  0  0  0
   -1.8382   -5.5007    5.2380 C   0  0  0  0  0  0  0  0  0  0  0  0
 10 11  1  0  0  0
 11 12  1  0  0  0
 12 13  1  0  0  0
 13 16  1  0  0  0
 16 17  2  0  0  0
 17 18  1  0  0  0
 18 19  2  0  0  0
 19 20  1  0  0  0
 20 21  2  0  0  0
 13 14  2  0  0  0
 14 15  1  0  0  0
 15  9  1  0  0  0
  9  8  1  0  0  0
  8  7  1  0  0  0
  7  1  1  0  0  0
  1  2  2  0  0  0
  2  3  1  0  0  0
  3  4  2  0  0  0
  4  5  1  0  0  0
  5 22  1  0  0  0
 22 23  1  0  0  0
 23 24  1  0  0  0
 24 25  1  0  0  0
 25 26  2  0  0  0
 25 27  1  0  0  0
 23 29  1  0  0  0
 29 30  1  0  0  0
 30 31  2  0  0  0
 31 32  1  0  0  0
 32 33  2  0  0  0
 33 34  1  0  0  0
 34 35  2  0  0  0
 35 36  1  0  0  0
 36 37  2  0  0  0
 37 38  1  0  0  0
 38 39  2  0  0  0
  5  6  2  0  0  0
 15 11  2  0  0  0
  6  1  1  0  0  0
 21 16  1  0  0  0
 39 30  1  0  0  0
 38 33  1  0  0  0
 27 28  1  0  0  0
M  END
> <minimizedAffinity>
-8.40212

> <CNNscore>
0.3121048510

> <CNNaffinity>
6.5067949295

> <CNN_VS>
2.0308022499

> <CNNaffinity_variance>
0.1051557213

$$$$
[H]OC(=O)C([H])([H])N(C([H])([H])c1c([H])c([H])c([H])c(OC([H])([H])C([H])([H])c2nc(-c3c([H])c([H])c([H])c([H])c3[H])oc2C([H])([H])[H])c1[H])C([H])([H])c1c([H])c([H])c2c([H])c([H])c([H])c([H])c2c1[H]


 39 43  0  0  0  0  0  0  0  0999 V2000
   -7.8753   -8.0591    7.6824 C   0  0  0  0  0  0  0  0  0  0  0  0
   -7.5576   -8.7246    6.5323 C   0  0  0  0  0  0  0  0  0  0  0  0
   -6.3041   -8.5830    5.9864 C   0  0  0  0  0  0  0  0  0  0  0  0
   -5.3316   -7.7890    6.5512 C   0  0  0  0  0  0  0  0  0  0  0  0
   -5.6187   -7.1055    7.7096 C   0  0  0  0  0  0  0  0  0  0  0  0
   -6.8713   -7.2542    8.2439 C   0  0  0  0  0  0  0  0  0  0  0  0
   -9.0867   -8.1404    8.2857 O   0  0  0  0  0  0  0  0  0  0  0  0
  -10.3261   -7.6554    7.9975 C   0  0  0  0  0  0  0  0  0  0  0  0
  -11.4406   -8.6300    7.8067 C   0  0  0  0  0  0  0  0  0  0  0  0
  -13.4760   -7.9185   10.0870 C   0  0  0  0  0  0  0  0  0  0  0  0
  -13.6675   -7.6123    8.6578 C   0  0  0  0  0  0  0  0  0  0  0  0
  -14.6939   -7.0051    8.1058 O   0  0  0  0  0  0  0  0  0  0  0  0
  -14.5190   -6.9062    6.8116 C   0  0  0  0  0  0  0  0  0  0  0  0
  -13.3308   -7.4758    6.5379 N   0  0  0  0  0  0  0  0  0  0  0  0
  -12.7615   -7.9310    7.6554 C   0  0  0  0  0  0  0  0  0  0  0  0
  -15.4205   -6.3015    5.8405 C   0  0  0  0  0  0  0  0  0  0  0  0
  -14.9978   -5.2627    5.0377 C   0  0  0  0  0  0  0  0  0  0  0  0
  -15.8410   -4.6673    4.1033 C   0  0  0  0  0  0  0  0  0  0  0  0
  -17.1338   -5.1184    3.9677 C   0  0  0  0  0  0  0  0  0  0  0  0
  -17.5756   -6.1456    4.7510 C   0  0  0  0  0  0  0  0  0  0  0  0
  -16.7173   -6.7336    5.6848 C   0  0  0  0  0  0  0  0  0  0  0  0
   -4.5893   -6.2531    8.3149 C   0  0  0  0  0  0  0  0  0  0  0  0
   -3.5460   -5.8158    7.4510 N   0  0  0  0  0  0  0  0  0  0  0  0
   -3.7207   -4.4814    7.0006 C   0  0  0  0  0  0  0  0  0  0  0  0
   -3.7537   -4.2984    5.5435 C   0  0  0  0  0  0  0  0  0  0  0  0
   -3.2337   -5.0380    4.6911 O   0  0  0  0  0  0  0  0  0  0  0  0
   -4.4407   -3.1743    5.0446 O   0  0  0  0  0  0  0  0  0  0  0  0
   -3.9154   -2.4112    4.6419 H   0  0  0  0  0  0  0  0  0  0  0  0
   -2.2337   -6.1604    7.9106 C   0  0  0  0  0  0  0  0  0  0  0  0
   -1.8471   -7.5591    7.7519 C   0  0  0  0  0  0  0  0  0  0  0  0
   -1.4621   -8.4087    8.7632 C   0  0  0  0  0  0  0  0  0  0  0  0
   -1.1064   -9.7240    8.5069 C   0  0  0  0  0  0  0  0  0  0  0  0
   -1.1204  -10.2463    7.2325 C   0  0  0  0  0  0  0  0  0  0  0  0
   -0.7596  -11.5593    7.0156 C   0  0  0  0  0  0  0  0  0  0  0  0
   -0.7693  -12.0912    5.7417 C   0  0  0  0  0  0  0  0  0  0  0  0
   -1.1500  -11.2656    4.7064 C   0  0  0  0  0  0  0  0  0  0  0  0
   -1.5151   -9.9366    4.9284 C   0  0  0  0  0  0  0  0  0  0  0  0
   -1.5043   -9.4075    6.2059 C   0  0  0  0  0  0  0  0  0  0  0  0
   -1.8573   -8.0992    6.4661 C   0  0  0  0  0  0  0  0  0  0  0  0
 10 11  1  0  0  0
 11 12  1  0  0  0
 12 13  1  0  0  0
 13 16  1  0  0  0
 16 17  2  0  0  0
 17 18  1  0  0  0
 18 19  2  0  0  0
 19 20  1  0  0  0
 20 21  2  0  0  0
 13 14  2  0  0  0
 14 15  1  0  0  0
 15  9  1  0  0  0
  9  8  1  0  0  0
  8  7  1  0  0  0
  7  1  1  0  0  0
  1  2  2  0  0  0
  2  3  1  0  0  0
  3  4  2  0  0  0
  4  5  1  0  0  0
  5 22  1  0  0  0
 22 23  1  0  0  0
 23 24  1  0  0  0
 24 25  1  0  0  0
 25 26  2  0  0  0
 25 27  1  0  0  0
 23 29  1  0  0  0
 29 30  1  0  0  0
 30 31  2  0  0  0
 31 32  1  0  0  0
 32 33  2  0  0  0
 33 34  1  0  0  0
 34 35  2  0  0  0
 35 36  1  0  0  0
 36 37  2  0  0  0
 37 38  1  0  0  0
 38 39  2  0  0  0
  5  6  2  0  0  0
 15 11  2  0  0  0
  6  1  1  0  0  0
 21 16  1  0  0  0
 39 30  1  0  0  0
 38 33  1  0  0  0
 27 28  1  0  0  0
M  END
> <minimizedAffinity>
-9.32682

> <CNNscore>
0.2883634865

> <CNNaffinity>
6.5895795822

> <CNN_VS>
1.9001941681

> <CNNaffinity_variance>
0.2082950622

$$$$
[H]OC(=O)C([H])([H])N(C([H])([H])c1c([H])c([H])c([H])c(OC([H])([H])C([H])([H])c2nc(-c3c([H])c([H])c([H])c([H])c3[H])oc2C([H])([H])[H])c1[H])C([H])([H])c1c([H])c([H])c2c([H])c([H])c([H])c([H])c2c1[H]


 39 43  0  0  0  0  0  0  0  0999 V2000
   -9.3575   -7.7289    7.9012 C   0  0  0  0  0  0  0  0  0  0  0  0
   -9.3410   -9.0210    7.4575 C   0  0  0  0  0  0  0  0  0  0  0  0
   -8.1411   -9.6731    7.3014 C   0  0  0  0  0  0  0  0  0  0  0  0
   -6.9299   -9.0792    7.5755 C   0  0  0  0  0  0  0  0  0  0  0  0
   -6.9111   -7.7793    8.0243 C   0  0  0  0  0  0  0  0  0  0  0  0
   -8.1130   -7.1397    8.1756 C   0  0  0  0  0  0  0  0  0  0  0  0
  -10.4942   -7.0121    8.0808 O   0  0  0  0  0  0  0  0  0  0  0  0
  -11.2919   -6.7487    9.1526 C   0  0  0  0  0  0  0  0  0  0  0  0
  -12.4359   -7.6679    9.4261 C   0  0  0  0  0  0  0  0  0  0  0  0
  -13.3703  -10.2687    7.9390 C   0  0  0  0  0  0  0  0  0  0  0  0
  -13.7838   -8.8985    7.5856 C   0  0  0  0  0  0  0  0  0  0  0  0
  -14.5927   -8.5381    6.6147 O   0  0  0  0  0  0  0  0  0  0  0  0
  -14.7302   -7.2358    6.5999 C   0  0  0  0  0  0  0  0  0  0  0  0
  -13.9749   -6.7564    7.6053 N   0  0  0  0  0  0  0  0  0  0  0  0
  -13.3652   -7.7532    8.2491 C   0  0  0  0  0  0  0  0  0  0  0  0
  -15.5376   -6.4415    5.6841 C   0  0  0  0  0  0  0  0  0  0  0  0
  -15.0083   -5.3323    5.0582 C   0  0  0  0  0  0  0  0  0  0  0  0
  -15.7604   -4.5564    4.1802 C   0  0  0  0  0  0  0  0  0  0  0  0
  -17.0688   -4.8948    3.9218 C   0  0  0  0  0  0  0  0  0  0  0  0
  -17.6154   -5.9885    4.5292 C   0  0  0  0  0  0  0  0  0  0  0  0
  -16.8478   -6.7582    5.4084 C   0  0  0  0  0  0  0  0  0  0  0  0
   -5.6239   -7.1375    8.3138 C   0  0  0  0  0  0  0  0  0  0  0  0
   -4.7192   -7.0199    7.2212 N   0  0  0  0  0  0  0  0  0  0  0  0
   -4.2322   -8.2728    6.7662 C   0  0  0  0  0  0  0  0  0  0  0  0
   -2.7711   -8.3970    6.6805 C   0  0  0  0  0  0  0  0  0  0  0  0
   -1.9778   -7.5411    6.2538 O   0  0  0  0  0  0  0  0  0  0  0  0
   -2.1938   -9.6035    7.1226 O   0  0  0  0  0  0  0  0  0  0  0  0
   -1.8027  -10.2429    6.4455 H   0  0  0  0  0  0  0  0  0  0  0  0
   -5.1543   -6.1057    6.2076 C   0  0  0  0  0  0  0  0  0  0  0  0
   -4.3116   -4.9319    6.0006 C   0  0  0  0  0  0  0  0  0  0  0  0
   -4.1723   -4.2375    4.8211 C   0  0  0  0  0  0  0  0  0  0  0  0
   -3.3383   -3.1341    4.7253 C   0  0  0  0  0  0  0  0  0  0  0  0
   -2.6095   -2.6775    5.8012 C   0  0  0  0  0  0  0  0  0  0  0  0
   -1.7896   -1.5769    5.6683 C   0  0  0  0  0  0  0  0  0  0  0  0
   -1.0544   -1.1128    6.7407 C   0  0  0  0  0  0  0  0  0  0  0  0
   -1.1716   -1.7868    7.9367 C   0  0  0  0  0  0  0  0  0  0  0  0
   -2.0025   -2.9008    8.0688 C   0  0  0  0  0  0  0  0  0  0  0  0
   -2.7375   -3.3626    6.9925 C   0  0  0  0  0  0  0  0  0  0  0  0
   -3.5689   -4.4602    7.0827 C   0  0  0  0  0  0  0  0  0  0  0  0
 10 11  1  0  0  0
 11 12  1  0  0  0
 12 13  1  0  0  0
 13 16  1  0  0  0
 16 17  2  0  0  0
 17 18  1  0  0  0
 18 19  2  0  0  0
 19 20  1  0  0  0
 20 21  2  0  0  0
 13 14  2  0  0  0
 14 15  1  0  0  0
 15  9  1  0  0  0
  9  8  1  0  0  0
  8  7  1  0  0  0
  7  1  1  0  0  0
  1  2  2  0  0  0
  2  3  1  0  0  0
  3  4  2  0  0  0
  4  5  1  0  0  0
  5 22  1  0  0  0
 22 23  1  0  0  0
 23 24  1  0  0  0
 24 25  1  0  0  0
 25 26  2  0  0  0
 25 27  1  0  0  0
 23 29  1  0  0  0
 29 30  1  0  0  0
 30 31  2  0  0  0
 31 32  1  0  0  0
 32 33  2  0  0  0
 33 34  1  0  0  0
 34 35  2  0  0  0
 35 36  1  0  0  0
 36 37  2  0  0  0
 37 38  1  0  0  0
 38 39  2  0  0  0
  5  6  2  0  0  0
 15 11  2  0  0  0
  6  1  1  0  0  0
 21 16  1  0  0  0
 39 30  1  0  0  0
 38 33  1  0  0  0
 27 28  1  0  0  0
M  END
> <minimizedAffinity>
-8.64484

> <CNNscore>
0.2716563940

> <CNNaffinity>
6.6715784073

> <CNN_VS>
1.8123769760

> <CNNaffinity_variance>
0.1657343209

$$$$
[H]c1nc([H])c(N([H])C2([H])C([H])([H])N(C(=O)c3c(C([H])([H])[H])noc3C([H])([H])[H])C2([H])[H])c([H])c1N1C(=O)c2c([H])c([H])c(Cl)c([H])c2C([H])([H])C1([H])[H]


 33 37  0  0  0  0  0  0  0  0999 V2000
  -16.4021   -8.8254    5.1783 C   0  0  0  0  0  0  0  0  0  0  0  0
  -16.1849   -8.8756    3.7933 C   0  0  0  0  0  0  0  0  0  0  0  0
  -14.9365   -8.9716    3.3117 N   0  0  0  0  0  0  0  0  0  0  0  0
  -13.8594   -9.0225    4.1335 C   0  0  0  0  0  0  0  0  0  0  0  0
  -13.9954   -8.9782    5.5073 C   0  0  0  0  0  0  0  0  0  0  0  0
  -15.2987   -8.8782    5.9991 C   0  0  0  0  0  0  0  0  0  0  0  0
  -12.8758   -9.0436    6.3751 N   0  0  0  0  0  0  0  0  0  0  0  0
  -12.2006  -10.3160    6.5057 C   0  0  0  0  0  0  0  0  0  0  0  0
  -10.7273  -10.1853    6.6936 C   0  0  0  0  0  0  0  0  0  0  0  0
  -10.3207   -8.9398    7.3736 C   0  0  0  0  0  0  0  0  0  0  0  0
   -9.0124   -8.9059    7.8518 C   0  0  0  0  0  0  0  0  0  0  0  0
   -8.5263   -7.7762    8.5184 C   0  0  0  0  0  0  0  0  0  0  0  0
   -6.8807   -7.7179    9.1237 Cl  0  0  0  0  0  0  0  0  0  0  0  0
   -9.3259   -6.6615    8.7235 C   0  0  0  0  0  0  0  0  0  0  0  0
  -10.6241   -6.7323    8.2327 C   0  0  0  0  0  0  0  0  0  0  0  0
  -11.0967   -7.8467    7.5768 C   0  0  0  0  0  0  0  0  0  0  0  0
  -12.4667   -7.8615    7.0609 C   0  0  0  0  0  0  0  0  0  0  0  0
  -13.2155   -6.8735    7.2283 O   0  0  0  0  0  0  0  0  0  0  0  0
  -17.7305   -8.7328    5.6473 N   0  0  0  0  0  0  0  0  0  0  0  0
  -18.0006   -9.2959    6.4896 H   0  0  0  0  0  0  0  0  0  0  0  0
  -16.4421   -5.5788    3.6766 C   0  0  0  0  0  0  0  0  0  0  0  0
  -16.0669   -6.1140    2.5106 O   0  0  0  0  0  0  0  0  0  0  0  0
  -17.5378   -6.2730    4.2038 N   0  0  0  0  0  0  0  0  0  0  0  0
  -18.2620   -7.4437    3.5942 C   0  0  0  0  0  0  0  0  0  0  0  0
  -18.6765   -7.8715    4.9626 C   0  0  0  0  0  0  0  0  0  0  0  0
  -18.4498   -6.3892    5.2735 C   0  0  0  0  0  0  0  0  0  0  0  0
  -14.8768   -5.5388    6.3474 C   0  0  0  0  0  0  0  0  0  0  0  0
  -14.9639   -4.4531    5.3298 C   0  0  0  0  0  0  0  0  0  0  0  0
  -14.3451   -3.2683    5.4324 N   0  0  0  0  0  0  0  0  0  0  0  0
  -14.6113   -2.5675    4.4119 O   0  0  0  0  0  0  0  0  0  0  0  0
  -15.4183   -3.2465    3.5780 C   0  0  0  0  0  0  0  0  0  0  0  0
  -15.8848   -2.6737    2.3137 C   0  0  0  0  0  0  0  0  0  0  0  0
  -15.6786   -4.4621    4.1143 C   0  0  0  0  0  0  0  0  0  0  0  0
 27 28  1  0  0  0
 28 29  2  0  0  0
 29 30  1  0  0  0
 30 31  1  0  0  0
 31 32  1  0  0  0
 31 33  2  0  0  0
 33 21  1  0  0  0
 21 22  2  0  0  0
 21 23  1  0  0  0
 23 24  1  0  0  0
 24 25  1  0  0  0
 25 19  1  0  0  0
 19  1  1  0  0  0
  1  2  2  0  0  0
  2  3  1  0  0  0
  3  4  2  0  0  0
  4  5  1  0  0  0
  5  7  1  0  0  0
  7  8  1  0  0  0
  8  9  1  0  0  0
  9 10  1  0  0  0
 10 11  2  0  0  0
 11 12  1  0  0  0
 12 13  1  0  0  0
 12 14  2  0  0  0
 14 15  1  0  0  0
 15 16  2  0  0  0
 16 17  1  0  0  0
 17 18  2  0  0  0
  5  6  2  0  0  0
 25 26  1  0  0  0
 33 28  1  0  0  0
 26 23  1  0  0  0
  6  1  1  0  0  0
 17  7  1  0  0  0
 16 10  1  0  0  0
 19 20  1  0  0  0
M  END
> <minimizedAffinity>
2.04835

> <CNNscore>
0.3929906189

> <CNNaffinity>
7.2520279884

> <CNN_VS>
2.8499789238

> <CNNaffinity_variance>
0.8008953929

$$$$
[H]c1nc([H])c(N([H])C2([H])C([H])([H])N(C(=O)c3c(C([H])([H])[H])noc3C([H])([H])[H])C2([H])[H])c([H])c1N1C(=O)c2c([H])c([H])c(Cl)c([H])c2C([H])([H])C1([H])[H]


 33 37  0  0  0  0  0  0  0  0999 V2000
  -14.7820   -6.4938    4.0766 C   0  0  0  0  0  0  0  0  0  0  0  0
  -15.2567   -5.1745    4.0332 C   0  0  0  0  0  0  0  0  0  0  0  0
  -15.2134   -4.4079    5.1333 N   0  0  0  0  0  0  0  0  0  0  0  0
  -14.7173   -4.8742    6.3057 C   0  0  0  0  0  0  0  0  0  0  0  0
  -14.2320   -6.1619    6.4243 C   0  0  0  0  0  0  0  0  0  0  0  0
  -14.2815   -6.9523    5.2739 C   0  0  0  0  0  0  0  0  0  0  0  0
  -13.6997   -6.6544    7.6428 N   0  0  0  0  0  0  0  0  0  0  0  0
  -13.5293   -5.7152    8.7295 C   0  0  0  0  0  0  0  0  0  0  0  0
  -13.7705   -6.3168   10.0722 C   0  0  0  0  0  0  0  0  0  0  0  0
  -13.4593   -7.7579   10.1450 C   0  0  0  0  0  0  0  0  0  0  0  0
  -13.3641   -8.2968   11.4264 C   0  0  0  0  0  0  0  0  0  0  0  0
  -13.0664   -9.6513   11.6097 C   0  0  0  0  0  0  0  0  0  0  0  0
  -12.9458  -10.3444   13.2168 Cl  0  0  0  0  0  0  0  0  0  0  0  0
  -12.8573  -10.4952   10.5289 C   0  0  0  0  0  0  0  0  0  0  0  0
  -12.9605   -9.9221    9.2671 C   0  0  0  0  0  0  0  0  0  0  0  0
  -13.2546   -8.5885    9.0929 C   0  0  0  0  0  0  0  0  0  0  0  0
  -13.3723   -8.0393    7.7410 C   0  0  0  0  0  0  0  0  0  0  0  0
  -13.1899   -8.7719    6.7435 O   0  0  0  0  0  0  0  0  0  0  0  0
  -14.8366   -7.2669    2.8966 N   0  0  0  0  0  0  0  0  0  0  0  0
  -14.7474   -6.7744    1.9752 H   0  0  0  0  0  0  0  0  0  0  0  0
  -18.0032   -8.7504    4.7030 C   0  0  0  0  0  0  0  0  0  0  0  0
  -18.9280   -8.6861    3.7399 O   0  0  0  0  0  0  0  0  0  0  0  0
  -16.7388   -8.9922    4.1522 N   0  0  0  0  0  0  0  0  0  0  0  0
  -16.3929   -9.1901    2.7004 C   0  0  0  0  0  0  0  0  0  0  0  0
  -15.0109   -8.7047    2.9862 C   0  0  0  0  0  0  0  0  0  0  0  0
  -15.3618   -9.1644    4.4043 C   0  0  0  0  0  0  0  0  0  0  0  0
  -20.5000  -10.2032    5.8168 C   0  0  0  0  0  0  0  0  0  0  0  0
  -19.6179   -9.2369    6.5310 C   0  0  0  0  0  0  0  0  0  0  0  0
  -19.7871   -8.8571    7.8054 N   0  0  0  0  0  0  0  0  0  0  0  0
  -18.8780   -8.0340    8.1209 O   0  0  0  0  0  0  0  0  0  0  0  0
  -18.0575   -7.8233    7.0768 C   0  0  0  0  0  0  0  0  0  0  0  0
  -16.9127   -6.9143    7.1621 C   0  0  0  0  0  0  0  0  0  0  0  0
  -18.4828   -8.5677    6.0289 C   0  0  0  0  0  0  0  0  0  0  0  0
 27 28  1  0  0  0
 28 29  2  0  0  0
 29 30  1  0  0  0
 30 31  1  0  0  0
 31 32  1  0  0  0
 31 33  2  0  0  0
 33 21  1  0  0  0
 21 22  2  0  0  0
 21 23  1  0  0  0
 23 24  1  0  0  0
 24 25  1  0  0  0
 25 19  1  0  0  0
 19  1  1  0  0  0
  1  2  2  0  0  0
  2  3  1  0  0  0
  3  4  2  0  0  0
  4  5  1  0  0  0
  5  7  1  0  0  0
  7  8  1  0  0  0
  8  9  1  0  0  0
  9 10  1  0  0  0
 10 11  2  0  0  0
 11 12  1  0  0  0
 12 13  1  0  0  0
 12 14  2  0  0  0
 14 15  1  0  0  0
 15 16  2  0  0  0
 16 17  1  0  0  0
 17 18  2  0  0  0
  5  6  2  0  0  0
 25 26  1  0  0  0
 33 28  1  0  0  0
 26 23  1  0  0  0
  6  1  1  0  0  0
 17  7  1  0  0  0
 16 10  1  0  0  0
 19 20  1  0  0  0
M  END
> <minimizedAffinity>
11.34798

> <CNNscore>
0.3314989209

> <CNNaffinity>
6.8884115219

> <CNN_VS>
2.2835009098

> <CNNaffinity_variance>
0.1522649974

$$$$
[H]c1nc([H])c(N([H])C2([H])C([H])([H])N(C(=O)c3c(C([H])([H])[H])noc3C([H])([H])[H])C2([H])[H])c([H])c1N1C(=O)c2c([H])c([H])c(Cl)c([H])c2C([H])([H])C1([H])[H]


 33 37  0  0  0  0  0  0  0  0999 V2000
  -10.9405   -8.2914    7.5014 C   0  0  0  0  0  0  0  0  0  0  0  0
  -10.7725   -9.6563    7.2243 C   0  0  0  0  0  0  0  0  0  0  0  0
   -9.5399  -10.1671    7.0847 N   0  0  0  0  0  0  0  0  0  0  0  0
   -8.4323   -9.3946    7.2047 C   0  0  0  0  0  0  0  0  0  0  0  0
   -8.5193   -8.0432    7.4768 C   0  0  0  0  0  0  0  0  0  0  0  0
   -9.8065   -7.5206    7.6202 C   0  0  0  0  0  0  0  0  0  0  0  0
   -7.3663   -7.2298    7.6166 N   0  0  0  0  0  0  0  0  0  0  0  0
   -6.8247   -7.0551    8.9463 C   0  0  0  0  0  0  0  0  0  0  0  0
   -5.3376   -6.9489    8.9681 C   0  0  0  0  0  0  0  0  0  0  0  0
   -4.7629   -6.3675    7.7391 C   0  0  0  0  0  0  0  0  0  0  0  0
   -3.4337   -5.9578    7.8226 C   0  0  0  0  0  0  0  0  0  0  0  0
   -2.7931   -5.3867    6.7180 C   0  0  0  0  0  0  0  0  0  0  0  0
   -1.1194   -4.8685    6.8074 Cl  0  0  0  0  0  0  0  0  0  0  0  0
   -3.4564   -5.2108    5.5125 C   0  0  0  0  0  0  0  0  0  0  0  0
   -4.7801   -5.6314    5.4673 C   0  0  0  0  0  0  0  0  0  0  0  0
   -5.4051   -6.1934    6.5576 C   0  0  0  0  0  0  0  0  0  0  0  0
   -6.7955   -6.6388    6.4504 C   0  0  0  0  0  0  0  0  0  0  0  0
   -7.4240   -6.4953    5.3783 O   0  0  0  0  0  0  0  0  0  0  0  0
  -12.2527   -7.7923    7.6496 N   0  0  0  0  0  0  0  0  0  0  0  0
  -12.3964   -6.7541    7.6159 H   0  0  0  0  0  0  0  0  0  0  0  0
  -15.2367   -7.8425    5.0834 C   0  0  0  0  0  0  0  0  0  0  0  0
  -14.7482   -8.6103    4.1044 O   0  0  0  0  0  0  0  0  0  0  0  0
  -14.7427   -8.2596    6.3254 N   0  0  0  0  0  0  0  0  0  0  0  0
  -13.8152   -9.4123    6.6038 C   0  0  0  0  0  0  0  0  0  0  0  0
  -13.3559   -8.7153    7.8410 C   0  0  0  0  0  0  0  0  0  0  0  0
  -14.7202   -8.0306    7.7170 C   0  0  0  0  0  0  0  0  0  0  0  0
  -18.2669   -8.2828    4.6262 C   0  0  0  0  0  0  0  0  0  0  0  0
  -17.5000   -7.0143    4.4692 C   0  0  0  0  0  0  0  0  0  0  0  0
  -18.0405   -5.8437    4.1026 N   0  0  0  0  0  0  0  0  0  0  0  0
  -17.1352   -4.9592    4.0623 O   0  0  0  0  0  0  0  0  0  0  0  0
  -15.9478   -5.4922    4.3993 C   0  0  0  0  0  0  0  0  0  0  0  0
  -14.7222   -4.6918    4.4382 C   0  0  0  0  0  0  0  0  0  0  0  0
  -16.1198   -6.8075    4.6704 C   0  0  0  0  0  0  0  0  0  0  0  0
 27 28  1  0  0  0
 28 29  2  0  0  0
 29 30  1  0  0  0
 30 31  1  0  0  0
 31 32  1  0  0  0
 31 33  2  0  0  0
 33 21  1  0  0  0
 21 22  2  0  0  0
 21 23  1  0  0  0
 23 24  1  0  0  0
 24 25  1  0  0  0
 25 19  1  0  0  0
 19  1  1  0  0  0
  1  2  2  0  0  0
  2  3  1  0  0  0
  3  4  2  0  0  0
  4  5  1  0  0  0
  5  7  1  0  0  0
  7  8  1  0  0  0
  8  9  1  0  0  0
  9 10  1  0  0  0
 10 11  2  0  0  0
 11 12  1  0  0  0
 12 13  1  0  0  0
 12 14  2  0  0  0
 14 15  1  0  0  0
 15 16  2  0  0  0
 16 17  1  0  0  0
 17 18  2  0  0  0
  5  6  2  0  0  0
 25 26  1  0  0  0
 33 28  1  0  0  0
 26 23  1  0  0  0
  6  1  1  0  0  0
 17  7  1  0  0  0
 16 10  1  0  0  0
 19 20  1  0  0  0
M  END
> <minimizedAffinity>
-9.41890

> <CNNscore>
0.3307381868

> <CNNaffinity>
7.1559615135

> <CNN_VS>
2.3667497635

> <CNNaffinity_variance>
0.0153899398

$$$$
[H]c1nc([H])c(N([H])C2([H])C([H])([H])N(C(=O)c3c(C([H])([H])[H])noc3C([H])([H])[H])C2([H])[H])c([H])c1N1C(=O)c2c([H])c([H])c(Cl)c([H])c2C([H])([H])C1([H])[H]


 33 37  0  0  0  0  0  0  0  0999 V2000
  -14.1011   -9.9140    6.7557 C   0  0  0  0  0  0  0  0  0  0  0  0
  -13.4288  -11.0870    7.1295 C   0  0  0  0  0  0  0  0  0  0  0  0
  -12.7690  -11.1409    8.2963 N   0  0  0  0  0  0  0  0  0  0  0  0
  -12.7299  -10.0809    9.1406 C   0  0  0  0  0  0  0  0  0  0  0  0
  -13.3681   -8.8934    8.8402 C   0  0  0  0  0  0  0  0  0  0  0  0
  -14.0521   -8.8468    7.6234 C   0  0  0  0  0  0  0  0  0  0  0  0
  -13.3434   -7.7836    9.7226 N   0  0  0  0  0  0  0  0  0  0  0  0
  -13.2630   -8.0550   11.1410 C   0  0  0  0  0  0  0  0  0  0  0  0
  -12.4646   -7.0432   11.8906 C   0  0  0  0  0  0  0  0  0  0  0  0
  -12.4932   -5.6956   11.2890 C   0  0  0  0  0  0  0  0  0  0  0  0
  -12.0364   -4.6573   12.0980 C   0  0  0  0  0  0  0  0  0  0  0  0
  -12.0272   -3.3394   11.6290 C   0  0  0  0  0  0  0  0  0  0  0  0
  -11.4526   -2.0222   12.6352 Cl  0  0  0  0  0  0  0  0  0  0  0  0
  -12.4700   -3.0264   10.3523 C   0  0  0  0  0  0  0  0  0  0  0  0
  -12.9179   -4.0877    9.5750 C   0  0  0  0  0  0  0  0  0  0  0  0
  -12.9240   -5.3828   10.0419 C   0  0  0  0  0  0  0  0  0  0  0  0
  -13.3869   -6.4674    9.1744 C   0  0  0  0  0  0  0  0  0  0  0  0
  -13.7933   -6.2210    8.0172 O   0  0  0  0  0  0  0  0  0  0  0  0
  -14.7913   -9.8983    5.5242 N   0  0  0  0  0  0  0  0  0  0  0  0
  -15.7561  -10.3075    5.4898 H   0  0  0  0  0  0  0  0  0  0  0  0
  -15.6017   -6.1920    4.4765 C   0  0  0  0  0  0  0  0  0  0  0  0
  -14.7877   -5.4935    5.2742 O   0  0  0  0  0  0  0  0  0  0  0  0
  -15.0146   -7.4142    4.1274 N   0  0  0  0  0  0  0  0  0  0  0  0
  -13.6574   -7.9280    4.5282 C   0  0  0  0  0  0  0  0  0  0  0  0
  -14.1579   -9.3229    4.3522 C   0  0  0  0  0  0  0  0  0  0  0  0
  -15.1610   -8.6292    3.4260 C   0  0  0  0  0  0  0  0  0  0  0  0
  -18.3473   -7.5295    4.9843 C   0  0  0  0  0  0  0  0  0  0  0  0
  -18.0877   -6.1815    4.4035 C   0  0  0  0  0  0  0  0  0  0  0  0
  -19.0454   -5.3277    4.0147 N   0  0  0  0  0  0  0  0  0  0  0  0
  -18.5082   -4.2711    3.5693 O   0  0  0  0  0  0  0  0  0  0  0  0
  -17.1687   -4.3646    3.6381 C   0  0  0  0  0  0  0  0  0  0  0  0
  -16.2922   -3.2806    3.1901 C   0  0  0  0  0  0  0  0  0  0  0  0
  -16.8407   -5.5681    4.1645 C   0  0  0  0  0  0  0  0  0  0  0  0
 27 28  1  0  0  0
 28 29  2  0  0  0
 29 30  1  0  0  0
 30 31  1  0  0  0
 31 32  1  0  0  0
 31 33  2  0  0  0
 33 21  1  0  0  0
 21 22  2  0  0  0
 21 23  1  0  0  0
 23 24  1  0  0  0
 24 25  1  0  0  0
 25 19  1  0  0  0
 19  1  1  0  0  0
  1  2  2  0  0  0
  2  3  1  0  0  0
  3  4  2  0  0  0
  4  5  1  0  0  0
  5  7  1  0  0  0
  7  8  1  0  0  0
  8  9  1  0  0  0
  9 10  1  0  0  0
 10 11  2  0  0  0
 11 12  1  0  0  0
 12 13  1  0  0  0
 12 14  2  0  0  0
 14 15  1  0  0  0
 15 16  2  0  0  0
 16 17  1  0  0  0
 17 18  2  0  0  0
  5  6  2  0  0  0
 25 26  1  0  0  0
 33 28  1  0  0  0
 26 23  1  0  0  0
  6  1  1  0  0  0
 17  7  1  0  0  0
 16 10  1  0  0  0
 19 20  1  0  0  0
M  END
> <minimizedAffinity>
17.29854

> <CNNscore>
0.3154091835

> <CNNaffinity>
6.9461145401

> <CNN_VS>
2.1908683777

> <CNNaffinity_variance>
0.4029828608

$$$$
[H]c1nc([H])c(N([H])C2([H])C([H])([H])N(C(=O)c3c(C([H])([H])[H])noc3C([H])([H])[H])C2([H])[H])c([H])c1N1C(=O)c2c([H])c([H])c(Cl)c([H])c2C([H])([H])C1([H])[H]


 33 37  0  0  0  0  0  0  0  0999 V2000
  -11.0905   -8.1331    7.1404 C   0  0  0  0  0  0  0  0  0  0  0  0
  -11.6711   -7.2805    8.0911 C   0  0  0  0  0  0  0  0  0  0  0  0
  -10.9080   -6.4085    8.7670 N   0  0  0  0  0  0  0  0  0  0  0  0
   -9.5712   -6.3226    8.5580 C   0  0  0  0  0  0  0  0  0  0  0  0
   -8.9299   -7.1291    7.6382 C   0  0  0  0  0  0  0  0  0  0  0  0
   -9.7325   -8.0337    6.9397 C   0  0  0  0  0  0  0  0  0  0  0  0
   -7.5344   -7.0377    7.4036 N   0  0  0  0  0  0  0  0  0  0  0  0
   -6.7732   -6.1245    8.2275 C   0  0  0  0  0  0  0  0  0  0  0  0
   -5.3974   -6.6119    8.5318 C   0  0  0  0  0  0  0  0  0  0  0  0
   -4.8261   -7.4795    7.4831 C   0  0  0  0  0  0  0  0  0  0  0  0
   -3.4532   -7.7044    7.5594 C   0  0  0  0  0  0  0  0  0  0  0  0
   -2.8084   -8.5059    6.6113 C   0  0  0  0  0  0  0  0  0  0  0  0
   -1.0810   -8.8001    6.6960 Cl  0  0  0  0  0  0  0  0  0  0  0  0
   -3.5106   -9.0979    5.5718 C   0  0  0  0  0  0  0  0  0  0  0  0
   -4.8774   -8.8509    5.5286 C   0  0  0  0  0  0  0  0  0  0  0  0
   -5.5066   -8.0617    6.4649 C   0  0  0  0  0  0  0  0  0  0  0  0
   -6.9530   -7.8503    6.3855 C   0  0  0  0  0  0  0  0  0  0  0  0
   -7.6174   -8.3689    5.4611 O   0  0  0  0  0  0  0  0  0  0  0  0
  -11.9273   -9.0315    6.4434 N   0  0  0  0  0  0  0  0  0  0  0  0
  -11.9545   -8.9750    5.3966 H   0  0  0  0  0  0  0  0  0  0  0  0
  -13.9978   -7.8828    9.5874 C   0  0  0  0  0  0  0  0  0  0  0  0
  -15.1055   -7.3891    9.0252 O   0  0  0  0  0  0  0  0  0  0  0  0
  -13.4982   -8.9493    8.8302 N   0  0  0  0  0  0  0  0  0  0  0  0
  -14.0808   -9.5327    7.5705 C   0  0  0  0  0  0  0  0  0  0  0  0
  -12.7174   -9.9988    7.1820 C   0  0  0  0  0  0  0  0  0  0  0  0
  -12.4807   -9.9165    8.6928 C   0  0  0  0  0  0  0  0  0  0  0  0
  -13.6799   -4.8146    9.8529 C   0  0  0  0  0  0  0  0  0  0  0  0
  -13.4432   -5.8460   10.9027 C   0  0  0  0  0  0  0  0  0  0  0  0
  -13.0536   -5.5744   12.1563 N   0  0  0  0  0  0  0  0  0  0  0  0
  -12.9428   -6.6570   12.8038 O   0  0  0  0  0  0  0  0  0  0  0  0
  -13.2523   -7.7035   12.0183 C   0  0  0  0  0  0  0  0  0  0  0  0
  -13.2110   -9.0815   12.5117 C   0  0  0  0  0  0  0  0  0  0  0  0
  -13.5808   -7.2447   10.7876 C   0  0  0  0  0  0  0  0  0  0  0  0
 27 28  1  0  0  0
 28 29  2  0  0  0
 29 30  1  0  0  0
 30 31  1  0  0  0
 31 32  1  0  0  0
 31 33  2  0  0  0
 33 21  1  0  0  0
 21 22  2  0  0  0
 21 23  1  0  0  0
 23 24  1  0  0  0
 24 25  1  0  0  0
 25 19  1  0  0  0
 19  1  1  0  0  0
  1  2  2  0  0  0
  2  3  1  0  0  0
  3  4  2  0  0  0
  4  5  1  0  0  0
  5  7  1  0  0  0
  7  8  1  0  0  0
  8  9  1  0  0  0
  9 10  1  0  0  0
 10 11  2  0  0  0
 11 12  1  0  0  0
 12 13  1  0  0  0
 12 14  2  0  0  0
 14 15  1  0  0  0
 15 16  2  0  0  0
 16 17  1  0  0  0
 17 18  2  0  0  0
  5  6  2  0  0  0
 25 26  1  0  0  0
 33 28  1  0  0  0
 26 23  1  0  0  0
  6  1  1  0  0  0
 17  7  1  0  0  0
 16 10  1  0  0  0
 19 20  1  0  0  0
M  END
> <minimizedAffinity>
7.82019

> <CNNscore>
0.2970222831

> <CNNaffinity>
6.6968069077

> <CNN_VS>
1.9891009331

> <CNNaffinity_variance>
0.4167993963

$$$$
[H]c1nc([H])c(N([H])C2([H])C([H])([H])N(C(=O)c3c(C([H])([H])[H])noc3C([H])([H])[H])C2([H])[H])c([H])c1N1C(=O)c2c([H])c([H])c(Cl)c([H])c2C([H])([H])C1([H])[H]


 33 37  0  0  0  0  0  0  0  0999 V2000
  -15.4939   -6.9245    4.7468 C   0  0  0  0  0  0  0  0  0  0  0  0
  -15.6845   -5.5983    4.3314 C   0  0  0  0  0  0  0  0  0  0  0  0
  -15.1063   -4.5929    5.0056 N   0  0  0  0  0  0  0  0  0  0  0  0
  -14.3304   -4.8203    6.0939 C   0  0  0  0  0  0  0  0  0  0  0  0
  -14.0974   -6.0989    6.5614 C   0  0  0  0  0  0  0  0  0  0  0  0
  -14.7037   -7.1388    5.8531 C   0  0  0  0  0  0  0  0  0  0  0  0
  -13.2772   -6.3474    7.6911 N   0  0  0  0  0  0  0  0  0  0  0  0
  -11.9099   -6.7540    7.4520 C   0  0  0  0  0  0  0  0  0  0  0  0
  -10.9530   -6.2315    8.4691 C   0  0  0  0  0  0  0  0  0  0  0  0
  -11.5522   -6.0267    9.8024 C   0  0  0  0  0  0  0  0  0  0  0  0
  -10.6546   -5.8452   10.8525 C   0  0  0  0  0  0  0  0  0  0  0  0
  -11.1157   -5.6499   12.1587 C   0  0  0  0  0  0  0  0  0  0  0  0
   -9.9976   -5.4175   13.4905 Cl  0  0  0  0  0  0  0  0  0  0  0  0
  -12.4721   -5.6312   12.4482 C   0  0  0  0  0  0  0  0  0  0  0  0
  -13.3364   -5.8155   11.3757 C   0  0  0  0  0  0  0  0  0  0  0  0
  -12.8767   -6.0066   10.0921 C   0  0  0  0  0  0  0  0  0  0  0  0
  -13.8306   -6.1752    8.9946 C   0  0  0  0  0  0  0  0  0  0  0  0
  -15.0611   -6.1639    9.2197 O   0  0  0  0  0  0  0  0  0  0  0  0
  -16.1119   -7.9560    4.0070 N   0  0  0  0  0  0  0  0  0  0  0  0
  -17.1565   -7.9454    3.9165 H   0  0  0  0  0  0  0  0  0  0  0  0
  -13.8079  -10.2198    6.2560 C   0  0  0  0  0  0  0  0  0  0  0  0
  -14.6698  -11.1413    6.6976 O   0  0  0  0  0  0  0  0  0  0  0  0
  -14.1536   -9.8055    4.9640 N   0  0  0  0  0  0  0  0  0  0  0  0
  -15.2973  -10.2977    4.1177 C   0  0  0  0  0  0  0  0  0  0  0  0
  -15.2976   -8.9908    3.3972 C   0  0  0  0  0  0  0  0  0  0  0  0
  -13.8454   -8.9546    3.8821 C   0  0  0  0  0  0  0  0  0  0  0  0
  -10.8154  -10.2119    5.4622 C   0  0  0  0  0  0  0  0  0  0  0  0
  -11.4041   -9.8656    6.7871 C   0  0  0  0  0  0  0  0  0  0  0  0
  -10.6908   -9.4801    7.8546 N   0  0  0  0  0  0  0  0  0  0  0  0
  -11.4752   -9.2553    8.8230 O   0  0  0  0  0  0  0  0  0  0  0  0
  -12.7484   -9.4779    8.4525 C   0  0  0  0  0  0  0  0  0  0  0  0
  -13.8682   -9.2932    9.3778 C   0  0  0  0  0  0  0  0  0  0  0  0
  -12.7647   -9.8720    7.1573 C   0  0  0  0  0  0  0  0  0  0  0  0
 27 28  1  0  0  0
 28 29  2  0  0  0
 29 30  1  0  0  0
 30 31  1  0  0  0
 31 32  1  0  0  0
 31 33  2  0  0  0
 33 21  1  0  0  0
 21 22  2  0  0  0
 21 23  1  0  0  0
 23 24  1  0  0  0
 24 25  1  0  0  0
 25 19  1  0  0  0
 19  1  1  0  0  0
  1  2  2  0  0  0
  2  3  1  0  0  0
  3  4  2  0  0  0
  4  5  1  0  0  0
  5  7  1  0  0  0
  7  8  1  0  0  0
  8  9  1  0  0  0
  9 10  1  0  0  0
 10 11  2  0  0  0
 11 12  1  0  0  0
 12 13  1  0  0  0
 12 14  2  0  0  0
 14 15  1  0  0  0
 15 16  2  0  0  0
 16 17  1  0  0  0
 17 18  2  0  0  0
  5  6  2  0  0  0
 25 26  1  0  0  0
 33 28  1  0  0  0
 26 23  1  0  0  0
  6  1  1  0  0  0
 17  7  1  0  0  0
 16 10  1  0  0  0
 19 20  1  0  0  0
M  END
> <minimizedAffinity>
10.49784

> <CNNscore>
0.2932419181

> <CNNaffinity>
6.8645620346

> <CNN_VS>
2.0129773617

> <CNNaffinity_variance>
0.2342185080

$$$$
[H]c1nc([H])c(N([H])C2([H])C([H])([H])N(C(=O)c3c(C([H])([H])[H])noc3C([H])([H])[H])C2([H])[H])c([H])c1N1C(=O)c2c([H])c([H])c(Cl)c([H])c2C([H])([H])C1([H])[H]


 33 37  0  0  0  0  0  0  0  0999 V2000
  -14.5658   -6.9684    4.3876 C   0  0  0  0  0  0  0  0  0  0  0  0
  -15.5099   -5.9331    4.4542 C   0  0  0  0  0  0  0  0  0  0  0  0
  -15.6135   -5.1883    5.5652 N   0  0  0  0  0  0  0  0  0  0  0  0
  -14.8222   -5.4070    6.6441 C   0  0  0  0  0  0  0  0  0  0  0  0
  -13.8703   -6.4077    6.6517 C   0  0  0  0  0  0  0  0  0  0  0  0
  -13.7700   -7.1777    5.4909 C   0  0  0  0  0  0  0  0  0  0  0  0
  -13.0296   -6.6358    7.7706 N   0  0  0  0  0  0  0  0  0  0  0  0
  -11.6735   -7.0688    7.5146 C   0  0  0  0  0  0  0  0  0  0  0  0
  -10.6878   -6.5315    8.4958 C   0  0  0  0  0  0  0  0  0  0  0  0
  -11.2553   -6.2800    9.8350 C   0  0  0  0  0  0  0  0  0  0  0  0
  -10.3329   -6.0817   10.8603 C   0  0  0  0  0  0  0  0  0  0  0  0
  -10.7631   -5.8424   12.1697 C   0  0  0  0  0  0  0  0  0  0  0  0
   -9.6136   -5.5885   13.4704 Cl  0  0  0  0  0  0  0  0  0  0  0  0
  -12.1127   -5.7958   12.4870 C   0  0  0  0  0  0  0  0  0  0  0  0
  -13.0023   -5.9980   11.4387 C   0  0  0  0  0  0  0  0  0  0  0  0
  -12.5729   -6.2324   10.1518 C   0  0  0  0  0  0  0  0  0  0  0  0
  -13.5524   -6.4183    9.0799 C   0  0  0  0  0  0  0  0  0  0  0  0
  -14.7775   -6.3827    9.3305 O   0  0  0  0  0  0  0  0  0  0  0  0
  -14.4808   -7.7250    3.1987 N   0  0  0  0  0  0  0  0  0  0  0  0
  -14.1585   -7.2432    2.3249 H   0  0  0  0  0  0  0  0  0  0  0  0
  -17.8994   -8.8691    4.7785 C   0  0  0  0  0  0  0  0  0  0  0  0
  -18.7554   -8.6524    3.7750 O   0  0  0  0  0  0  0  0  0  0  0  0
  -16.6463   -9.2457    4.2802 N   0  0  0  0  0  0  0  0  0  0  0  0
  -16.2489   -9.4293    2.8398 C   0  0  0  0  0  0  0  0  0  0  0  0
  -14.8353   -9.1320    3.2148 C   0  0  0  0  0  0  0  0  0  0  0  0
  -15.3166   -9.5986    4.5918 C   0  0  0  0  0  0  0  0  0  0  0  0
  -20.6437   -9.9826    5.6809 C   0  0  0  0  0  0  0  0  0  0  0  0
  -19.6729   -9.1937    6.4917 C   0  0  0  0  0  0  0  0  0  0  0  0
  -19.8593   -8.8531    7.7747 N   0  0  0  0  0  0  0  0  0  0  0  0
  -18.8594   -8.1910    8.1813 O   0  0  0  0  0  0  0  0  0  0  0  0
  -17.9568   -8.0566    7.1939 C   0  0  0  0  0  0  0  0  0  0  0  0
  -16.6980   -7.3342    7.3878 C   0  0  0  0  0  0  0  0  0  0  0  0
  -18.4243   -8.6791    6.0862 C   0  0  0  0  0  0  0  0  0  0  0  0
 27 28  1  0  0  0
 28 29  2  0  0  0
 29 30  1  0  0  0
 30 31  1  0  0  0
 31 32  1  0  0  0
 31 33  2  0  0  0
 33 21  1  0  0  0
 21 22  2  0  0  0
 21 23  1  0  0  0
 23 24  1  0  0  0
 24 25  1  0  0  0
 25 19  1  0  0  0
 19  1  1  0  0  0
  1  2  2  0  0  0
  2  3  1  0  0  0
  3  4  2  0  0  0
  4  5  1  0  0  0
  5  7  1  0  0  0
  7  8  1  0  0  0
  8  9  1  0  0  0
  9 10  1  0  0  0
 10 11  2  0  0  0
 11 12  1  0  0  0
 12 13  1  0  0  0
 12 14  2  0  0  0
 14 15  1  0  0  0
 15 16  2  0  0  0
 16 17  1  0  0  0
 17 18  2  0  0  0
  5  6  2  0  0  0
 25 26  1  0  0  0
 33 28  1  0  0  0
 26 23  1  0  0  0
  6  1  1  0  0  0
 17  7  1  0  0  0
 16 10  1  0  0  0
 19 20  1  0  0  0
M  END
> <minimizedAffinity>
8.71906

> <CNNscore>
0.2930629551

> <CNNaffinity>
6.9471297264

> <CNN_VS>
2.0359463692

> <CNNaffinity_variance>
0.4819244742

$$$$
[H]c1nc([H])c(N([H])C2([H])C([H])([H])N(C(=O)c3c(C([H])([H])[H])noc3C([H])([H])[H])C2([H])[H])c([H])c1N1C(=O)c2c([H])c([H])c(Cl)c([H])c2C([H])([H])C1([H])[H]


 33 37  0  0  0  0  0  0  0  0999 V2000
  -10.6175   -6.6109    9.9077 C   0  0  0  0  0  0  0  0  0  0  0  0
  -10.6176   -5.7062   10.9798 C   0  0  0  0  0  0  0  0  0  0  0  0
  -11.6917   -4.9361   11.2094 N   0  0  0  0  0  0  0  0  0  0  0  0
  -12.7961   -5.0045   10.4260 C   0  0  0  0  0  0  0  0  0  0  0  0
  -12.8689   -5.8711    9.3530 C   0  0  0  0  0  0  0  0  0  0  0  0
  -11.7459   -6.6685    9.1219 C   0  0  0  0  0  0  0  0  0  0  0  0
  -14.0244   -5.9587    8.5357 N   0  0  0  0  0  0  0  0  0  0  0  0
  -14.2007   -4.9526    7.5118 C   0  0  0  0  0  0  0  0  0  0  0  0
  -14.8474   -5.4769    6.2749 C   0  0  0  0  0  0  0  0  0  0  0  0
  -15.7657   -6.6074    6.5150 C   0  0  0  0  0  0  0  0  0  0  0  0
  -16.6238   -6.9289    5.4653 C   0  0  0  0  0  0  0  0  0  0  0  0
  -17.5398   -7.9788    5.5896 C   0  0  0  0  0  0  0  0  0  0  0  0
  -18.6246   -8.3969    4.2758 Cl  0  0  0  0  0  0  0  0  0  0  0  0
  -17.6228   -8.7279    6.7541 C   0  0  0  0  0  0  0  0  0  0  0  0
  -16.7515   -8.3780    7.7786 C   0  0  0  0  0  0  0  0  0  0  0  0
  -15.8516   -7.3440    7.6502 C   0  0  0  0  0  0  0  0  0  0  0  0
  -14.9413   -7.0298    8.7528 C   0  0  0  0  0  0  0  0  0  0  0  0
  -14.9889   -7.6848    9.8175 O   0  0  0  0  0  0  0  0  0  0  0  0
   -9.4719   -7.4102    9.7030 N   0  0  0  0  0  0  0  0  0  0  0  0
   -9.0193   -7.8535   10.5386 H   0  0  0  0  0  0  0  0  0  0  0  0
  -11.9547   -8.0931    6.7263 C   0  0  0  0  0  0  0  0  0  0  0  0
  -12.3584   -6.8581    6.4123 O   0  0  0  0  0  0  0  0  0  0  0  0
  -10.6285   -8.0754    7.1749 N   0  0  0  0  0  0  0  0  0  0  0  0
   -9.7143   -6.8848    7.2896 C   0  0  0  0  0  0  0  0  0  0  0  0
   -8.9564   -7.5975    8.3595 C   0  0  0  0  0  0  0  0  0  0  0  0
   -9.5473   -8.8322    7.6727 C   0  0  0  0  0  0  0  0  0  0  0  0
  -12.7460  -10.0903    8.9557 C   0  0  0  0  0  0  0  0  0  0  0  0
  -13.2797  -10.0233    7.5655 C   0  0  0  0  0  0  0  0  0  0  0  0
  -14.2180  -10.8454    7.0747 N   0  0  0  0  0  0  0  0  0  0  0  0
  -14.4595  -10.5336    5.8714 O   0  0  0  0  0  0  0  0  0  0  0  0
  -13.6977   -9.4903    5.4985 C   0  0  0  0  0  0  0  0  0  0  0  0
  -13.7727   -8.9178    4.1529 C   0  0  0  0  0  0  0  0  0  0  0  0
  -12.9205   -9.1204    6.5437 C   0  0  0  0  0  0  0  0  0  0  0  0
 27 28  1  0  0  0
 28 29  2  0  0  0
 29 30  1  0  0  0
 30 31  1  0  0  0
 31 32  1  0  0  0
 31 33  2  0  0  0
 33 21  1  0  0  0
 21 22  2  0  0  0
 21 23  1  0  0  0
 23 24  1  0  0  0
 24 25  1  0  0  0
 25 19  1  0  0  0
 19  1  1  0  0  0
  1  2  2  0  0  0
  2  3  1  0  0  0
  3  4  2  0  0  0
  4  5  1  0  0  0
  5  7  1  0  0  0
  7  8  1  0  0  0
  8  9  1  0  0  0
  9 10  1  0  0  0
 10 11  2  0  0  0
 11 12  1  0  0  0
 12 13  1  0  0  0
 12 14  2  0  0  0
 14 15  1  0  0  0
 15 16  2  0  0  0
 16 17  1  0  0  0
 17 18  2  0  0  0
  5  6  2  0  0  0
 25 26  1  0  0  0
 33 28  1  0  0  0
 26 23  1  0  0  0
  6  1  1  0  0  0
 17  7  1  0  0  0
 16 10  1  0  0  0
 19 20  1  0  0  0
M  END
> <minimizedAffinity>
7.71024

> <CNNscore>
0.2642164230

> <CNNaffinity>
6.7568788528

> <CNN_VS>
1.7852783203

> <CNNaffinity_variance>
0.1005985513

$$$$
[H]c1nc([H])c(N([H])C2([H])C([H])([H])N(C(=O)c3c(C([H])([H])[H])noc3C([H])([H])[H])C2([H])[H])c([H])c1N1C(=O)c2c([H])c([H])c(Cl)c([H])c2C([H])([H])C1([H])[H]


 33 37  0  0  0  0  0  0  0  0999 V2000
   -6.0919   -6.7212    6.3810 C   0  0  0  0  0  0  0  0  0  0  0  0
   -5.3437   -7.9076    6.3612 C   0  0  0  0  0  0  0  0  0  0  0  0
   -5.8755   -9.0457    6.8319 N   0  0  0  0  0  0  0  0  0  0  0  0
   -7.1338   -9.0878    7.3348 C   0  0  0  0  0  0  0  0  0  0  0  0
   -7.9298   -7.9602    7.3866 C   0  0  0  0  0  0  0  0  0  0  0  0
   -7.3675   -6.7803    6.8945 C   0  0  0  0  0  0  0  0  0  0  0  0
   -9.2515   -7.9971    7.8991 N   0  0  0  0  0  0  0  0  0  0  0  0
   -9.6453   -6.9512    8.8172 C   0  0  0  0  0  0  0  0  0  0  0  0
  -11.0752   -6.5523    8.6784 C   0  0  0  0  0  0  0  0  0  0  0  0
  -11.9556   -7.6408    8.2104 C   0  0  0  0  0  0  0  0  0  0  0  0
  -13.3239   -7.4250    8.3607 C   0  0  0  0  0  0  0  0  0  0  0  0
  -14.2471   -8.3952    7.9565 C   0  0  0  0  0  0  0  0  0  0  0  0
  -15.9729   -8.1366    8.1371 Cl  0  0  0  0  0  0  0  0  0  0  0  0
  -13.8325   -9.5951    7.3975 C   0  0  0  0  0  0  0  0  0  0  0  0
  -12.4610   -9.7742    7.2636 C   0  0  0  0  0  0  0  0  0  0  0  0
  -11.5571   -8.8154    7.6626 C   0  0  0  0  0  0  0  0  0  0  0  0
  -10.1230   -9.0458    7.4801 C   0  0  0  0  0  0  0  0  0  0  0  0
   -9.7139  -10.1167    6.9793 O   0  0  0  0  0  0  0  0  0  0  0  0
   -5.5012   -5.5454    5.8694 N   0  0  0  0  0  0  0  0  0  0  0  0
   -6.0551   -4.9637    5.1953 H   0  0  0  0  0  0  0  0  0  0  0  0
   -3.2992   -3.2420    3.5592 C   0  0  0  0  0  0  0  0  0  0  0  0
   -3.7471   -2.0227    3.8748 O   0  0  0  0  0  0  0  0  0  0  0  0
   -3.3526   -4.0869    4.6744 N   0  0  0  0  0  0  0  0  0  0  0  0
   -3.8088   -3.7409    6.0668 C   0  0  0  0  0  0  0  0  0  0  0  0
   -4.1609   -5.1748    6.2840 C   0  0  0  0  0  0  0  0  0  0  0  0
   -3.1259   -5.3859    5.1752 C   0  0  0  0  0  0  0  0  0  0  0  0
   -1.0615   -5.2091    2.7176 C   0  0  0  0  0  0  0  0  0  0  0  0
   -1.8634   -4.3148    1.8349 C   0  0  0  0  0  0  0  0  0  0  0  0
   -1.7255   -4.2440    0.5034 N   0  0  0  0  0  0  0  0  0  0  0  0
   -2.5477   -3.3988    0.0419 O   0  0  0  0  0  0  0  0  0  0  0  0
   -3.2748   -2.8641    1.0385 C   0  0  0  0  0  0  0  0  0  0  0  0
   -4.3071   -1.8557    0.7897 C   0  0  0  0  0  0  0  0  0  0  0  0
   -2.8799   -3.4130    2.2114 C   0  0  0  0  0  0  0  0  0  0  0  0
 27 28  1  0  0  0
 28 29  2  0  0  0
 29 30  1  0  0  0
 30 31  1  0  0  0
 31 32  1  0  0  0
 31 33  2  0  0  0
 33 21  1  0  0  0
 21 22  2  0  0  0
 21 23  1  0  0  0
 23 24  1  0  0  0
 24 25  1  0  0  0
 25 19  1  0  0  0
 19  1  1  0  0  0
  1  2  2  0  0  0
  2  3  1  0  0  0
  3  4  2  0  0  0
  4  5  1  0  0  0
  5  7  1  0  0  0
  7  8  1  0  0  0
  8  9  1  0  0  0
  9 10  1  0  0  0
 10 11  2  0  0  0
 11 12  1  0  0  0
 12 13  1  0  0  0
 12 14  2  0  0  0
 14 15  1  0  0  0
 15 16  2  0  0  0
 16 17  1  0  0  0
 17 18  2  0  0  0
  5  6  2  0  0  0
 25 26  1  0  0  0
 33 28  1  0  0  0
 26 23  1  0  0  0
  6  1  1  0  0  0
 17  7  1  0  0  0
 16 10  1  0  0  0
 19 20  1  0  0  0
M  END
> <minimizedAffinity>
-8.93883

> <CNNscore>
0.2602868676

> <CNNaffinity>
6.1705322266

> <CNN_VS>
1.6061085463

> <CNNaffinity_variance>
0.0434821770

$$$$
[H]c1c([H])c([H])c2c(nc(SC([H])([H])C(=O)N3C(=O)C([H])([H])C([H])([H])C3([H])[H])n2C([H])([H])[H])c1[H]


 20 22  0  0  0  0  0  0  0  0999 V2000
  -11.0197   -5.9166    9.3390 C   0  0  0  0  0  0  0  0  0  0  0  0
  -11.0290   -7.2335    8.6962 N   0  0  0  0  0  0  0  0  0  0  0  0
  -12.0429   -8.0132    8.3477 C   0  0  0  0  0  0  0  0  0  0  0  0
  -11.5189   -9.1157    7.7363 N   0  0  0  0  0  0  0  0  0  0  0  0
  -10.1764   -9.0343    7.6995 C   0  0  0  0  0  0  0  0  0  0  0  0
   -9.2016   -9.8784    7.1992 C   0  0  0  0  0  0  0  0  0  0  0  0
   -7.8811   -9.5245    7.3085 C   0  0  0  0  0  0  0  0  0  0  0  0
   -7.5593   -8.3199    7.9232 C   0  0  0  0  0  0  0  0  0  0  0  0
   -8.5263   -7.4868    8.4173 C   0  0  0  0  0  0  0  0  0  0  0  0
   -9.8702   -7.8388    8.3101 C   0  0  0  0  0  0  0  0  0  0  0  0
  -13.7552   -7.7994    8.6156 S   0  0  0  0  0  0  0  0  0  0  0  0
  -14.8768   -8.6697    7.5715 C   0  0  0  0  0  0  0  0  0  0  0  0
  -14.6908   -8.6549    6.1356 C   0  0  0  0  0  0  0  0  0  0  0  0
  -13.7560   -9.1776    5.5302 O   0  0  0  0  0  0  0  0  0  0  0  0
  -15.6956   -7.9634    5.3597 N   0  0  0  0  0  0  0  0  0  0  0  0
  -16.8523   -7.3021    5.8948 C   0  0  0  0  0  0  0  0  0  0  0  0
  -17.7891   -7.1241    4.6944 C   0  0  0  0  0  0  0  0  0  0  0  0
  -16.8165   -6.9080    3.5664 C   0  0  0  0  0  0  0  0  0  0  0  0
  -15.7094   -7.8234    3.9347 C   0  0  0  0  0  0  0  0  0  0  0  0
  -14.8947   -8.4045    3.1734 O   0  0  0  0  0  0  0  0  0  0  0  0
  1  2  1  0  0  0
  2  3  1  0  0  0
  3 11  1  0  0  0
 11 12  1  0  0  0
 12 13  1  0  0  0
 13 14  2  0  0  0
 13 15  1  0  0  0
 15 16  1  0  0  0
 16 17  1  0  0  0
 17 18  1  0  0  0
 18 19  1  0  0  0
 19 20  2  0  0  0
  3  4  2  0  0  0
  4  5  1  0  0  0
  5  6  2  0  0  0
  6  7  1  0  0  0
  7  8  2  0  0  0
  8  9  1  0  0  0
  9 10  2  0  0  0
 10  2  1  0  0  0
 19 15  1  0  0  0
 10  5  1  0  0  0
M  END
> <minimizedAffinity>
-7.59428

> <CNNscore>
0.6664258242

> <CNNaffinity>
6.2383241653

> <CNN_VS>
4.1573801041

> <CNNaffinity_variance>
0.1270913184

$$$$
[H]c1c([H])c([H])c2c(nc(SC([H])([H])C(=O)N3C(=O)C([H])([H])C([H])([H])C3([H])[H])n2C([H])([H])[H])c1[H]


 20 22  0  0  0  0  0  0  0  0999 V2000
  -11.7387   -9.7178    7.0839 C   0  0  0  0  0  0  0  0  0  0  0  0
  -11.1211   -8.6122    7.8213 N   0  0  0  0  0  0  0  0  0  0  0  0
   -9.8553   -8.2240    7.8882 C   0  0  0  0  0  0  0  0  0  0  0  0
   -9.8112   -7.1083    8.6737 N   0  0  0  0  0  0  0  0  0  0  0  0
  -11.0462   -6.7922    9.1040 C   0  0  0  0  0  0  0  0  0  0  0  0
  -11.5241   -5.7741    9.9090 C   0  0  0  0  0  0  0  0  0  0  0  0
  -12.8659   -5.7039   10.1838 C   0  0  0  0  0  0  0  0  0  0  0  0
  -13.7117   -6.6648    9.6415 C   0  0  0  0  0  0  0  0  0  0  0  0
  -13.2356   -7.6710    8.8452 C   0  0  0  0  0  0  0  0  0  0  0  0
  -11.8738   -7.7494    8.5611 C   0  0  0  0  0  0  0  0  0  0  0  0
   -8.4291   -8.9524    7.1919 S   0  0  0  0  0  0  0  0  0  0  0  0
   -7.1189   -7.8922    6.6773 C   0  0  0  0  0  0  0  0  0  0  0  0
   -6.3037   -7.2154    7.6642 C   0  0  0  0  0  0  0  0  0  0  0  0
   -6.3925   -7.3562    8.8832 O   0  0  0  0  0  0  0  0  0  0  0  0
   -5.3052   -6.2992    7.1610 N   0  0  0  0  0  0  0  0  0  0  0  0
   -5.0584   -6.0147    5.7753 C   0  0  0  0  0  0  0  0  0  0  0  0
   -3.6733   -5.3580    5.7535 C   0  0  0  0  0  0  0  0  0  0  0  0
   -3.6635   -4.6021    7.0549 C   0  0  0  0  0  0  0  0  0  0  0  0
   -4.3967   -5.5264    7.9534 C   0  0  0  0  0  0  0  0  0  0  0  0
   -4.2824   -5.6542    9.1991 O   0  0  0  0  0  0  0  0  0  0  0  0
  1  2  1  0  0  0
  2  3  1  0  0  0
  3 11  1  0  0  0
 11 12  1  0  0  0
 12 13  1  0  0  0
 13 14  2  0  0  0
 13 15  1  0  0  0
 15 16  1  0  0  0
 16 17  1  0  0  0
 17 18  1  0  0  0
 18 19  1  0  0  0
 19 20  2  0  0  0
  3  4  2  0  0  0
  4  5  1  0  0  0
  5  6  2  0  0  0
  6  7  1  0  0  0
  7  8  2  0  0  0
  8  9  1  0  0  0
  9 10  2  0  0  0
 10  2  1  0  0  0
 19 15  1  0  0  0
 10  5  1  0  0  0
M  END
> <minimizedAffinity>
-7.15929

> <CNNscore>
0.5997454524

> <CNNaffinity>
5.5181794167

> <CNN_VS>
3.3095030785

> <CNNaffinity_variance>
0.0326789096

$$$$
[H]c1c([H])c([H])c2c(nc(SC([H])([H])C(=O)N3C(=O)C([H])([H])C([H])([H])C3([H])[H])n2C([H])([H])[H])c1[H]


 20 22  0  0  0  0  0  0  0  0999 V2000
  -12.1104   -9.6962    7.1562 C   0  0  0  0  0  0  0  0  0  0  0  0
  -11.3348   -8.6590    7.8420 N   0  0  0  0  0  0  0  0  0  0  0  0
  -10.0294   -8.4283    7.8543 C   0  0  0  0  0  0  0  0  0  0  0  0
   -9.8195   -7.3095    8.6079 N   0  0  0  0  0  0  0  0  0  0  0  0
  -10.9894   -6.8344    9.0726 C   0  0  0  0  0  0  0  0  0  0  0  0
  -11.3084   -5.7477    9.8666 C   0  0  0  0  0  0  0  0  0  0  0  0
  -12.6202   -5.5069   10.1862 C   0  0  0  0  0  0  0  0  0  0  0  0
  -13.5970   -6.3680    9.6995 C   0  0  0  0  0  0  0  0  0  0  0  0
  -13.2780   -7.4425    8.9140 C   0  0  0  0  0  0  0  0  0  0  0  0
  -11.9478   -7.6941    8.5845 C   0  0  0  0  0  0  0  0  0  0  0  0
   -8.7303   -9.3419    7.1281 S   0  0  0  0  0  0  0  0  0  0  0  0
   -7.0747   -8.8173    7.4266 C   0  0  0  0  0  0  0  0  0  0  0  0
   -6.4594   -7.8320    6.5622 C   0  0  0  0  0  0  0  0  0  0  0  0
   -6.6693   -7.7079    5.3564 O   0  0  0  0  0  0  0  0  0  0  0  0
   -5.5204   -6.9238    7.1814 N   0  0  0  0  0  0  0  0  0  0  0  0
   -5.1581   -6.9195    8.5708 C   0  0  0  0  0  0  0  0  0  0  0  0
   -4.5075   -5.5502    8.7992 C   0  0  0  0  0  0  0  0  0  0  0  0
   -3.8275   -5.3016    7.4798 C   0  0  0  0  0  0  0  0  0  0  0  0
   -4.7985   -5.8794    6.5191 C   0  0  0  0  0  0  0  0  0  0  0  0
   -4.9980   -5.5505    5.3221 O   0  0  0  0  0  0  0  0  0  0  0  0
  1  2  1  0  0  0
  2  3  1  0  0  0
  3 11  1  0  0  0
 11 12  1  0  0  0
 12 13  1  0  0  0
 13 14  2  0  0  0
 13 15  1  0  0  0
 15 16  1  0  0  0
 16 17  1  0  0  0
 17 18  1  0  0  0
 18 19  1  0  0  0
 19 20  2  0  0  0
  3  4  2  0  0  0
  4  5  1  0  0  0
  5  6  2  0  0  0
  6  7  1  0  0  0
  7  8  2  0  0  0
  8  9  1  0  0  0
  9 10  2  0  0  0
 10  2  1  0  0  0
 19 15  1  0  0  0
 10  5  1  0  0  0
M  END
> <minimizedAffinity>
-7.00195

> <CNNscore>
0.5821987987

> <CNNaffinity>
5.5499634743

> <CNN_VS>
3.2311820984

> <CNNaffinity_variance>
0.0535099730

$$$$
[H]c1c([H])c([H])c2c(nc(SC([H])([H])C(=O)N3C(=O)C([H])([H])C([H])([H])C3([H])[H])n2C([H])([H])[H])c1[H]


 20 22  0  0  0  0  0  0  0  0999 V2000
   -9.7249  -10.4244    6.7754 C   0  0  0  0  0  0  0  0  0  0  0  0
   -9.4274   -9.0545    7.2023 N   0  0  0  0  0  0  0  0  0  0  0  0
  -10.1825   -8.1679    7.8355 C   0  0  0  0  0  0  0  0  0  0  0  0
   -9.4191   -7.0553    8.0433 N   0  0  0  0  0  0  0  0  0  0  0  0
   -8.1842   -7.2371    7.5411 C   0  0  0  0  0  0  0  0  0  0  0  0
   -7.0641   -6.4269    7.4963 C   0  0  0  0  0  0  0  0  0  0  0  0
   -5.9179   -6.8916    6.9037 C   0  0  0  0  0  0  0  0  0  0  0  0
   -5.9158   -8.1718    6.3618 C   0  0  0  0  0  0  0  0  0  0  0  0
   -7.0259   -8.9711    6.4078 C   0  0  0  0  0  0  0  0  0  0  0  0
   -8.1943   -8.5066    7.0081 C   0  0  0  0  0  0  0  0  0  0  0  0
  -11.8587   -8.2726    8.3142 S   0  0  0  0  0  0  0  0  0  0  0  0
  -13.0205   -8.9008    7.1476 C   0  0  0  0  0  0  0  0  0  0  0  0
  -14.3953   -8.4473    7.1774 C   0  0  0  0  0  0  0  0  0  0  0  0
  -15.0043   -8.0763    8.1800 O   0  0  0  0  0  0  0  0  0  0  0  0
  -15.1005   -8.4351    5.9156 N   0  0  0  0  0  0  0  0  0  0  0  0
  -14.5493   -8.8283    4.6493 C   0  0  0  0  0  0  0  0  0  0  0  0
  -15.5053   -8.2355    3.6077 C   0  0  0  0  0  0  0  0  0  0  0  0
  -16.8326   -8.3280    4.3110 C   0  0  0  0  0  0  0  0  0  0  0  0
  -16.4589   -8.0291    5.7147 C   0  0  0  0  0  0  0  0  0  0  0  0
  -17.1675   -7.5107    6.6148 O   0  0  0  0  0  0  0  0  0  0  0  0
  1  2  1  0  0  0
  2  3  1  0  0  0
  3 11  1  0  0  0
 11 12  1  0  0  0
 12 13  1  0  0  0
 13 14  2  0  0  0
 13 15  1  0  0  0
 15 16  1  0  0  0
 16 17  1  0  0  0
 17 18  1  0  0  0
 18 19  1  0  0  0
 19 20  2  0  0  0
  3  4  2  0  0  0
  4  5  1  0  0  0
  5  6  2  0  0  0
  6  7  1  0  0  0
  7  8  2  0  0  0
  8  9  1  0  0  0
  9 10  2  0  0  0
 10  2  1  0  0  0
 19 15  1  0  0  0
 10  5  1  0  0  0
M  END
> <minimizedAffinity>
-7.24488

> <CNNscore>
0.5597362518

> <CNNaffinity>
6.1622533798

> <CNN_VS>
3.4492366314

> <CNNaffinity_variance>
0.2075982392

$$$$
[H]c1c([H])c([H])c2c(nc(SC([H])([H])C(=O)N3C(=O)C([H])([H])C([H])([H])C3([H])[H])n2C([H])([H])[H])c1[H]


 20 22  0  0  0  0  0  0  0  0999 V2000
  -12.1695   -6.4486    8.9913 C   0  0  0  0  0  0  0  0  0  0  0  0
  -11.8062   -7.7237    8.3671 N   0  0  0  0  0  0  0  0  0  0  0  0
  -12.5701   -8.7044    7.9068 C   0  0  0  0  0  0  0  0  0  0  0  0
  -11.7429   -9.6519    7.3762 N   0  0  0  0  0  0  0  0  0  0  0  0
  -10.4582   -9.2723    7.5021 C   0  0  0  0  0  0  0  0  0  0  0  0
   -9.2661   -9.8691    7.1338 C   0  0  0  0  0  0  0  0  0  0  0  0
   -8.0814   -9.2311    7.3989 C   0  0  0  0  0  0  0  0  0  0  0  0
   -8.1140   -7.9951    8.0346 C   0  0  0  0  0  0  0  0  0  0  0  0
   -9.2953   -7.4072    8.3977 C   0  0  0  0  0  0  0  0  0  0  0  0
  -10.5034   -8.0486    8.1318 C   0  0  0  0  0  0  0  0  0  0  0  0
  -14.3064   -8.8827    7.9618 S   0  0  0  0  0  0  0  0  0  0  0  0
  -15.2301   -8.4948    6.5120 C   0  0  0  0  0  0  0  0  0  0  0  0
  -15.2965   -7.1279    6.0389 C   0  0  0  0  0  0  0  0  0  0  0  0
  -14.4388   -6.2652    6.2223 O   0  0  0  0  0  0  0  0  0  0  0  0
  -16.4763   -6.7589    5.2893 N   0  0  0  0  0  0  0  0  0  0  0  0
  -17.5721   -7.6328    4.9770 C   0  0  0  0  0  0  0  0  0  0  0  0
  -18.3211   -6.9271    3.8407 C   0  0  0  0  0  0  0  0  0  0  0  0
  -18.1312   -5.4762    4.1928 C   0  0  0  0  0  0  0  0  0  0  0  0
  -16.7498   -5.4684    4.7323 C   0  0  0  0  0  0  0  0  0  0  0  0
  -15.9187   -4.5248    4.7290 O   0  0  0  0  0  0  0  0  0  0  0  0
  1  2  1  0  0  0
  2  3  1  0  0  0
  3 11  1  0  0  0
 11 12  1  0  0  0
 12 13  1  0  0  0
 13 14  2  0  0  0
 13 15  1  0  0  0
 15 16  1  0  0  0
 16 17  1  0  0  0
 17 18  1  0  0  0
 18 19  1  0  0  0
 19 20  2  0  0  0
  3  4  2  0  0  0
  4  5  1  0  0  0
  5  6  2  0  0  0
  6  7  1  0  0  0
  7  8  2  0  0  0
  8  9  1  0  0  0
  9 10  2  0  0  0
 10  2  1  0  0  0
 19 15  1  0  0  0
 10  5  1  0  0  0
M  END
> <minimizedAffinity>
-8.16473

> <CNNscore>
0.4983536005

> <CNNaffinity>
6.0712885857

> <CNN_VS>
3.0256485939

> <CNNaffinity_variance>
0.1277114451

$$$$
[H]c1c([H])c([H])c2c(nc(SC([H])([H])C(=O)N3C(=O)C([H])([H])C([H])([H])C3([H])[H])n2C([H])([H])[H])c1[H]


 20 22  0  0  0  0  0  0  0  0999 V2000
  -12.5597   -9.9421    7.1650 C   0  0  0  0  0  0  0  0  0  0  0  0
  -11.7476   -8.7944    7.5782 N   0  0  0  0  0  0  0  0  0  0  0  0
  -12.1107   -7.5923    8.0029 C   0  0  0  0  0  0  0  0  0  0  0  0
  -10.9711   -6.9055    8.3083 N   0  0  0  0  0  0  0  0  0  0  0  0
   -9.8892   -7.6709    8.0757 C   0  0  0  0  0  0  0  0  0  0  0  0
   -8.5329   -7.4420    8.2204 C   0  0  0  0  0  0  0  0  0  0  0  0
   -7.6424   -8.4328    7.8948 C   0  0  0  0  0  0  0  0  0  0  0  0
   -8.1326   -9.6461    7.4254 C   0  0  0  0  0  0  0  0  0  0  0  0
   -9.4754   -9.8695    7.2834 C   0  0  0  0  0  0  0  0  0  0  0  0
  -10.3868   -8.8682    7.6121 C   0  0  0  0  0  0  0  0  0  0  0  0
  -13.7055   -6.8935    8.1368 S   0  0  0  0  0  0  0  0  0  0  0  0
  -14.9351   -7.3963    6.9789 C   0  0  0  0  0  0  0  0  0  0  0  0
  -15.3731   -6.4831    5.9440 C   0  0  0  0  0  0  0  0  0  0  0  0
  -14.8042   -5.4407    5.6226 O   0  0  0  0  0  0  0  0  0  0  0  0
  -16.5829   -6.8381    5.2369 N   0  0  0  0  0  0  0  0  0  0  0  0
  -17.3723   -8.0138    5.4745 C   0  0  0  0  0  0  0  0  0  0  0  0
  -18.2527   -8.1502    4.2269 C   0  0  0  0  0  0  0  0  0  0  0  0
  -18.4971   -6.7122    3.8561 C   0  0  0  0  0  0  0  0  0  0  0  0
  -17.1945   -6.0838    4.1845 C   0  0  0  0  0  0  0  0  0  0  0  0
  -16.6679   -5.0676    3.6640 O   0  0  0  0  0  0  0  0  0  0  0  0
  1  2  1  0  0  0
  2  3  1  0  0  0
  3 11  1  0  0  0
 11 12  1  0  0  0
 12 13  1  0  0  0
 13 14  2  0  0  0
 13 15  1  0  0  0
 15 16  1  0  0  0
 16 17  1  0  0  0
 17 18  1  0  0  0
 18 19  1  0  0  0
 19 20  2  0  0  0
  3  4  2  0  0  0
  4  5  1  0  0  0
  5  6  2  0  0  0
  6  7  1  0  0  0
  7  8  2  0  0  0
  8  9  1  0  0  0
  9 10  2  0  0  0
 10  2  1  0  0  0
 19 15  1  0  0  0
 10  5  1  0  0  0
M  END
> <minimizedAffinity>
-8.02480

> <CNNscore>
0.4764885604

> <CNNaffinity>
5.9554429054

> <CNN_VS>
2.8377003670

> <CNNaffinity_variance>
0.0691209212

$$$$
[H]c1c([H])c([H])c2c(nc(SC([H])([H])C(=O)N3C(=O)C([H])([H])C([H])([H])C3([H])[H])n2C([H])([H])[H])c1[H]


 20 22  0  0  0  0  0  0  0  0999 V2000
  -15.5845   -8.1462    8.3324 C   0  0  0  0  0  0  0  0  0  0  0  0
  -15.2066   -8.2803    6.9229 N   0  0  0  0  0  0  0  0  0  0  0  0
  -14.2140   -8.9543    6.3590 C   0  0  0  0  0  0  0  0  0  0  0  0
  -14.3278   -8.7949    5.0080 N   0  0  0  0  0  0  0  0  0  0  0  0
  -15.3891   -8.0205    4.7178 C   0  0  0  0  0  0  0  0  0  0  0  0
  -15.9197   -7.5705    3.5224 C   0  0  0  0  0  0  0  0  0  0  0  0
  -17.0356   -6.7733    3.5365 C   0  0  0  0  0  0  0  0  0  0  0  0
  -17.6040   -6.4386    4.7603 C   0  0  0  0  0  0  0  0  0  0  0  0
  -17.0765   -6.8855    5.9414 C   0  0  0  0  0  0  0  0  0  0  0  0
  -15.9431   -7.6960    5.9358 C   0  0  0  0  0  0  0  0  0  0  0  0
  -12.9208   -9.8621    7.1028 S   0  0  0  0  0  0  0  0  0  0  0  0
  -12.0161   -9.1038    8.4111 C   0  0  0  0  0  0  0  0  0  0  0  0
  -11.1467   -7.9793    8.1347 C   0  0  0  0  0  0  0  0  0  0  0  0
  -11.4569   -6.7933    8.2380 O   0  0  0  0  0  0  0  0  0  0  0  0
   -9.8033   -8.2909    7.7010 N   0  0  0  0  0  0  0  0  0  0  0  0
   -9.2687   -9.6125    7.5295 C   0  0  0  0  0  0  0  0  0  0  0  0
   -7.7487   -9.4160    7.4948 C   0  0  0  0  0  0  0  0  0  0  0  0
   -7.6204   -8.0767    6.8204 C   0  0  0  0  0  0  0  0  0  0  0  0
   -8.7833   -7.3408    7.3733 C   0  0  0  0  0  0  0  0  0  0  0  0
   -8.9084   -6.1019    7.5478 O   0  0  0  0  0  0  0  0  0  0  0  0
  1  2  1  0  0  0
  2  3  1  0  0  0
  3 11  1  0  0  0
 11 12  1  0  0  0
 12 13  1  0  0  0
 13 14  2  0  0  0
 13 15  1  0  0  0
 15 16  1  0  0  0
 16 17  1  0  0  0
 17 18  1  0  0  0
 18 19  1  0  0  0
 19 20  2  0  0  0
  3  4  2  0  0  0
  4  5  1  0  0  0
  5  6  2  0  0  0
  6  7  1  0  0  0
  7  8  2  0  0  0
  8  9  1  0  0  0
  9 10  2  0  0  0
 10  2  1  0  0  0
 19 15  1  0  0  0
 10  5  1  0  0  0
M  END
> <minimizedAffinity>
-7.55457

> <CNNscore>
0.3767271042

> <CNNaffinity>
5.9195480347

> <CNN_VS>
2.2300541401

> <CNNaffinity_variance>
0.0857923925

$$$$
[H]c1c([H])c([H])c2c(nc(SC([H])([H])C(=O)N3C(=O)C([H])([H])C([H])([H])C3([H])[H])n2C([H])([H])[H])c1[H]


 20 22  0  0  0  0  0  0  0  0999 V2000
  -10.6490   -8.7534    7.4567 C   0  0  0  0  0  0  0  0  0  0  0  0
  -11.9052   -8.1250    7.8745 N   0  0  0  0  0  0  0  0  0  0  0  0
  -13.1526   -8.3582    7.4912 C   0  0  0  0  0  0  0  0  0  0  0  0
  -13.9639   -7.5357    8.2185 N   0  0  0  0  0  0  0  0  0  0  0  0
  -13.2312   -6.7825    9.0589 C   0  0  0  0  0  0  0  0  0  0  0  0
  -13.5721   -5.8141    9.9856 C   0  0  0  0  0  0  0  0  0  0  0  0
  -12.5858   -5.2004   10.7148 C   0  0  0  0  0  0  0  0  0  0  0  0
  -11.2638   -5.5724   10.4993 C   0  0  0  0  0  0  0  0  0  0  0  0
  -10.9298   -6.5312    9.5815 C   0  0  0  0  0  0  0  0  0  0  0  0
  -11.9257   -7.1596    8.8367 C   0  0  0  0  0  0  0  0  0  0  0  0
  -13.7558   -9.4450    6.2646 S   0  0  0  0  0  0  0  0  0  0  0  0
  -14.4305   -8.7484    4.7932 C   0  0  0  0  0  0  0  0  0  0  0  0
  -14.8269   -7.3560    4.7658 C   0  0  0  0  0  0  0  0  0  0  0  0
  -14.0829   -6.3967    4.9650 O   0  0  0  0  0  0  0  0  0  0  0  0
  -16.2176   -7.0843    4.4795 N   0  0  0  0  0  0  0  0  0  0  0  0
  -17.2235   -8.0752    4.2187 C   0  0  0  0  0  0  0  0  0  0  0  0
  -18.3721   -7.3004    3.5624 C   0  0  0  0  0  0  0  0  0  0  0  0
  -18.2886   -5.9675    4.2562 C   0  0  0  0  0  0  0  0  0  0  0  0
  -16.8239   -5.7892    4.4055 C   0  0  0  0  0  0  0  0  0  0  0  0
  -16.1728   -4.7150    4.4622 O   0  0  0  0  0  0  0  0  0  0  0  0
  1  2  1  0  0  0
  2  3  1  0  0  0
  3 11  1  0  0  0
 11 12  1  0  0  0
 12 13  1  0  0  0
 13 14  2  0  0  0
 13 15  1  0  0  0
 15 16  1  0  0  0
 16 17  1  0  0  0
 17 18  1  0  0  0
 18 19  1  0  0  0
 19 20  2  0  0  0
  3  4  2  0  0  0
  4  5  1  0  0  0
  5  6  2  0  0  0
  6  7  1  0  0  0
  7  8  2  0  0  0
  8  9  1  0  0  0
  9 10  2  0  0  0
 10  2  1  0  0  0
 19 15  1  0  0  0
 10  5  1  0  0  0
M  END
> <minimizedAffinity>
-7.89210

> <CNNscore>
0.3465462923

> <CNNaffinity>
5.9147825241

> <CNN_VS>
2.0497460365

> <CNNaffinity_variance>
0.1982944906

$$$$
[H]c1c([H])c([H])c2c(nc(SC([H])([H])C(=O)N3C(=O)C([H])([H])C([H])([H])C3([H])[H])n2C([H])([H])[H])c1[H]


 20 22  0  0  0  0  0  0  0  0999 V2000
  -15.3977   -7.8147    8.2632 C   0  0  0  0  0  0  0  0  0  0  0  0
  -13.9461   -7.7261    8.0833 N   0  0  0  0  0  0  0  0  0  0  0  0
  -13.1635   -8.2350    7.1420 C   0  0  0  0  0  0  0  0  0  0  0  0
  -11.8891   -7.8205    7.4023 N   0  0  0  0  0  0  0  0  0  0  0  0
  -11.8651   -7.0525    8.5067 C   0  0  0  0  0  0  0  0  0  0  0  0
  -10.8411   -6.4049    9.1737 C   0  0  0  0  0  0  0  0  0  0  0  0
  -11.1234   -5.6782   10.3020 C   0  0  0  0  0  0  0  0  0  0  0  0
  -12.4396   -5.6137   10.7450 C   0  0  0  0  0  0  0  0  0  0  0  0
  -13.4508   -6.2556   10.0827 C   0  0  0  0  0  0  0  0  0  0  0  0
  -13.1723   -6.9959    8.9356 C   0  0  0  0  0  0  0  0  0  0  0  0
  -13.5660   -9.2890    5.8091 S   0  0  0  0  0  0  0  0  0  0  0  0
  -14.7121   -8.7071    4.6036 C   0  0  0  0  0  0  0  0  0  0  0  0
  -14.9814   -7.2894    4.4842 C   0  0  0  0  0  0  0  0  0  0  0  0
  -14.1328   -6.3986    4.4745 O   0  0  0  0  0  0  0  0  0  0  0  0
  -16.3691   -6.9016    4.3677 N   0  0  0  0  0  0  0  0  0  0  0  0
  -17.4877   -7.8019    4.3566 C   0  0  0  0  0  0  0  0  0  0  0  0
  -18.6471   -6.9752    3.7887 C   0  0  0  0  0  0  0  0  0  0  0  0
  -18.3415   -5.6001    4.3185 C   0  0  0  0  0  0  0  0  0  0  0  0
  -16.8609   -5.5626    4.2420 C   0  0  0  0  0  0  0  0  0  0  0  0
  -16.1148   -4.5616    4.0928 O   0  0  0  0  0  0  0  0  0  0  0  0
  1  2  1  0  0  0
  2  3  1  0  0  0
  3 11  1  0  0  0
 11 12  1  0  0  0
 12 13  1  0  0  0
 13 14  2  0  0  0
 13 15  1  0  0  0
 15 16  1  0  0  0
 16 17  1  0  0  0
 17 18  1  0  0  0
 18 19  1  0  0  0
 19 20  2  0  0  0
  3  4  2  0  0  0
  4  5  1  0  0  0
  5  6  2  0  0  0
  6  7  1  0  0  0
  7  8  2  0  0  0
  8  9  1  0  0  0
  9 10  2  0  0  0
 10  2  1  0  0  0
 19 15  1  0  0  0
 10  5  1  0  0  0
M  END
> <minimizedAffinity>
-7.94050

> <CNNscore>
0.3453246653

> <CNNaffinity>
5.8774428368

> <CNN_VS>
2.0296258926

> <CNNaffinity_variance>
0.3228313327

$$$$
[H]c1c(C([H])([H])[H])c([H])c2c(c1C(F)(F)F)C(=O)N1C([H])([H])C([H])([H])N([H])C([H])([H])[C@@]21[H]


 20 22  0  0  0  0  0  0  0  0999 V2000
  -13.6558   -7.5621    9.5160 C   0  0  0  0  0  0  0  0  0  0  0  0
  -14.5728   -7.7904    8.3676 C   0  0  0  0  0  0  0  0  0  0  0  0
  -14.0266   -8.3251    7.2219 C   0  0  0  0  0  0  0  0  0  0  0  0
  -14.8198   -8.5583    6.1305 C   0  0  0  0  0  0  0  0  0  0  0  0
  -16.1826   -8.2461    6.1979 C   0  0  0  0  0  0  0  0  0  0  0  0
  -16.7525   -7.7143    7.3245 C   0  0  0  0  0  0  0  0  0  0  0  0
  -15.9236   -7.4889    8.4158 C   0  0  0  0  0  0  0  0  0  0  0  0
  -16.7100   -8.5841    4.8754 C   0  0  0  0  0  0  0  0  0  0  0  0
  -17.8995   -8.4486    4.5381 O   0  0  0  0  0  0  0  0  0  0  0  0
  -15.6941   -9.0783    4.0480 N   0  0  0  0  0  0  0  0  0  0  0  0
  -15.6121   -9.4972    2.6714 C   0  0  0  0  0  0  0  0  0  0  0  0
  -14.4191   -8.8373    1.9829 C   0  0  0  0  0  0  0  0  0  0  0  0
  -13.2535   -9.0614    2.7762 N   0  0  0  0  0  0  0  0  0  0  0  0
  -13.3276   -8.5005    4.1152 C   0  0  0  0  0  0  0  0  0  0  0  0
  -14.4787   -9.1368    4.8269 C   0  0  0  0  0  0  0  0  0  0  0  0
  -12.3740   -8.7383    2.3315 H   0  0  0  0  0  0  0  0  0  0  0  0
  -18.1972   -7.4019    7.3730 C   0  0  0  0  0  0  0  0  0  0  0  0
  -19.0205   -8.4820    7.2988 F   0  0  0  0  0  0  0  0  0  0  0  0
  -18.5134   -6.4414    6.4013 F   0  0  0  0  0  0  0  0  0  0  0  0
  -18.4928   -6.7659    8.5883 F   0  0  0  0  0  0  0  0  0  0  0  0
  1  2  1  0  0  0
  2  3  2  0  0  0
  3  4  1  0  0  0
  4  5  2  0  0  0
  5  6  1  0  0  0
  6 17  1  0  0  0
 17 18  1  0  0  0
 17 19  1  0  0  0
 17 20  1  0  0  0
  6  7  2  0  0  0
  5  8  1  0  0  0
  8  9  2  0  0  0
  8 10  1  0  0  0
 10 11  1  0  0  0
 11 12  1  0  0  0
 12 13  1  0  0  0
 13 14  1  0  0  0
 14 15  1  0  0  0
  7  2  1  0  0  0
 15 10  1  0  0  0
 15  4  1  0  0  0
 13 16  1  0  0  0
M  END
> <minimizedAffinity>
8.39358

> <CNNscore>
0.4699388444

> <CNNaffinity>
5.6522307396

> <CNN_VS>
2.6562027931

> <CNNaffinity_variance>
1.4491398335

$$$$
[H]c1c(C([H])([H])[H])c([H])c2c(c1C(F)(F)F)C(=O)N1C([H])([H])C([H])([H])N([H])C([H])([H])[C@@]21[H]


 20 22  0  0  0  0  0  0  0  0999 V2000
  -12.5930   -7.3490    7.5789 C   0  0  0  0  0  0  0  0  0  0  0  0
  -13.6796   -6.8276    6.7078 C   0  0  0  0  0  0  0  0  0  0  0  0
  -14.9018   -7.4586    6.7790 C   0  0  0  0  0  0  0  0  0  0  0  0
  -15.9418   -7.0248    6.0013 C   0  0  0  0  0  0  0  0  0  0  0  0
  -15.7436   -5.9395    5.1398 C   0  0  0  0  0  0  0  0  0  0  0  0
  -14.5393   -5.2928    5.0493 C   0  0  0  0  0  0  0  0  0  0  0  0
  -13.5028   -5.7547    5.8502 C   0  0  0  0  0  0  0  0  0  0  0  0
  -17.0236   -5.7693    4.4514 C   0  0  0  0  0  0  0  0  0  0  0  0
  -17.2503   -4.8946    3.5967 O   0  0  0  0  0  0  0  0  0  0  0  0
  -17.9515   -6.7234    4.8868 N   0  0  0  0  0  0  0  0  0  0  0  0
  -19.3045   -7.0685    4.5299 C   0  0  0  0  0  0  0  0  0  0  0  0
  -19.4300   -8.5741    4.3062 C   0  0  0  0  0  0  0  0  0  0  0  0
  -18.8899   -9.2504    5.4416 N   0  0  0  0  0  0  0  0  0  0  0  0
  -17.4825   -8.9784    5.6829 C   0  0  0  0  0  0  0  0  0  0  0  0
  -17.3230   -7.5108    5.9224 C   0  0  0  0  0  0  0  0  0  0  0  0
  -19.0289  -10.2781    5.4240 H   0  0  0  0  0  0  0  0  0  0  0  0
  -14.3586   -4.1424    4.1377 C   0  0  0  0  0  0  0  0  0  0  0  0
  -15.4356   -3.8526    3.3592 F   0  0  0  0  0  0  0  0  0  0  0  0
  -13.1967   -4.3150    3.3717 F   0  0  0  0  0  0  0  0  0  0  0  0
  -14.0991   -2.9891    4.8936 F   0  0  0  0  0  0  0  0  0  0  0  0
  1  2  1  0  0  0
  2  3  2  0  0  0
  3  4  1  0  0  0
  4  5  2  0  0  0
  5  6  1  0  0  0
  6 17  1  0  0  0
 17 18  1  0  0  0
 17 19  1  0  0  0
 17 20  1  0  0  0
  6  7  2  0  0  0
  5  8  1  0  0  0
  8  9  2  0  0  0
  8 10  1  0  0  0
 10 11  1  0  0  0
 11 12  1  0  0  0
 12 13  1  0  0  0
 13 14  1  0  0  0
 14 15  1  0  0  0
  7  2  1  0  0  0
 15 10  1  0  0  0
 15  4  1  0  0  0
 13 16  1  0  0  0
M  END
> <minimizedAffinity>
0.46634

> <CNNscore>
0.4661855996

> <CNNaffinity>
5.7173624039

> <CNN_VS>
2.6653521061

> <CNNaffinity_variance>
0.9102773666

$$$$
[H]c1c(C([H])([H])[H])c([H])c2c(c1C(F)(F)F)C(=O)N1C([H])([H])C([H])([H])N([H])C([H])([H])[C@@]21[H]


 20 22  0  0  0  0  0  0  0  0999 V2000
   -6.7240   -5.1953    4.2856 C   0  0  0  0  0  0  0  0  0  0  0  0
   -7.0710   -6.1965    5.3291 C   0  0  0  0  0  0  0  0  0  0  0  0
   -8.4007   -6.3199    5.6665 C   0  0  0  0  0  0  0  0  0  0  0  0
   -8.7831   -7.2244    6.6205 C   0  0  0  0  0  0  0  0  0  0  0  0
   -7.8086   -8.0138    7.2424 C   0  0  0  0  0  0  0  0  0  0  0  0
   -6.4796   -7.9127    6.9260 C   0  0  0  0  0  0  0  0  0  0  0  0
   -6.1214   -6.9870    5.9545 C   0  0  0  0  0  0  0  0  0  0  0  0
   -8.5465   -8.8264    8.2101 C   0  0  0  0  0  0  0  0  0  0  0  0
   -8.0246   -9.6657    8.9651 O   0  0  0  0  0  0  0  0  0  0  0  0
   -9.9141   -8.5283    8.1673 N   0  0  0  0  0  0  0  0  0  0  0  0
  -11.0750   -8.9529    8.9083 C   0  0  0  0  0  0  0  0  0  0  0  0
  -11.8899   -7.7437    9.3626 C   0  0  0  0  0  0  0  0  0  0  0  0
  -12.1399   -6.9108    8.2304 N   0  0  0  0  0  0  0  0  0  0  0  0
  -10.9391   -6.3926    7.5956 C   0  0  0  0  0  0  0  0  0  0  0  0
  -10.1213   -7.5518    7.1228 C   0  0  0  0  0  0  0  0  0  0  0  0
  -12.7786   -6.1172    8.4252 H   0  0  0  0  0  0  0  0  0  0  0  0
   -5.4707   -8.7653    7.5913 C   0  0  0  0  0  0  0  0  0  0  0  0
   -4.2405   -8.7574    7.0113 F   0  0  0  0  0  0  0  0  0  0  0  0
   -5.9662  -10.0690    7.7384 F   0  0  0  0  0  0  0  0  0  0  0  0
   -5.2861   -8.3212    8.9095 F   0  0  0  0  0  0  0  0  0  0  0  0
  1  2  1  0  0  0
  2  3  2  0  0  0
  3  4  1  0  0  0
  4  5  2  0  0  0
  5  6  1  0  0  0
  6 17  1  0  0  0
 17 18  1  0  0  0
 17 19  1  0  0  0
 17 20  1  0  0  0
  6  7  2  0  0  0
  5  8  1  0  0  0
  8  9  2  0  0  0
  8 10  1  0  0  0
 10 11  1  0  0  0
 11 12  1  0  0  0
 12 13  1  0  0  0
 13 14  1  0  0  0
 14 15  1  0  0  0
  7  2  1  0  0  0
 15 10  1  0  0  0
 15  4  1  0  0  0
 13 16  1  0  0  0
M  END
> <minimizedAffinity>
4.64472

> <CNNscore>
0.4509214759

> <CNNaffinity>
5.1621699333

> <CNN_VS>
2.3277332783

> <CNNaffinity_variance>
1.7162421942

$$$$
[H]c1c(C([H])([H])[H])c([H])c2c(c1C(F)(F)F)C(=O)N1C([H])([H])C([H])([H])N([H])C([H])([H])[C@@]21[H]


 20 22  0  0  0  0  0  0  0  0999 V2000
  -14.0349   -7.0065    8.6251 C   0  0  0  0  0  0  0  0  0  0  0  0
  -15.0228   -7.3237    7.5596 C   0  0  0  0  0  0  0  0  0  0  0  0
  -16.2746   -7.7330    7.9627 C   0  0  0  0  0  0  0  0  0  0  0  0
  -17.2275   -8.0395    7.0287 C   0  0  0  0  0  0  0  0  0  0  0  0
  -16.9108   -7.9318    5.6695 C   0  0  0  0  0  0  0  0  0  0  0  0
  -15.6745   -7.5266    5.2404 C   0  0  0  0  0  0  0  0  0  0  0  0
  -14.7282   -7.2221    6.2103 C   0  0  0  0  0  0  0  0  0  0  0  0
  -18.1221   -8.3581    4.9678 C   0  0  0  0  0  0  0  0  0  0  0  0
  -18.2388   -8.3999    3.7303 O   0  0  0  0  0  0  0  0  0  0  0  0
  -19.1251   -8.7104    5.8793 N   0  0  0  0  0  0  0  0  0  0  0  0
  -20.4596   -9.2442    5.7727 C   0  0  0  0  0  0  0  0  0  0  0  0
  -20.6361  -10.4322    6.7161 C   0  0  0  0  0  0  0  0  0  0  0  0
  -20.2209  -10.0410    8.0248 N   0  0  0  0  0  0  0  0  0  0  0  0
  -18.8263   -9.6401    8.1121 C   0  0  0  0  0  0  0  0  0  0  0  0
  -18.6190   -8.4653    7.2102 C   0  0  0  0  0  0  0  0  0  0  0  0
  -20.4053  -10.7541    8.7550 H   0  0  0  0  0  0  0  0  0  0  0  0
  -15.3682   -7.4121    3.7980 C   0  0  0  0  0  0  0  0  0  0  0  0
  -16.2670   -6.6903    3.0762 F   0  0  0  0  0  0  0  0  0  0  0  0
  -15.1651   -8.6861    3.2480 F   0  0  0  0  0  0  0  0  0  0  0  0
  -14.1303   -6.7713    3.6371 F   0  0  0  0  0  0  0  0  0  0  0  0
  1  2  1  0  0  0
  2  3  2  0  0  0
  3  4  1  0  0  0
  4  5  2  0  0  0
  5  6  1  0  0  0
  6 17  1  0  0  0
 17 18  1  0  0  0
 17 19  1  0  0  0
 17 20  1  0  0  0
  6  7  2  0  0  0
  5  8  1  0  0  0
  8  9  2  0  0  0
  8 10  1  0  0  0
 10 11  1  0  0  0
 11 12  1  0  0  0
 12 13  1  0  0  0
 13 14  1  0  0  0
 14 15  1  0  0  0
  7  2  1  0  0  0
 15 10  1  0  0  0
 15  4  1  0  0  0
 13 16  1  0  0  0
M  END
> <minimizedAffinity>
-0.17480

> <CNNscore>
0.4296641648

> <CNNaffinity>
5.4280786514

> <CNN_VS>
2.3322508335

> <CNNaffinity_variance>
0.4724274576

$$$$
[H]c1c(C([H])([H])[H])c([H])c2c(c1C(F)(F)F)C(=O)N1C([H])([H])C([H])([H])N([H])C([H])([H])[C@@]21[H]


 20 22  0  0  0  0  0  0  0  0999 V2000
   -9.1283  -10.0849    7.1073 C   0  0  0  0  0  0  0  0  0  0  0  0
  -10.3225   -9.2788    7.4759 C   0  0  0  0  0  0  0  0  0  0  0  0
  -11.5059   -9.5777    6.8378 C   0  0  0  0  0  0  0  0  0  0  0  0
  -12.6402   -8.8707    7.1341 C   0  0  0  0  0  0  0  0  0  0  0  0
  -12.5773   -7.8474    8.0872 C   0  0  0  0  0  0  0  0  0  0  0  0
  -11.4144   -7.5293    8.7376 C   0  0  0  0  0  0  0  0  0  0  0  0
  -10.2800   -8.2636    8.4169 C   0  0  0  0  0  0  0  0  0  0  0  0
  -13.9308   -7.2928    8.1310 C   0  0  0  0  0  0  0  0  0  0  0  0
  -14.2817   -6.3546    8.8684 O   0  0  0  0  0  0  0  0  0  0  0  0
  -14.7702   -7.9619    7.2317 N   0  0  0  0  0  0  0  0  0  0  0  0
  -16.1410   -7.8145    6.8122 C   0  0  0  0  0  0  0  0  0  0  0  0
  -16.2363   -7.8217    5.2878 C   0  0  0  0  0  0  0  0  0  0  0  0
  -15.5504   -8.9720    4.7935 N   0  0  0  0  0  0  0  0  0  0  0  0
  -14.1356   -9.0100    5.1252 C   0  0  0  0  0  0  0  0  0  0  0  0
  -14.0034   -9.0197    6.6147 C   0  0  0  0  0  0  0  0  0  0  0  0
  -15.6535   -9.1159    3.7715 H   0  0  0  0  0  0  0  0  0  0  0  0
  -11.3768   -6.4495    9.7476 C   0  0  0  0  0  0  0  0  0  0  0  0
  -12.1622   -6.6567   10.8384 F   0  0  0  0  0  0  0  0  0  0  0  0
  -11.6481   -5.2149    9.1403 F   0  0  0  0  0  0  0  0  0  0  0  0
  -10.0659   -6.3109   10.2284 F   0  0  0  0  0  0  0  0  0  0  0  0
  1  2  1  0  0  0
  2  3  2  0  0  0
  3  4  1  0  0  0
  4  5  2  0  0  0
  5  6  1  0  0  0
  6 17  1  0  0  0
 17 18  1  0  0  0
 17 19  1  0  0  0
 17 20  1  0  0  0
  6  7  2  0  0  0
  5  8  1  0  0  0
  8  9  2  0  0  0
  8 10  1  0  0  0
 10 11  1  0  0  0
 11 12  1  0  0  0
 12 13  1  0  0  0
 13 14  1  0  0  0
 14 15  1  0  0  0
  7  2  1  0  0  0
 15 10  1  0  0  0
 15  4  1  0  0  0
 13 16  1  0  0  0
M  END
> <minimizedAffinity>
-7.89735

> <CNNscore>
0.4028984904

> <CNNaffinity>
5.7633733749

> <CNN_VS>
2.3220543861

> <CNNaffinity_variance>
0.0689881593

$$$$
[H]c1c(C([H])([H])[H])c([H])c2c(c1C(F)(F)F)C(=O)N1C([H])([H])C([H])([H])N([H])C([H])([H])[C@@]21[H]


 20 22  0  0  0  0  0  0  0  0999 V2000
   -7.1603   -6.7527    3.7676 C   0  0  0  0  0  0  0  0  0  0  0  0
   -6.8352   -6.7595    5.2188 C   0  0  0  0  0  0  0  0  0  0  0  0
   -5.7188   -6.0582    5.6176 C   0  0  0  0  0  0  0  0  0  0  0  0
   -5.3673   -6.0269    6.9404 C   0  0  0  0  0  0  0  0  0  0  0  0
   -6.1539   -6.7142    7.8722 C   0  0  0  0  0  0  0  0  0  0  0  0
   -7.2695   -7.4188    7.5039 C   0  0  0  0  0  0  0  0  0  0  0  0
   -7.6018   -7.4325    6.1554 C   0  0  0  0  0  0  0  0  0  0  0  0
   -5.4859   -6.5002    9.1565 C   0  0  0  0  0  0  0  0  0  0  0  0
   -5.8873   -6.9571   10.2415 O   0  0  0  0  0  0  0  0  0  0  0  0
   -4.3384   -5.7143    8.9937 N   0  0  0  0  0  0  0  0  0  0  0  0
   -3.2882   -5.2487    9.8639 C   0  0  0  0  0  0  0  0  0  0  0  0
   -1.9199   -5.5229    9.2432 C   0  0  0  0  0  0  0  0  0  0  0  0
   -1.9092   -5.0015    7.9142 N   0  0  0  0  0  0  0  0  0  0  0  0
   -2.8973   -5.5999    7.0318 C   0  0  0  0  0  0  0  0  0  0  0  0
   -4.2548   -5.3371    7.6014 C   0  0  0  0  0  0  0  0  0  0  0  0
   -0.9822   -5.0490    7.4516 H   0  0  0  0  0  0  0  0  0  0  0  0
   -8.0891   -8.1288    8.5096 C   0  0  0  0  0  0  0  0  0  0  0  0
   -9.0529   -8.9393    7.9957 F   0  0  0  0  0  0  0  0  0  0  0  0
   -8.6185   -7.2130    9.4303 F   0  0  0  0  0  0  0  0  0  0  0  0
   -7.2587   -8.9506    9.2868 F   0  0  0  0  0  0  0  0  0  0  0  0
  1  2  1  0  0  0
  2  3  2  0  0  0
  3  4  1  0  0  0
  4  5  2  0  0  0
  5  6  1  0  0  0
  6 17  1  0  0  0
 17 18  1  0  0  0
 17 19  1  0  0  0
 17 20  1  0  0  0
  6  7  2  0  0  0
  5  8  1  0  0  0
  8  9  2  0  0  0
  8 10  1  0  0  0
 10 11  1  0  0  0
 11 12  1  0  0  0
 12 13  1  0  0  0
 13 14  1  0  0  0
 14 15  1  0  0  0
  7  2  1  0  0  0
 15 10  1  0  0  0
 15  4  1  0  0  0
 13 16  1  0  0  0
M  END
> <minimizedAffinity>
-1.55225

> <CNNscore>
0.3884046376

> <CNNaffinity>
3.9593384266

> <CNN_VS>
1.5378254652

> <CNNaffinity_variance>
0.3990938962

$$$$
[H]c1c(C([H])([H])[H])c([H])c2c(c1C(F)(F)F)C(=O)N1C([H])([H])C([H])([H])N([H])C([H])([H])[C@@]21[H]


 20 22  0  0  0  0  0  0  0  0999 V2000
   -7.5259  -10.7502    8.3767 C   0  0  0  0  0  0  0  0  0  0  0  0
   -7.1152   -9.4868    7.7083 C   0  0  0  0  0  0  0  0  0  0  0  0
   -5.7770   -9.3322    7.4210 C   0  0  0  0  0  0  0  0  0  0  0  0
   -5.3370   -8.1908    6.8063 C   0  0  0  0  0  0  0  0  0  0  0  0
   -6.2614   -7.1921    6.4785 C   0  0  0  0  0  0  0  0  0  0  0  0
   -7.5977   -7.3195    6.7518 C   0  0  0  0  0  0  0  0  0  0  0  0
   -8.0151   -8.4882    7.3755 C   0  0  0  0  0  0  0  0  0  0  0  0
   -5.4615   -6.1239    5.8781 C   0  0  0  0  0  0  0  0  0  0  0  0
   -5.9278   -5.0528    5.4511 O   0  0  0  0  0  0  0  0  0  0  0  0
   -4.1060   -6.4743    5.8522 N   0  0  0  0  0  0  0  0  0  0  0  0
   -2.8890   -5.8155    5.4497 C   0  0  0  0  0  0  0  0  0  0  0  0
   -1.8273   -5.9430    6.5403 C   0  0  0  0  0  0  0  0  0  0  0  0
   -1.7051   -7.3194    6.8991 N   0  0  0  0  0  0  0  0  0  0  0  0
   -2.9242   -7.9067    7.4302 C   0  0  0  0  0  0  0  0  0  0  0  0
   -3.9854   -7.8136    6.3806 C   0  0  0  0  0  0  0  0  0  0  0  0
   -0.9301   -7.5142    7.5602 H   0  0  0  0  0  0  0  0  0  0  0  0
   -8.5554   -6.2532    6.3866 C   0  0  0  0  0  0  0  0  0  0  0  0
   -8.4731   -5.8248    5.0984 F   0  0  0  0  0  0  0  0  0  0  0  0
   -8.4572   -5.1887    7.2943 F   0  0  0  0  0  0  0  0  0  0  0  0
   -9.8645   -6.7277    6.5596 F   0  0  0  0  0  0  0  0  0  0  0  0
  1  2  1  0  0  0
  2  3  2  0  0  0
  3  4  1  0  0  0
  4  5  2  0  0  0
  5  6  1  0  0  0
  6 17  1  0  0  0
 17 18  1  0  0  0
 17 19  1  0  0  0
 17 20  1  0  0  0
  6  7  2  0  0  0
  5  8  1  0  0  0
  8  9  2  0  0  0
  8 10  1  0  0  0
 10 11  1  0  0  0
 11 12  1  0  0  0
 12 13  1  0  0  0
 13 14  1  0  0  0
 14 15  1  0  0  0
  7  2  1  0  0  0
 15 10  1  0  0  0
 15  4  1  0  0  0
 13 16  1  0  0  0
M  END
> <minimizedAffinity>
-1.57420

> <CNNscore>
0.3690421283

> <CNNaffinity>
4.1321554184

> <CNN_VS>
1.5249394178

> <CNNaffinity_variance>
0.4980470240

$$$$
[H]c1c(C([H])([H])[H])c([H])c2c(c1C(F)(F)F)C(=O)N1C([H])([H])C([H])([H])N([H])C([H])([H])[C@@]21[H]


 20 22  0  0  0  0  0  0  0  0999 V2000
   -9.9890   -9.9248    7.0829 C   0  0  0  0  0  0  0  0  0  0  0  0
  -11.3436   -9.3363    7.2567 C   0  0  0  0  0  0  0  0  0  0  0  0
  -12.2633   -9.5659    6.2575 C   0  0  0  0  0  0  0  0  0  0  0  0
  -13.5275   -9.0503    6.3598 C   0  0  0  0  0  0  0  0  0  0  0  0
  -13.8662   -8.2919    7.4865 C   0  0  0  0  0  0  0  0  0  0  0  0
  -12.9721   -8.0484    8.4954 C   0  0  0  0  0  0  0  0  0  0  0  0
  -11.6975   -8.5844    8.3645 C   0  0  0  0  0  0  0  0  0  0  0  0
  -15.2514   -7.8794    7.2575 C   0  0  0  0  0  0  0  0  0  0  0  0
  -15.9165   -7.1843    8.0458 O   0  0  0  0  0  0  0  0  0  0  0  0
  -15.7202   -8.3736    6.0340 N   0  0  0  0  0  0  0  0  0  0  0  0
  -16.9415   -8.2416    5.2804 C   0  0  0  0  0  0  0  0  0  0  0  0
  -16.6361   -7.8809    3.8280 C   0  0  0  0  0  0  0  0  0  0  0  0
  -15.6828   -8.8129    3.3174 N   0  0  0  0  0  0  0  0  0  0  0  0
  -14.4130   -8.8139    4.0250 C   0  0  0  0  0  0  0  0  0  0  0  0
  -14.6717   -9.1794    5.4518 C   0  0  0  0  0  0  0  0  0  0  0  0
  -15.4949   -8.7086    2.3028 H   0  0  0  0  0  0  0  0  0  0  0  0
  -13.3582   -7.2515    9.6800 C   0  0  0  0  0  0  0  0  0  0  0  0
  -14.3146   -7.8166   10.4647 F   0  0  0  0  0  0  0  0  0  0  0  0
  -13.7093   -5.9511    9.2898 F   0  0  0  0  0  0  0  0  0  0  0  0
  -12.2349   -7.0684   10.5008 F   0  0  0  0  0  0  0  0  0  0  0  0
  1  2  1  0  0  0
  2  3  2  0  0  0
  3  4  1  0  0  0
  4  5  2  0  0  0
  5  6  1  0  0  0
  6 17  1  0  0  0
 17 18  1  0  0  0
 17 19  1  0  0  0
 17 20  1  0  0  0
  6  7  2  0  0  0
  5  8  1  0  0  0
  8  9  2  0  0  0
  8 10  1  0  0  0
 10 11  1  0  0  0
 11 12  1  0  0  0
 12 13  1  0  0  0
 13 14  1  0  0  0
 14 15  1  0  0  0
  7  2  1  0  0  0
 15 10  1  0  0  0
 15  4  1  0  0  0
 13 16  1  0  0  0
M  END
> <minimizedAffinity>
-7.78798

> <CNNscore>
0.3436570764

> <CNNaffinity>
5.7403321266

> <CNN_VS>
1.9727057219

> <CNNaffinity_variance>
0.0179496370

$$$$
[H]c1c(C([H])([H])[H])c([H])c2c(c1C(F)(F)F)C(=O)N1C([H])([H])C([H])([H])N([H])C([H])([H])[C@@]21[H]


 20 22  0  0  0  0  0  0  0  0999 V2000
   -7.0334   -6.7438    6.2497 C   0  0  0  0  0  0  0  0  0  0  0  0
   -5.7063   -6.8001    6.9185 C   0  0  0  0  0  0  0  0  0  0  0  0
   -5.5096   -5.9690    7.9991 C   0  0  0  0  0  0  0  0  0  0  0  0
   -4.3087   -5.9749    8.6567 C   0  0  0  0  0  0  0  0  0  0  0  0
   -3.2931   -6.8314    8.2157 C   0  0  0  0  0  0  0  0  0  0  0  0
   -3.4615   -7.6687    7.1446 C   0  0  0  0  0  0  0  0  0  0  0  0
   -4.6901   -7.6413    6.4974 C   0  0  0  0  0  0  0  0  0  0  0  0
   -2.1626   -6.5603    9.1043 C   0  0  0  0  0  0  0  0  0  0  0  0
   -1.0602   -7.1317    9.0324 O   0  0  0  0  0  0  0  0  0  0  0  0
   -2.4937   -5.5734   10.0410 N   0  0  0  0  0  0  0  0  0  0  0  0
   -1.7853   -4.8809   11.0877 C   0  0  0  0  0  0  0  0  0  0  0  0
   -2.0069   -3.3740   10.9756 C   0  0  0  0  0  0  0  0  0  0  0  0
   -3.4103   -3.1239   10.8978 N   0  0  0  0  0  0  0  0  0  0  0  0
   -4.0602   -3.7299    9.7473 C   0  0  0  0  0  0  0  0  0  0  0  0
   -3.8767   -5.2116    9.8319 C   0  0  0  0  0  0  0  0  0  0  0  0
   -3.6601   -2.1177   10.9255 H   0  0  0  0  0  0  0  0  0  0  0  0
   -2.3754   -8.5709    6.7044 C   0  0  0  0  0  0  0  0  0  0  0  0
   -1.9756   -9.4823    7.6314 F   0  0  0  0  0  0  0  0  0  0  0  0
   -1.2961   -7.8201    6.2165 F   0  0  0  0  0  0  0  0  0  0  0  0
   -2.8079   -9.3074    5.5911 F   0  0  0  0  0  0  0  0  0  0  0  0
  1  2  1  0  0  0
  2  3  2  0  0  0
  3  4  1  0  0  0
  4  5  2  0  0  0
  5  6  1  0  0  0
  6 17  1  0  0  0
 17 18  1  0  0  0
 17 19  1  0  0  0
 17 20  1  0  0  0
  6  7  2  0  0  0
  5  8  1  0  0  0
  8  9  2  0  0  0
  8 10  1  0  0  0
 10 11  1  0  0  0
 11 12  1  0  0  0
 12 13  1  0  0  0
 13 14  1  0  0  0
 14 15  1  0  0  0
  7  2  1  0  0  0
 15 10  1  0  0  0
 15  4  1  0  0  0
 13 16  1  0  0  0
M  END
> <minimizedAffinity>
-3.95483

> <CNNscore>
0.3078986406

> <CNNaffinity>
3.7272427082

> <CNN_VS>
1.1476129293

> <CNNaffinity_variance>
0.0601562038

$$$$
[H]N=C1c2c([H])nc([H])nc2C([H])([H])[C@](c2c([H])c(-c3c([H])nc([H])c(Cl)c3[H])c([H])c([H])c2F)(C([H])([H])[H])N1[H]


 28 31  0  0  0  0  0  0  0  0999 V2000
   -8.1469  -10.3515    5.7488 C   0  0  0  0  0  0  0  0  0  0  0  0
   -9.5786  -10.7297    5.5185 C   0  0  0  0  0  0  0  0  0  0  0  0
   -9.8665  -10.5635    4.0464 C   0  0  0  0  0  0  0  0  0  0  0  0
   -9.0044  -11.4455    3.2366 C   0  0  0  0  0  0  0  0  0  0  0  0
   -8.6466  -11.0697    1.9921 N   0  0  0  0  0  0  0  0  0  0  0  0
   -7.8743  -11.8394    1.2055 C   0  0  0  0  0  0  0  0  0  0  0  0
   -7.4627  -13.0161    1.7070 N   0  0  0  0  0  0  0  0  0  0  0  0
   -7.7972  -13.4365    2.9544 C   0  0  0  0  0  0  0  0  0  0  0  0
   -8.5825  -12.6477    3.7477 C   0  0  0  0  0  0  0  0  0  0  0  0
   -8.9537  -13.0654    5.1166 C   0  0  0  0  0  0  0  0  0  0  0  0
   -8.5832  -14.1712    5.6089 N   0  0  0  0  0  0  0  0  0  0  0  0
   -9.7585  -12.1411    5.8351 N   0  0  0  0  0  0  0  0  0  0  0  0
   -8.0165  -14.9163    5.2070 H   0  0  0  0  0  0  0  0  0  0  0  0
  -10.4300  -12.5032    6.5445 H   0  0  0  0  0  0  0  0  0  0  0  0
  -10.5196   -9.8812    6.2942 C   0  0  0  0  0  0  0  0  0  0  0  0
  -11.8168   -9.6533    5.8912 C   0  0  0  0  0  0  0  0  0  0  0  0
  -12.6799   -8.8506    6.6326 C   0  0  0  0  0  0  0  0  0  0  0  0
  -12.1974   -8.2823    7.7958 C   0  0  0  0  0  0  0  0  0  0  0  0
  -10.8893   -8.4908    8.2357 C   0  0  0  0  0  0  0  0  0  0  0  0
  -10.0783   -9.2955    7.4603 C   0  0  0  0  0  0  0  0  0  0  0  0
   -8.7911   -9.5275    7.8524 F   0  0  0  0  0  0  0  0  0  0  0  0
  -14.0551   -8.5932    6.2269 C   0  0  0  0  0  0  0  0  0  0  0  0
  -14.4118   -8.7146    4.9026 C   0  0  0  0  0  0  0  0  0  0  0  0
  -15.6844   -8.4789    4.4920 N   0  0  0  0  0  0  0  0  0  0  0  0
  -16.6625   -8.1165    5.3475 C   0  0  0  0  0  0  0  0  0  0  0  0
  -16.3425   -7.9861    6.6751 C   0  0  0  0  0  0  0  0  0  0  0  0
  -17.5949   -7.5173    7.7955 Cl  0  0  0  0  0  0  0  0  0  0  0  0
  -15.0394   -8.2236    7.1195 C   0  0  0  0  0  0  0  0  0  0  0  0
  2  1  1  0  0  0
  2 15  1  0  0  0
 15 16  2  0  0  0
 16 17  1  0  0  0
 17 22  1  0  0  0
 22 23  2  0  0  0
 23 24  1  0  0  0
 24 25  2  0  0  0
 25 26  1  0  0  0
 26 27  1  0  0  0
 26 28  2  0  0  0
 17 18  2  0  0  0
 18 19  1  0  0  0
 19 20  2  0  0  0
 20 21  1  0  0  0
  2  3  1  0  0  0
  3  4  1  0  0  0
  4  5  2  0  0  0
  5  6  1  0  0  0
  6  7  2  0  0  0
  7  8  1  0  0  0
  8  9  2  0  0  0
  9 10  1  0  0  0
 10 11  2  0  0  0
 10 12  1  0  0  0
 12  2  1  0  0  0
 20 15  1  0  0  0
  9  4  1  0  0  0
 28 22  1  0  0  0
 11 13  1  0  0  0
 12 14  1  0  0  0
M  END
> <minimizedAffinity>
17.04287

> <CNNscore>
0.5140954852

> <CNNaffinity>
6.7876615524

> <CNN_VS>
3.4895062447

> <CNNaffinity_variance>
0.5951339006

$$$$
[H]N=C1c2c([H])nc([H])nc2C([H])([H])[C@](c2c([H])c(-c3c([H])nc([H])c(Cl)c3[H])c([H])c([H])c2F)(C([H])([H])[H])N1[H]


 28 31  0  0  0  0  0  0  0  0999 V2000
   -8.5967  -10.3317    6.0909 C   0  0  0  0  0  0  0  0  0  0  0  0
   -9.9928  -10.6586    5.6555 C   0  0  0  0  0  0  0  0  0  0  0  0
  -10.0434  -10.5449    4.1515 C   0  0  0  0  0  0  0  0  0  0  0  0
   -9.1114  -11.4973    3.5180 C   0  0  0  0  0  0  0  0  0  0  0  0
   -8.5493  -11.1918    2.3311 N   0  0  0  0  0  0  0  0  0  0  0  0
   -7.7041  -12.0272    1.7024 C   0  0  0  0  0  0  0  0  0  0  0  0
   -7.4319  -13.1973    2.3046 N   0  0  0  0  0  0  0  0  0  0  0  0
   -7.9736  -13.5481    3.4996 C   0  0  0  0  0  0  0  0  0  0  0  0
   -8.8318  -12.6928    4.1321 C   0  0  0  0  0  0  0  0  0  0  0  0
   -9.4282  -13.0340    5.4413 C   0  0  0  0  0  0  0  0  0  0  0  0
   -9.1917  -14.1319    6.0254 N   0  0  0  0  0  0  0  0  0  0  0  0
  -10.2876  -12.0458    5.9919 N   0  0  0  0  0  0  0  0  0  0  0  0
   -8.6070  -14.9172    5.7437 H   0  0  0  0  0  0  0  0  0  0  0  0
  -11.0766  -12.3477    6.6015 H   0  0  0  0  0  0  0  0  0  0  0  0
  -10.9991   -9.7378    6.2443 C   0  0  0  0  0  0  0  0  0  0  0  0
  -10.7206   -8.9261    7.3216 C   0  0  0  0  0  0  0  0  0  0  0  0
  -11.6815   -8.0736    7.8594 C   0  0  0  0  0  0  0  0  0  0  0  0
  -12.9351   -8.0622    7.2789 C   0  0  0  0  0  0  0  0  0  0  0  0
  -13.2538   -8.8703    6.1865 C   0  0  0  0  0  0  0  0  0  0  0  0
  -12.2618   -9.6956    5.6952 C   0  0  0  0  0  0  0  0  0  0  0  0
  -12.5287  -10.5033    4.6272 F   0  0  0  0  0  0  0  0  0  0  0  0
  -11.4121   -7.2069    8.9988 C   0  0  0  0  0  0  0  0  0  0  0  0
  -10.1123   -6.9728    9.3880 C   0  0  0  0  0  0  0  0  0  0  0  0
   -9.8281   -6.1723   10.4473 N   0  0  0  0  0  0  0  0  0  0  0  0
  -10.7912   -5.5664   11.1719 C   0  0  0  0  0  0  0  0  0  0  0  0
  -12.0981   -5.7776   10.8120 C   0  0  0  0  0  0  0  0  0  0  0  0
  -13.3567   -5.0024   11.7385 Cl  0  0  0  0  0  0  0  0  0  0  0  0
  -12.4133   -6.5974    9.7256 C   0  0  0  0  0  0  0  0  0  0  0  0
  2  1  1  0  0  0
  2 15  1  0  0  0
 15 16  2  0  0  0
 16 17  1  0  0  0
 17 22  1  0  0  0
 22 23  2  0  0  0
 23 24  1  0  0  0
 24 25  2  0  0  0
 25 26  1  0  0  0
 26 27  1  0  0  0
 26 28  2  0  0  0
 17 18  2  0  0  0
 18 19  1  0  0  0
 19 20  2  0  0  0
 20 21  1  0  0  0
  2  3  1  0  0  0
  3  4  1  0  0  0
  4  5  2  0  0  0
  5  6  1  0  0  0
  6  7  2  0  0  0
  7  8  1  0  0  0
  8  9  2  0  0  0
  9 10  1  0  0  0
 10 11  2  0  0  0
 10 12  1  0  0  0
 12  2  1  0  0  0
 20 15  1  0  0  0
  9  4  1  0  0  0
 28 22  1  0  0  0
 11 13  1  0  0  0
 12 14  1  0  0  0
M  END
> <minimizedAffinity>
26.18482

> <CNNscore>
0.4853443503

> <CNNaffinity>
6.5417723656

> <CNN_VS>
3.1750123501

> <CNNaffinity_variance>
0.7717944384

$$$$
[H]N=C1c2c([H])nc([H])nc2C([H])([H])[C@](c2c([H])c(-c3c([H])nc([H])c(Cl)c3[H])c([H])c([H])c2F)(C([H])([H])[H])N1[H]


 28 31  0  0  0  0  0  0  0  0999 V2000
  -14.4344   -8.2685    4.8411 C   0  0  0  0  0  0  0  0  0  0  0  0
  -14.8809   -7.7486    6.1738 C   0  0  0  0  0  0  0  0  0  0  0  0
  -15.1198   -6.2653    6.0316 C   0  0  0  0  0  0  0  0  0  0  0  0
  -16.1741   -5.9928    5.0361 C   0  0  0  0  0  0  0  0  0  0  0  0
  -16.1407   -4.8479    4.3247 N   0  0  0  0  0  0  0  0  0  0  0  0
  -17.0820   -4.5421    3.4148 C   0  0  0  0  0  0  0  0  0  0  0  0
  -18.0750   -5.4289    3.2330 N   0  0  0  0  0  0  0  0  0  0  0  0
  -18.1503   -6.5947    3.9255 C   0  0  0  0  0  0  0  0  0  0  0  0
  -17.1891   -6.8980    4.8487 C   0  0  0  0  0  0  0  0  0  0  0  0
  -17.2297   -8.1648    5.6100 C   0  0  0  0  0  0  0  0  0  0  0  0
  -18.1575   -9.0129    5.4606 N   0  0  0  0  0  0  0  0  0  0  0  0
  -16.1582   -8.3582    6.5226 N   0  0  0  0  0  0  0  0  0  0  0  0
  -18.9748   -8.9973    4.8526 H   0  0  0  0  0  0  0  0  0  0  0  0
  -16.3264   -8.9168    7.3857 H   0  0  0  0  0  0  0  0  0  0  0  0
  -13.8691   -7.9759    7.2376 C   0  0  0  0  0  0  0  0  0  0  0  0
  -12.5281   -8.1309    6.9644 C   0  0  0  0  0  0  0  0  0  0  0  0
  -11.5981   -8.3472    7.9780 C   0  0  0  0  0  0  0  0  0  0  0  0
  -12.0592   -8.4029    9.2791 C   0  0  0  0  0  0  0  0  0  0  0  0
  -13.4103   -8.2502    9.5942 C   0  0  0  0  0  0  0  0  0  0  0  0
  -14.2870   -8.0383    8.5487 C   0  0  0  0  0  0  0  0  0  0  0  0
  -15.6181   -7.8830    8.8102 F   0  0  0  0  0  0  0  0  0  0  0  0
  -10.1753   -8.5155    7.7147 C   0  0  0  0  0  0  0  0  0  0  0  0
   -9.6738   -9.7681    7.4407 C   0  0  0  0  0  0  0  0  0  0  0  0
   -8.3523   -9.9586    7.1939 N   0  0  0  0  0  0  0  0  0  0  0  0
   -7.4636   -8.9437    7.2023 C   0  0  0  0  0  0  0  0  0  0  0  0
   -7.9288   -7.6816    7.4717 C   0  0  0  0  0  0  0  0  0  0  0  0
   -6.7933   -6.3571    7.4874 Cl  0  0  0  0  0  0  0  0  0  0  0  0
   -9.2845   -7.4627    7.7285 C   0  0  0  0  0  0  0  0  0  0  0  0
  2  1  1  0  0  0
  2 15  1  0  0  0
 15 16  2  0  0  0
 16 17  1  0  0  0
 17 22  1  0  0  0
 22 23  2  0  0  0
 23 24  1  0  0  0
 24 25  2  0  0  0
 25 26  1  0  0  0
 26 27  1  0  0  0
 26 28  2  0  0  0
 17 18  2  0  0  0
 18 19  1  0  0  0
 19 20  2  0  0  0
 20 21  1  0  0  0
  2  3  1  0  0  0
  3  4  1  0  0  0
  4  5  2  0  0  0
  5  6  1  0  0  0
  6  7  2  0  0  0
  7  8  1  0  0  0
  8  9  2  0  0  0
  9 10  1  0  0  0
 10 11  2  0  0  0
 10 12  1  0  0  0
 12  2  1  0  0  0
 20 15  1  0  0  0
  9  4  1  0  0  0
 28 22  1  0  0  0
 11 13  1  0  0  0
 12 14  1  0  0  0
M  END
> <minimizedAffinity>
-9.96853

> <CNNscore>
0.4446389675

> <CNNaffinity>
7.3918600082

> <CNN_VS>
3.2867090702

> <CNNaffinity_variance>
0.1437021792

$$$$
[H]N=C1c2c([H])nc([H])nc2C([H])([H])[C@](c2c([H])c(-c3c([H])nc([H])c(Cl)c3[H])c([H])c([H])c2F)(C([H])([H])[H])N1[H]


 28 31  0  0  0  0  0  0  0  0999 V2000
  -11.1136   -9.7937    7.8947 C   0  0  0  0  0  0  0  0  0  0  0  0
  -10.5356   -8.4926    7.4269 C   0  0  0  0  0  0  0  0  0  0  0  0
  -11.4913   -7.9009    6.4200 C   0  0  0  0  0  0  0  0  0  0  0  0
  -12.8100   -7.6446    7.0304 C   0  0  0  0  0  0  0  0  0  0  0  0
  -13.9213   -7.7071    6.2694 N   0  0  0  0  0  0  0  0  0  0  0  0
  -15.1464   -7.4697    6.7696 C   0  0  0  0  0  0  0  0  0  0  0  0
  -15.2305   -7.1626    8.0751 N   0  0  0  0  0  0  0  0  0  0  0  0
  -14.1396   -7.0882    8.8806 C   0  0  0  0  0  0  0  0  0  0  0  0
  -12.8977   -7.3313    8.3641 C   0  0  0  0  0  0  0  0  0  0  0  0
  -11.6893   -7.2750    9.2141 C   0  0  0  0  0  0  0  0  0  0  0  0
  -11.7423   -6.9824   10.4446 N   0  0  0  0  0  0  0  0  0  0  0  0
  -10.4674   -7.5667    8.5506 N   0  0  0  0  0  0  0  0  0  0  0  0
  -12.5401   -6.7517   11.0347 H   0  0  0  0  0  0  0  0  0  0  0  0
   -9.5909   -7.1162    8.8883 H   0  0  0  0  0  0  0  0  0  0  0  0
   -9.2045   -8.6618    6.7890 C   0  0  0  0  0  0  0  0  0  0  0  0
   -9.0427   -9.2585    5.5583 C   0  0  0  0  0  0  0  0  0  0  0  0
   -7.7843   -9.4100    4.9817 C   0  0  0  0  0  0  0  0  0  0  0  0
   -6.6898   -8.9414    5.6826 C   0  0  0  0  0  0  0  0  0  0  0  0
   -6.8150   -8.3313    6.9316 C   0  0  0  0  0  0  0  0  0  0  0  0
   -8.0870   -8.2083    7.4546 C   0  0  0  0  0  0  0  0  0  0  0  0
   -8.2570   -7.6175    8.6738 F   0  0  0  0  0  0  0  0  0  0  0  0
   -7.5869  -10.0387    3.6825 C   0  0  0  0  0  0  0  0  0  0  0  0
   -6.7560   -9.4492    2.7563 C   0  0  0  0  0  0  0  0  0  0  0  0
   -6.5534  -10.0085    1.5358 N   0  0  0  0  0  0  0  0  0  0  0  0
   -7.1472  -11.1611    1.1634 C   0  0  0  0  0  0  0  0  0  0  0  0
   -7.9818  -11.7762    2.0618 C   0  0  0  0  0  0  0  0  0  0  0  0
   -8.7587  -13.2674    1.5967 Cl  0  0  0  0  0  0  0  0  0  0  0  0
   -8.2047  -11.2183    3.3231 C   0  0  0  0  0  0  0  0  0  0  0  0
  2  1  1  0  0  0
  2 15  1  0  0  0
 15 16  2  0  0  0
 16 17  1  0  0  0
 17 22  1  0  0  0
 22 23  2  0  0  0
 23 24  1  0  0  0
 24 25  2  0  0  0
 25 26  1  0  0  0
 26 27  1  0  0  0
 26 28  2  0  0  0
 17 18  2  0  0  0
 18 19  1  0  0  0
 19 20  2  0  0  0
 20 21  1  0  0  0
  2  3  1  0  0  0
  3  4  1  0  0  0
  4  5  2  0  0  0
  5  6  1  0  0  0
  6  7  2  0  0  0
  7  8  1  0  0  0
  8  9  2  0  0  0
  9 10  1  0  0  0
 10 11  2  0  0  0
 10 12  1  0  0  0
 12  2  1  0  0  0
 20 15  1  0  0  0
  9  4  1  0  0  0
 28 22  1  0  0  0
 11 13  1  0  0  0
 12 14  1  0  0  0
M  END
> <minimizedAffinity>
8.84109

> <CNNscore>
0.4007993639

> <CNNaffinity>
6.6930551529

> <CNN_VS>
2.6825723648

> <CNNaffinity_variance>
1.1010658741

$$$$
[H]N=C1c2c([H])nc([H])nc2C([H])([H])[C@](c2c([H])c(-c3c([H])nc([H])c(Cl)c3[H])c([H])c([H])c2F)(C([H])([H])[H])N1[H]


 28 31  0  0  0  0  0  0  0  0999 V2000
   -6.3788   -6.2847    6.2185 C   0  0  0  0  0  0  0  0  0  0  0  0
   -6.4908   -7.2587    7.3518 C   0  0  0  0  0  0  0  0  0  0  0  0
   -5.4636   -8.3417    7.1299 C   0  0  0  0  0  0  0  0  0  0  0  0
   -4.0989   -7.7809    7.1165 C   0  0  0  0  0  0  0  0  0  0  0  0
   -3.1406   -8.3743    6.3766 N   0  0  0  0  0  0  0  0  0  0  0  0
   -1.8778   -7.9145    6.3377 C   0  0  0  0  0  0  0  0  0  0  0  0
   -1.5953   -6.8254    7.0724 N   0  0  0  0  0  0  0  0  0  0  0  0
   -2.5272   -6.1940    7.8323 C   0  0  0  0  0  0  0  0  0  0  0  0
   -3.8088   -6.6680    7.8660 C   0  0  0  0  0  0  0  0  0  0  0  0
   -4.8534   -5.9974    8.6692 C   0  0  0  0  0  0  0  0  0  0  0  0
   -4.6105   -4.9740    9.3736 N   0  0  0  0  0  0  0  0  0  0  0  0
   -6.1443   -6.5863    8.5977 N   0  0  0  0  0  0  0  0  0  0  0  0
   -3.7420   -4.4606    9.5150 H   0  0  0  0  0  0  0  0  0  0  0  0
   -6.7771   -6.5141    9.4222 H   0  0  0  0  0  0  0  0  0  0  0  0
   -7.8382   -7.8793    7.4333 C   0  0  0  0  0  0  0  0  0  0  0  0
   -8.8936   -7.2776    8.0822 C   0  0  0  0  0  0  0  0  0  0  0  0
  -10.1470   -7.8804    8.1493 C   0  0  0  0  0  0  0  0  0  0  0  0
  -10.3075   -9.1108    7.5418 C   0  0  0  0  0  0  0  0  0  0  0  0
   -9.2615   -9.7507    6.8752 C   0  0  0  0  0  0  0  0  0  0  0  0
   -8.0408   -9.1062    6.8407 C   0  0  0  0  0  0  0  0  0  0  0  0
   -6.9890   -9.6950    6.1992 F   0  0  0  0  0  0  0  0  0  0  0  0
  -11.2782   -7.2653    8.8306 C   0  0  0  0  0  0  0  0  0  0  0  0
  -11.0917   -6.1155    9.5648 C   0  0  0  0  0  0  0  0  0  0  0  0
  -12.1248   -5.5195   10.2137 N   0  0  0  0  0  0  0  0  0  0  0  0
  -13.3798   -6.0130   10.1773 C   0  0  0  0  0  0  0  0  0  0  0  0
  -13.6020   -7.1577    9.4548 C   0  0  0  0  0  0  0  0  0  0  0  0
  -15.2189   -7.8103    9.3974 Cl  0  0  0  0  0  0  0  0  0  0  0  0
  -12.5536   -7.7876    8.7795 C   0  0  0  0  0  0  0  0  0  0  0  0
  2  1  1  0  0  0
  2 15  1  0  0  0
 15 16  2  0  0  0
 16 17  1  0  0  0
 17 22  1  0  0  0
 22 23  2  0  0  0
 23 24  1  0  0  0
 24 25  2  0  0  0
 25 26  1  0  0  0
 26 27  1  0  0  0
 26 28  2  0  0  0
 17 18  2  0  0  0
 18 19  1  0  0  0
 19 20  2  0  0  0
 20 21  1  0  0  0
  2  3  1  0  0  0
  3  4  1  0  0  0
  4  5  2  0  0  0
  5  6  1  0  0  0
  6  7  2  0  0  0
  7  8  1  0  0  0
  8  9  2  0  0  0
  9 10  1  0  0  0
 10 11  2  0  0  0
 10 12  1  0  0  0
 12  2  1  0  0  0
 20 15  1  0  0  0
  9  4  1  0  0  0
 28 22  1  0  0  0
 11 13  1  0  0  0
 12 14  1  0  0  0
M  END
> <minimizedAffinity>
-8.77415

> <CNNscore>
0.2950844467

> <CNNaffinity>
6.1753263474

> <CNN_VS>
1.8222427368

> <CNNaffinity_variance>
0.0434412248

$$$$
[H]N=C1c2c([H])nc([H])nc2C([H])([H])[C@](c2c([H])c(-c3c([H])nc([H])c(Cl)c3[H])c([H])c([H])c2F)(C([H])([H])[H])N1[H]


 28 31  0  0  0  0  0  0  0  0999 V2000
   -9.1217   -7.0318    9.2617 C   0  0  0  0  0  0  0  0  0  0  0  0
   -9.8388   -7.5484    8.0516 C   0  0  0  0  0  0  0  0  0  0  0  0
   -9.2452   -6.8698    6.8413 C   0  0  0  0  0  0  0  0  0  0  0  0
   -7.8085   -7.1805    6.7129 C   0  0  0  0  0  0  0  0  0  0  0  0
   -6.9798   -6.2828    6.1425 N   0  0  0  0  0  0  0  0  0  0  0  0
   -5.6653   -6.5186    5.9876 C   0  0  0  0  0  0  0  0  0  0  0  0
   -5.1945   -7.6981    6.4268 N   0  0  0  0  0  0  0  0  0  0  0  0
   -5.9905   -8.6326    7.0077 C   0  0  0  0  0  0  0  0  0  0  0  0
   -7.3259   -8.3848    7.1616 C   0  0  0  0  0  0  0  0  0  0  0  0
   -8.2199   -9.3719    7.8036 C   0  0  0  0  0  0  0  0  0  0  0  0
   -7.8013  -10.4916    8.2199 N   0  0  0  0  0  0  0  0  0  0  0  0
   -9.5799   -8.9762    7.9140 N   0  0  0  0  0  0  0  0  0  0  0  0
   -6.8664  -10.8961    8.1999 H   0  0  0  0  0  0  0  0  0  0  0  0
  -10.3207   -9.7083    7.8930 H   0  0  0  0  0  0  0  0  0  0  0  0
  -11.2973   -7.2690    8.0960 C   0  0  0  0  0  0  0  0  0  0  0  0
  -12.1234   -7.4666    7.0118 C   0  0  0  0  0  0  0  0  0  0  0  0
  -13.4874   -7.1937    7.0756 C   0  0  0  0  0  0  0  0  0  0  0  0
  -13.9972   -6.7145    8.2668 C   0  0  0  0  0  0  0  0  0  0  0  0
  -13.1911   -6.5020    9.3862 C   0  0  0  0  0  0  0  0  0  0  0  0
  -11.8461   -6.7898    9.2651 C   0  0  0  0  0  0  0  0  0  0  0  0
  -11.0197   -6.5975   10.3349 F   0  0  0  0  0  0  0  0  0  0  0  0
  -14.3813   -7.3929    5.9428 C   0  0  0  0  0  0  0  0  0  0  0  0
  -14.4144   -8.6118    5.3034 C   0  0  0  0  0  0  0  0  0  0  0  0
  -15.2343   -8.8285    4.2431 N   0  0  0  0  0  0  0  0  0  0  0  0
  -16.0552   -7.8734    3.7596 C   0  0  0  0  0  0  0  0  0  0  0  0
  -16.0483   -6.6462    4.3727 C   0  0  0  0  0  0  0  0  0  0  0  0
  -17.1032   -5.3990    3.7601 Cl  0  0  0  0  0  0  0  0  0  0  0  0
  -15.2126   -6.4014    5.4652 C   0  0  0  0  0  0  0  0  0  0  0  0
  2  1  1  0  0  0
  2 15  1  0  0  0
 15 16  2  0  0  0
 16 17  1  0  0  0
 17 22  1  0  0  0
 22 23  2  0  0  0
 23 24  1  0  0  0
 24 25  2  0  0  0
 25 26  1  0  0  0
 26 27  1  0  0  0
 26 28  2  0  0  0
 17 18  2  0  0  0
 18 19  1  0  0  0
 19 20  2  0  0  0
 20 21  1  0  0  0
  2  3  1  0  0  0
  3  4  1  0  0  0
  4  5  2  0  0  0
  5  6  1  0  0  0
  6  7  2  0  0  0
  7  8  1  0  0  0
  8  9  2  0  0  0
  9 10  1  0  0  0
 10 11  2  0  0  0
 10 12  1  0  0  0
 12  2  1  0  0  0
 20 15  1  0  0  0
  9  4  1  0  0  0
 28 22  1  0  0  0
 11 13  1  0  0  0
 12 14  1  0  0  0
M  END
> <minimizedAffinity>
-9.26079

> <CNNscore>
0.2921053469

> <CNNaffinity>
6.9484395981

> <CNN_VS>
2.0296764374

> <CNNaffinity_variance>
0.1001070887

$$$$
[H]N=C1c2c([H])nc([H])nc2C([H])([H])[C@](c2c([H])c(-c3c([H])nc([H])c(Cl)c3[H])c([H])c([H])c2F)(C([H])([H])[H])N1[H]


 28 31  0  0  0  0  0  0  0  0999 V2000
  -15.0885   -8.1082    3.8421 C   0  0  0  0  0  0  0  0  0  0  0  0
  -15.2492   -7.9413    5.3226 C   0  0  0  0  0  0  0  0  0  0  0  0
  -15.6044   -6.4984    5.5864 C   0  0  0  0  0  0  0  0  0  0  0  0
  -16.8732   -6.1373    4.9256 C   0  0  0  0  0  0  0  0  0  0  0  0
  -17.0735   -4.8695    4.5125 N   0  0  0  0  0  0  0  0  0  0  0  0
  -18.2149   -4.4819    3.9172 C   0  0  0  0  0  0  0  0  0  0  0  0
  -19.1671   -5.4139    3.7434 N   0  0  0  0  0  0  0  0  0  0  0  0
  -19.0105   -6.7026    4.1425 C   0  0  0  0  0  0  0  0  0  0  0  0
  -17.8468   -7.0885    4.7468 C   0  0  0  0  0  0  0  0  0  0  0  0
  -17.6346   -8.4860    5.1801 C   0  0  0  0  0  0  0  0  0  0  0  0
  -18.5184   -9.3802    5.0326 N   0  0  0  0  0  0  0  0  0  0  0  0
  -16.3730   -8.7506    5.7771 N   0  0  0  0  0  0  0  0  0  0  0  0
  -19.4526   -9.3254    4.6298 H   0  0  0  0  0  0  0  0  0  0  0  0
  -16.3047   -9.4975    6.5002 H   0  0  0  0  0  0  0  0  0  0  0  0
  -14.0088   -8.2780    6.0678 C   0  0  0  0  0  0  0  0  0  0  0  0
  -13.5450   -7.5170    7.1178 C   0  0  0  0  0  0  0  0  0  0  0  0
  -12.3771   -7.8499    7.7991 C   0  0  0  0  0  0  0  0  0  0  0  0
  -11.6874   -8.9753    7.3911 C   0  0  0  0  0  0  0  0  0  0  0  0
  -12.1268   -9.7707    6.3316 C   0  0  0  0  0  0  0  0  0  0  0  0
  -13.2910   -9.3924    5.6928 C   0  0  0  0  0  0  0  0  0  0  0  0
  -13.7586  -10.1412    4.6512 F   0  0  0  0  0  0  0  0  0  0  0  0
  -11.8653   -7.0606    8.9114 C   0  0  0  0  0  0  0  0  0  0  0  0
  -10.5093   -7.0045    9.1437 C   0  0  0  0  0  0  0  0  0  0  0  0
  -10.0011   -6.2802   10.1736 N   0  0  0  0  0  0  0  0  0  0  0  0
  -10.7856   -5.5812   11.0197 C   0  0  0  0  0  0  0  0  0  0  0  0
  -12.1421   -5.6146   10.8177 C   0  0  0  0  0  0  0  0  0  0  0  0
  -13.1718   -4.7170   11.9028 Cl  0  0  0  0  0  0  0  0  0  0  0  0
  -12.6866   -6.3533    9.7643 C   0  0  0  0  0  0  0  0  0  0  0  0
  2  1  1  0  0  0
  2 15  1  0  0  0
 15 16  2  0  0  0
 16 17  1  0  0  0
 17 22  1  0  0  0
 22 23  2  0  0  0
 23 24  1  0  0  0
 24 25  2  0  0  0
 25 26  1  0  0  0
 26 27  1  0  0  0
 26 28  2  0  0  0
 17 18  2  0  0  0
 18 19  1  0  0  0
 19 20  2  0  0  0
 20 21  1  0  0  0
  2  3  1  0  0  0
  3  4  1  0  0  0
  4  5  2  0  0  0
  5  6  1  0  0  0
  6  7  2  0  0  0
  7  8  1  0  0  0
  8  9  2  0  0  0
  9 10  1  0  0  0
 10 11  2  0  0  0
 10 12  1  0  0  0
 12  2  1  0  0  0
 20 15  1  0  0  0
  9  4  1  0  0  0
 28 22  1  0  0  0
 11 13  1  0  0  0
 12 14  1  0  0  0
M  END
> <minimizedAffinity>
-4.47651

> <CNNscore>
0.2836504579

> <CNNaffinity>
6.9640426636

> <CNN_VS>
1.9753538370

> <CNNaffinity_variance>
0.1638218164

$$$$
[H]N=C1c2c([H])nc([H])nc2C([H])([H])[C@](c2c([H])c(-c3c([H])nc([H])c(Cl)c3[H])c([H])c([H])c2F)(C([H])([H])[H])N1[H]


 28 31  0  0  0  0  0  0  0  0999 V2000
  -13.7988   -9.2669    6.8867 C   0  0  0  0  0  0  0  0  0  0  0  0
  -13.8332   -7.8068    7.2221 C   0  0  0  0  0  0  0  0  0  0  0  0
  -14.0270   -7.0441    5.9343 C   0  0  0  0  0  0  0  0  0  0  0  0
  -15.3001   -7.4146    5.2872 C   0  0  0  0  0  0  0  0  0  0  0  0
  -15.4068   -7.3605    3.9442 N   0  0  0  0  0  0  0  0  0  0  0  0
  -16.5461   -7.6738    3.3028 C   0  0  0  0  0  0  0  0  0  0  0  0
  -17.5941   -8.0492    4.0553 N   0  0  0  0  0  0  0  0  0  0  0  0
  -17.5339   -8.1190    5.4103 C   0  0  0  0  0  0  0  0  0  0  0  0
  -16.3716   -7.7990    6.0545 C   0  0  0  0  0  0  0  0  0  0  0  0
  -16.2642   -7.8784    7.5270 C   0  0  0  0  0  0  0  0  0  0  0  0
  -17.2387   -8.2237    8.2574 N   0  0  0  0  0  0  0  0  0  0  0  0
  -14.9935   -7.5349    8.0614 N   0  0  0  0  0  0  0  0  0  0  0  0
  -18.1903   -8.4880    8.0073 H   0  0  0  0  0  0  0  0  0  0  0  0
  -14.9447   -7.1119    9.0122 H   0  0  0  0  0  0  0  0  0  0  0  0
  -12.5798   -7.3462    7.8731 C   0  0  0  0  0  0  0  0  0  0  0  0
  -11.3319   -7.7265    7.4314 C   0  0  0  0  0  0  0  0  0  0  0  0
  -10.1705   -7.2854    8.0603 C   0  0  0  0  0  0  0  0  0  0  0  0
  -10.3025   -6.4471    9.1505 C   0  0  0  0  0  0  0  0  0  0  0  0
  -11.5500   -6.0405    9.6264 C   0  0  0  0  0  0  0  0  0  0  0  0
  -12.6670   -6.5092    8.9637 C   0  0  0  0  0  0  0  0  0  0  0  0
  -13.9081   -6.1369    9.3942 F   0  0  0  0  0  0  0  0  0  0  0  0
   -8.8397   -7.6744    7.6133 C   0  0  0  0  0  0  0  0  0  0  0  0
   -8.3885   -8.9551    7.8416 C   0  0  0  0  0  0  0  0  0  0  0  0
   -7.1524   -9.3479    7.4400 N   0  0  0  0  0  0  0  0  0  0  0  0
   -6.3039   -8.5163    6.8010 C   0  0  0  0  0  0  0  0  0  0  0  0
   -6.7208   -7.2324    6.5568 C   0  0  0  0  0  0  0  0  0  0  0  0
   -5.6360   -6.1431    5.7320 Cl  0  0  0  0  0  0  0  0  0  0  0  0
   -7.9886   -6.8069    6.9613 C   0  0  0  0  0  0  0  0  0  0  0  0
  2  1  1  0  0  0
  2 15  1  0  0  0
 15 16  2  0  0  0
 16 17  1  0  0  0
 17 22  1  0  0  0
 22 23  2  0  0  0
 23 24  1  0  0  0
 24 25  2  0  0  0
 25 26  1  0  0  0
 26 27  1  0  0  0
 26 28  2  0  0  0
 17 18  2  0  0  0
 18 19  1  0  0  0
 19 20  2  0  0  0
 20 21  1  0  0  0
  2  3  1  0  0  0
  3  4  1  0  0  0
  4  5  2  0  0  0
  5  6  1  0  0  0
  6  7  2  0  0  0
  7  8  1  0  0  0
  8  9  2  0  0  0
  9 10  1  0  0  0
 10 11  2  0  0  0
 10 12  1  0  0  0
 12  2  1  0  0  0
 20 15  1  0  0  0
  9  4  1  0  0  0
 28 22  1  0  0  0
 11 13  1  0  0  0
 12 14  1  0  0  0
M  END
> <minimizedAffinity>
-11.03477

> <CNNscore>
0.2740778327

> <CNNaffinity>
7.2561287880

> <CNN_VS>
1.9887440205

> <CNNaffinity_variance>
0.0184226297

$$$$
[H]N=C1c2c([H])nc([H])nc2C([H])([H])[C@](c2c([H])c(-c3c([H])nc([H])c(Cl)c3[H])c([H])c([H])c2F)(C([H])([H])[H])N1[H]


 28 31  0  0  0  0  0  0  0  0999 V2000
  -14.5070   -8.3752    4.6269 C   0  0  0  0  0  0  0  0  0  0  0  0
  -15.0180   -7.8853    5.9477 C   0  0  0  0  0  0  0  0  0  0  0  0
  -15.3044   -6.4099    5.8108 C   0  0  0  0  0  0  0  0  0  0  0  0
  -16.3324   -6.1645    4.7813 C   0  0  0  0  0  0  0  0  0  0  0  0
  -16.3150   -5.0118    4.0821 N   0  0  0  0  0  0  0  0  0  0  0  0
  -17.2342   -4.7298    3.1424 C   0  0  0  0  0  0  0  0  0  0  0  0
  -18.1881   -5.6492    2.9175 N   0  0  0  0  0  0  0  0  0  0  0  0
  -18.2460   -6.8241    3.5963 C   0  0  0  0  0  0  0  0  0  0  0  0
  -17.3073   -7.1029    4.5500 C   0  0  0  0  0  0  0  0  0  0  0  0
  -17.3293   -8.3782    5.2977 C   0  0  0  0  0  0  0  0  0  0  0  0
  -18.2206   -9.2569    5.1079 N   0  0  0  0  0  0  0  0  0  0  0  0
  -16.2841   -8.5432    6.2456 N   0  0  0  0  0  0  0  0  0  0  0  0
  -19.0162   -9.2638    4.4717 H   0  0  0  0  0  0  0  0  0  0  0  0
  -16.4623   -9.1164    7.0971 H   0  0  0  0  0  0  0  0  0  0  0  0
  -14.0365   -8.0879    7.0444 C   0  0  0  0  0  0  0  0  0  0  0  0
  -13.8115   -7.1437    8.0216 C   0  0  0  0  0  0  0  0  0  0  0  0
  -12.8830   -7.3539    9.0379 C   0  0  0  0  0  0  0  0  0  0  0  0
  -12.1855   -8.5464    9.0418 C   0  0  0  0  0  0  0  0  0  0  0  0
  -12.3868   -9.5263    8.0685 C   0  0  0  0  0  0  0  0  0  0  0  0
  -13.3197   -9.2635    7.0850 C   0  0  0  0  0  0  0  0  0  0  0  0
  -13.5498  -10.1939    6.1125 F   0  0  0  0  0  0  0  0  0  0  0  0
  -12.6260   -6.3707   10.0816 C   0  0  0  0  0  0  0  0  0  0  0  0
  -13.1938   -5.1192    9.9974 C   0  0  0  0  0  0  0  0  0  0  0  0
  -12.9715   -4.1797   10.9521 N   0  0  0  0  0  0  0  0  0  0  0  0
  -12.1906   -4.4147   12.0268 C   0  0  0  0  0  0  0  0  0  0  0  0
  -11.6086   -5.6515   12.1430 C   0  0  0  0  0  0  0  0  0  0  0  0
  -10.5951   -5.9726   13.5262 Cl  0  0  0  0  0  0  0  0  0  0  0  0
  -11.8237   -6.6331   11.1723 C   0  0  0  0  0  0  0  0  0  0  0  0
  2  1  1  0  0  0
  2 15  1  0  0  0
 15 16  2  0  0  0
 16 17  1  0  0  0
 17 22  1  0  0  0
 22 23  2  0  0  0
 23 24  1  0  0  0
 24 25  2  0  0  0
 25 26  1  0  0  0
 26 27  1  0  0  0
 26 28  2  0  0  0
 17 18  2  0  0  0
 18 19  1  0  0  0
 19 20  2  0  0  0
 20 21  1  0  0  0
  2  3  1  0  0  0
  3  4  1  0  0  0
  4  5  2  0  0  0
  5  6  1  0  0  0
  6  7  2  0  0  0
  7  8  1  0  0  0
  8  9  2  0  0  0
  9 10  1  0  0  0
 10 11  2  0  0  0
 10 12  1  0  0  0
 12  2  1  0  0  0
 20 15  1  0  0  0
  9  4  1  0  0  0
 28 22  1  0  0  0
 11 13  1  0  0  0
 12 14  1  0  0  0
M  END
> <minimizedAffinity>
-4.28899

> <CNNscore>
0.2370373756

> <CNNaffinity>
6.7775354385

> <CNN_VS>
1.6065292358

> <CNNaffinity_variance>
0.3194424510

$$$$
[H]/C(C(=O)/C([H])=C(\[H])c1c([H])c([H])c(F)c([H])c1[H])=C(/[H])c1c([H])c([H])c(F)c([H])c1[H]


 20 21  0  0  0  0  0  0  0  0999 V2000
  -13.5113  -10.6443    7.7477 O   0  0  0  0  0  0  0  0  0  0  0  0
  -13.1479   -9.5325    7.1247 C   0  0  0  0  0  0  0  0  0  0  0  0
  -14.2404   -8.8480    6.5509 C   0  0  0  0  0  0  0  0  0  0  0  0
  -14.5429   -8.5166    5.3335 C   0  0  0  0  0  0  0  0  0  0  0  0
  -15.7713   -7.7836    4.9622 C   0  0  0  0  0  0  0  0  0  0  0  0
  -15.8357   -6.4224    5.2890 C   0  0  0  0  0  0  0  0  0  0  0  0
  -16.9263   -5.6467    4.9919 C   0  0  0  0  0  0  0  0  0  0  0  0
  -17.9894   -6.2155    4.3556 C   0  0  0  0  0  0  0  0  0  0  0  0
  -19.0805   -5.4484    4.0561 F   0  0  0  0  0  0  0  0  0  0  0  0
  -17.9365   -7.5554    4.0290 C   0  0  0  0  0  0  0  0  0  0  0  0
  -16.8252   -8.3369    4.3341 C   0  0  0  0  0  0  0  0  0  0  0  0
  -11.7655   -9.2923    7.1786 C   0  0  0  0  0  0  0  0  0  0  0  0
  -11.1093   -8.2850    7.6627 C   0  0  0  0  0  0  0  0  0  0  0  0
   -9.6399   -8.2357    7.6142 C   0  0  0  0  0  0  0  0  0  0  0  0
   -8.8886   -7.1123    7.6378 C   0  0  0  0  0  0  0  0  0  0  0  0
   -7.4883   -7.1191    7.5892 C   0  0  0  0  0  0  0  0  0  0  0  0
   -6.8262   -8.3165    7.5136 C   0  0  0  0  0  0  0  0  0  0  0  0
   -5.4759   -8.3998    7.4632 F   0  0  0  0  0  0  0  0  0  0  0  0
   -7.5852   -9.4816    7.4883 C   0  0  0  0  0  0  0  0  0  0  0  0
   -8.9485   -9.4568    7.5365 C   0  0  0  0  0  0  0  0  0  0  0  0
  1  2  2  0  0  0
  2  3  1  0  0  0
  3  4  2  0  0  0
  4  5  1  0  0  0
  5  6  2  0  0  0
  6  7  1  0  0  0
  7  8  2  0  0  0
  8  9  1  0  0  0
  8 10  1  0  0  0
 10 11  2  0  0  0
  2 12  1  0  0  0
 12 13  2  0  0  0
 13 14  1  0  0  0
 14 15  2  0  0  0
 15 16  1  0  0  0
 16 17  2  0  0  0
 17 18  1  0  0  0
 17 19  1  0  0  0
 19 20  2  0  0  0
 11  5  1  0  0  0
 20 14  1  0  0  0
M  END
> <minimizedAffinity>
-9.10329

> <CNNscore>
0.7706151605

> <CNNaffinity>
6.1458387375

> <CNN_VS>
4.7360763550

> <CNNaffinity_variance>
0.1446686536

$$$$
[H]/C(C(=O)/C([H])=C(\[H])c1c([H])c([H])c(F)c([H])c1[H])=C(/[H])c1c([H])c([H])c(F)c([H])c1[H]


 20 21  0  0  0  0  0  0  0  0999 V2000
  -12.7974   -7.8720    9.5121 O   0  0  0  0  0  0  0  0  0  0  0  0
  -12.5460   -7.6326    8.2331 C   0  0  0  0  0  0  0  0  0  0  0  0
  -13.6881   -7.2020    7.5251 C   0  0  0  0  0  0  0  0  0  0  0  0
  -13.8983   -6.8810    6.2856 C   0  0  0  0  0  0  0  0  0  0  0  0
  -15.2099   -6.4489    5.7595 C   0  0  0  0  0  0  0  0  0  0  0  0
  -15.2312   -5.3308    4.9149 C   0  0  0  0  0  0  0  0  0  0  0  0
  -16.3913   -4.8437    4.3705 C   0  0  0  0  0  0  0  0  0  0  0  0
  -17.5696   -5.4661    4.6582 C   0  0  0  0  0  0  0  0  0  0  0  0
  -18.7306   -4.9861    4.1191 F   0  0  0  0  0  0  0  0  0  0  0  0
  -17.5602   -6.5682    5.4889 C   0  0  0  0  0  0  0  0  0  0  0  0
  -16.3778   -7.0571    6.0381 C   0  0  0  0  0  0  0  0  0  0  0  0
  -11.2068   -7.8616    7.8782 C   0  0  0  0  0  0  0  0  0  0  0  0
  -10.1654   -7.1009    8.0058 C   0  0  0  0  0  0  0  0  0  0  0  0
   -8.8356   -7.5448    7.5602 C   0  0  0  0  0  0  0  0  0  0  0  0
   -8.2649   -8.7353    7.8504 C   0  0  0  0  0  0  0  0  0  0  0  0
   -6.9923   -9.1113    7.4005 C   0  0  0  0  0  0  0  0  0  0  0  0
   -6.2719   -8.2413    6.6245 C   0  0  0  0  0  0  0  0  0  0  0  0
   -5.0370   -8.5365    6.1544 F   0  0  0  0  0  0  0  0  0  0  0  0
   -6.8455   -7.0122    6.3171 C   0  0  0  0  0  0  0  0  0  0  0  0
   -8.0862   -6.6621    6.7638 C   0  0  0  0  0  0  0  0  0  0  0  0
  1  2  2  0  0  0
  2  3  1  0  0  0
  3  4  2  0  0  0
  4  5  1  0  0  0
  5  6  2  0  0  0
  6  7  1  0  0  0
  7  8  2  0  0  0
  8  9  1  0  0  0
  8 10  1  0  0  0
 10 11  2  0  0  0
  2 12  1  0  0  0
 12 13  2  0  0  0
 13 14  1  0  0  0
 14 15  2  0  0  0
 15 16  1  0  0  0
 16 17  2  0  0  0
 17 18  1  0  0  0
 17 19  1  0  0  0
 19 20  2  0  0  0
 11  5  1  0  0  0
 20 14  1  0  0  0
M  END
> <minimizedAffinity>
-9.19661

> <CNNscore>
0.6197012663

> <CNNaffinity>
5.8569631577

> <CNN_VS>
3.6295673847

> <CNNaffinity_variance>
0.1816436052

$$$$
[H]/C(C(=O)/C([H])=C(\[H])c1c([H])c([H])c(F)c([H])c1[H])=C(/[H])c1c([H])c([H])c(F)c([H])c1[H]


 20 21  0  0  0  0  0  0  0  0999 V2000
  -12.9127   -8.7211    9.2111 O   0  0  0  0  0  0  0  0  0  0  0  0
  -12.6236   -8.1114    8.0705 C   0  0  0  0  0  0  0  0  0  0  0  0
  -11.2424   -8.1236    7.7814 C   0  0  0  0  0  0  0  0  0  0  0  0
  -10.2887   -7.2617    7.9572 C   0  0  0  0  0  0  0  0  0  0  0  0
   -8.8836   -7.4993    7.5660 C   0  0  0  0  0  0  0  0  0  0  0  0
   -8.3732   -8.7924    7.7425 C   0  0  0  0  0  0  0  0  0  0  0  0
   -7.0843   -9.1244    7.4137 C   0  0  0  0  0  0  0  0  0  0  0  0
   -6.2655   -8.1652    6.8958 C   0  0  0  0  0  0  0  0  0  0  0  0
   -4.9790   -8.4887    6.5655 F   0  0  0  0  0  0  0  0  0  0  0  0
   -6.7579   -6.8883    6.7177 C   0  0  0  0  0  0  0  0  0  0  0  0
   -8.0683   -6.5587    7.0541 C   0  0  0  0  0  0  0  0  0  0  0  0
  -13.7531   -7.5955    7.4148 C   0  0  0  0  0  0  0  0  0  0  0  0
  -13.8510   -6.9663    6.2860 C   0  0  0  0  0  0  0  0  0  0  0  0
  -15.1526   -6.5068    5.7777 C   0  0  0  0  0  0  0  0  0  0  0  0
  -16.3428   -7.1051    6.0063 C   0  0  0  0  0  0  0  0  0  0  0  0
  -17.5577   -6.6264    5.4979 C   0  0  0  0  0  0  0  0  0  0  0  0
  -17.5613   -5.4938    4.7264 C   0  0  0  0  0  0  0  0  0  0  0  0
  -18.6961   -4.9739    4.2020 F   0  0  0  0  0  0  0  0  0  0  0  0
  -16.3444   -4.8664    4.4820 C   0  0  0  0  0  0  0  0  0  0  0  0
  -15.1704   -5.3464    4.9850 C   0  0  0  0  0  0  0  0  0  0  0  0
  1  2  2  0  0  0
  2  3  1  0  0  0
  3  4  2  0  0  0
  4  5  1  0  0  0
  5  6  2  0  0  0
  6  7  1  0  0  0
  7  8  2  0  0  0
  8  9  1  0  0  0
  8 10  1  0  0  0
 10 11  2  0  0  0
  2 12  1  0  0  0
 12 13  2  0  0  0
 13 14  1  0  0  0
 14 15  2  0  0  0
 15 16  1  0  0  0
 16 17  2  0  0  0
 17 18  1  0  0  0
 17 19  1  0  0  0
 19 20  2  0  0  0
 11  5  1  0  0  0
 20 14  1  0  0  0
M  END
> <minimizedAffinity>
-9.05556

> <CNNscore>
0.6146500707

> <CNNaffinity>
5.8563919067

> <CNN_VS>
3.5996317863

> <CNNaffinity_variance>
0.1743243039

$$$$
[H]/C(C(=O)/C([H])=C(\[H])c1c([H])c([H])c(F)c([H])c1[H])=C(/[H])c1c([H])c([H])c(F)c([H])c1[H]


 20 21  0  0  0  0  0  0  0  0999 V2000
  -13.0030   -8.2061    9.2931 O   0  0  0  0  0  0  0  0  0  0  0  0
  -12.6885   -7.7728    8.0807 C   0  0  0  0  0  0  0  0  0  0  0  0
  -11.3222   -7.9511    7.7764 C   0  0  0  0  0  0  0  0  0  0  0  0
  -10.2738   -7.1994    7.9160 C   0  0  0  0  0  0  0  0  0  0  0  0
   -8.9109   -7.6070    7.5158 C   0  0  0  0  0  0  0  0  0  0  0  0
   -8.1247   -6.6619    6.8431 C   0  0  0  0  0  0  0  0  0  0  0  0
   -6.8471   -6.9326    6.4263 C   0  0  0  0  0  0  0  0  0  0  0  0
   -6.3175   -8.1644    6.6728 C   0  0  0  0  0  0  0  0  0  0  0  0
   -5.0441   -8.4417    6.2602 F   0  0  0  0  0  0  0  0  0  0  0  0
   -7.0830   -9.1028    7.3348 C   0  0  0  0  0  0  0  0  0  0  0  0
   -8.3801   -8.8205    7.7550 C   0  0  0  0  0  0  0  0  0  0  0  0
  -13.7823   -7.2383    7.3810 C   0  0  0  0  0  0  0  0  0  0  0  0
  -13.8988   -6.9135    6.1318 C   0  0  0  0  0  0  0  0  0  0  0  0
  -15.1543   -6.3618    5.5995 C   0  0  0  0  0  0  0  0  0  0  0  0
  -15.2605   -5.2818    4.7938 C   0  0  0  0  0  0  0  0  0  0  0  0
  -16.4833   -4.7950    4.3127 C   0  0  0  0  0  0  0  0  0  0  0  0
  -17.6438   -5.4327    4.6655 C   0  0  0  0  0  0  0  0  0  0  0  0
  -18.8603   -5.0191    4.2388 F   0  0  0  0  0  0  0  0  0  0  0  0
  -17.5511   -6.5458    5.4941 C   0  0  0  0  0  0  0  0  0  0  0  0
  -16.3519   -7.0064    5.9537 C   0  0  0  0  0  0  0  0  0  0  0  0
  1  2  2  0  0  0
  2  3  1  0  0  0
  3  4  2  0  0  0
  4  5  1  0  0  0
  5  6  2  0  0  0
  6  7  1  0  0  0
  7  8  2  0  0  0
  8  9  1  0  0  0
  8 10  1  0  0  0
 10 11  2  0  0  0
  2 12  1  0  0  0
 12 13  2  0  0  0
 13 14  1  0  0  0
 14 15  2  0  0  0
 15 16  1  0  0  0
 16 17  2  0  0  0
 17 18  1  0  0  0
 17 19  1  0  0  0
 19 20  2  0  0  0
 11  5  1  0  0  0
 20 14  1  0  0  0
M  END
> <minimizedAffinity>
-9.24328

> <CNNscore>
0.6131973267

> <CNNaffinity>
5.8603944778

> <CNN_VS>
3.5935783386

> <CNNaffinity_variance>
0.1811175942

$$$$
[H]/C(C(=O)/C([H])=C(\[H])c1c([H])c([H])c(F)c([H])c1[H])=C(/[H])c1c([H])c([H])c(F)c([H])c1[H]


 20 21  0  0  0  0  0  0  0  0999 V2000
   -6.3030   -8.6069    5.5545 O   0  0  0  0  0  0  0  0  0  0  0  0
   -7.4826   -9.1682    5.3313 C   0  0  0  0  0  0  0  0  0  0  0  0
   -7.4505  -10.0997    4.2718 C   0  0  0  0  0  0  0  0  0  0  0  0
   -8.3720  -10.6539    3.5457 C   0  0  0  0  0  0  0  0  0  0  0  0
   -8.0952  -11.6247    2.4665 C   0  0  0  0  0  0  0  0  0  0  0  0
   -8.2596  -12.9846    2.7622 C   0  0  0  0  0  0  0  0  0  0  0  0
   -8.0307  -13.9701    1.8372 C   0  0  0  0  0  0  0  0  0  0  0  0
   -7.6285  -13.6197    0.5826 C   0  0  0  0  0  0  0  0  0  0  0  0
   -7.3984  -14.5969   -0.3453 F   0  0  0  0  0  0  0  0  0  0  0  0
   -7.4635  -12.2832    0.2804 C   0  0  0  0  0  0  0  0  0  0  0  0
   -7.6979  -11.2878    1.2255 C   0  0  0  0  0  0  0  0  0  0  0  0
   -8.4887   -8.7090    6.1966 C   0  0  0  0  0  0  0  0  0  0  0  0
   -8.4256   -7.8718    7.1838 C   0  0  0  0  0  0  0  0  0  0  0  0
   -9.6196   -7.5265    7.9705 C   0  0  0  0  0  0  0  0  0  0  0  0
  -10.8264   -8.1278    7.8748 C   0  0  0  0  0  0  0  0  0  0  0  0
  -11.9353   -7.7607    8.6488 C   0  0  0  0  0  0  0  0  0  0  0  0
  -11.8111   -6.7413    9.5562 C   0  0  0  0  0  0  0  0  0  0  0  0
  -12.8387   -6.3329   10.3374 F   0  0  0  0  0  0  0  0  0  0  0  0
  -10.5755   -6.1125    9.6666 C   0  0  0  0  0  0  0  0  0  0  0  0
   -9.5059   -6.4828    8.9047 C   0  0  0  0  0  0  0  0  0  0  0  0
  1  2  2  0  0  0
  2  3  1  0  0  0
  3  4  2  0  0  0
  4  5  1  0  0  0
  5  6  2  0  0  0
  6  7  1  0  0  0
  7  8  2  0  0  0
  8  9  1  0  0  0
  8 10  1  0  0  0
 10 11  2  0  0  0
  2 12  1  0  0  0
 12 13  2  0  0  0
 13 14  1  0  0  0
 14 15  2  0  0  0
 15 16  1  0  0  0
 16 17  2  0  0  0
 17 18  1  0  0  0
 17 19  1  0  0  0
 19 20  2  0  0  0
 11  5  1  0  0  0
 20 14  1  0  0  0
M  END
> <minimizedAffinity>
3.12376

> <CNNscore>
0.6089394689

> <CNNaffinity>
5.1610627174

> <CNN_VS>
3.1427748203

> <CNNaffinity_variance>
0.6188852191

$$$$
[H]/C(C(=O)/C([H])=C(\[H])c1c([H])c([H])c(F)c([H])c1[H])=C(/[H])c1c([H])c([H])c(F)c([H])c1[H]


 20 21  0  0  0  0  0  0  0  0999 V2000
  -12.8833   -6.6738    9.9425 O   0  0  0  0  0  0  0  0  0  0  0  0
  -12.6352   -6.8566    8.6536 C   0  0  0  0  0  0  0  0  0  0  0  0
  -11.2754   -7.1309    8.3945 C   0  0  0  0  0  0  0  0  0  0  0  0
  -10.6551   -8.1466    7.8777 C   0  0  0  0  0  0  0  0  0  0  0  0
   -9.1893   -8.2118    7.7015 C   0  0  0  0  0  0  0  0  0  0  0  0
   -8.4943   -6.9983    7.6115 C   0  0  0  0  0  0  0  0  0  0  0  0
   -7.1344   -6.9413    7.4475 C   0  0  0  0  0  0  0  0  0  0  0  0
   -6.4280   -8.1046    7.3687 C   0  0  0  0  0  0  0  0  0  0  0  0
   -5.0717   -8.0559    7.2051 F   0  0  0  0  0  0  0  0  0  0  0  0
   -7.1025   -9.3056    7.4563 C   0  0  0  0  0  0  0  0  0  0  0  0
   -8.4840   -9.3554    7.6227 C   0  0  0  0  0  0  0  0  0  0  0  0
  -13.7773   -6.7360    7.8457 C   0  0  0  0  0  0  0  0  0  0  0  0
  -13.9288   -6.9395    6.5748 C   0  0  0  0  0  0  0  0  0  0  0  0
  -15.2329   -6.7511    5.9208 C   0  0  0  0  0  0  0  0  0  0  0  0
  -16.2476   -7.6440    5.9161 C   0  0  0  0  0  0  0  0  0  0  0  0
  -17.4734   -7.4160    5.2767 C   0  0  0  0  0  0  0  0  0  0  0  0
  -17.6746   -6.2324    4.6160 C   0  0  0  0  0  0  0  0  0  0  0  0
  -18.8323   -5.9434    3.9763 F   0  0  0  0  0  0  0  0  0  0  0  0
  -16.6399   -5.3031    4.6117 C   0  0  0  0  0  0  0  0  0  0  0  0
  -15.4522   -5.5415    5.2396 C   0  0  0  0  0  0  0  0  0  0  0  0
  1  2  2  0  0  0
  2  3  1  0  0  0
  3  4  2  0  0  0
  4  5  1  0  0  0
  5  6  2  0  0  0
  6  7  1  0  0  0
  7  8  2  0  0  0
  8  9  1  0  0  0
  8 10  1  0  0  0
 10 11  2  0  0  0
  2 12  1  0  0  0
 12 13  2  0  0  0
 13 14  1  0  0  0
 14 15  2  0  0  0
 15 16  1  0  0  0
 16 17  2  0  0  0
 17 18  1  0  0  0
 17 19  1  0  0  0
 19 20  2  0  0  0
 11  5  1  0  0  0
 20 14  1  0  0  0
M  END
> <minimizedAffinity>
-8.87445

> <CNNscore>
0.5366076231

> <CNNaffinity>
5.7940468788

> <CNN_VS>
3.1091296673

> <CNNaffinity_variance>
0.1973722279

$$$$
[H]/C(C(=O)/C([H])=C(\[H])c1c([H])c([H])c(F)c([H])c1[H])=C(/[H])c1c([H])c([H])c(F)c([H])c1[H]


 20 21  0  0  0  0  0  0  0  0999 V2000
  -12.0259   -7.5082    9.6472 O   0  0  0  0  0  0  0  0  0  0  0  0
  -11.7102   -7.6029    8.3636 C   0  0  0  0  0  0  0  0  0  0  0  0
  -12.8447   -7.6844    7.5285 C   0  0  0  0  0  0  0  0  0  0  0  0
  -13.2901   -8.5950    6.7186 C   0  0  0  0  0  0  0  0  0  0  0  0
  -14.5318   -8.4569    5.9293 C   0  0  0  0  0  0  0  0  0  0  0  0
  -14.4840   -8.8277    4.5787 C   0  0  0  0  0  0  0  0  0  0  0  0
  -15.5758   -8.7408    3.7543 C   0  0  0  0  0  0  0  0  0  0  0  0
  -16.7533   -8.2776    4.2620 C   0  0  0  0  0  0  0  0  0  0  0  0
  -17.8464   -8.1881    3.4460 F   0  0  0  0  0  0  0  0  0  0  0  0
  -16.8116   -7.9097    5.5909 C   0  0  0  0  0  0  0  0  0  0  0  0
  -15.6982   -8.0008    6.4221 C   0  0  0  0  0  0  0  0  0  0  0  0
  -10.3254   -7.6004    8.1307 C   0  0  0  0  0  0  0  0  0  0  0  0
   -9.5727   -8.4817    7.5508 C   0  0  0  0  0  0  0  0  0  0  0  0
   -8.1229   -8.2755    7.4116 C   0  0  0  0  0  0  0  0  0  0  0  0
   -7.3633   -8.6985    6.3766 C   0  0  0  0  0  0  0  0  0  0  0  0
   -5.9825   -8.4761    6.2910 C   0  0  0  0  0  0  0  0  0  0  0  0
   -5.3496   -7.7963    7.2986 C   0  0  0  0  0  0  0  0  0  0  0  0
   -4.0194   -7.5449    7.2834 F   0  0  0  0  0  0  0  0  0  0  0  0
   -6.1175   -7.3544    8.3706 C   0  0  0  0  0  0  0  0  0  0  0  0
   -7.4615   -7.5797    8.4380 C   0  0  0  0  0  0  0  0  0  0  0  0
  1  2  2  0  0  0
  2  3  1  0  0  0
  3  4  2  0  0  0
  4  5  1  0  0  0
  5  6  2  0  0  0
  6  7  1  0  0  0
  7  8  2  0  0  0
  8  9  1  0  0  0
  8 10  1  0  0  0
 10 11  2  0  0  0
  2 12  1  0  0  0
 12 13  2  0  0  0
 13 14  1  0  0  0
 14 15  2  0  0  0
 15 16  1  0  0  0
 16 17  2  0  0  0
 17 18  1  0  0  0
 17 19  1  0  0  0
 19 20  2  0  0  0
 11  5  1  0  0  0
 20 14  1  0  0  0
M  END
> <minimizedAffinity>
-8.57430

> <CNNscore>
0.4137630463

> <CNNaffinity>
5.7185850143

> <CNN_VS>
2.3661391735

> <CNNaffinity_variance>
0.1782216281

$$$$
[H]/C(C(=O)/C([H])=C(\[H])c1c([H])c([H])c(F)c([H])c1[H])=C(/[H])c1c([H])c([H])c(F)c([H])c1[H]


 20 21  0  0  0  0  0  0  0  0999 V2000
  -11.7368   -6.5981    9.6132 O   0  0  0  0  0  0  0  0  0  0  0  0
  -12.5661   -7.5464    9.2017 C   0  0  0  0  0  0  0  0  0  0  0  0
  -12.5607   -8.6779   10.0449 C   0  0  0  0  0  0  0  0  0  0  0  0
  -13.1005   -8.9318   11.1971 C   0  0  0  0  0  0  0  0  0  0  0  0
  -12.9544  -10.2193   11.9076 C   0  0  0  0  0  0  0  0  0  0  0  0
  -13.0070  -10.1947   13.3077 C   0  0  0  0  0  0  0  0  0  0  0  0
  -12.8829  -11.3292   14.0672 C   0  0  0  0  0  0  0  0  0  0  0  0
  -12.7017  -12.5273   13.4425 C   0  0  0  0  0  0  0  0  0  0  0  0
  -12.5772  -13.6630   14.1932 F   0  0  0  0  0  0  0  0  0  0  0  0
  -12.6484  -12.5631   12.0638 C   0  0  0  0  0  0  0  0  0  0  0  0
  -12.7752  -11.4063   11.2991 C   0  0  0  0  0  0  0  0  0  0  0  0
  -13.2563   -7.2088    8.0264 C   0  0  0  0  0  0  0  0  0  0  0  0
  -14.0946   -6.2479    7.7948 C   0  0  0  0  0  0  0  0  0  0  0  0
  -14.7104   -6.0737    6.4704 C   0  0  0  0  0  0  0  0  0  0  0  0
  -14.5016   -5.0309    5.6361 C   0  0  0  0  0  0  0  0  0  0  0  0
  -15.1142   -4.9115    4.3815 C   0  0  0  0  0  0  0  0  0  0  0  0
  -15.9732   -5.8922    3.9592 C   0  0  0  0  0  0  0  0  0  0  0  0
  -16.6005   -5.8437    2.7604 F   0  0  0  0  0  0  0  0  0  0  0  0
  -16.1986   -6.9718    4.8064 C   0  0  0  0  0  0  0  0  0  0  0  0
  -15.5936   -7.0722    6.0252 C   0  0  0  0  0  0  0  0  0  0  0  0
  1  2  2  0  0  0
  2  3  1  0  0  0
  3  4  2  0  0  0
  4  5  1  0  0  0
  5  6  2  0  0  0
  6  7  1  0  0  0
  7  8  2  0  0  0
  8  9  1  0  0  0
  8 10  1  0  0  0
 10 11  2  0  0  0
  2 12  1  0  0  0
 12 13  2  0  0  0
 13 14  1  0  0  0
 14 15  2  0  0  0
 15 16  1  0  0  0
 16 17  2  0  0  0
 17 18  1  0  0  0
 17 19  1  0  0  0
 19 20  2  0  0  0
 11  5  1  0  0  0
 20 14  1  0  0  0
M  END
> <minimizedAffinity>
17.89904

> <CNNscore>
0.4093904793

> <CNNaffinity>
5.0455651283

> <CNN_VS>
2.0656063557

> <CNNaffinity_variance>
0.3596363962

$$$$
[H]/C(C(=O)/C([H])=C(\[H])c1c([H])c([H])c(F)c([H])c1[H])=C(/[H])c1c([H])c([H])c(F)c([H])c1[H]


 20 21  0  0  0  0  0  0  0  0999 V2000
  -14.3374   -5.6709    6.5717 O   0  0  0  0  0  0  0  0  0  0  0  0
  -14.2576   -6.9892    6.6817 C   0  0  0  0  0  0  0  0  0  0  0  0
  -15.5189   -7.6184    6.6146 C   0  0  0  0  0  0  0  0  0  0  0  0
  -16.6240   -7.3333    5.9974 C   0  0  0  0  0  0  0  0  0  0  0  0
  -17.8467   -8.1595    6.0768 C   0  0  0  0  0  0  0  0  0  0  0  0
  -18.4271   -8.3355    7.3402 C   0  0  0  0  0  0  0  0  0  0  0  0
  -19.5614   -9.0816    7.5296 C   0  0  0  0  0  0  0  0  0  0  0  0
  -20.1501   -9.6760    6.4531 C   0  0  0  0  0  0  0  0  0  0  0  0
  -21.2815  -10.4216    6.6341 F   0  0  0  0  0  0  0  0  0  0  0  0
  -19.5869   -9.5092    5.2042 C   0  0  0  0  0  0  0  0  0  0  0  0
  -18.4344   -8.7498    5.0197 C   0  0  0  0  0  0  0  0  0  0  0  0
  -12.9422   -7.4547    6.8390 C   0  0  0  0  0  0  0  0  0  0  0  0
  -12.2246   -7.5896    7.9098 C   0  0  0  0  0  0  0  0  0  0  0  0
  -10.8480   -8.1042    7.8473 C   0  0  0  0  0  0  0  0  0  0  0  0
   -9.7386   -7.4334    8.2301 C   0  0  0  0  0  0  0  0  0  0  0  0
   -8.4465   -7.9695    8.1502 C   0  0  0  0  0  0  0  0  0  0  0  0
   -8.2766   -9.2384    7.6615 C   0  0  0  0  0  0  0  0  0  0  0  0
   -7.0588   -9.8207    7.5554 F   0  0  0  0  0  0  0  0  0  0  0  0
   -9.4084   -9.9417    7.2634 C   0  0  0  0  0  0  0  0  0  0  0  0
  -10.6596   -9.4043    7.3479 C   0  0  0  0  0  0  0  0  0  0  0  0
  1  2  2  0  0  0
  2  3  1  0  0  0
  3  4  2  0  0  0
  4  5  1  0  0  0
  5  6  2  0  0  0
  6  7  1  0  0  0
  7  8  2  0  0  0
  8  9  1  0  0  0
  8 10  1  0  0  0
 10 11  2  0  0  0
  2 12  1  0  0  0
 12 13  2  0  0  0
 13 14  1  0  0  0
 14 15  2  0  0  0
 15 16  1  0  0  0
 16 17  2  0  0  0
 17 18  1  0  0  0
 17 19  1  0  0  0
 19 20  2  0  0  0
 11  5  1  0  0  0
 20 14  1  0  0  0
M  END
> <minimizedAffinity>
-3.79731

> <CNNscore>
0.3643191457

> <CNNaffinity>
5.4978308678

> <CNN_VS>
2.0029649734

> <CNNaffinity_variance>
0.5951939821

$$$$
[H]Oc1c([H])c([H])c(N([H])c2nc([H])c(F)c(N([H])c3c([H])c([H])c(C(=O)N([H])[H])c([H])c3[H])n2)c([H])c1[H]


 30 32  0  0  0  0  0  0  0  0999 V2000
  -12.0457   -7.0364    8.8246 C   0  0  0  0  0  0  0  0  0  0  0  0
  -12.6439   -7.6909    7.8431 N   0  0  0  0  0  0  0  0  0  0  0  0
  -13.8873   -8.2340    7.9883 C   0  0  0  0  0  0  0  0  0  0  0  0
  -14.4929   -8.0811    9.1755 N   0  0  0  0  0  0  0  0  0  0  0  0
  -13.9529   -7.4372   10.2033 C   0  0  0  0  0  0  0  0  0  0  0  0
  -12.6985   -6.8869   10.0631 C   0  0  0  0  0  0  0  0  0  0  0  0
  -12.1005   -6.2231   11.0681 F   0  0  0  0  0  0  0  0  0  0  0  0
  -10.7461   -6.4780    8.7193 N   0  0  0  0  0  0  0  0  0  0  0  0
  -10.5866   -5.5397    9.1940 H   0  0  0  0  0  0  0  0  0  0  0  0
   -7.3577   -7.9508    6.6912 C   0  0  0  0  0  0  0  0  0  0  0  0
   -8.0536   -8.7297    7.5554 C   0  0  0  0  0  0  0  0  0  0  0  0
   -9.1877   -8.2790    8.2402 C   0  0  0  0  0  0  0  0  0  0  0  0
   -9.6306   -7.0193    8.0526 C   0  0  0  0  0  0  0  0  0  0  0  0
   -8.9239   -6.1884    7.1576 C   0  0  0  0  0  0  0  0  0  0  0  0
   -7.8193   -6.6513    6.5004 C   0  0  0  0  0  0  0  0  0  0  0  0
   -4.9012   -8.2742    6.5497 N   0  0  0  0  0  0  0  0  0  0  0  0
   -6.1753   -8.4151    5.9751 C   0  0  0  0  0  0  0  0  0  0  0  0
   -6.3008   -8.9376    4.8504 O   0  0  0  0  0  0  0  0  0  0  0  0
   -4.3134   -7.4564    6.3003 H   0  0  0  0  0  0  0  0  0  0  0  0
   -4.5247   -8.9667    7.2213 H   0  0  0  0  0  0  0  0  0  0  0  0
  -14.4369   -8.9378    6.9027 N   0  0  0  0  0  0  0  0  0  0  0  0
  -14.1498   -9.9540    6.7834 H   0  0  0  0  0  0  0  0  0  0  0  0
  -15.3297   -8.4033    5.9715 C   0  0  0  0  0  0  0  0  0  0  0  0
  -16.4480   -7.6909    6.2899 C   0  0  0  0  0  0  0  0  0  0  0  0
  -17.3385   -7.1934    5.3134 C   0  0  0  0  0  0  0  0  0  0  0  0
  -17.0787   -7.4288    3.9852 C   0  0  0  0  0  0  0  0  0  0  0  0
  -17.9517   -6.9418    3.0146 O   0  0  0  0  0  0  0  0  0  0  0  0
  -15.9553   -8.1458    3.6177 C   0  0  0  0  0  0  0  0  0  0  0  0
  -15.1141   -8.6137    4.5902 C   0  0  0  0  0  0  0  0  0  0  0  0
  -18.7125   -7.5527    2.7419 H   0  0  0  0  0  0  0  0  0  0  0  0
 16 17  1  0  0  0
 17 18  2  0  0  0
 17 10  1  0  0  0
 10 11  2  0  0  0
 11 12  1  0  0  0
 12 13  2  0  0  0
 13  8  1  0  0  0
  8  1  1  0  0  0
  1  2  2  0  0  0
  2  3  1  0  0  0
  3 21  1  0  0  0
 21 23  1  0  0  0
 23 24  2  0  0  0
 24 25  1  0  0  0
 25 26  2  0  0  0
 26 27  1  0  0  0
 26 28  1  0  0  0
 28 29  2  0  0  0
  3  4  2  0  0  0
  4  5  1  0  0  0
  5  6  2  0  0  0
  6  7  1  0  0  0
 13 14  1  0  0  0
 14 15  2  0  0  0
 15 10  1  0  0  0
  6  1  1  0  0  0
 29 23  1  0  0  0
 16 19  1  0  0  0
 16 20  1  0  0  0
  8  9  1  0  0  0
 21 22  1  0  0  0
 27 30  1  0  0  0
M  END
> <minimizedAffinity>
-8.35344

> <CNNscore>
0.6384386420

> <CNNaffinity>
7.0843114853

> <CNN_VS>
4.5228981972

> <CNNaffinity_variance>
0.3345627189

$$$$
[H]Oc1c([H])c([H])c(N([H])c2nc([H])c(F)c(N([H])c3c([H])c([H])c(C(=O)N([H])[H])c([H])c3[H])n2)c([H])c1[H]


 30 32  0  0  0  0  0  0  0  0999 V2000
  -12.4410   -9.5282    7.3422 C   0  0  0  0  0  0  0  0  0  0  0  0
  -13.0971   -9.3014    6.2162 N   0  0  0  0  0  0  0  0  0  0  0  0
  -14.3855   -8.8520    6.2078 C   0  0  0  0  0  0  0  0  0  0  0  0
  -14.9747   -8.6444    7.3949 N   0  0  0  0  0  0  0  0  0  0  0  0
  -14.3775   -8.8505    8.5626 C   0  0  0  0  0  0  0  0  0  0  0  0
  -13.0775   -9.3039    8.5779 C   0  0  0  0  0  0  0  0  0  0  0  0
  -12.4204   -9.5304    9.7291 F   0  0  0  0  0  0  0  0  0  0  0  0
  -11.1102  -10.0164    7.3917 N   0  0  0  0  0  0  0  0  0  0  0  0
  -10.9865  -11.0726    7.4116 H   0  0  0  0  0  0  0  0  0  0  0  0
   -7.6298   -7.6443    7.5448 C   0  0  0  0  0  0  0  0  0  0  0  0
   -7.5573   -8.9914    7.4117 C   0  0  0  0  0  0  0  0  0  0  0  0
   -8.6899   -9.8107    7.3486 C   0  0  0  0  0  0  0  0  0  0  0  0
   -9.9205   -9.2644    7.4214 C   0  0  0  0  0  0  0  0  0  0  0  0
  -10.0231   -7.8639    7.5599 C   0  0  0  0  0  0  0  0  0  0  0  0
   -8.9025   -7.0849    7.6190 C   0  0  0  0  0  0  0  0  0  0  0  0
   -5.8832   -6.4638    8.8543 N   0  0  0  0  0  0  0  0  0  0  0  0
   -6.4530   -6.7857    7.6113 C   0  0  0  0  0  0  0  0  0  0  0  0
   -5.9552   -6.3388    6.5595 O   0  0  0  0  0  0  0  0  0  0  0  0
   -6.1395   -5.5733    9.3210 H   0  0  0  0  0  0  0  0  0  0  0  0
   -5.2085   -7.0922    9.3257 H   0  0  0  0  0  0  0  0  0  0  0  0
  -15.0167   -8.6647    4.9658 N   0  0  0  0  0  0  0  0  0  0  0  0
  -14.6524   -9.2291    4.1424 H   0  0  0  0  0  0  0  0  0  0  0  0
  -16.0840   -7.7949    4.7333 C   0  0  0  0  0  0  0  0  0  0  0  0
  -17.2859   -8.1655    4.2068 C   0  0  0  0  0  0  0  0  0  0  0  0
  -18.3278   -7.2442    3.9626 C   0  0  0  0  0  0  0  0  0  0  0  0
  -18.1361   -5.9179    4.2642 C   0  0  0  0  0  0  0  0  0  0  0  0
  -19.1584   -5.0015    4.0266 O   0  0  0  0  0  0  0  0  0  0  0  0
  -16.9330   -5.4986    4.8007 C   0  0  0  0  0  0  0  0  0  0  0  0
  -15.9447   -6.4182    5.0239 C   0  0  0  0  0  0  0  0  0  0  0  0
  -19.1686   -4.5602    3.1148 H   0  0  0  0  0  0  0  0  0  0  0  0
 16 17  1  0  0  0
 17 18  2  0  0  0
 17 10  1  0  0  0
 10 11  2  0  0  0
 11 12  1  0  0  0
 12 13  2  0  0  0
 13  8  1  0  0  0
  8  1  1  0  0  0
  1  2  2  0  0  0
  2  3  1  0  0  0
  3 21  1  0  0  0
 21 23  1  0  0  0
 23 24  2  0  0  0
 24 25  1  0  0  0
 25 26  2  0  0  0
 26 27  1  0  0  0
 26 28  1  0  0  0
 28 29  2  0  0  0
  3  4  2  0  0  0
  4  5  1  0  0  0
  5  6  2  0  0  0
  6  7  1  0  0  0
 13 14  1  0  0  0
 14 15  2  0  0  0
 15 10  1  0  0  0
  6  1  1  0  0  0
 29 23  1  0  0  0
 16 19  1  0  0  0
 16 20  1  0  0  0
  8  9  1  0  0  0
 21 22  1  0  0  0
 27 30  1  0  0  0
M  END
> <minimizedAffinity>
-9.51844

> <CNNscore>
0.5660080314

> <CNNaffinity>
6.9299011230

> <CNN_VS>
3.9223797321

> <CNNaffinity_variance>
0.5230028033

$$$$
[H]Oc1c([H])c([H])c(N([H])c2nc([H])c(F)c(N([H])c3c([H])c([H])c(C(=O)N([H])[H])c([H])c3[H])n2)c([H])c1[H]


 30 32  0  0  0  0  0  0  0  0999 V2000
   -8.4111   -8.8545    6.5733 C   0  0  0  0  0  0  0  0  0  0  0  0
   -7.9857   -9.1365    5.3530 N   0  0  0  0  0  0  0  0  0  0  0  0
   -6.9835   -8.4294    4.7550 C   0  0  0  0  0  0  0  0  0  0  0  0
   -6.4351   -7.4243    5.4539 N   0  0  0  0  0  0  0  0  0  0  0  0
   -6.8115   -7.0858    6.6812 C   0  0  0  0  0  0  0  0  0  0  0  0
   -7.8222   -7.7955    7.2902 C   0  0  0  0  0  0  0  0  0  0  0  0
   -8.2459   -7.4998    8.5317 F   0  0  0  0  0  0  0  0  0  0  0  0
   -9.4644   -9.5513    7.2191 N   0  0  0  0  0  0  0  0  0  0  0  0
   -9.2909  -10.5742    7.4531 H   0  0  0  0  0  0  0  0  0  0  0  0
  -13.1962   -7.9023    8.2766 C   0  0  0  0  0  0  0  0  0  0  0  0
  -13.0396   -9.2386    8.1101 C   0  0  0  0  0  0  0  0  0  0  0  0
  -11.8153   -9.8233    7.7678 C   0  0  0  0  0  0  0  0  0  0  0  0
  -10.7263   -9.0486    7.5887 C   0  0  0  0  0  0  0  0  0  0  0  0
  -10.8628   -7.6543    7.7567 C   0  0  0  0  0  0  0  0  0  0  0  0
  -12.0688   -7.1068    8.0913 C   0  0  0  0  0  0  0  0  0  0  0  0
  -15.6626   -7.7462    8.0503 N   0  0  0  0  0  0  0  0  0  0  0  0
  -14.4695   -7.2876    8.6331 C   0  0  0  0  0  0  0  0  0  0  0  0
  -14.4940   -6.3531    9.4576 O   0  0  0  0  0  0  0  0  0  0  0  0
  -16.0480   -7.2591    7.2192 H   0  0  0  0  0  0  0  0  0  0  0  0
  -16.1761   -8.5630    8.4263 H   0  0  0  0  0  0  0  0  0  0  0  0
   -6.6130   -8.7786    3.4447 N   0  0  0  0  0  0  0  0  0  0  0  0
   -5.9418   -8.1297    2.9372 H   0  0  0  0  0  0  0  0  0  0  0  0
   -7.0598   -9.9116    2.7615 C   0  0  0  0  0  0  0  0  0  0  0  0
   -6.9767  -10.0862    1.4117 C   0  0  0  0  0  0  0  0  0  0  0  0
   -7.4686  -11.2385    0.7605 C   0  0  0  0  0  0  0  0  0  0  0  0
   -8.0559  -12.2319    1.5055 C   0  0  0  0  0  0  0  0  0  0  0  0
   -8.5443  -13.3726    0.8716 O   0  0  0  0  0  0  0  0  0  0  0  0
   -8.1600  -12.0966    2.8773 C   0  0  0  0  0  0  0  0  0  0  0  0
   -7.6732  -10.9664    3.4756 C   0  0  0  0  0  0  0  0  0  0  0  0
   -9.5092  -13.3426    0.5647 H   0  0  0  0  0  0  0  0  0  0  0  0
 16 17  1  0  0  0
 17 18  2  0  0  0
 17 10  1  0  0  0
 10 11  2  0  0  0
 11 12  1  0  0  0
 12 13  2  0  0  0
 13  8  1  0  0  0
  8  1  1  0  0  0
  1  2  2  0  0  0
  2  3  1  0  0  0
  3 21  1  0  0  0
 21 23  1  0  0  0
 23 24  2  0  0  0
 24 25  1  0  0  0
 25 26  2  0  0  0
 26 27  1  0  0  0
 26 28  1  0  0  0
 28 29  2  0  0  0
  3  4  2  0  0  0
  4  5  1  0  0  0
  5  6  2  0  0  0
  6  7  1  0  0  0
 13 14  1  0  0  0
 14 15  2  0  0  0
 15 10  1  0  0  0
  6  1  1  0  0  0
 29 23  1  0  0  0
 16 19  1  0  0  0
 16 20  1  0  0  0
  8  9  1  0  0  0
 21 22  1  0  0  0
 27 30  1  0  0  0
M  END
> <minimizedAffinity>
5.02288

> <CNNscore>
0.5546259880

> <CNNaffinity>
6.3757700920

> <CNN_VS>
3.5361678600

> <CNNaffinity_variance>
0.7450059056

$$$$
[H]Oc1c([H])c([H])c(N([H])c2nc([H])c(F)c(N([H])c3c([H])c([H])c(C(=O)N([H])[H])c([H])c3[H])n2)c([H])c1[H]


 30 32  0  0  0  0  0  0  0  0999 V2000
  -12.4125   -9.4657    7.3362 C   0  0  0  0  0  0  0  0  0  0  0  0
  -13.0624   -9.2261    6.2092 N   0  0  0  0  0  0  0  0  0  0  0  0
  -14.3758   -8.8562    6.1964 C   0  0  0  0  0  0  0  0  0  0  0  0
  -14.9965   -8.7416    7.3800 N   0  0  0  0  0  0  0  0  0  0  0  0
  -14.4074   -8.9663    8.5484 C   0  0  0  0  0  0  0  0  0  0  0  0
  -13.0822   -9.3397    8.5681 C   0  0  0  0  0  0  0  0  0  0  0  0
  -12.4318   -9.5802    9.7203 F   0  0  0  0  0  0  0  0  0  0  0  0
  -11.0550   -9.8737    7.3891 N   0  0  0  0  0  0  0  0  0  0  0  0
  -10.8673  -10.9205    7.3777 H   0  0  0  0  0  0  0  0  0  0  0  0
   -7.5527   -7.5337    7.5383 C   0  0  0  0  0  0  0  0  0  0  0  0
   -8.7817   -6.9640    7.5898 C   0  0  0  0  0  0  0  0  0  0  0  0
   -9.9663   -7.7080    7.5515 C   0  0  0  0  0  0  0  0  0  0  0  0
   -9.9140   -9.0522    7.4590 C   0  0  0  0  0  0  0  0  0  0  0  0
   -8.6464   -9.6697    7.4043 C   0  0  0  0  0  0  0  0  0  0  0  0
   -7.5039   -8.9219    7.4435 C   0  0  0  0  0  0  0  0  0  0  0  0
   -5.9311   -5.9875    6.4715 N   0  0  0  0  0  0  0  0  0  0  0  0
   -6.3152   -6.7635    7.5777 C   0  0  0  0  0  0  0  0  0  0  0  0
   -5.5998   -6.7971    8.5979 O   0  0  0  0  0  0  0  0  0  0  0  0
   -5.2668   -6.3779    5.7766 H   0  0  0  0  0  0  0  0  0  0  0  0
   -6.2925   -5.0283    6.3245 H   0  0  0  0  0  0  0  0  0  0  0  0
  -14.9965   -8.6489    4.9522 N   0  0  0  0  0  0  0  0  0  0  0  0
  -14.6246   -9.1994    4.1228 H   0  0  0  0  0  0  0  0  0  0  0  0
  -16.0625   -7.7762    4.7250 C   0  0  0  0  0  0  0  0  0  0  0  0
  -17.2721   -8.1457    4.2154 C   0  0  0  0  0  0  0  0  0  0  0  0
  -18.3127   -7.2217    3.9757 C   0  0  0  0  0  0  0  0  0  0  0  0
  -18.1115   -5.8938    4.2642 C   0  0  0  0  0  0  0  0  0  0  0  0
  -19.1325   -4.9747    4.0309 O   0  0  0  0  0  0  0  0  0  0  0  0
  -16.9004   -5.4756    4.7833 C   0  0  0  0  0  0  0  0  0  0  0  0
  -15.9138   -6.3979    5.0026 C   0  0  0  0  0  0  0  0  0  0  0  0
  -19.1513   -4.5409    3.1156 H   0  0  0  0  0  0  0  0  0  0  0  0
 16 17  1  0  0  0
 17 18  2  0  0  0
 17 10  1  0  0  0
 10 11  2  0  0  0
 11 12  1  0  0  0
 12 13  2  0  0  0
 13  8  1  0  0  0
  8  1  1  0  0  0
  1  2  2  0  0  0
  2  3  1  0  0  0
  3 21  1  0  0  0
 21 23  1  0  0  0
 23 24  2  0  0  0
 24 25  1  0  0  0
 25 26  2  0  0  0
 26 27  1  0  0  0
 26 28  1  0  0  0
 28 29  2  0  0  0
  3  4  2  0  0  0
  4  5  1  0  0  0
  5  6  2  0  0  0
  6  7  1  0  0  0
 13 14  1  0  0  0
 14 15  2  0  0  0
 15 10  1  0  0  0
  6  1  1  0  0  0
 29 23  1  0  0  0
 16 19  1  0  0  0
 16 20  1  0  0  0
  8  9  1  0  0  0
 21 22  1  0  0  0
 27 30  1  0  0  0
M  END
> <minimizedAffinity>
-9.41353

> <CNNscore>
0.5357252955

> <CNNaffinity>
6.8722701073

> <CNN_VS>
3.6816489697

> <CNNaffinity_variance>
0.4689002633

$$$$
[H]Oc1c([H])c([H])c(N([H])c2nc([H])c(F)c(N([H])c3c([H])c([H])c(C(=O)N([H])[H])c([H])c3[H])n2)c([H])c1[H]


 30 32  0  0  0  0  0  0  0  0999 V2000
  -13.5641   -6.1303   10.0889 C   0  0  0  0  0  0  0  0  0  0  0  0
  -13.5786   -5.7997    8.8082 N   0  0  0  0  0  0  0  0  0  0  0  0
  -13.8970   -6.6990    7.8327 C   0  0  0  0  0  0  0  0  0  0  0  0
  -14.1992   -7.9476    8.2189 N   0  0  0  0  0  0  0  0  0  0  0  0
  -14.2047   -8.3490    9.4844 C   0  0  0  0  0  0  0  0  0  0  0  0
  -13.8844   -7.4462   10.4735 C   0  0  0  0  0  0  0  0  0  0  0  0
  -13.8735   -7.7939   11.7725 F   0  0  0  0  0  0  0  0  0  0  0  0
  -13.2168   -5.2305   11.1290 N   0  0  0  0  0  0  0  0  0  0  0  0
  -13.9421   -4.4988   11.3932 H   0  0  0  0  0  0  0  0  0  0  0  0
   -9.5386   -5.1416   13.1849 C   0  0  0  0  0  0  0  0  0  0  0  0
  -10.6284   -4.4940   13.6652 C   0  0  0  0  0  0  0  0  0  0  0  0
  -11.8678   -4.5077   13.0157 C   0  0  0  0  0  0  0  0  0  0  0  0
  -12.0143   -5.1858   11.8595 C   0  0  0  0  0  0  0  0  0  0  0  0
  -10.8948   -5.8688   11.3387 C   0  0  0  0  0  0  0  0  0  0  0  0
   -9.6950   -5.8409   11.9913 C   0  0  0  0  0  0  0  0  0  0  0  0
   -7.4802   -3.9529   13.8981 N   0  0  0  0  0  0  0  0  0  0  0  0
   -8.2447   -5.1307   13.8573 C   0  0  0  0  0  0  0  0  0  0  0  0
   -7.8204   -6.1718   14.3957 O   0  0  0  0  0  0  0  0  0  0  0  0
   -6.7337   -3.8011   13.1937 H   0  0  0  0  0  0  0  0  0  0  0  0
   -7.6382   -3.2230   14.6154 H   0  0  0  0  0  0  0  0  0  0  0  0
  -13.8600   -6.2701    6.4945 N   0  0  0  0  0  0  0  0  0  0  0  0
  -13.0544   -5.6403    6.2053 H   0  0  0  0  0  0  0  0  0  0  0  0
  -14.8000   -6.6087    5.5190 C   0  0  0  0  0  0  0  0  0  0  0  0
  -15.8767   -5.8434    5.1809 C   0  0  0  0  0  0  0  0  0  0  0  0
  -16.8183   -6.2406    4.2064 C   0  0  0  0  0  0  0  0  0  0  0  0
  -16.6540   -7.4440    3.5648 C   0  0  0  0  0  0  0  0  0  0  0  0
  -17.5782   -7.8444    2.6019 O   0  0  0  0  0  0  0  0  0  0  0  0
  -15.5757   -8.2511    3.8761 C   0  0  0  0  0  0  0  0  0  0  0  0
  -14.6828   -7.8354    4.8259 C   0  0  0  0  0  0  0  0  0  0  0  0
  -18.3702   -8.3838    2.9304 H   0  0  0  0  0  0  0  0  0  0  0  0
 16 17  1  0  0  0
 17 18  2  0  0  0
 17 10  1  0  0  0
 10 11  2  0  0  0
 11 12  1  0  0  0
 12 13  2  0  0  0
 13  8  1  0  0  0
  8  1  1  0  0  0
  1  2  2  0  0  0
  2  3  1  0  0  0
  3 21  1  0  0  0
 21 23  1  0  0  0
 23 24  2  0  0  0
 24 25  1  0  0  0
 25 26  2  0  0  0
 26 27  1  0  0  0
 26 28  1  0  0  0
 28 29  2  0  0  0
  3  4  2  0  0  0
  4  5  1  0  0  0
  5  6  2  0  0  0
  6  7  1  0  0  0
 13 14  1  0  0  0
 14 15  2  0  0  0
 15 10  1  0  0  0
  6  1  1  0  0  0
 29 23  1  0  0  0
 16 19  1  0  0  0
 16 20  1  0  0  0
  8  9  1  0  0  0
 21 22  1  0  0  0
 27 30  1  0  0  0
M  END
> <minimizedAffinity>
7.56394

> <CNNscore>
0.5212767720

> <CNNaffinity>
6.3757047653

> <CNN_VS>
3.3235068321

> <CNNaffinity_variance>
0.4062723219

$$$$
[H]Oc1c([H])c([H])c(N([H])c2nc([H])c(F)c(N([H])c3c([H])c([H])c(C(=O)N([H])[H])c([H])c3[H])n2)c([H])c1[H]


 30 32  0  0  0  0  0  0  0  0999 V2000
  -12.2563   -8.4455    7.4838 C   0  0  0  0  0  0  0  0  0  0  0  0
  -13.2603   -7.9803    6.7591 N   0  0  0  0  0  0  0  0  0  0  0  0
  -13.1138   -6.9141    5.9203 C   0  0  0  0  0  0  0  0  0  0  0  0
  -11.9014   -6.3438    5.8527 N   0  0  0  0  0  0  0  0  0  0  0  0
  -10.8501   -6.7573    6.5503 C   0  0  0  0  0  0  0  0  0  0  0  0
  -10.9916   -7.8328    7.3984 C   0  0  0  0  0  0  0  0  0  0  0  0
   -9.9632   -8.2972    8.1299 F   0  0  0  0  0  0  0  0  0  0  0  0
  -12.3751   -9.5362    8.3828 N   0  0  0  0  0  0  0  0  0  0  0  0
  -12.0811  -10.4918    8.0201 H   0  0  0  0  0  0  0  0  0  0  0  0
  -13.8803   -9.3375   12.3146 C   0  0  0  0  0  0  0  0  0  0  0  0
  -13.1637  -10.4067   11.8892 C   0  0  0  0  0  0  0  0  0  0  0  0
  -12.6408  -10.5046   10.5949 C   0  0  0  0  0  0  0  0  0  0  0  0
  -12.8431   -9.5074    9.7102 C   0  0  0  0  0  0  0  0  0  0  0  0
  -13.5857   -8.3830   10.1286 C   0  0  0  0  0  0  0  0  0  0  0  0
  -14.0859   -8.3103   11.3977 C   0  0  0  0  0  0  0  0  0  0  0  0
  -15.8174   -9.2644   13.8642 N   0  0  0  0  0  0  0  0  0  0  0  0
  -14.4277   -9.2302   13.6619 C   0  0  0  0  0  0  0  0  0  0  0  0
  -13.6562   -9.1080   14.6333 O   0  0  0  0  0  0  0  0  0  0  0  0
  -16.3461   -8.3754   13.9452 H   0  0  0  0  0  0  0  0  0  0  0  0
  -16.3377  -10.1568   13.9360 H   0  0  0  0  0  0  0  0  0  0  0  0
  -14.2408   -6.4676    5.2086 N   0  0  0  0  0  0  0  0  0  0  0  0
  -14.1458   -5.5616    4.6613 H   0  0  0  0  0  0  0  0  0  0  0  0
  -15.4727   -7.1236    5.1667 C   0  0  0  0  0  0  0  0  0  0  0  0
  -16.5003   -6.8997    6.0346 C   0  0  0  0  0  0  0  0  0  0  0  0
  -17.7199   -7.6087    5.9711 C   0  0  0  0  0  0  0  0  0  0  0  0
  -17.8912   -8.5647    4.9997 C   0  0  0  0  0  0  0  0  0  0  0  0
  -19.0912   -9.2695    4.9293 O   0  0  0  0  0  0  0  0  0  0  0  0
  -16.8755   -8.8232    4.0982 C   0  0  0  0  0  0  0  0  0  0  0  0
  -15.7066   -8.1178    4.1891 C   0  0  0  0  0  0  0  0  0  0  0  0
  -19.1451  -10.1273    5.4656 H   0  0  0  0  0  0  0  0  0  0  0  0
 16 17  1  0  0  0
 17 18  2  0  0  0
 17 10  1  0  0  0
 10 11  2  0  0  0
 11 12  1  0  0  0
 12 13  2  0  0  0
 13  8  1  0  0  0
  8  1  1  0  0  0
  1  2  2  0  0  0
  2  3  1  0  0  0
  3 21  1  0  0  0
 21 23  1  0  0  0
 23 24  2  0  0  0
 24 25  1  0  0  0
 25 26  2  0  0  0
 26 27  1  0  0  0
 26 28  1  0  0  0
 28 29  2  0  0  0
  3  4  2  0  0  0
  4  5  1  0  0  0
  5  6  2  0  0  0
  6  7  1  0  0  0
 13 14  1  0  0  0
 14 15  2  0  0  0
 15 10  1  0  0  0
  6  1  1  0  0  0
 29 23  1  0  0  0
 16 19  1  0  0  0
 16 20  1  0  0  0
  8  9  1  0  0  0
 21 22  1  0  0  0
 27 30  1  0  0  0
M  END
> <minimizedAffinity>
16.65216

> <CNNscore>
0.4966765642

> <CNNaffinity>
6.7298750877

> <CNN_VS>
3.3425712585

> <CNNaffinity_variance>
2.4073543549

$$$$
[H]Oc1c([H])c([H])c(N([H])c2nc([H])c(F)c(N([H])c3c([H])c([H])c(C(=O)N([H])[H])c([H])c3[H])n2)c([H])c1[H]


 30 32  0  0  0  0  0  0  0  0999 V2000
   -7.8263   -7.1506    6.8186 C   0  0  0  0  0  0  0  0  0  0  0  0
   -8.8798   -6.6061    7.4045 N   0  0  0  0  0  0  0  0  0  0  0  0
   -9.8804   -7.3627    7.9414 C   0  0  0  0  0  0  0  0  0  0  0  0
   -9.7605   -8.6960    7.8549 N   0  0  0  0  0  0  0  0  0  0  0  0
   -8.7323   -9.3101    7.2817 C   0  0  0  0  0  0  0  0  0  0  0  0
   -7.7193   -8.5521    6.7382 C   0  0  0  0  0  0  0  0  0  0  0  0
   -6.6527   -9.1172    6.1454 F   0  0  0  0  0  0  0  0  0  0  0  0
   -6.7780   -6.3981    6.2297 N   0  0  0  0  0  0  0  0  0  0  0  0
   -6.9395   -6.0417    5.2407 H   0  0  0  0  0  0  0  0  0  0  0  0
   -3.0306   -5.3017    7.8167 C   0  0  0  0  0  0  0  0  0  0  0  0
   -3.9762   -5.8907    8.5891 C   0  0  0  0  0  0  0  0  0  0  0  0
   -5.2278   -6.2764    8.0962 C   0  0  0  0  0  0  0  0  0  0  0  0
   -5.5350   -6.0649    6.8004 C   0  0  0  0  0  0  0  0  0  0  0  0
   -4.5675   -5.4535    5.9752 C   0  0  0  0  0  0  0  0  0  0  0  0
   -3.3523   -5.0860    6.4795 C   0  0  0  0  0  0  0  0  0  0  0  0
   -1.2160   -5.4733    9.5009 N   0  0  0  0  0  0  0  0  0  0  0  0
   -1.7249   -4.8976    8.3250 C   0  0  0  0  0  0  0  0  0  0  0  0
   -1.0625   -4.0388    7.7107 O   0  0  0  0  0  0  0  0  0  0  0  0
   -1.3418   -4.9847   10.4075 H   0  0  0  0  0  0  0  0  0  0  0  0
   -0.7140   -6.3790    9.4935 H   0  0  0  0  0  0  0  0  0  0  0  0
  -10.9775   -6.7012    8.5201 N   0  0  0  0  0  0  0  0  0  0  0  0
  -10.7883   -5.7771    9.0094 H   0  0  0  0  0  0  0  0  0  0  0  0
  -12.2940   -7.1661    8.5002 C   0  0  0  0  0  0  0  0  0  0  0  0
  -13.0042   -7.4357    7.3678 C   0  0  0  0  0  0  0  0  0  0  0  0
  -14.3450   -7.8777    7.3961 C   0  0  0  0  0  0  0  0  0  0  0  0
  -14.9708   -8.0479    8.6070 C   0  0  0  0  0  0  0  0  0  0  0  0
  -16.2938   -8.4835    8.6447 O   0  0  0  0  0  0  0  0  0  0  0  0
  -14.2876   -7.7870    9.7802 C   0  0  0  0  0  0  0  0  0  0  0  0
  -12.9894   -7.3597    9.7159 C   0  0  0  0  0  0  0  0  0  0  0  0
  -17.0080   -7.7652    8.6312 H   0  0  0  0  0  0  0  0  0  0  0  0
 16 17  1  0  0  0
 17 18  2  0  0  0
 17 10  1  0  0  0
 10 11  2  0  0  0
 11 12  1  0  0  0
 12 13  2  0  0  0
 13  8  1  0  0  0
  8  1  1  0  0  0
  1  2  2  0  0  0
  2  3  1  0  0  0
  3 21  1  0  0  0
 21 23  1  0  0  0
 23 24  2  0  0  0
 24 25  1  0  0  0
 25 26  2  0  0  0
 26 27  1  0  0  0
 26 28  1  0  0  0
 28 29  2  0  0  0
  3  4  2  0  0  0
  4  5  1  0  0  0
  5  6  2  0  0  0
  6  7  1  0  0  0
 13 14  1  0  0  0
 14 15  2  0  0  0
 15 10  1  0  0  0
  6  1  1  0  0  0
 29 23  1  0  0  0
 16 19  1  0  0  0
 16 20  1  0  0  0
  8  9  1  0  0  0
 21 22  1  0  0  0
 27 30  1  0  0  0
M  END
> <minimizedAffinity>
-7.54098

> <CNNscore>
0.4737437367

> <CNNaffinity>
6.1812663078

> <CNN_VS>
2.9283361435

> <CNNaffinity_variance>
0.0138320755

$$$$
[H]Oc1c([H])c([H])c(N([H])c2nc([H])c(F)c(N([H])c3c([H])c([H])c(C(=O)N([H])[H])c([H])c3[H])n2)c([H])c1[H]


 30 32  0  0  0  0  0  0  0  0999 V2000
   -7.1640   -8.2698    8.2685 C   0  0  0  0  0  0  0  0  0  0  0  0
   -6.6720   -7.6085    9.3030 N   0  0  0  0  0  0  0  0  0  0  0  0
   -7.4591   -6.8413   10.1117 C   0  0  0  0  0  0  0  0  0  0  0  0
   -8.7669   -6.7775    9.8201 N   0  0  0  0  0  0  0  0  0  0  0  0
   -9.3284   -7.4139    8.7990 C   0  0  0  0  0  0  0  0  0  0  0  0
   -8.5396   -8.1897    7.9794 C   0  0  0  0  0  0  0  0  0  0  0  0
   -9.0513   -8.8579    6.9306 F   0  0  0  0  0  0  0  0  0  0  0  0
   -6.3750   -9.0586    7.3926 N   0  0  0  0  0  0  0  0  0  0  0  0
   -6.7096  -10.0511    7.2072 H   0  0  0  0  0  0  0  0  0  0  0  0
   -2.9056   -7.8318    5.3379 C   0  0  0  0  0  0  0  0  0  0  0  0
   -2.8264   -8.5102    6.5088 C   0  0  0  0  0  0  0  0  0  0  0  0
   -3.9550   -8.9412    7.2150 C   0  0  0  0  0  0  0  0  0  0  0  0
   -5.1883   -8.6843    6.7343 C   0  0  0  0  0  0  0  0  0  0  0  0
   -5.2978   -7.9798    5.5167 C   0  0  0  0  0  0  0  0  0  0  0  0
   -4.1811   -7.5695    4.8453 C   0  0  0  0  0  0  0  0  0  0  0  0
   -1.3528   -6.0284    4.6341 N   0  0  0  0  0  0  0  0  0  0  0  0
   -1.7331   -7.3802    4.5978 C   0  0  0  0  0  0  0  0  0  0  0  0
   -1.0699   -8.1997    3.9328 O   0  0  0  0  0  0  0  0  0  0  0  0
   -1.6566   -5.3893    3.8753 H   0  0  0  0  0  0  0  0  0  0  0  0
   -0.7731   -5.6439    5.4012 H   0  0  0  0  0  0  0  0  0  0  0  0
   -6.8486   -6.1496   11.1723 N   0  0  0  0  0  0  0  0  0  0  0  0
   -7.3629   -5.3075   11.5668 H   0  0  0  0  0  0  0  0  0  0  0  0
   -5.6202   -6.4853   11.7452 C   0  0  0  0  0  0  0  0  0  0  0  0
   -5.4713   -7.1805   12.9087 C   0  0  0  0  0  0  0  0  0  0  0  0
   -4.2070   -7.4727   13.4657 C   0  0  0  0  0  0  0  0  0  0  0  0
   -3.0731   -7.0459   12.8184 C   0  0  0  0  0  0  0  0  0  0  0  0
   -1.8211   -7.3295   13.3604 O   0  0  0  0  0  0  0  0  0  0  0  0
   -3.1779   -6.3387   11.6352 C   0  0  0  0  0  0  0  0  0  0  0  0
   -4.4190   -6.0726   11.1241 C   0  0  0  0  0  0  0  0  0  0  0  0
   -1.4400   -6.6454   14.0030 H   0  0  0  0  0  0  0  0  0  0  0  0
 16 17  1  0  0  0
 17 18  2  0  0  0
 17 10  1  0  0  0
 10 11  2  0  0  0
 11 12  1  0  0  0
 12 13  2  0  0  0
 13  8  1  0  0  0
  8  1  1  0  0  0
  1  2  2  0  0  0
  2  3  1  0  0  0
  3 21  1  0  0  0
 21 23  1  0  0  0
 23 24  2  0  0  0
 24 25  1  0  0  0
 25 26  2  0  0  0
 26 27  1  0  0  0
 26 28  1  0  0  0
 28 29  2  0  0  0
  3  4  2  0  0  0
  4  5  1  0  0  0
  5  6  2  0  0  0
  6  7  1  0  0  0
 13 14  1  0  0  0
 14 15  2  0  0  0
 15 10  1  0  0  0
  6  1  1  0  0  0
 29 23  1  0  0  0
 16 19  1  0  0  0
 16 20  1  0  0  0
  8  9  1  0  0  0
 21 22  1  0  0  0
 27 30  1  0  0  0
M  END
> <minimizedAffinity>
10.77796

> <CNNscore>
0.4620756507

> <CNNaffinity>
5.7480249405

> <CNN_VS>
2.6560223103

> <CNNaffinity_variance>
2.9363903999

$$$$
[H]Oc1c([H])c([H])c(N([H])c2nc([H])c(F)c(N([H])c3c([H])c([H])c(C(=O)N([H])[H])c([H])c3[H])n2)c([H])c1[H]


 30 32  0  0  0  0  0  0  0  0999 V2000
  -13.0906   -7.8704    8.3527 C   0  0  0  0  0  0  0  0  0  0  0  0
  -11.8758   -7.4161    8.0924 N   0  0  0  0  0  0  0  0  0  0  0  0
  -11.1743   -6.6695    8.9938 C   0  0  0  0  0  0  0  0  0  0  0  0
  -11.7641   -6.4066   10.1697 N   0  0  0  0  0  0  0  0  0  0  0  0
  -12.9790   -6.8296   10.4982 C   0  0  0  0  0  0  0  0  0  0  0  0
  -13.6919   -7.5834    9.5929 C   0  0  0  0  0  0  0  0  0  0  0  0
  -14.9262   -8.0403    9.8690 F   0  0  0  0  0  0  0  0  0  0  0  0
  -13.8593   -8.6296    7.4337 N   0  0  0  0  0  0  0  0  0  0  0  0
  -13.6875   -9.6791    7.4158 H   0  0  0  0  0  0  0  0  0  0  0  0
  -16.8496   -7.1595    4.8529 C   0  0  0  0  0  0  0  0  0  0  0  0
  -15.6096   -7.4587    4.3940 C   0  0  0  0  0  0  0  0  0  0  0  0
  -14.5942   -7.9566    5.2181 C   0  0  0  0  0  0  0  0  0  0  0  0
  -14.8302   -8.1570    6.5305 C   0  0  0  0  0  0  0  0  0  0  0  0
  -16.1133   -7.8537    7.0329 C   0  0  0  0  0  0  0  0  0  0  0  0
  -17.0886   -7.3689    6.2084 C   0  0  0  0  0  0  0  0  0  0  0  0
  -18.4259   -5.3515    4.2164 N   0  0  0  0  0  0  0  0  0  0  0  0
  -17.9115   -6.6405    3.9988 C   0  0  0  0  0  0  0  0  0  0  0  0
  -18.3605   -7.3463    3.0747 O   0  0  0  0  0  0  0  0  0  0  0  0
  -19.2874   -5.2316    4.7821 H   0  0  0  0  0  0  0  0  0  0  0  0
  -17.9693   -4.5076    3.8270 H   0  0  0  0  0  0  0  0  0  0  0  0
   -9.9008   -6.2033    8.6239 N   0  0  0  0  0  0  0  0  0  0  0  0
   -9.6236   -5.2299    8.9476 H   0  0  0  0  0  0  0  0  0  0  0  0
   -8.9747   -6.9218    7.8648 C   0  0  0  0  0  0  0  0  0  0  0  0
   -8.5826   -8.2010    8.1275 C   0  0  0  0  0  0  0  0  0  0  0  0
   -7.6201   -8.8786    7.3475 C   0  0  0  0  0  0  0  0  0  0  0  0
   -7.0487   -8.2346    6.2771 C   0  0  0  0  0  0  0  0  0  0  0  0
   -6.0980   -8.8952    5.5017 O   0  0  0  0  0  0  0  0  0  0  0  0
   -7.4179   -6.9373    5.9742 C   0  0  0  0  0  0  0  0  0  0  0  0
   -8.3533   -6.3105    6.7517 C   0  0  0  0  0  0  0  0  0  0  0  0
   -5.1314   -8.7970    5.7888 H   0  0  0  0  0  0  0  0  0  0  0  0
 16 17  1  0  0  0
 17 18  2  0  0  0
 17 10  1  0  0  0
 10 11  2  0  0  0
 11 12  1  0  0  0
 12 13  2  0  0  0
 13  8  1  0  0  0
  8  1  1  0  0  0
  1  2  2  0  0  0
  2  3  1  0  0  0
  3 21  1  0  0  0
 21 23  1  0  0  0
 23 24  2  0  0  0
 24 25  1  0  0  0
 25 26  2  0  0  0
 26 27  1  0  0  0
 26 28  1  0  0  0
 28 29  2  0  0  0
  3  4  2  0  0  0
  4  5  1  0  0  0
  5  6  2  0  0  0
  6  7  1  0  0  0
 13 14  1  0  0  0
 14 15  2  0  0  0
 15 10  1  0  0  0
  6  1  1  0  0  0
 29 23  1  0  0  0
 16 19  1  0  0  0
 16 20  1  0  0  0
  8  9  1  0  0  0
 21 22  1  0  0  0
 27 30  1  0  0  0
M  END
> <minimizedAffinity>
-8.85800

> <CNNscore>
0.4575290084

> <CNNaffinity>
7.0334577560

> <CNN_VS>
3.2180109024

> <CNNaffinity_variance>
0.5144018531

$$$$
[H]OC(=O)[C@@]1([H])N(C(=O)[C@@]([H])(N([H])[C@]([H])(C(=O)O[H])C([H])([H])C([H])([H])c2c([H])c([H])c([H])c([H])c2[H])C([H])([H])[H])C([H])([H])c2c([H])c([H])c([H])c([H])c2C1([H])[H]


 33 35  0  0  0  0  0  0  0  0999 V2000
  -14.2506   -9.7137   10.0580 C   0  0  0  0  0  0  0  0  0  0  0  0
  -13.3236   -8.5041    9.8590 C   0  0  0  0  0  0  0  0  0  0  0  0
  -12.7086   -8.6641    8.5383 C   0  0  0  0  0  0  0  0  0  0  0  0
  -13.4805   -9.0746    7.6031 O   0  0  0  0  0  0  0  0  0  0  0  0
  -11.3640   -8.4152    8.1905 N   0  0  0  0  0  0  0  0  0  0  0  0
  -10.9570   -8.6930    6.7933 C   0  0  0  0  0  0  0  0  0  0  0  0
   -9.8627   -9.7306    6.8712 C   0  0  0  0  0  0  0  0  0  0  0  0
   -9.8418  -10.8719    6.1156 C   0  0  0  0  0  0  0  0  0  0  0  0
   -8.7957  -11.7933    6.2859 C   0  0  0  0  0  0  0  0  0  0  0  0
   -7.8199  -11.5099    7.2174 C   0  0  0  0  0  0  0  0  0  0  0  0
   -7.8695  -10.3324    7.9749 C   0  0  0  0  0  0  0  0  0  0  0  0
   -8.8904   -9.4232    7.8145 C   0  0  0  0  0  0  0  0  0  0  0  0
   -8.9787   -8.1604    8.5456 C   0  0  0  0  0  0  0  0  0  0  0  0
  -10.3538   -7.9068    9.0748 C   0  0  0  0  0  0  0  0  0  0  0  0
  -10.5586   -6.4564    9.3583 C   0  0  0  0  0  0  0  0  0  0  0  0
   -9.9464   -5.6103    8.6873 O   0  0  0  0  0  0  0  0  0  0  0  0
  -11.4171   -6.0837   10.3518 O   0  0  0  0  0  0  0  0  0  0  0  0
  -12.4034   -6.3064   10.2280 H   0  0  0  0  0  0  0  0  0  0  0  0
  -14.2154   -7.3510    9.9157 N   0  0  0  0  0  0  0  0  0  0  0  0
  -15.1146   -7.6581    9.4646 H   0  0  0  0  0  0  0  0  0  0  0  0
  -13.6687   -6.3004    9.0886 C   0  0  0  0  0  0  0  0  0  0  0  0
  -13.2827   -5.1123    9.9052 C   0  0  0  0  0  0  0  0  0  0  0  0
  -12.3074   -4.3815    9.6004 O   0  0  0  0  0  0  0  0  0  0  0  0
  -13.9873   -4.7560   11.0468 O   0  0  0  0  0  0  0  0  0  0  0  0
  -14.3107   -5.4159   11.7391 H   0  0  0  0  0  0  0  0  0  0  0  0
  -14.6026   -5.9176    7.9688 C   0  0  0  0  0  0  0  0  0  0  0  0
  -15.1458   -7.1275    7.2458 C   0  0  0  0  0  0  0  0  0  0  0  0
  -15.8272   -6.7543    5.9814 C   0  0  0  0  0  0  0  0  0  0  0  0
  -16.5792   -7.6697    5.2558 C   0  0  0  0  0  0  0  0  0  0  0  0
  -17.2212   -7.3562    4.0782 C   0  0  0  0  0  0  0  0  0  0  0  0
  -17.1269   -6.0737    3.5742 C   0  0  0  0  0  0  0  0  0  0  0  0
  -16.3802   -5.1315    4.2779 C   0  0  0  0  0  0  0  0  0  0  0  0
  -15.7521   -5.4795    5.4510 C   0  0  0  0  0  0  0  0  0  0  0  0
  1  2  1  0  0  0
  2 19  1  0  0  0
 19 21  1  0  0  0
 21 26  1  0  0  0
 26 27  1  0  0  0
 27 28  1  0  0  0
 28 29  2  0  0  0
 29 30  1  0  0  0
 30 31  2  0  0  0
 31 32  1  0  0  0
 32 33  2  0  0  0
 21 22  1  0  0  0
 22 23  2  0  0  0
 22 24  1  0  0  0
  2  3  1  0  0  0
  3  4  2  0  0  0
  3  5  1  0  0  0
  5  6  1  0  0  0
  6  7  1  0  0  0
  7  8  2  0  0  0
  8  9  1  0  0  0
  9 10  2  0  0  0
 10 11  1  0  0  0
 11 12  2  0  0  0
 12 13  1  0  0  0
 13 14  1  0  0  0
 14 15  1  0  0  0
 15 16  2  0  0  0
 15 17  1  0  0  0
 33 28  1  0  0  0
 14  5  1  0  0  0
 12  7  1  0  0  0
 19 20  1  0  0  0
 24 25  1  0  0  0
 17 18  1  0  0  0
M  END
> <minimizedAffinity>
3.05401

> <CNNscore>
0.4761151671

> <CNNaffinity>
6.2514066696

> <CNN_VS>
2.9763896465

> <CNNaffinity_variance>
1.0461127758

$$$$
[H]OC(=O)[C@@]1([H])N(C(=O)[C@@]([H])(N([H])[C@]([H])(C(=O)O[H])C([H])([H])C([H])([H])c2c([H])c([H])c([H])c([H])c2[H])C([H])([H])[H])C([H])([H])c2c([H])c([H])c([H])c([H])c2C1([H])[H]


 33 35  0  0  0  0  0  0  0  0999 V2000
  -11.7382   -9.6903    7.2999 C   0  0  0  0  0  0  0  0  0  0  0  0
  -12.4483   -8.4394    6.7585 C   0  0  0  0  0  0  0  0  0  0  0  0
  -11.4056   -7.4351    6.5302 C   0  0  0  0  0  0  0  0  0  0  0  0
  -11.5254   -6.7295    5.4687 O   0  0  0  0  0  0  0  0  0  0  0  0
  -10.2903   -7.1652    7.3514 N   0  0  0  0  0  0  0  0  0  0  0  0
   -9.3386   -6.1270    6.8916 C   0  0  0  0  0  0  0  0  0  0  0  0
   -8.0021   -6.8147    6.7467 C   0  0  0  0  0  0  0  0  0  0  0  0
   -7.2064   -6.7046    5.6382 C   0  0  0  0  0  0  0  0  0  0  0  0
   -5.9942   -7.4117    5.5857 C   0  0  0  0  0  0  0  0  0  0  0  0
   -5.6486   -8.1979    6.6640 C   0  0  0  0  0  0  0  0  0  0  0  0
   -6.4848   -8.2891    7.7844 C   0  0  0  0  0  0  0  0  0  0  0  0
   -7.6743   -7.5993    7.8452 C   0  0  0  0  0  0  0  0  0  0  0  0
   -8.5711   -7.6224    8.9993 C   0  0  0  0  0  0  0  0  0  0  0  0
  -10.0008   -7.8066    8.6026 C   0  0  0  0  0  0  0  0  0  0  0  0
  -10.9195   -7.3370    9.6803 C   0  0  0  0  0  0  0  0  0  0  0  0
  -11.8029   -8.0987   10.1051 O   0  0  0  0  0  0  0  0  0  0  0  0
  -10.7727   -6.0762   10.1822 O   0  0  0  0  0  0  0  0  0  0  0  0
   -9.9099   -5.8674   10.6818 H   0  0  0  0  0  0  0  0  0  0  0  0
  -13.0672   -8.8840    5.5146 N   0  0  0  0  0  0  0  0  0  0  0  0
  -12.4766   -8.4877    4.7397 H   0  0  0  0  0  0  0  0  0  0  0  0
  -14.3718   -8.2740    5.4013 C   0  0  0  0  0  0  0  0  0  0  0  0
  -15.1596   -8.8805    4.2883 C   0  0  0  0  0  0  0  0  0  0  0  0
  -14.6883   -9.0108    3.1311 O   0  0  0  0  0  0  0  0  0  0  0  0
  -16.4578   -9.3326    4.4800 O   0  0  0  0  0  0  0  0  0  0  0  0
  -17.1565   -8.8334    5.0110 H   0  0  0  0  0  0  0  0  0  0  0  0
  -14.2858   -6.7755    5.2608 C   0  0  0  0  0  0  0  0  0  0  0  0
  -15.1099   -6.0605    6.3055 C   0  0  0  0  0  0  0  0  0  0  0  0
  -15.0770   -6.7654    7.6110 C   0  0  0  0  0  0  0  0  0  0  0  0
  -15.8963   -7.8555    7.8766 C   0  0  0  0  0  0  0  0  0  0  0  0
  -15.8922   -8.5294    9.0778 C   0  0  0  0  0  0  0  0  0  0  0  0
  -15.0390   -8.1190   10.0835 C   0  0  0  0  0  0  0  0  0  0  0  0
  -14.2040   -7.0288    9.8493 C   0  0  0  0  0  0  0  0  0  0  0  0
  -14.2347   -6.3792    8.6373 C   0  0  0  0  0  0  0  0  0  0  0  0
  1  2  1  0  0  0
  2 19  1  0  0  0
 19 21  1  0  0  0
 21 26  1  0  0  0
 26 27  1  0  0  0
 27 28  1  0  0  0
 28 29  2  0  0  0
 29 30  1  0  0  0
 30 31  2  0  0  0
 31 32  1  0  0  0
 32 33  2  0  0  0
 21 22  1  0  0  0
 22 23  2  0  0  0
 22 24  1  0  0  0
  2  3  1  0  0  0
  3  4  2  0  0  0
  3  5  1  0  0  0
  5  6  1  0  0  0
  6  7  1  0  0  0
  7  8  2  0  0  0
  8  9  1  0  0  0
  9 10  2  0  0  0
 10 11  1  0  0  0
 11 12  2  0  0  0
 12 13  1  0  0  0
 13 14  1  0  0  0
 14 15  1  0  0  0
 15 16  2  0  0  0
 15 17  1  0  0  0
 33 28  1  0  0  0
 14  5  1  0  0  0
 12  7  1  0  0  0
 19 20  1  0  0  0
 24 25  1  0  0  0
 17 18  1  0  0  0
M  END
> <minimizedAffinity>
0.57571

> <CNNscore>
0.3590801656

> <CNNaffinity>
5.9862136841

> <CNN_VS>
2.1495306492

> <CNNaffinity_variance>
0.3505949080

$$$$
[H]OC(=O)[C@@]1([H])N(C(=O)[C@@]([H])(N([H])[C@]([H])(C(=O)O[H])C([H])([H])C([H])([H])c2c([H])c([H])c([H])c([H])c2[H])C([H])([H])[H])C([H])([H])c2c([H])c([H])c([H])c([H])c2C1([H])[H]


 33 35  0  0  0  0  0  0  0  0999 V2000
  -16.9284   -6.9861    7.2380 C   0  0  0  0  0  0  0  0  0  0  0  0
  -15.6804   -7.3559    6.4208 C   0  0  0  0  0  0  0  0  0  0  0  0
  -14.5528   -6.6576    7.0443 C   0  0  0  0  0  0  0  0  0  0  0  0
  -14.3055   -5.4810    6.6042 O   0  0  0  0  0  0  0  0  0  0  0  0
  -13.7159   -7.1416    8.0721 N   0  0  0  0  0  0  0  0  0  0  0  0
  -12.6041   -6.2687    8.5159 C   0  0  0  0  0  0  0  0  0  0  0  0
  -11.3334   -7.0461    8.2690 C   0  0  0  0  0  0  0  0  0  0  0  0
  -10.2393   -6.5309    7.6274 C   0  0  0  0  0  0  0  0  0  0  0  0
   -9.1156   -7.3463    7.4161 C   0  0  0  0  0  0  0  0  0  0  0  0
   -9.1582   -8.6481    7.8678 C   0  0  0  0  0  0  0  0  0  0  0  0
  -10.2931   -9.1453    8.5216 C   0  0  0  0  0  0  0  0  0  0  0  0
  -11.3987   -8.3535    8.7338 C   0  0  0  0  0  0  0  0  0  0  0  0
  -12.5969   -8.8006    9.4417 C   0  0  0  0  0  0  0  0  0  0  0  0
  -13.8536   -8.4085    8.7329 C   0  0  0  0  0  0  0  0  0  0  0  0
  -15.0174   -8.4118    9.6665 C   0  0  0  0  0  0  0  0  0  0  0  0
  -14.9232   -7.8362   10.7623 O   0  0  0  0  0  0  0  0  0  0  0  0
  -16.1677   -9.0481    9.2992 O   0  0  0  0  0  0  0  0  0  0  0  0
  -16.6761   -8.6743    8.4996 H   0  0  0  0  0  0  0  0  0  0  0  0
  -15.5746   -8.8046    6.5565 N   0  0  0  0  0  0  0  0  0  0  0  0
  -15.0620   -8.9740    7.4592 H   0  0  0  0  0  0  0  0  0  0  0  0
  -14.7342   -9.3099    5.4958 C   0  0  0  0  0  0  0  0  0  0  0  0
  -13.4808   -9.9127    6.0372 C   0  0  0  0  0  0  0  0  0  0  0  0
  -12.3452   -9.5878    5.6093 O   0  0  0  0  0  0  0  0  0  0  0  0
  -13.5103  -10.8663    7.0454 O   0  0  0  0  0  0  0  0  0  0  0  0
  -14.1670  -11.6324    7.0784 H   0  0  0  0  0  0  0  0  0  0  0  0
  -14.4345   -8.2562    4.4602 C   0  0  0  0  0  0  0  0  0  0  0  0
  -15.4619   -8.2420    3.3530 C   0  0  0  0  0  0  0  0  0  0  0  0
  -16.5281   -7.2405    3.6032 C   0  0  0  0  0  0  0  0  0  0  0  0
  -16.2509   -5.8825    3.6983 C   0  0  0  0  0  0  0  0  0  0  0  0
  -17.2163   -4.9284    3.9325 C   0  0  0  0  0  0  0  0  0  0  0  0
  -18.5328   -5.3177    4.0836 C   0  0  0  0  0  0  0  0  0  0  0  0
  -18.8446   -6.6724    3.9938 C   0  0  0  0  0  0  0  0  0  0  0  0
  -17.8547   -7.5981    3.7590 C   0  0  0  0  0  0  0  0  0  0  0  0
  1  2  1  0  0  0
  2 19  1  0  0  0
 19 21  1  0  0  0
 21 26  1  0  0  0
 26 27  1  0  0  0
 27 28  1  0  0  0
 28 29  2  0  0  0
 29 30  1  0  0  0
 30 31  2  0  0  0
 31 32  1  0  0  0
 32 33  2  0  0  0
 21 22  1  0  0  0
 22 23  2  0  0  0
 22 24  1  0  0  0
  2  3  1  0  0  0
  3  4  2  0  0  0
  3  5  1  0  0  0
  5  6  1  0  0  0
  6  7  1  0  0  0
  7  8  2  0  0  0
  8  9  1  0  0  0
  9 10  2  0  0  0
 10 11  1  0  0  0
 11 12  2  0  0  0
 12 13  1  0  0  0
 13 14  1  0  0  0
 14 15  1  0  0  0
 15 16  2  0  0  0
 15 17  1  0  0  0
 33 28  1  0  0  0
 14  5  1  0  0  0
 12  7  1  0  0  0
 19 20  1  0  0  0
 24 25  1  0  0  0
 17 18  1  0  0  0
M  END
> <minimizedAffinity>
-5.38027

> <CNNscore>
0.2275757790

> <CNNaffinity>
6.3738636971

> <CNN_VS>
1.4505369663

> <CNNaffinity_variance>
0.1053545028

$$$$
[H]OC(=O)[C@@]1([H])N(C(=O)[C@@]([H])(N([H])[C@]([H])(C(=O)O[H])C([H])([H])C([H])([H])c2c([H])c([H])c([H])c([H])c2[H])C([H])([H])[H])C([H])([H])c2c([H])c([H])c([H])c([H])c2C1([H])[H]


 33 35  0  0  0  0  0  0  0  0999 V2000
  -13.0768   -6.2185    6.1096 C   0  0  0  0  0  0  0  0  0  0  0  0
  -13.3920   -6.9699    7.4127 C   0  0  0  0  0  0  0  0  0  0  0  0
  -12.1298   -7.0708    8.1506 C   0  0  0  0  0  0  0  0  0  0  0  0
  -11.8379   -6.0796    8.9064 O   0  0  0  0  0  0  0  0  0  0  0  0
  -11.2076   -8.1383    8.1164 N   0  0  0  0  0  0  0  0  0  0  0  0
   -9.9695   -7.9976    8.9178 C   0  0  0  0  0  0  0  0  0  0  0  0
   -8.8221   -8.0861    7.9403 C   0  0  0  0  0  0  0  0  0  0  0  0
   -7.7839   -7.1945    7.9036 C   0  0  0  0  0  0  0  0  0  0  0  0
   -6.7801   -7.3435    6.9328 C   0  0  0  0  0  0  0  0  0  0  0  0
   -6.8800   -8.3931    6.0448 C   0  0  0  0  0  0  0  0  0  0  0  0
   -7.9551   -9.2892    6.1089 C   0  0  0  0  0  0  0  0  0  0  0  0
   -8.9432   -9.1515    7.0572 C   0  0  0  0  0  0  0  0  0  0  0  0
  -10.0686  -10.0733    7.2005 C   0  0  0  0  0  0  0  0  0  0  0  0
  -11.3693   -9.3570    7.3752 C   0  0  0  0  0  0  0  0  0  0  0  0
  -12.3887  -10.2458    8.0050 C   0  0  0  0  0  0  0  0  0  0  0  0
  -13.0723  -10.9949    7.2890 O   0  0  0  0  0  0  0  0  0  0  0  0
  -12.5525  -10.2208    9.3599 O   0  0  0  0  0  0  0  0  0  0  0  0
  -11.7712  -10.5351    9.9330 H   0  0  0  0  0  0  0  0  0  0  0  0
  -14.3628   -6.1210    8.0947 N   0  0  0  0  0  0  0  0  0  0  0  0
  -14.4234   -6.4845    9.0799 H   0  0  0  0  0  0  0  0  0  0  0  0
  -15.6602   -6.3233    7.4926 C   0  0  0  0  0  0  0  0  0  0  0  0
  -16.0730   -7.7559    7.5616 C   0  0  0  0  0  0  0  0  0  0  0  0
  -15.2932   -8.6907    7.2511 O   0  0  0  0  0  0  0  0  0  0  0  0
  -17.3453   -8.1258    7.9750 O   0  0  0  0  0  0  0  0  0  0  0  0
  -18.1911   -7.6563    7.6862 H   0  0  0  0  0  0  0  0  0  0  0  0
  -15.7155   -5.8030    6.0788 C   0  0  0  0  0  0  0  0  0  0  0  0
  -16.8315   -6.4395    5.2843 C   0  0  0  0  0  0  0  0  0  0  0  0
  -16.3472   -7.5835    4.4726 C   0  0  0  0  0  0  0  0  0  0  0  0
  -17.1146   -8.7262    4.2846 C   0  0  0  0  0  0  0  0  0  0  0  0
  -16.6935   -9.8057    3.5400 C   0  0  0  0  0  0  0  0  0  0  0  0
  -15.4494   -9.7732    2.9408 C   0  0  0  0  0  0  0  0  0  0  0  0
  -14.6547   -8.6417    3.1098 C   0  0  0  0  0  0  0  0  0  0  0  0
  -15.1074   -7.5816    3.8603 C   0  0  0  0  0  0  0  0  0  0  0  0
  1  2  1  0  0  0
  2 19  1  0  0  0
 19 21  1  0  0  0
 21 26  1  0  0  0
 26 27  1  0  0  0
 27 28  1  0  0  0
 28 29  2  0  0  0
 29 30  1  0  0  0
 30 31  2  0  0  0
 31 32  1  0  0  0
 32 33  2  0  0  0
 21 22  1  0  0  0
 22 23  2  0  0  0
 22 24  1  0  0  0
  2  3  1  0  0  0
  3  4  2  0  0  0
  3  5  1  0  0  0
  5  6  1  0  0  0
  6  7  1  0  0  0
  7  8  2  0  0  0
  8  9  1  0  0  0
  9 10  2  0  0  0
 10 11  1  0  0  0
 11 12  2  0  0  0
 12 13  1  0  0  0
 13 14  1  0  0  0
 14 15  1  0  0  0
 15 16  2  0  0  0
 15 17  1  0  0  0
 33 28  1  0  0  0
 14  5  1  0  0  0
 12  7  1  0  0  0
 19 20  1  0  0  0
 24 25  1  0  0  0
 17 18  1  0  0  0
M  END
> <minimizedAffinity>
-1.91422

> <CNNscore>
0.2133931220

> <CNNaffinity>
6.1530137062

> <CNN_VS>
1.3130108118

> <CNNaffinity_variance>
0.2868834734

$$$$
[H]OC(=O)[C@@]1([H])N(C(=O)[C@@]([H])(N([H])[C@]([H])(C(=O)O[H])C([H])([H])C([H])([H])c2c([H])c([H])c([H])c([H])c2[H])C([H])([H])[H])C([H])([H])c2c([H])c([H])c([H])c([H])c2C1([H])[H]


 33 35  0  0  0  0  0  0  0  0999 V2000
   -5.9476   -5.8038    4.9954 C   0  0  0  0  0  0  0  0  0  0  0  0
   -4.7310   -5.8083    5.9346 C   0  0  0  0  0  0  0  0  0  0  0  0
   -3.8900   -4.6778    5.5314 C   0  0  0  0  0  0  0  0  0  0  0  0
   -4.2079   -3.5371    6.0180 O   0  0  0  0  0  0  0  0  0  0  0  0
   -2.7739   -4.7131    4.6689 N   0  0  0  0  0  0  0  0  0  0  0  0
   -2.1012   -3.4277    4.3689 C   0  0  0  0  0  0  0  0  0  0  0  0
   -2.1891   -3.2448    2.8726 C   0  0  0  0  0  0  0  0  0  0  0  0
   -2.6112   -2.0898    2.2711 C   0  0  0  0  0  0  0  0  0  0  0  0
   -2.6902   -2.0300    0.8703 C   0  0  0  0  0  0  0  0  0  0  0  0
   -2.3360   -3.1490    0.1471 C   0  0  0  0  0  0  0  0  0  0  0  0
   -1.9073   -4.3161    0.7927 C   0  0  0  0  0  0  0  0  0  0  0  0
   -1.8260   -4.3838    2.1650 C   0  0  0  0  0  0  0  0  0  0  0  0
   -1.3510   -5.5573    2.8959 C   0  0  0  0  0  0  0  0  0  0  0  0
   -2.2268   -5.8926    4.0603 C   0  0  0  0  0  0  0  0  0  0  0  0
   -1.4956   -6.7295    5.0558 C   0  0  0  0  0  0  0  0  0  0  0  0
   -1.2918   -7.9296    4.8130 O   0  0  0  0  0  0  0  0  0  0  0  0
   -1.0619   -6.1604    6.2182 O   0  0  0  0  0  0  0  0  0  0  0  0
   -0.3503   -5.4348    6.1486 H   0  0  0  0  0  0  0  0  0  0  0  0
   -5.3000   -5.6250    7.2653 N   0  0  0  0  0  0  0  0  0  0  0  0
   -4.6892   -4.9164    7.7462 H   0  0  0  0  0  0  0  0  0  0  0  0
   -5.1674   -6.8611    8.0011 C   0  0  0  0  0  0  0  0  0  0  0  0
   -3.8495   -7.5102    7.7384 C   0  0  0  0  0  0  0  0  0  0  0  0
   -2.7963   -7.1389    8.3140 O   0  0  0  0  0  0  0  0  0  0  0  0
   -3.7239   -8.5614    6.8408 O   0  0  0  0  0  0  0  0  0  0  0  0
   -4.1789   -8.5915    5.9400 H   0  0  0  0  0  0  0  0  0  0  0  0
   -6.3096   -7.8068    7.7297 C   0  0  0  0  0  0  0  0  0  0  0  0
   -7.6526   -7.1424    7.9212 C   0  0  0  0  0  0  0  0  0  0  0  0
   -8.7734   -8.0784    7.6561 C   0  0  0  0  0  0  0  0  0  0  0  0
   -8.5575   -9.3625    7.1718 C   0  0  0  0  0  0  0  0  0  0  0  0
   -9.5751  -10.2538    6.9129 C   0  0  0  0  0  0  0  0  0  0  0  0
  -10.8838   -9.8743    7.1385 C   0  0  0  0  0  0  0  0  0  0  0  0
  -11.1347   -8.5929    7.6241 C   0  0  0  0  0  0  0  0  0  0  0  0
  -10.0937   -7.7286    7.8716 C   0  0  0  0  0  0  0  0  0  0  0  0
  1  2  1  0  0  0
  2 19  1  0  0  0
 19 21  1  0  0  0
 21 26  1  0  0  0
 26 27  1  0  0  0
 27 28  1  0  0  0
 28 29  2  0  0  0
 29 30  1  0  0  0
 30 31  2  0  0  0
 31 32  1  0  0  0
 32 33  2  0  0  0
 21 22  1  0  0  0
 22 23  2  0  0  0
 22 24  1  0  0  0
  2  3  1  0  0  0
  3  4  2  0  0  0
  3  5  1  0  0  0
  5  6  1  0  0  0
  6  7  1  0  0  0
  7  8  2  0  0  0
  8  9  1  0  0  0
  9 10  2  0  0  0
 10 11  1  0  0  0
 11 12  2  0  0  0
 12 13  1  0  0  0
 13 14  1  0  0  0
 14 15  1  0  0  0
 15 16  2  0  0  0
 15 17  1  0  0  0
 33 28  1  0  0  0
 14  5  1  0  0  0
 12  7  1  0  0  0
 19 20  1  0  0  0
 24 25  1  0  0  0
 17 18  1  0  0  0
M  END
> <minimizedAffinity>
-5.74102

> <CNNscore>
0.1651366949

> <CNNaffinity>
4.8517656326

> <CNN_VS>
0.8012045622

> <CNNaffinity_variance>
0.1462928951

$$$$
[H]OC(=O)[C@@]1([H])N(C(=O)[C@@]([H])(N([H])[C@]([H])(C(=O)O[H])C([H])([H])C([H])([H])c2c([H])c([H])c([H])c([H])c2[H])C([H])([H])[H])C([H])([H])c2c([H])c([H])c([H])c([H])c2C1([H])[H]


 33 35  0  0  0  0  0  0  0  0999 V2000
  -12.0836   -6.1893    9.0259 C   0  0  0  0  0  0  0  0  0  0  0  0
  -11.3188   -7.1406    8.0920 C   0  0  0  0  0  0  0  0  0  0  0  0
   -9.9807   -7.3020    8.6676 C   0  0  0  0  0  0  0  0  0  0  0  0
   -9.7920   -6.7655    9.8146 O   0  0  0  0  0  0  0  0  0  0  0  0
   -8.8848   -7.9820    8.0950 N   0  0  0  0  0  0  0  0  0  0  0  0
   -7.6082   -7.9754    8.8467 C   0  0  0  0  0  0  0  0  0  0  0  0
   -6.5907   -7.3197    7.9440 C   0  0  0  0  0  0  0  0  0  0  0  0
   -5.7512   -6.3163    8.3470 C   0  0  0  0  0  0  0  0  0  0  0  0
   -4.8615   -5.7472    7.4214 C   0  0  0  0  0  0  0  0  0  0  0  0
   -4.8680   -6.2260    6.1287 C   0  0  0  0  0  0  0  0  0  0  0  0
   -5.7394   -7.2548    5.7476 C   0  0  0  0  0  0  0  0  0  0  0  0
   -6.6143   -7.8191    6.6479 C   0  0  0  0  0  0  0  0  0  0  0  0
   -7.5203   -8.9192    6.3230 C   0  0  0  0  0  0  0  0  0  0  0  0
   -8.9020   -8.6889    6.8457 C   0  0  0  0  0  0  0  0  0  0  0  0
   -9.6524   -9.9735    6.9576 C   0  0  0  0  0  0  0  0  0  0  0  0
  -10.7741  -10.0734    6.4353 O   0  0  0  0  0  0  0  0  0  0  0  0
   -9.0919  -11.0190    7.6327 O   0  0  0  0  0  0  0  0  0  0  0  0
   -8.2430  -11.4272    7.2449 H   0  0  0  0  0  0  0  0  0  0  0  0
  -12.0876   -8.3799    8.1285 N   0  0  0  0  0  0  0  0  0  0  0  0
  -11.6960   -8.9861    7.3633 H   0  0  0  0  0  0  0  0  0  0  0  0
  -13.4567   -8.0873    7.7725 C   0  0  0  0  0  0  0  0  0  0  0  0
  -14.3434   -9.2632    8.0145 C   0  0  0  0  0  0  0  0  0  0  0  0
  -13.9254  -10.4443    7.9218 O   0  0  0  0  0  0  0  0  0  0  0  0
  -15.6797   -9.1069    8.3559 O   0  0  0  0  0  0  0  0  0  0  0  0
  -16.2984   -8.4377    7.9216 H   0  0  0  0  0  0  0  0  0  0  0  0
  -13.5790   -7.5893    6.3549 C   0  0  0  0  0  0  0  0  0  0  0  0
  -14.5273   -6.4186    6.2458 C   0  0  0  0  0  0  0  0  0  0  0  0
  -15.7015   -6.7376    5.3962 C   0  0  0  0  0  0  0  0  0  0  0  0
  -16.6040   -5.7604    4.9957 C   0  0  0  0  0  0  0  0  0  0  0  0
  -17.7045   -6.0238    4.2103 C   0  0  0  0  0  0  0  0  0  0  0  0
  -17.9431   -7.3169    3.7878 C   0  0  0  0  0  0  0  0  0  0  0  0
  -17.0569   -8.3207    4.1721 C   0  0  0  0  0  0  0  0  0  0  0  0
  -15.9677   -8.0215    4.9572 C   0  0  0  0  0  0  0  0  0  0  0  0
  1  2  1  0  0  0
  2 19  1  0  0  0
 19 21  1  0  0  0
 21 26  1  0  0  0
 26 27  1  0  0  0
 27 28  1  0  0  0
 28 29  2  0  0  0
 29 30  1  0  0  0
 30 31  2  0  0  0
 31 32  1  0  0  0
 32 33  2  0  0  0
 21 22  1  0  0  0
 22 23  2  0  0  0
 22 24  1  0  0  0
  2  3  1  0  0  0
  3  4  2  0  0  0
  3  5  1  0  0  0
  5  6  1  0  0  0
  6  7  1  0  0  0
  7  8  2  0  0  0
  8  9  1  0  0  0
  9 10  2  0  0  0
 10 11  1  0  0  0
 11 12  2  0  0  0
 12 13  1  0  0  0
 13 14  1  0  0  0
 14 15  1  0  0  0
 15 16  2  0  0  0
 15 17  1  0  0  0
 33 28  1  0  0  0
 14  5  1  0  0  0
 12  7  1  0  0  0
 19 20  1  0  0  0
 24 25  1  0  0  0
 17 18  1  0  0  0
M  END
> <minimizedAffinity>
-7.91643

> <CNNscore>
0.1306295991

> <CNNaffinity>
6.0007562637

> <CNN_VS>
0.7838763595

> <CNNaffinity_variance>
0.0344382338

$$$$
[H]OC(=O)[C@@]1([H])N(C(=O)[C@@]([H])(N([H])[C@]([H])(C(=O)O[H])C([H])([H])C([H])([H])c2c([H])c([H])c([H])c([H])c2[H])C([H])([H])[H])C([H])([H])c2c([H])c([H])c([H])c([H])c2C1([H])[H]


 33 35  0  0  0  0  0  0  0  0999 V2000
   -5.6630   -6.5348    5.9129 C   0  0  0  0  0  0  0  0  0  0  0  0
   -5.8842   -7.1791    7.2905 C   0  0  0  0  0  0  0  0  0  0  0  0
   -5.0097   -6.4684    8.2275 C   0  0  0  0  0  0  0  0  0  0  0  0
   -5.5653   -6.0272    9.2932 O   0  0  0  0  0  0  0  0  0  0  0  0
   -3.6284   -6.2203    8.0804 N   0  0  0  0  0  0  0  0  0  0  0  0
   -2.9578   -5.4366    9.1439 C   0  0  0  0  0  0  0  0  0  0  0  0
   -2.3913   -4.2098    8.4701 C   0  0  0  0  0  0  0  0  0  0  0  0
   -2.5652   -2.9357    8.9396 C   0  0  0  0  0  0  0  0  0  0  0  0
   -2.0263   -1.8559    8.2214 C   0  0  0  0  0  0  0  0  0  0  0  0
   -1.3356   -2.1235    7.0587 C   0  0  0  0  0  0  0  0  0  0  0  0
   -1.1745   -3.4392    6.6050 C   0  0  0  0  0  0  0  0  0  0  0  0
   -1.6985   -4.5038    7.3025 C   0  0  0  0  0  0  0  0  0  0  0  0
   -1.5328   -5.9001    6.9029 C   0  0  0  0  0  0  0  0  0  0  0  0
   -2.8117   -6.6698    6.9887 C   0  0  0  0  0  0  0  0  0  0  0  0
   -2.5486   -8.1360    7.0736 C   0  0  0  0  0  0  0  0  0  0  0  0
   -2.8299   -8.8641    6.1083 O   0  0  0  0  0  0  0  0  0  0  0  0
   -2.0018   -8.6527    8.2124 O   0  0  0  0  0  0  0  0  0  0  0  0
   -1.0552   -8.3625    8.4522 H   0  0  0  0  0  0  0  0  0  0  0  0
   -7.2970   -6.9514    7.5744 N   0  0  0  0  0  0  0  0  0  0  0  0
   -7.3295   -6.1556    8.2614 H   0  0  0  0  0  0  0  0  0  0  0  0
   -7.8273   -8.1120    8.2515 C   0  0  0  0  0  0  0  0  0  0  0  0
   -7.4756   -9.3696    7.5289 C   0  0  0  0  0  0  0  0  0  0  0  0
   -7.3135   -9.4006    6.2835 O   0  0  0  0  0  0  0  0  0  0  0  0
   -7.3093  -10.5718    8.2025 O   0  0  0  0  0  0  0  0  0  0  0  0
   -7.9176  -10.8933    8.9414 H   0  0  0  0  0  0  0  0  0  0  0  0
   -9.3140   -8.0054    8.4775 C   0  0  0  0  0  0  0  0  0  0  0  0
   -9.8148   -6.5922    8.2945 C   0  0  0  0  0  0  0  0  0  0  0  0
  -11.1484   -6.3952    8.9150 C   0  0  0  0  0  0  0  0  0  0  0  0
  -11.3213   -5.6097   10.0477 C   0  0  0  0  0  0  0  0  0  0  0  0
  -12.5441   -5.4092   10.6492 C   0  0  0  0  0  0  0  0  0  0  0  0
  -13.6688   -6.0090   10.1173 C   0  0  0  0  0  0  0  0  0  0  0  0
  -13.5297   -6.8033    8.9813 C   0  0  0  0  0  0  0  0  0  0  0  0
  -12.2928   -6.9817    8.4066 C   0  0  0  0  0  0  0  0  0  0  0  0
  1  2  1  0  0  0
  2 19  1  0  0  0
 19 21  1  0  0  0
 21 26  1  0  0  0
 26 27  1  0  0  0
 27 28  1  0  0  0
 28 29  2  0  0  0
 29 30  1  0  0  0
 30 31  2  0  0  0
 31 32  1  0  0  0
 32 33  2  0  0  0
 21 22  1  0  0  0
 22 23  2  0  0  0
 22 24  1  0  0  0
  2  3  1  0  0  0
  3  4  2  0  0  0
  3  5  1  0  0  0
  5  6  1  0  0  0
  6  7  1  0  0  0
  7  8  2  0  0  0
  8  9  1  0  0  0
  9 10  2  0  0  0
 10 11  1  0  0  0
 11 12  2  0  0  0
 12 13  1  0  0  0
 13 14  1  0  0  0
 14 15  1  0  0  0
 15 16  2  0  0  0
 15 17  1  0  0  0
 33 28  1  0  0  0
 14  5  1  0  0  0
 12  7  1  0  0  0
 19 20  1  0  0  0
 24 25  1  0  0  0
 17 18  1  0  0  0
M  END
> <minimizedAffinity>
-6.31932

> <CNNscore>
0.1212305874

> <CNNaffinity>
5.1731467247

> <CNN_VS>
0.6271436214

> <CNNaffinity_variance>
0.1715132296

$$$$
[H]OC(=O)[C@@]1([H])N(C(=O)[C@@]([H])(N([H])[C@]([H])(C(=O)O[H])C([H])([H])C([H])([H])c2c([H])c([H])c([H])c([H])c2[H])C([H])([H])[H])C([H])([H])c2c([H])c([H])c([H])c([H])c2C1([H])[H]


 33 35  0  0  0  0  0  0  0  0999 V2000
   -8.2211   -5.9392    5.0192 C   0  0  0  0  0  0  0  0  0  0  0  0
   -7.3068   -6.7440    5.9565 C   0  0  0  0  0  0  0  0  0  0  0  0
   -5.9427   -6.2623    5.7217 C   0  0  0  0  0  0  0  0  0  0  0  0
   -5.7869   -5.4743    4.7248 O   0  0  0  0  0  0  0  0  0  0  0  0
   -4.7897   -6.5732    6.4734 N   0  0  0  0  0  0  0  0  0  0  0  0
   -3.5018   -6.0000    6.0177 C   0  0  0  0  0  0  0  0  0  0  0  0
   -2.5983   -7.1737    5.7242 C   0  0  0  0  0  0  0  0  0  0  0  0
   -1.8752   -7.3067    4.5694 C   0  0  0  0  0  0  0  0  0  0  0  0
   -1.0886   -8.4538    4.3758 C   0  0  0  0  0  0  0  0  0  0  0  0
   -1.0749   -9.4121    5.3667 C   0  0  0  0  0  0  0  0  0  0  0  0
   -1.8258   -9.2460    6.5378 C   0  0  0  0  0  0  0  0  0  0  0  0
   -2.5991   -8.1249    6.7367 C   0  0  0  0  0  0  0  0  0  0  0  0
   -3.3741   -7.8749    7.9506 C   0  0  0  0  0  0  0  0  0  0  0  0
   -4.7576   -7.3939    7.6508 C   0  0  0  0  0  0  0  0  0  0  0  0
   -5.3431   -6.6840    8.8252 C   0  0  0  0  0  0  0  0  0  0  0  0
   -6.2951   -7.1955    9.4360 O   0  0  0  0  0  0  0  0  0  0  0  0
   -4.8211   -5.4827    9.2091 O   0  0  0  0  0  0  0  0  0  0  0  0
   -3.8613   -5.4754    9.5503 H   0  0  0  0  0  0  0  0  0  0  0  0
   -7.7836   -6.4177    7.2960 N   0  0  0  0  0  0  0  0  0  0  0  0
   -6.9482   -6.0509    7.8193 H   0  0  0  0  0  0  0  0  0  0  0  0
   -8.1885   -7.6379    7.9547 C   0  0  0  0  0  0  0  0  0  0  0  0
   -7.8890   -8.8337    7.1133 C   0  0  0  0  0  0  0  0  0  0  0  0
   -6.7397   -9.3375    7.0549 O   0  0  0  0  0  0  0  0  0  0  0  0
   -8.8720   -9.4499    6.3513 O   0  0  0  0  0  0  0  0  0  0  0  0
   -9.5584   -8.9502    5.8050 H   0  0  0  0  0  0  0  0  0  0  0  0
   -9.6383   -7.6048    8.3665 C   0  0  0  0  0  0  0  0  0  0  0  0
  -10.1343   -6.1941    8.5799 C   0  0  0  0  0  0  0  0  0  0  0  0
  -11.4306   -6.1689    9.3020 C   0  0  0  0  0  0  0  0  0  0  0  0
  -11.7644   -5.1401   10.1739 C   0  0  0  0  0  0  0  0  0  0  0  0
  -12.9570   -5.0886   10.8610 C   0  0  0  0  0  0  0  0  0  0  0  0
  -13.8829   -6.0992   10.6907 C   0  0  0  0  0  0  0  0  0  0  0  0
  -13.5789   -7.1460    9.8232 C   0  0  0  0  0  0  0  0  0  0  0  0
  -12.3779   -7.1652    9.1530 C   0  0  0  0  0  0  0  0  0  0  0  0
  1  2  1  0  0  0
  2 19  1  0  0  0
 19 21  1  0  0  0
 21 26  1  0  0  0
 26 27  1  0  0  0
 27 28  1  0  0  0
 28 29  2  0  0  0
 29 30  1  0  0  0
 30 31  2  0  0  0
 31 32  1  0  0  0
 32 33  2  0  0  0
 21 22  1  0  0  0
 22 23  2  0  0  0
 22 24  1  0  0  0
  2  3  1  0  0  0
  3  4  2  0  0  0
  3  5  1  0  0  0
  5  6  1  0  0  0
  6  7  1  0  0  0
  7  8  2  0  0  0
  8  9  1  0  0  0
  9 10  2  0  0  0
 10 11  1  0  0  0
 11 12  2  0  0  0
 12 13  1  0  0  0
 13 14  1  0  0  0
 14 15  1  0  0  0
 15 16  2  0  0  0
 15 17  1  0  0  0
 33 28  1  0  0  0
 14  5  1  0  0  0
 12  7  1  0  0  0
 19 20  1  0  0  0
 24 25  1  0  0  0
 17 18  1  0  0  0
M  END
> <minimizedAffinity>
-5.12918

> <CNNscore>
0.1206360683

> <CNNaffinity>
5.1244630814

> <CNN_VS>
0.6181950569

> <CNNaffinity_variance>
0.1951350868

$$$$
[H]OC(=O)[C@@]1([H])N(C(=O)[C@@]([H])(N([H])[C@]([H])(C(=O)O[H])C([H])([H])C([H])([H])c2c([H])c([H])c([H])c([H])c2[H])C([H])([H])[H])C([H])([H])c2c([H])c([H])c([H])c([H])c2C1([H])[H]


 33 35  0  0  0  0  0  0  0  0999 V2000
  -12.9426   -5.1774    9.6716 C   0  0  0  0  0  0  0  0  0  0  0  0
  -12.5646   -6.3231    8.7194 C   0  0  0  0  0  0  0  0  0  0  0  0
  -11.2662   -6.8296    9.1727 C   0  0  0  0  0  0  0  0  0  0  0  0
  -10.7513   -6.2360   10.1835 O   0  0  0  0  0  0  0  0  0  0  0  0
  -10.5279   -7.8958    8.6166 N   0  0  0  0  0  0  0  0  0  0  0  0
   -9.2097   -8.2018    9.2196 C   0  0  0  0  0  0  0  0  0  0  0  0
   -8.1923   -8.0342    8.1165 C   0  0  0  0  0  0  0  0  0  0  0  0
   -7.0377   -7.3110    8.2503 C   0  0  0  0  0  0  0  0  0  0  0  0
   -6.1702   -7.1864    7.1531 C   0  0  0  0  0  0  0  0  0  0  0  0
   -6.5185   -7.8039    5.9708 C   0  0  0  0  0  0  0  0  0  0  0  0
   -7.7073   -8.5377    5.8661 C   0  0  0  0  0  0  0  0  0  0  0  0
   -8.5634   -8.6659    6.9363 C   0  0  0  0  0  0  0  0  0  0  0  0
   -9.7978   -9.4481    6.9026 C   0  0  0  0  0  0  0  0  0  0  0  0
  -10.9485   -8.7178    7.5175 C   0  0  0  0  0  0  0  0  0  0  0  0
  -12.0255   -9.6655    7.9275 C   0  0  0  0  0  0  0  0  0  0  0  0
  -12.6132  -10.3339    7.0623 O   0  0  0  0  0  0  0  0  0  0  0  0
  -12.3464   -9.7820    9.2491 O   0  0  0  0  0  0  0  0  0  0  0  0
  -11.6343  -10.1563    9.8738 H   0  0  0  0  0  0  0  0  0  0  0  0
  -13.6300   -7.3045    8.8924 N   0  0  0  0  0  0  0  0  0  0  0  0
  -13.1998   -8.2398    8.6769 H   0  0  0  0  0  0  0  0  0  0  0  0
  -14.6450   -7.0691    7.8918 C   0  0  0  0  0  0  0  0  0  0  0  0
  -15.6925   -8.1317    7.9211 C   0  0  0  0  0  0  0  0  0  0  0  0
  -16.9175   -7.8632    7.8460 O   0  0  0  0  0  0  0  0  0  0  0  0
  -15.3613   -9.4749    8.0328 O   0  0  0  0  0  0  0  0  0  0  0  0
  -14.6543   -9.8315    8.6592 H   0  0  0  0  0  0  0  0  0  0  0  0
  -14.0555   -6.9163    6.5127 C   0  0  0  0  0  0  0  0  0  0  0  0
  -14.6937   -5.7815    5.7466 C   0  0  0  0  0  0  0  0  0  0  0  0
  -15.9006   -6.2262    5.0064 C   0  0  0  0  0  0  0  0  0  0  0  0
  -17.0283   -5.4229    4.8925 C   0  0  0  0  0  0  0  0  0  0  0  0
  -18.1647   -5.8068    4.2155 C   0  0  0  0  0  0  0  0  0  0  0  0
  -18.2084   -7.0482    3.6115 C   0  0  0  0  0  0  0  0  0  0  0  0
  -17.0938   -7.8784    3.7071 C   0  0  0  0  0  0  0  0  0  0  0  0
  -15.9754   -7.4624    4.3913 C   0  0  0  0  0  0  0  0  0  0  0  0
  1  2  1  0  0  0
  2 19  1  0  0  0
 19 21  1  0  0  0
 21 26  1  0  0  0
 26 27  1  0  0  0
 27 28  1  0  0  0
 28 29  2  0  0  0
 29 30  1  0  0  0
 30 31  2  0  0  0
 31 32  1  0  0  0
 32 33  2  0  0  0
 21 22  1  0  0  0
 22 23  2  0  0  0
 22 24  1  0  0  0
  2  3  1  0  0  0
  3  4  2  0  0  0
  3  5  1  0  0  0
  5  6  1  0  0  0
  6  7  1  0  0  0
  7  8  2  0  0  0
  8  9  1  0  0  0
  9 10  2  0  0  0
 10 11  1  0  0  0
 11 12  2  0  0  0
 12 13  1  0  0  0
 13 14  1  0  0  0
 14 15  1  0  0  0
 15 16  2  0  0  0
 15 17  1  0  0  0
 33 28  1  0  0  0
 14  5  1  0  0  0
 12  7  1  0  0  0
 19 20  1  0  0  0
 24 25  1  0  0  0
 17 18  1  0  0  0
M  END
> <minimizedAffinity>
-7.52084

> <CNNscore>
0.1205066517

> <CNNaffinity>
6.0476541519

> <CNN_VS>
0.7287825346

> <CNNaffinity_variance>
0.0185817648

$$$$
[H]OC(=O)[C@@]1([H])N(c2nc(C#N)nc([H])c2[H])C([H])([H])[C@@]([H])(S(=O)(=O)c2c([H])c([H])c([H])c([H])c2C(F)(F)F)C1([H])[H]


 30 32  0  0  0  0  0  0  0  0999 V2000
  -13.3750   -7.7558    8.3647 N   0  0  0  0  0  0  0  0  0  0  0  0
  -13.9073   -7.4625    7.0513 C   0  0  0  0  0  0  0  0  0  0  0  0
  -15.4255   -7.6319    7.3352 C   0  0  0  0  0  0  0  0  0  0  0  0
  -15.4135   -8.9185    8.0500 C   0  0  0  0  0  0  0  0  0  0  0  0
  -14.1106   -8.8679    8.8712 C   0  0  0  0  0  0  0  0  0  0  0  0
  -11.3723   -5.9986   10.8763 C   0  0  0  0  0  0  0  0  0  0  0  0
  -10.2735   -5.6542   10.1816 N   0  0  0  0  0  0  0  0  0  0  0  0
  -10.1343   -5.9763    8.8703 C   0  0  0  0  0  0  0  0  0  0  0  0
  -11.1796   -6.6722    8.2993 C   0  0  0  0  0  0  0  0  0  0  0  0
  -12.3179   -7.0389    8.9860 C   0  0  0  0  0  0  0  0  0  0  0  0
  -12.3732   -6.6777   10.2870 N   0  0  0  0  0  0  0  0  0  0  0  0
  -11.5286   -5.3391   13.3937 N   0  0  0  0  0  0  0  0  0  0  0  0
  -11.4613   -5.6298   12.2594 C   0  0  0  0  0  0  0  0  0  0  0  0
  -13.3929  -10.1479    8.7827 C   0  0  0  0  0  0  0  0  0  0  0  0
  -12.4872  -10.4102    9.5992 O   0  0  0  0  0  0  0  0  0  0  0  0
  -13.7100  -11.0649    7.8050 O   0  0  0  0  0  0  0  0  0  0  0  0
  -13.0300  -11.4650    7.1637 H   0  0  0  0  0  0  0  0  0  0  0  0
  -16.2711   -7.6824    5.7366 S   0  0  0  0  0  0  0  0  0  0  0  0
  -15.5748   -8.7778    4.9838 O   0  0  0  0  0  0  0  0  0  0  0  0
  -17.6682   -8.0576    6.0889 O   0  0  0  0  0  0  0  0  0  0  0  0
  -16.0971   -6.1693    4.9122 C   0  0  0  0  0  0  0  0  0  0  0  0
  -15.1173   -5.3212    5.3467 C   0  0  0  0  0  0  0  0  0  0  0  0
  -14.9300   -4.1164    4.7048 C   0  0  0  0  0  0  0  0  0  0  0  0
  -15.7052   -3.7462    3.6359 C   0  0  0  0  0  0  0  0  0  0  0  0
  -16.6771   -4.6254    3.2303 C   0  0  0  0  0  0  0  0  0  0  0  0
  -16.9108   -5.8633    3.8475 C   0  0  0  0  0  0  0  0  0  0  0  0
  -17.9767   -6.7233    3.3338 C   0  0  0  0  0  0  0  0  0  0  0  0
  -19.2175   -6.5460    3.9014 F   0  0  0  0  0  0  0  0  0  0  0  0
  -17.6301   -8.0559    3.2376 F   0  0  0  0  0  0  0  0  0  0  0  0
  -18.1924   -6.3640    1.9919 F   0  0  0  0  0  0  0  0  0  0  0  0
 12 13  3  0  0  0
 13  6  1  0  0  0
  6  7  2  0  0  0
  7  8  1  0  0  0
  8  9  2  0  0  0
  9 10  1  0  0  0
 10  1  1  0  0  0
  1  2  1  0  0  0
  2  3  1  0  0  0
  3 18  1  0  0  0
 18 19  2  0  0  0
 18 20  2  0  0  0
 18 21  1  0  0  0
 21 22  2  0  0  0
 22 23  1  0  0  0
 23 24  2  0  0  0
 24 25  1  0  0  0
 25 26  2  0  0  0
 26 27  1  0  0  0
 27 28  1  0  0  0
 27 29  1  0  0  0
 27 30  1  0  0  0
  3  4  1  0  0  0
  4  5  1  0  0  0
  5 14  1  0  0  0
 14 15  2  0  0  0
 14 16  1  0  0  0
 10 11  2  0  0  0
 11  6  1  0  0  0
  5  1  1  0  0  0
 26 21  1  0  0  0
 16 17  1  0  0  0
M  END
> <minimizedAffinity>
-3.39016

> <CNNscore>
0.2100435644

> <CNNaffinity>
6.1403126717

> <CNN_VS>
1.2897331715

> <CNNaffinity_variance>
0.1849728376

$$$$
[H]OC(=O)[C@@]1([H])N(c2nc(C#N)nc([H])c2[H])C([H])([H])[C@@]([H])(S(=O)(=O)c2c([H])c([H])c([H])c([H])c2C(F)(F)F)C1([H])[H]


 30 32  0  0  0  0  0  0  0  0999 V2000
  -13.7101   -7.6327    8.4468 N   0  0  0  0  0  0  0  0  0  0  0  0
  -14.4190   -7.1473    7.2823 C   0  0  0  0  0  0  0  0  0  0  0  0
  -15.8817   -7.4298    7.7237 C   0  0  0  0  0  0  0  0  0  0  0  0
  -15.7458   -8.8163    8.1987 C   0  0  0  0  0  0  0  0  0  0  0  0
  -14.3466   -8.8458    8.8436 C   0  0  0  0  0  0  0  0  0  0  0  0
  -11.5479   -5.9949   10.9063 C   0  0  0  0  0  0  0  0  0  0  0  0
  -10.4418   -5.7300   10.1889 N   0  0  0  0  0  0  0  0  0  0  0  0
  -10.3489   -6.0704    8.8781 C   0  0  0  0  0  0  0  0  0  0  0  0
  -11.4488   -6.6990    8.3322 C   0  0  0  0  0  0  0  0  0  0  0  0
  -12.5961   -6.9836    9.0426 C   0  0  0  0  0  0  0  0  0  0  0  0
  -12.6028   -6.6098   10.3412 N   0  0  0  0  0  0  0  0  0  0  0  0
  -11.6127   -5.3077   13.4204 N   0  0  0  0  0  0  0  0  0  0  0  0
  -11.5863   -5.6107   12.2876 C   0  0  0  0  0  0  0  0  0  0  0  0
  -13.6185  -10.0594    8.4453 C   0  0  0  0  0  0  0  0  0  0  0  0
  -12.6618  -10.4646    9.1353 O   0  0  0  0  0  0  0  0  0  0  0  0
  -13.9818  -10.7571    7.3146 O   0  0  0  0  0  0  0  0  0  0  0  0
  -13.3365  -10.9950    6.5658 H   0  0  0  0  0  0  0  0  0  0  0  0
  -16.9312   -7.2492    6.2612 S   0  0  0  0  0  0  0  0  0  0  0  0
  -18.0581   -8.2124    6.4927 O   0  0  0  0  0  0  0  0  0  0  0  0
  -17.3918   -5.8350    6.3309 O   0  0  0  0  0  0  0  0  0  0  0  0
  -16.0521   -7.6710    4.8300 C   0  0  0  0  0  0  0  0  0  0  0  0
  -16.0404   -8.9866    4.4594 C   0  0  0  0  0  0  0  0  0  0  0  0
  -15.3715   -9.3625    3.3149 C   0  0  0  0  0  0  0  0  0  0  0  0
  -14.7151   -8.4452    2.5349 C   0  0  0  0  0  0  0  0  0  0  0  0
  -14.7511   -7.1352    2.9408 C   0  0  0  0  0  0  0  0  0  0  0  0
  -15.4159   -6.6983    4.0962 C   0  0  0  0  0  0  0  0  0  0  0  0
  -15.3883   -5.2760    4.4368 C   0  0  0  0  0  0  0  0  0  0  0  0
  -14.9018   -4.9671    5.6863 F   0  0  0  0  0  0  0  0  0  0  0  0
  -16.5589   -4.6037    4.1492 F   0  0  0  0  0  0  0  0  0  0  0  0
  -14.4609   -4.6595    3.5788 F   0  0  0  0  0  0  0  0  0  0  0  0
 12 13  3  0  0  0
 13  6  1  0  0  0
  6  7  2  0  0  0
  7  8  1  0  0  0
  8  9  2  0  0  0
  9 10  1  0  0  0
 10  1  1  0  0  0
  1  2  1  0  0  0
  2  3  1  0  0  0
  3 18  1  0  0  0
 18 19  2  0  0  0
 18 20  2  0  0  0
 18 21  1  0  0  0
 21 22  2  0  0  0
 22 23  1  0  0  0
 23 24  2  0  0  0
 24 25  1  0  0  0
 25 26  2  0  0  0
 26 27  1  0  0  0
 27 28  1  0  0  0
 27 29  1  0  0  0
 27 30  1  0  0  0
  3  4  1  0  0  0
  4  5  1  0  0  0
  5 14  1  0  0  0
 14 15  2  0  0  0
 14 16  1  0  0  0
 10 11  2  0  0  0
 11  6  1  0  0  0
  5  1  1  0  0  0
 26 21  1  0  0  0
 16 17  1  0  0  0
M  END
> <minimizedAffinity>
-2.64269

> <CNNscore>
0.1791926175

> <CNNaffinity>
6.1269369125

> <CNN_VS>
1.0979018211

> <CNNaffinity_variance>
0.0347897224

$$$$
[H]OC(=O)[C@@]1([H])N(c2nc(C#N)nc([H])c2[H])C([H])([H])[C@@]([H])(S(=O)(=O)c2c([H])c([H])c([H])c([H])c2C(F)(F)F)C1([H])[H]


 30 32  0  0  0  0  0  0  0  0999 V2000
   -4.8169   -6.3223    8.4641 N   0  0  0  0  0  0  0  0  0  0  0  0
   -6.2102   -5.9314    8.4432 C   0  0  0  0  0  0  0  0  0  0  0  0
   -6.8765   -7.3276    8.2994 C   0  0  0  0  0  0  0  0  0  0  0  0
   -6.0684   -7.8889    7.2047 C   0  0  0  0  0  0  0  0  0  0  0  0
   -4.6557   -7.3349    7.4726 C   0  0  0  0  0  0  0  0  0  0  0  0
   -3.2278   -4.7694   11.3743 C   0  0  0  0  0  0  0  0  0  0  0  0
   -1.9381   -4.7029   10.9991 N   0  0  0  0  0  0  0  0  0  0  0  0
   -1.5281   -5.1580    9.7878 C   0  0  0  0  0  0  0  0  0  0  0  0
   -2.5067   -5.6881    8.9727 C   0  0  0  0  0  0  0  0  0  0  0  0
   -3.8362   -5.7696    9.3301 C   0  0  0  0  0  0  0  0  0  0  0  0
   -4.1562   -5.2931   10.5534 N   0  0  0  0  0  0  0  0  0  0  0  0
   -3.9092   -3.8551   13.7188 N   0  0  0  0  0  0  0  0  0  0  0  0
   -3.5997   -4.2719   12.6671 C   0  0  0  0  0  0  0  0  0  0  0  0
   -4.0423   -6.8560    6.2252 C   0  0  0  0  0  0  0  0  0  0  0  0
   -4.6440   -6.0248    5.5162 O   0  0  0  0  0  0  0  0  0  0  0  0
   -2.8060   -7.3160    5.8287 O   0  0  0  0  0  0  0  0  0  0  0  0
   -2.6210   -7.7236    4.9158 H   0  0  0  0  0  0  0  0  0  0  0  0
   -8.6131   -7.0552    7.8713 S   0  0  0  0  0  0  0  0  0  0  0  0
   -9.2310   -6.5426    9.1388 O   0  0  0  0  0  0  0  0  0  0  0  0
   -8.5558   -6.0017    6.8207 O   0  0  0  0  0  0  0  0  0  0  0  0
   -9.3573   -8.5423    7.3876 C   0  0  0  0  0  0  0  0  0  0  0  0
   -8.5459   -9.5232    6.8898 C   0  0  0  0  0  0  0  0  0  0  0  0
   -9.0939  -10.7302    6.5138 C   0  0  0  0  0  0  0  0  0  0  0  0
  -10.4388  -10.9728    6.6278 C   0  0  0  0  0  0  0  0  0  0  0  0
  -11.2187   -9.9632    7.1324 C   0  0  0  0  0  0  0  0  0  0  0  0
  -10.7133   -8.7163    7.5296 C   0  0  0  0  0  0  0  0  0  0  0  0
  -11.6366   -7.7096    8.0527 C   0  0  0  0  0  0  0  0  0  0  0  0
  -11.6484   -6.5036    7.3902 F   0  0  0  0  0  0  0  0  0  0  0  0
  -11.5851   -7.5540    9.4233 F   0  0  0  0  0  0  0  0  0  0  0  0
  -12.9407   -8.1924    7.8469 F   0  0  0  0  0  0  0  0  0  0  0  0
 12 13  3  0  0  0
 13  6  1  0  0  0
  6  7  2  0  0  0
  7  8  1  0  0  0
  8  9  2  0  0  0
  9 10  1  0  0  0
 10  1  1  0  0  0
  1  2  1  0  0  0
  2  3  1  0  0  0
  3 18  1  0  0  0
 18 19  2  0  0  0
 18 20  2  0  0  0
 18 21  1  0  0  0
 21 22  2  0  0  0
 22 23  1  0  0  0
 23 24  2  0  0  0
 24 25  1  0  0  0
 25 26  2  0  0  0
 26 27  1  0  0  0
 27 28  1  0  0  0
 27 29  1  0  0  0
 27 30  1  0  0  0
  3  4  1  0  0  0
  4  5  1  0  0  0
  5 14  1  0  0  0
 14 15  2  0  0  0
 14 16  1  0  0  0
 10 11  2  0  0  0
 11  6  1  0  0  0
  5  1  1  0  0  0
 26 21  1  0  0  0
 16 17  1  0  0  0
M  END
> <minimizedAffinity>
-3.84137

> <CNNscore>
0.1569343209

> <CNNaffinity>
5.2633714676

> <CNN_VS>
0.8260036111

> <CNNaffinity_variance>
0.4979518950

$$$$
[H]OC(=O)[C@@]1([H])N(c2nc(C#N)nc([H])c2[H])C([H])([H])[C@@]([H])(S(=O)(=O)c2c([H])c([H])c([H])c([H])c2C(F)(F)F)C1([H])[H]


 30 32  0  0  0  0  0  0  0  0999 V2000
  -12.6462   -8.0533    7.3019 N   0  0  0  0  0  0  0  0  0  0  0  0
  -13.6334   -7.4040    6.4663 C   0  0  0  0  0  0  0  0  0  0  0  0
  -14.8614   -8.3128    6.7495 C   0  0  0  0  0  0  0  0  0  0  0  0
  -14.2476   -9.6393    6.5763 C   0  0  0  0  0  0  0  0  0  0  0  0
  -12.8238   -9.4589    7.1373 C   0  0  0  0  0  0  0  0  0  0  0  0
   -9.4756   -6.8993    8.7239 C   0  0  0  0  0  0  0  0  0  0  0  0
   -9.8810   -6.0515    9.6858 N   0  0  0  0  0  0  0  0  0  0  0  0
  -11.1982   -5.8174    9.9151 C   0  0  0  0  0  0  0  0  0  0  0  0
  -12.0874   -6.4964    9.1080 C   0  0  0  0  0  0  0  0  0  0  0  0
  -11.7016   -7.3713    8.1142 C   0  0  0  0  0  0  0  0  0  0  0  0
  -10.3710   -7.5450    7.9548 N   0  0  0  0  0  0  0  0  0  0  0  0
   -6.9222   -7.2791    8.3593 N   0  0  0  0  0  0  0  0  0  0  0  0
   -8.0696   -7.1054    8.5295 C   0  0  0  0  0  0  0  0  0  0  0  0
  -11.8340  -10.0852    6.2487 C   0  0  0  0  0  0  0  0  0  0  0  0
  -12.0182  -10.0846    5.0152 O   0  0  0  0  0  0  0  0  0  0  0  0
  -10.7010  -10.6747    6.7644 O   0  0  0  0  0  0  0  0  0  0  0  0
  -10.4195  -11.6306    6.5621 H   0  0  0  0  0  0  0  0  0  0  0  0
  -16.1230   -7.9154    5.5151 S   0  0  0  0  0  0  0  0  0  0  0  0
  -15.9271   -8.9443    4.4408 O   0  0  0  0  0  0  0  0  0  0  0  0
  -17.4052   -8.1173    6.2445 O   0  0  0  0  0  0  0  0  0  0  0  0
  -15.8730   -6.3212    4.8863 C   0  0  0  0  0  0  0  0  0  0  0  0
  -14.6196   -5.7872    4.9964 C   0  0  0  0  0  0  0  0  0  0  0  0
  -14.3715   -4.5302    4.4894 C   0  0  0  0  0  0  0  0  0  0  0  0
  -15.3551   -3.7991    3.8739 C   0  0  0  0  0  0  0  0  0  0  0  0
  -16.5989   -4.3707    3.7830 C   0  0  0  0  0  0  0  0  0  0  0  0
  -16.9060   -5.6453    4.2820 C   0  0  0  0  0  0  0  0  0  0  0  0
  -18.2680   -6.1574    4.1328 C   0  0  0  0  0  0  0  0  0  0  0  0
  -18.4078   -7.2677    3.3322 F   0  0  0  0  0  0  0  0  0  0  0  0
  -19.2085   -5.1870    3.8518 F   0  0  0  0  0  0  0  0  0  0  0  0
  -18.6776   -6.6269    5.3929 F   0  0  0  0  0  0  0  0  0  0  0  0
 12 13  3  0  0  0
 13  6  1  0  0  0
  6  7  2  0  0  0
  7  8  1  0  0  0
  8  9  2  0  0  0
  9 10  1  0  0  0
 10  1  1  0  0  0
  1  2  1  0  0  0
  2  3  1  0  0  0
  3 18  1  0  0  0
 18 19  2  0  0  0
 18 20  2  0  0  0
 18 21  1  0  0  0
 21 22  2  0  0  0
 22 23  1  0  0  0
 23 24  2  0  0  0
 24 25  1  0  0  0
 25 26  2  0  0  0
 26 27  1  0  0  0
 27 28  1  0  0  0
 27 29  1  0  0  0
 27 30  1  0  0  0
  3  4  1  0  0  0
  4  5  1  0  0  0
  5 14  1  0  0  0
 14 15  2  0  0  0
 14 16  1  0  0  0
 10 11  2  0  0  0
 11  6  1  0  0  0
  5  1  1  0  0  0
 26 21  1  0  0  0
 16 17  1  0  0  0
M  END
> <minimizedAffinity>
-5.57025

> <CNNscore>
0.1304986328

> <CNNaffinity>
6.0800805092

> <CNN_VS>
0.7934421897

> <CNNaffinity_variance>
0.1958709210

$$$$
[H]OC(=O)[C@@]1([H])N(c2nc(C#N)nc([H])c2[H])C([H])([H])[C@@]([H])(S(=O)(=O)c2c([H])c([H])c([H])c([H])c2C(F)(F)F)C1([H])[H]


 30 32  0  0  0  0  0  0  0  0999 V2000
  -13.3519   -8.0129    7.5528 N   0  0  0  0  0  0  0  0  0  0  0  0
  -13.9253   -7.3815    6.3837 C   0  0  0  0  0  0  0  0  0  0  0  0
  -14.7318   -8.5763    5.8040 C   0  0  0  0  0  0  0  0  0  0  0  0
  -13.7084   -9.6326    5.8628 C   0  0  0  0  0  0  0  0  0  0  0  0
  -12.9314   -9.3166    7.1554 C   0  0  0  0  0  0  0  0  0  0  0  0
  -12.9523   -5.4983   10.1840 C   0  0  0  0  0  0  0  0  0  0  0  0
  -13.0594   -6.2327   11.3054 N   0  0  0  0  0  0  0  0  0  0  0  0
  -13.2655   -7.5736   11.2574 C   0  0  0  0  0  0  0  0  0  0  0  0
  -13.3576   -8.1314    9.9991 C   0  0  0  0  0  0  0  0  0  0  0  0
  -13.2519   -7.4041    8.8321 C   0  0  0  0  0  0  0  0  0  0  0  0
  -13.0472   -6.0758    8.9725 N   0  0  0  0  0  0  0  0  0  0  0  0
  -12.5479   -2.9320   10.4025 N   0  0  0  0  0  0  0  0  0  0  0  0
  -12.7347   -4.0853   10.2994 C   0  0  0  0  0  0  0  0  0  0  0  0
  -11.4832   -9.4335    6.9305 C   0  0  0  0  0  0  0  0  0  0  0  0
  -11.0259  -10.4255    6.3286 O   0  0  0  0  0  0  0  0  0  0  0  0
  -10.6218   -8.4564    7.3784 O   0  0  0  0  0  0  0  0  0  0  0  0
   -9.8152   -8.6418    7.9690 H   0  0  0  0  0  0  0  0  0  0  0  0
  -15.2328   -8.1253    4.1251 S   0  0  0  0  0  0  0  0  0  0  0  0
  -14.0217   -7.4568    3.5441 O   0  0  0  0  0  0  0  0  0  0  0  0
  -15.5040   -9.4367    3.4743 O   0  0  0  0  0  0  0  0  0  0  0  0
  -16.5732   -7.0295    4.1677 C   0  0  0  0  0  0  0  0  0  0  0  0
  -17.8269   -7.5582    4.0367 C   0  0  0  0  0  0  0  0  0  0  0  0
  -18.9227   -6.7244    4.0872 C   0  0  0  0  0  0  0  0  0  0  0  0
  -18.7860   -5.3718    4.2671 C   0  0  0  0  0  0  0  0  0  0  0  0
  -17.5114   -4.8808    4.3950 C   0  0  0  0  0  0  0  0  0  0  0  0
  -16.3619   -5.6837    4.3507 C   0  0  0  0  0  0  0  0  0  0  0  0
  -15.0496   -5.0542    4.4959 C   0  0  0  0  0  0  0  0  0  0  0  0
  -15.0266   -3.6825    4.3912 F   0  0  0  0  0  0  0  0  0  0  0  0
  -14.0509   -5.6531    3.7549 F   0  0  0  0  0  0  0  0  0  0  0  0
  -14.6254   -5.2742    5.8180 F   0  0  0  0  0  0  0  0  0  0  0  0
 12 13  3  0  0  0
 13  6  1  0  0  0
  6  7  2  0  0  0
  7  8  1  0  0  0
  8  9  2  0  0  0
  9 10  1  0  0  0
 10  1  1  0  0  0
  1  2  1  0  0  0
  2  3  1  0  0  0
  3 18  1  0  0  0
 18 19  2  0  0  0
 18 20  2  0  0  0
 18 21  1  0  0  0
 21 22  2  0  0  0
 22 23  1  0  0  0
 23 24  2  0  0  0
 24 25  1  0  0  0
 25 26  2  0  0  0
 26 27  1  0  0  0
 27 28  1  0  0  0
 27 29  1  0  0  0
 27 30  1  0  0  0
  3  4  1  0  0  0
  4  5  1  0  0  0
  5 14  1  0  0  0
 14 15  2  0  0  0
 14 16  1  0  0  0
 10 11  2  0  0  0
 11  6  1  0  0  0
  5  1  1  0  0  0
 26 21  1  0  0  0
 16 17  1  0  0  0
M  END
> <minimizedAffinity>
-4.82913

> <CNNscore>
0.1270502806

> <CNNaffinity>
6.1137356758

> <CNN_VS>
0.7767518163

> <CNNaffinity_variance>
0.1061978787

$$$$
[H]OC(=O)[C@@]1([H])N(c2nc(C#N)nc([H])c2[H])C([H])([H])[C@@]([H])(S(=O)(=O)c2c([H])c([H])c([H])c([H])c2C(F)(F)F)C1([H])[H]


 30 32  0  0  0  0  0  0  0  0999 V2000
  -12.8105   -8.1290    6.9793 N   0  0  0  0  0  0  0  0  0  0  0  0
  -13.3870   -7.6456    5.7430 C   0  0  0  0  0  0  0  0  0  0  0  0
  -14.0076   -6.3115    6.2421 C   0  0  0  0  0  0  0  0  0  0  0  0
  -14.7019   -6.7848    7.4506 C   0  0  0  0  0  0  0  0  0  0  0  0
  -13.7629   -7.8713    8.0093 C   0  0  0  0  0  0  0  0  0  0  0  0
   -9.2617   -8.6518    7.7134 C   0  0  0  0  0  0  0  0  0  0  0  0
   -9.0642   -9.9171    7.3027 N   0  0  0  0  0  0  0  0  0  0  0  0
  -10.0717  -10.6548    6.7705 C   0  0  0  0  0  0  0  0  0  0  0  0
  -11.2995  -10.0327    6.6777 C   0  0  0  0  0  0  0  0  0  0  0  0
  -11.5320   -8.7374    7.0903 C   0  0  0  0  0  0  0  0  0  0  0  0
  -10.4732   -8.0762    7.6078 N   0  0  0  0  0  0  0  0  0  0  0  0
   -7.2595   -7.3289    8.7320 N   0  0  0  0  0  0  0  0  0  0  0  0
   -8.1577   -7.9230    8.2674 C   0  0  0  0  0  0  0  0  0  0  0  0
  -14.5298   -9.0557    8.4225 C   0  0  0  0  0  0  0  0  0  0  0  0
  -15.5324   -8.9232    9.1524 O   0  0  0  0  0  0  0  0  0  0  0  0
  -14.1527  -10.3151    8.0113 O   0  0  0  0  0  0  0  0  0  0  0  0
  -13.9892  -11.0916    8.6470 H   0  0  0  0  0  0  0  0  0  0  0  0
  -15.1132   -5.7109    4.9420 S   0  0  0  0  0  0  0  0  0  0  0  0
  -15.6151   -4.3957    5.4610 O   0  0  0  0  0  0  0  0  0  0  0  0
  -14.2135   -5.5336    3.7689 O   0  0  0  0  0  0  0  0  0  0  0  0
  -16.4263   -6.8153    4.7067 C   0  0  0  0  0  0  0  0  0  0  0  0
  -16.1527   -8.1515    4.7958 C   0  0  0  0  0  0  0  0  0  0  0  0
  -17.1728   -9.0642    4.6372 C   0  0  0  0  0  0  0  0  0  0  0  0
  -18.4610   -8.6633    4.3919 C   0  0  0  0  0  0  0  0  0  0  0  0
  -18.6942   -7.3137    4.3103 C   0  0  0  0  0  0  0  0  0  0  0  0
  -17.6937   -6.3424    4.4631 C   0  0  0  0  0  0  0  0  0  0  0  0
  -18.0535   -4.9288    4.3545 C   0  0  0  0  0  0  0  0  0  0  0  0
  -17.4159   -4.2213    3.3613 F   0  0  0  0  0  0  0  0  0  0  0  0
  -18.0588   -4.2533    5.5582 F   0  0  0  0  0  0  0  0  0  0  0  0
  -19.4025   -4.8705    3.9633 F   0  0  0  0  0  0  0  0  0  0  0  0
 12 13  3  0  0  0
 13  6  1  0  0  0
  6  7  2  0  0  0
  7  8  1  0  0  0
  8  9  2  0  0  0
  9 10  1  0  0  0
 10  1  1  0  0  0
  1  2  1  0  0  0
  2  3  1  0  0  0
  3 18  1  0  0  0
 18 19  2  0  0  0
 18 20  2  0  0  0
 18 21  1  0  0  0
 21 22  2  0  0  0
 22 23  1  0  0  0
 23 24  2  0  0  0
 24 25  1  0  0  0
 25 26  2  0  0  0
 26 27  1  0  0  0
 27 28  1  0  0  0
 27 29  1  0  0  0
 27 30  1  0  0  0
  3  4  1  0  0  0
  4  5  1  0  0  0
  5 14  1  0  0  0
 14 15  2  0  0  0
 14 16  1  0  0  0
 10 11  2  0  0  0
 11  6  1  0  0  0
  5  1  1  0  0  0
 26 21  1  0  0  0
 16 17  1  0  0  0
M  END
> <minimizedAffinity>
-6.80118

> <CNNscore>
0.1184777021

> <CNNaffinity>
5.9531869888

> <CNN_VS>
0.7053199410

> <CNNaffinity_variance>
0.0684118867

$$$$
[H]OC(=O)[C@@]1([H])N(c2nc(C#N)nc([H])c2[H])C([H])([H])[C@@]([H])(S(=O)(=O)c2c([H])c([H])c([H])c([H])c2C(F)(F)F)C1([H])[H]


 30 32  0  0  0  0  0  0  0  0999 V2000
   -8.7752   -7.5691    8.1252 N   0  0  0  0  0  0  0  0  0  0  0  0
   -7.5966   -7.1518    8.8539 C   0  0  0  0  0  0  0  0  0  0  0  0
   -6.6110   -6.9452    7.6707 C   0  0  0  0  0  0  0  0  0  0  0  0
   -6.8309   -8.1972    6.9286 C   0  0  0  0  0  0  0  0  0  0  0  0
   -8.3370   -8.4685    7.1086 C   0  0  0  0  0  0  0  0  0  0  0  0
  -12.4147   -7.1906    7.9927 C   0  0  0  0  0  0  0  0  0  0  0  0
  -12.6478   -6.2901    8.9639 N   0  0  0  0  0  0  0  0  0  0  0  0
  -11.6366   -5.7671    9.7031 C   0  0  0  0  0  0  0  0  0  0  0  0
  -10.3665   -6.2120    9.3996 C   0  0  0  0  0  0  0  0  0  0  0  0
  -10.0968   -7.1339    8.4100 C   0  0  0  0  0  0  0  0  0  0  0  0
  -11.1624   -7.6024    7.7235 N   0  0  0  0  0  0  0  0  0  0  0  0
  -14.4301   -8.1410    6.6393 N   0  0  0  0  0  0  0  0  0  0  0  0
  -13.5248   -7.7070    7.2458 C   0  0  0  0  0  0  0  0  0  0  0  0
   -8.5738   -9.8851    7.4229 C   0  0  0  0  0  0  0  0  0  0  0  0
   -7.7110  -10.5361    8.0453 O   0  0  0  0  0  0  0  0  0  0  0  0
   -9.7420  -10.5044    7.0368 O   0  0  0  0  0  0  0  0  0  0  0  0
   -9.7733  -11.3652    6.4966 H   0  0  0  0  0  0  0  0  0  0  0  0
   -4.9513   -6.7840    8.3728 S   0  0  0  0  0  0  0  0  0  0  0  0
   -5.1549   -6.9596    9.8489 O   0  0  0  0  0  0  0  0  0  0  0  0
   -4.2054   -7.9277    7.7793 O   0  0  0  0  0  0  0  0  0  0  0  0
   -4.2987   -5.2171    8.0289 C   0  0  0  0  0  0  0  0  0  0  0  0
   -4.0725   -4.3802    9.0856 C   0  0  0  0  0  0  0  0  0  0  0  0
   -3.5334   -3.1326    8.8588 C   0  0  0  0  0  0  0  0  0  0  0  0
   -3.2162   -2.7085    7.5938 C   0  0  0  0  0  0  0  0  0  0  0  0
   -3.4578   -3.5782    6.5606 C   0  0  0  0  0  0  0  0  0  0  0  0
   -4.0049   -4.8581    6.7350 C   0  0  0  0  0  0  0  0  0  0  0  0
   -4.2231   -5.7033    5.5613 C   0  0  0  0  0  0  0  0  0  0  0  0
   -5.5365   -5.9222    5.2146 F   0  0  0  0  0  0  0  0  0  0  0  0
   -3.4791   -6.8660    5.5566 F   0  0  0  0  0  0  0  0  0  0  0  0
   -3.7171   -5.0100    4.4480 F   0  0  0  0  0  0  0  0  0  0  0  0
 12 13  3  0  0  0
 13  6  1  0  0  0
  6  7  2  0  0  0
  7  8  1  0  0  0
  8  9  2  0  0  0
  9 10  1  0  0  0
 10  1  1  0  0  0
  1  2  1  0  0  0
  2  3  1  0  0  0
  3 18  1  0  0  0
 18 19  2  0  0  0
 18 20  2  0  0  0
 18 21  1  0  0  0
 21 22  2  0  0  0
 22 23  1  0  0  0
 23 24  2  0  0  0
 24 25  1  0  0  0
 25 26  2  0  0  0
 26 27  1  0  0  0
 27 28  1  0  0  0
 27 29  1  0  0  0
 27 30  1  0  0  0
  3  4  1  0  0  0
  4  5  1  0  0  0
  5 14  1  0  0  0
 14 15  2  0  0  0
 14 16  1  0  0  0
 10 11  2  0  0  0
 11  6  1  0  0  0
  5  1  1  0  0  0
 26 21  1  0  0  0
 16 17  1  0  0  0
M  END
> <minimizedAffinity>
-5.00188

> <CNNscore>
0.1128555760

> <CNNaffinity>
5.5232486725

> <CNN_VS>
0.6233294010

> <CNNaffinity_variance>
0.1244508401

$$$$
[H]OC(=O)[C@@]1([H])N(c2nc(C#N)nc([H])c2[H])C([H])([H])[C@@]([H])(S(=O)(=O)c2c([H])c([H])c([H])c([H])c2C(F)(F)F)C1([H])[H]


 30 32  0  0  0  0  0  0  0  0999 V2000
  -13.0564   -7.9479    7.4505 N   0  0  0  0  0  0  0  0  0  0  0  0
  -13.4344   -7.6392    6.0880 C   0  0  0  0  0  0  0  0  0  0  0  0
  -14.9791   -7.7561    6.2071 C   0  0  0  0  0  0  0  0  0  0  0  0
  -15.0878   -9.0411    6.9168 C   0  0  0  0  0  0  0  0  0  0  0  0
  -13.8796   -9.0333    7.8731 C   0  0  0  0  0  0  0  0  0  0  0  0
  -11.3105   -6.1687   10.1324 C   0  0  0  0  0  0  0  0  0  0  0  0
  -10.0979   -5.9502    9.5936 N   0  0  0  0  0  0  0  0  0  0  0  0
   -9.7939   -6.3696    8.3389 C   0  0  0  0  0  0  0  0  0  0  0  0
  -10.7961   -7.0278    7.6567 C   0  0  0  0  0  0  0  0  0  0  0  0
  -12.0483   -7.2663    8.1829 C   0  0  0  0  0  0  0  0  0  0  0  0
  -12.2649   -6.8145    9.4379 N   0  0  0  0  0  0  0  0  0  0  0  0
  -11.7976   -5.3224   12.5497 N   0  0  0  0  0  0  0  0  0  0  0  0
  -11.5718   -5.7014   11.4629 C   0  0  0  0  0  0  0  0  0  0  0  0
  -13.2006  -10.3372    7.8599 C   0  0  0  0  0  0  0  0  0  0  0  0
  -13.8378  -11.3724    8.1389 O   0  0  0  0  0  0  0  0  0  0  0  0
  -11.8636  -10.4297    7.5417 O   0  0  0  0  0  0  0  0  0  0  0  0
  -11.1728  -10.8865    8.1315 H   0  0  0  0  0  0  0  0  0  0  0  0
  -15.6495   -7.7809    4.5268 S   0  0  0  0  0  0  0  0  0  0  0  0
  -14.4656   -7.4925    3.6514 O   0  0  0  0  0  0  0  0  0  0  0  0
  -16.1304   -9.1801    4.3602 O   0  0  0  0  0  0  0  0  0  0  0  0
  -16.8593   -6.5558    4.3402 C   0  0  0  0  0  0  0  0  0  0  0  0
  -18.1442   -6.9646    4.1162 C   0  0  0  0  0  0  0  0  0  0  0  0
  -19.1416   -6.0232    3.9840 C   0  0  0  0  0  0  0  0  0  0  0  0
  -18.8759   -4.6807    4.0726 C   0  0  0  0  0  0  0  0  0  0  0  0
  -17.5740   -4.3117    4.2986 C   0  0  0  0  0  0  0  0  0  0  0  0
  -16.5208   -5.2274    4.4404 C   0  0  0  0  0  0  0  0  0  0  0  0
  -15.1682   -4.7234    4.6770 C   0  0  0  0  0  0  0  0  0  0  0  0
  -14.2203   -5.0887    3.7489 F   0  0  0  0  0  0  0  0  0  0  0  0
  -14.7231   -4.8877    5.9732 F   0  0  0  0  0  0  0  0  0  0  0  0
  -15.2147   -3.3248    4.5428 F   0  0  0  0  0  0  0  0  0  0  0  0
 12 13  3  0  0  0
 13  6  1  0  0  0
  6  7  2  0  0  0
  7  8  1  0  0  0
  8  9  2  0  0  0
  9 10  1  0  0  0
 10  1  1  0  0  0
  1  2  1  0  0  0
  2  3  1  0  0  0
  3 18  1  0  0  0
 18 19  2  0  0  0
 18 20  2  0  0  0
 18 21  1  0  0  0
 21 22  2  0  0  0
 22 23  1  0  0  0
 23 24  2  0  0  0
 24 25  1  0  0  0
 25 26  2  0  0  0
 26 27  1  0  0  0
 27 28  1  0  0  0
 27 29  1  0  0  0
 27 30  1  0  0  0
  3  4  1  0  0  0
  4  5  1  0  0  0
  5 14  1  0  0  0
 14 15  2  0  0  0
 14 16  1  0  0  0
 10 11  2  0  0  0
 11  6  1  0  0  0
  5  1  1  0  0  0
 26 21  1  0  0  0
 16 17  1  0  0  0
M  END
> <minimizedAffinity>
-4.30697

> <CNNscore>
0.1049181148

> <CNNaffinity>
5.9920005798

> <CNN_VS>
0.6286693811

> <CNNaffinity_variance>
0.1106388420

$$$$
[H]OC(=O)[C@@]1([H])N(c2nc(C#N)nc([H])c2[H])C([H])([H])[C@@]([H])(S(=O)(=O)c2c([H])c([H])c([H])c([H])c2C(F)(F)F)C1([H])[H]


 30 32  0  0  0  0  0  0  0  0999 V2000
  -15.8248   -7.8165    5.8968 N   0  0  0  0  0  0  0  0  0  0  0  0
  -15.4425   -8.0200    7.2776 C   0  0  0  0  0  0  0  0  0  0  0  0
  -14.3833   -6.8935    7.4297 C   0  0  0  0  0  0  0  0  0  0  0  0
  -13.5829   -7.1247    6.2163 C   0  0  0  0  0  0  0  0  0  0  0  0
  -14.6258   -7.5593    5.1684 C   0  0  0  0  0  0  0  0  0  0  0  0
  -19.3435   -8.7487    5.5012 C   0  0  0  0  0  0  0  0  0  0  0  0
  -19.7333   -7.9778    4.4707 N   0  0  0  0  0  0  0  0  0  0  0  0
  -18.8736   -7.1232    3.8599 C   0  0  0  0  0  0  0  0  0  0  0  0
  -17.5870   -7.0944    4.3568 C   0  0  0  0  0  0  0  0  0  0  0  0
  -17.1585   -7.8727    5.4116 C   0  0  0  0  0  0  0  0  0  0  0  0
  -18.0799   -8.6949    5.9603 N   0  0  0  0  0  0  0  0  0  0  0  0
  -21.0752  -10.3639    6.5917 N   0  0  0  0  0  0  0  0  0  0  0  0
  -20.2981   -9.6322    6.1055 C   0  0  0  0  0  0  0  0  0  0  0  0
  -14.1366   -8.7124    4.3986 C   0  0  0  0  0  0  0  0  0  0  0  0
  -13.3584   -9.5293    4.9301 O   0  0  0  0  0  0  0  0  0  0  0  0
  -14.5292   -8.9021    3.0920 O   0  0  0  0  0  0  0  0  0  0  0  0
  -13.8801   -9.0278    2.3196 H   0  0  0  0  0  0  0  0  0  0  0  0
  -13.4900   -7.1975    8.9733 S   0  0  0  0  0  0  0  0  0  0  0  0
  -13.5598   -5.8896    9.7054 O   0  0  0  0  0  0  0  0  0  0  0  0
  -14.2992   -8.2501    9.6470 O   0  0  0  0  0  0  0  0  0  0  0  0
  -11.8444   -7.6262    8.6455 C   0  0  0  0  0  0  0  0  0  0  0  0
  -11.6190   -8.6183    7.7327 C   0  0  0  0  0  0  0  0  0  0  0  0
  -10.3241   -8.9755    7.4257 C   0  0  0  0  0  0  0  0  0  0  0  0
   -9.2515   -8.3571    8.0155 C   0  0  0  0  0  0  0  0  0  0  0  0
   -9.5200   -7.3662    8.9256 C   0  0  0  0  0  0  0  0  0  0  0  0
  -10.8176   -6.9638    9.2749 C   0  0  0  0  0  0  0  0  0  0  0  0
  -10.9893   -5.8965   10.2604 C   0  0  0  0  0  0  0  0  0  0  0  0
  -11.4725   -4.7031    9.7751 F   0  0  0  0  0  0  0  0  0  0  0  0
   -9.9061   -5.7216   11.0978 F   0  0  0  0  0  0  0  0  0  0  0  0
  -12.0004   -6.3060   11.1471 F   0  0  0  0  0  0  0  0  0  0  0  0
 12 13  3  0  0  0
 13  6  1  0  0  0
  6  7  2  0  0  0
  7  8  1  0  0  0
  8  9  2  0  0  0
  9 10  1  0  0  0
 10  1  1  0  0  0
  1  2  1  0  0  0
  2  3  1  0  0  0
  3 18  1  0  0  0
 18 19  2  0  0  0
 18 20  2  0  0  0
 18 21  1  0  0  0
 21 22  2  0  0  0
 22 23  1  0  0  0
 23 24  2  0  0  0
 24 25  1  0  0  0
 25 26  2  0  0  0
 26 27  1  0  0  0
 27 28  1  0  0  0
 27 29  1  0  0  0
 27 30  1  0  0  0
  3  4  1  0  0  0
  4  5  1  0  0  0
  5 14  1  0  0  0
 14 15  2  0  0  0
 14 16  1  0  0  0
 10 11  2  0  0  0
 11  6  1  0  0  0
  5  1  1  0  0  0
 26 21  1  0  0  0
 16 17  1  0  0  0
M  END
> <minimizedAffinity>
-4.05893

> <CNNscore>
0.0995834246

> <CNNaffinity>
5.9636087418

> <CNN_VS>
0.5938766003

> <CNNaffinity_variance>
0.0859503374

$$$$
[H]c1c([H])c([H])c(C([H])([H])n2c([H])nc(-c3c([H])c([H])c(F)c([H])c3[H])c2-c2nn3c([H])c(N([H])C(=O)C(C([H])([H])[H])(C([H])([H])[H])C([H])([H])[H])nc3c([H])c2[H])c([H])c1[H]


 36 40  0  0  0  0  0  0  0  0999 V2000
  -10.2760   -7.2878    8.6466 C   0  0  0  0  0  0  0  0  0  0  0  0
   -8.9278   -7.2802    8.3594 C   0  0  0  0  0  0  0  0  0  0  0  0
   -8.3295   -6.6289    9.3997 N   0  0  0  0  0  0  0  0  0  0  0  0
   -9.2254   -6.2478   10.2860 C   0  0  0  0  0  0  0  0  0  0  0  0
  -10.4367   -6.6634    9.8069 N   0  0  0  0  0  0  0  0  0  0  0  0
  -14.9228   -8.2035    5.1034 C   0  0  0  0  0  0  0  0  0  0  0  0
  -14.2878   -7.2136    5.8181 C   0  0  0  0  0  0  0  0  0  0  0  0
  -13.1994   -7.7498    6.4487 N   0  0  0  0  0  0  0  0  0  0  0  0
  -12.2972   -7.2044    7.2359 N   0  0  0  0  0  0  0  0  0  0  0  0
  -11.2794   -7.8948    7.7762 C   0  0  0  0  0  0  0  0  0  0  0  0
  -11.2219   -9.2321    7.4614 C   0  0  0  0  0  0  0  0  0  0  0  0
  -12.1653   -9.8301    6.6308 C   0  0  0  0  0  0  0  0  0  0  0  0
  -13.1647   -9.0484    6.1279 C   0  0  0  0  0  0  0  0  0  0  0  0
  -14.1991   -9.3202    5.3206 N   0  0  0  0  0  0  0  0  0  0  0  0
  -17.1048   -7.1538    4.6444 C   0  0  0  0  0  0  0  0  0  0  0  0
  -16.9530   -6.4303    5.6870 O   0  0  0  0  0  0  0  0  0  0  0  0
  -16.0806   -8.0756    4.3129 N   0  0  0  0  0  0  0  0  0  0  0  0
  -16.1947   -8.6645    3.4713 H   0  0  0  0  0  0  0  0  0  0  0  0
  -19.3810   -7.8992    4.4500 C   0  0  0  0  0  0  0  0  0  0  0  0
  -18.3329   -6.9740    3.8677 C   0  0  0  0  0  0  0  0  0  0  0  0
  -18.8251   -5.5647    4.0015 C   0  0  0  0  0  0  0  0  0  0  0  0
  -18.1522   -7.3631    2.4169 C   0  0  0  0  0  0  0  0  0  0  0  0
   -8.1768   -7.8017    7.2347 C   0  0  0  0  0  0  0  0  0  0  0  0
   -7.5691   -6.9349    6.3581 C   0  0  0  0  0  0  0  0  0  0  0  0
   -6.8322   -7.3887    5.2661 C   0  0  0  0  0  0  0  0  0  0  0  0
   -6.6944   -8.7430    5.0376 C   0  0  0  0  0  0  0  0  0  0  0  0
   -5.9735   -9.1834    3.9693 F   0  0  0  0  0  0  0  0  0  0  0  0
   -7.2991   -9.6161    5.9096 C   0  0  0  0  0  0  0  0  0  0  0  0
   -8.0298   -9.1457    6.9928 C   0  0  0  0  0  0  0  0  0  0  0  0
  -11.6963   -6.4369   10.4969 C   0  0  0  0  0  0  0  0  0  0  0  0
  -11.4989   -5.7853   11.8033 C   0  0  0  0  0  0  0  0  0  0  0  0
  -10.4890   -6.1350   12.6616 C   0  0  0  0  0  0  0  0  0  0  0  0
  -10.2872   -5.5390   13.8777 C   0  0  0  0  0  0  0  0  0  0  0  0
  -11.1503   -4.5298   14.2590 C   0  0  0  0  0  0  0  0  0  0  0  0
  -12.1784   -4.1568   13.4124 C   0  0  0  0  0  0  0  0  0  0  0  0
  -12.3606   -4.7671   12.2010 C   0  0  0  0  0  0  0  0  0  0  0  0
 19 20  1  0  0  0
 20 21  1  0  0  0
 20 22  1  0  0  0
 20 15  1  0  0  0
 15 16  2  0  0  0
 15 17  1  0  0  0
 17  6  1  0  0  0
  6  7  2  0  0  0
  7  8  1  0  0  0
  8  9  1  0  0  0
  9 10  2  0  0  0
 10  1  1  0  0  0
  1  2  2  0  0  0
  2 23  1  0  0  0
 23 24  2  0  0  0
 24 25  1  0  0  0
 25 26  2  0  0  0
 26 27  1  0  0  0
 26 28  1  0  0  0
 28 29  2  0  0  0
  2  3  1  0  0  0
  3  4  2  0  0  0
  4  5  1  0  0  0
  5 30  1  0  0  0
 30 31  1  0  0  0
 31 32  2  0  0  0
 32 33  1  0  0  0
 33 34  2  0  0  0
 34 35  1  0  0  0
 35 36  2  0  0  0
 10 11  1  0  0  0
 11 12  2  0  0  0
 12 13  1  0  0  0
 13 14  2  0  0  0
 14  6  1  0  0  0
 13  8  1  0  0  0
  5  1  1  0  0  0
 36 31  1  0  0  0
 29 23  1  0  0  0
 17 18  1  0  0  0
M  END
> <minimizedAffinity>
5.35677

> <CNNscore>
0.4560833275

> <CNNaffinity>
7.3835716248

> <CNN_VS>
3.3675239086

> <CNNaffinity_variance>
1.2039866447

$$$$
[H]c1c([H])c([H])c(C([H])([H])n2c([H])nc(-c3c([H])c([H])c(F)c([H])c3[H])c2-c2nn3c([H])c(N([H])C(=O)C(C([H])([H])[H])(C([H])([H])[H])C([H])([H])[H])nc3c([H])c2[H])c([H])c1[H]


 36 40  0  0  0  0  0  0  0  0999 V2000
   -9.2340   -7.3046    9.5321 C   0  0  0  0  0  0  0  0  0  0  0  0
   -8.9612   -6.5966   10.6830 C   0  0  0  0  0  0  0  0  0  0  0  0
   -7.6041   -6.6317   10.8286 N   0  0  0  0  0  0  0  0  0  0  0  0
   -7.0490   -7.3104    9.8465 C   0  0  0  0  0  0  0  0  0  0  0  0
   -8.0742   -7.7262    9.0431 N   0  0  0  0  0  0  0  0  0  0  0  0
  -13.9302   -7.9373    5.9922 C   0  0  0  0  0  0  0  0  0  0  0  0
  -12.5743   -7.7039    5.9568 C   0  0  0  0  0  0  0  0  0  0  0  0
  -12.0939   -7.6825    7.2369 N   0  0  0  0  0  0  0  0  0  0  0  0
  -10.8781   -7.4961    7.7039 N   0  0  0  0  0  0  0  0  0  0  0  0
  -10.5845   -7.5074    9.0146 C   0  0  0  0  0  0  0  0  0  0  0  0
  -11.6396   -7.7282    9.8684 C   0  0  0  0  0  0  0  0  0  0  0  0
  -12.9338   -7.9279    9.3966 C   0  0  0  0  0  0  0  0  0  0  0  0
  -13.1365   -7.8991    8.0472 C   0  0  0  0  0  0  0  0  0  0  0  0
  -14.2381   -8.0519    7.2999 N   0  0  0  0  0  0  0  0  0  0  0  0
  -14.4419   -8.7327    3.7164 C   0  0  0  0  0  0  0  0  0  0  0  0
  -13.2866   -9.2774    3.6692 O   0  0  0  0  0  0  0  0  0  0  0  0
  -14.8073   -8.0366    4.8956 N   0  0  0  0  0  0  0  0  0  0  0  0
  -15.7398   -7.5934    4.9429 H   0  0  0  0  0  0  0  0  0  0  0  0
  -16.4492   -9.7866    2.9201 C   0  0  0  0  0  0  0  0  0  0  0  0
  -15.3045   -8.8703    2.5414 C   0  0  0  0  0  0  0  0  0  0  0  0
  -15.8762   -7.5373    2.1635 C   0  0  0  0  0  0  0  0  0  0  0  0
  -14.5844   -9.5151    1.3776 C   0  0  0  0  0  0  0  0  0  0  0  0
   -9.8267   -5.9214   11.6297 C   0  0  0  0  0  0  0  0  0  0  0  0
  -10.8595   -5.1379   11.1729 C   0  0  0  0  0  0  0  0  0  0  0  0
  -11.7208   -4.4740   12.0439 C   0  0  0  0  0  0  0  0  0  0  0  0
  -11.5519   -4.5914   13.4088 C   0  0  0  0  0  0  0  0  0  0  0  0
  -12.3953   -3.9410   14.2576 F   0  0  0  0  0  0  0  0  0  0  0  0
  -10.5214   -5.3728   13.8735 C   0  0  0  0  0  0  0  0  0  0  0  0
   -9.6727   -6.0272   12.9904 C   0  0  0  0  0  0  0  0  0  0  0  0
   -7.8828   -8.5136    7.8358 C   0  0  0  0  0  0  0  0  0  0  0  0
   -7.4081   -7.6895    6.7107 C   0  0  0  0  0  0  0  0  0  0  0  0
   -6.3900   -6.7802    6.8349 C   0  0  0  0  0  0  0  0  0  0  0  0
   -5.9327   -6.0081    5.8007 C   0  0  0  0  0  0  0  0  0  0  0  0
   -6.5319   -6.1550    4.5645 C   0  0  0  0  0  0  0  0  0  0  0  0
   -7.5619   -7.0652    4.4107 C   0  0  0  0  0  0  0  0  0  0  0  0
   -8.0023   -7.8263    5.4594 C   0  0  0  0  0  0  0  0  0  0  0  0
 19 20  1  0  0  0
 20 21  1  0  0  0
 20 22  1  0  0  0
 20 15  1  0  0  0
 15 16  2  0  0  0
 15 17  1  0  0  0
 17  6  1  0  0  0
  6  7  2  0  0  0
  7  8  1  0  0  0
  8  9  1  0  0  0
  9 10  2  0  0  0
 10  1  1  0  0  0
  1  2  2  0  0  0
  2 23  1  0  0  0
 23 24  2  0  0  0
 24 25  1  0  0  0
 25 26  2  0  0  0
 26 27  1  0  0  0
 26 28  1  0  0  0
 28 29  2  0  0  0
  2  3  1  0  0  0
  3  4  2  0  0  0
  4  5  1  0  0  0
  5 30  1  0  0  0
 30 31  1  0  0  0
 31 32  2  0  0  0
 32 33  1  0  0  0
 33 34  2  0  0  0
 34 35  1  0  0  0
 35 36  2  0  0  0
 10 11  1  0  0  0
 11 12  2  0  0  0
 12 13  1  0  0  0
 13 14  2  0  0  0
 14  6  1  0  0  0
 13  8  1  0  0  0
  5  1  1  0  0  0
 36 31  1  0  0  0
 29 23  1  0  0  0
 17 18  1  0  0  0
M  END
> <minimizedAffinity>
25.35962

> <CNNscore>
0.4487595260

> <CNNaffinity>
7.3237442970

> <CNN_VS>
3.2866001129

> <CNNaffinity_variance>
2.6990640163

$$$$
[H]c1c([H])c([H])c(C([H])([H])n2c([H])nc(-c3c([H])c([H])c(F)c([H])c3[H])c2-c2nn3c([H])c(N([H])C(=O)C(C([H])([H])[H])(C([H])([H])[H])C([H])([H])[H])nc3c([H])c2[H])c([H])c1[H]


 36 40  0  0  0  0  0  0  0  0999 V2000
  -11.6758   -7.0381    9.7833 C   0  0  0  0  0  0  0  0  0  0  0  0
  -12.0749   -7.1274   11.0997 C   0  0  0  0  0  0  0  0  0  0  0  0
  -11.1612   -6.4078   11.8151 N   0  0  0  0  0  0  0  0  0  0  0  0
  -10.2462   -5.8964   11.0186 C   0  0  0  0  0  0  0  0  0  0  0  0
  -10.5760   -6.2955    9.7531 N   0  0  0  0  0  0  0  0  0  0  0  0
  -15.5465   -8.3041    5.4937 C   0  0  0  0  0  0  0  0  0  0  0  0
  -15.2729   -7.3611    6.4581 C   0  0  0  0  0  0  0  0  0  0  0  0
  -14.1447   -7.7331    7.1353 N   0  0  0  0  0  0  0  0  0  0  0  0
  -13.5019   -7.1602    8.1301 N   0  0  0  0  0  0  0  0  0  0  0  0
  -12.3912   -7.6766    8.6818 C   0  0  0  0  0  0  0  0  0  0  0  0
  -11.9451   -8.8618    8.1459 C   0  0  0  0  0  0  0  0  0  0  0  0
  -12.6092   -9.4853    7.0934 C   0  0  0  0  0  0  0  0  0  0  0  0
  -13.7304   -8.8860    6.5972 C   0  0  0  0  0  0  0  0  0  0  0  0
  -14.5719   -9.2282    5.6121 N   0  0  0  0  0  0  0  0  0  0  0  0
  -17.1601   -7.0924    4.0787 C   0  0  0  0  0  0  0  0  0  0  0  0
  -16.6525   -5.9901    4.4794 O   0  0  0  0  0  0  0  0  0  0  0  0
  -16.6158   -8.3020    4.5781 N   0  0  0  0  0  0  0  0  0  0  0  0
  -17.0197   -9.1983    4.2592 H   0  0  0  0  0  0  0  0  0  0  0  0
  -19.2315   -8.1437    3.4636 C   0  0  0  0  0  0  0  0  0  0  0  0
  -18.2719   -7.0209    3.1288 C   0  0  0  0  0  0  0  0  0  0  0  0
  -18.9997   -5.7199    3.2850 C   0  0  0  0  0  0  0  0  0  0  0  0
  -17.8174   -7.2343    1.7017 C   0  0  0  0  0  0  0  0  0  0  0  0
  -13.1901   -7.8085   11.7269 C   0  0  0  0  0  0  0  0  0  0  0  0
  -13.1050   -8.1879   13.0452 C   0  0  0  0  0  0  0  0  0  0  0  0
  -14.1524   -8.8397   13.6928 C   0  0  0  0  0  0  0  0  0  0  0  0
  -15.3190   -9.1231   13.0115 C   0  0  0  0  0  0  0  0  0  0  0  0
  -16.3410   -9.7605   13.6473 F   0  0  0  0  0  0  0  0  0  0  0  0
  -15.4119   -8.7471   11.6930 C   0  0  0  0  0  0  0  0  0  0  0  0
  -14.3576   -8.0982   11.0639 C   0  0  0  0  0  0  0  0  0  0  0  0
   -9.8095   -5.9378    8.5704 C   0  0  0  0  0  0  0  0  0  0  0  0
   -8.6541   -6.8302    8.3727 C   0  0  0  0  0  0  0  0  0  0  0  0
   -8.2871   -7.3068    7.1410 C   0  0  0  0  0  0  0  0  0  0  0  0
   -7.2151   -8.1337    6.9367 C   0  0  0  0  0  0  0  0  0  0  0  0
   -6.4631   -8.5075    8.0338 C   0  0  0  0  0  0  0  0  0  0  0  0
   -6.8110   -8.0414    9.2887 C   0  0  0  0  0  0  0  0  0  0  0  0
   -7.8873   -7.2154    9.4686 C   0  0  0  0  0  0  0  0  0  0  0  0
 19 20  1  0  0  0
 20 21  1  0  0  0
 20 22  1  0  0  0
 20 15  1  0  0  0
 15 16  2  0  0  0
 15 17  1  0  0  0
 17  6  1  0  0  0
  6  7  2  0  0  0
  7  8  1  0  0  0
  8  9  1  0  0  0
  9 10  2  0  0  0
 10  1  1  0  0  0
  1  2  2  0  0  0
  2 23  1  0  0  0
 23 24  2  0  0  0
 24 25  1  0  0  0
 25 26  2  0  0  0
 26 27  1  0  0  0
 26 28  1  0  0  0
 28 29  2  0  0  0
  2  3  1  0  0  0
  3  4  2  0  0  0
  4  5  1  0  0  0
  5 30  1  0  0  0
 30 31  1  0  0  0
 31 32  2  0  0  0
 32 33  1  0  0  0
 33 34  2  0  0  0
 34 35  1  0  0  0
 35 36  2  0  0  0
 10 11  1  0  0  0
 11 12  2  0  0  0
 12 13  1  0  0  0
 13 14  2  0  0  0
 14  6  1  0  0  0
 13  8  1  0  0  0
  5  1  1  0  0  0
 36 31  1  0  0  0
 29 23  1  0  0  0
 17 18  1  0  0  0
M  END
> <minimizedAffinity>
17.19821

> <CNNscore>
0.4349320233

> <CNNaffinity>
7.2469682693

> <CNN_VS>
3.1519386768

> <CNNaffinity_variance>
0.8947525024

$$$$
[H]c1c([H])c([H])c(C([H])([H])n2c([H])nc(-c3c([H])c([H])c(F)c([H])c3[H])c2-c2nn3c([H])c(N([H])C(=O)C(C([H])([H])[H])(C([H])([H])[H])C([H])([H])[H])nc3c([H])c2[H])c([H])c1[H]


 36 40  0  0  0  0  0  0  0  0999 V2000
   -9.7550   -6.8874    8.7732 C   0  0  0  0  0  0  0  0  0  0  0  0
   -9.9042   -6.4365   10.0672 C   0  0  0  0  0  0  0  0  0  0  0  0
   -8.6849   -6.5976   10.6602 N   0  0  0  0  0  0  0  0  0  0  0  0
   -7.8201   -7.1126    9.8116 C   0  0  0  0  0  0  0  0  0  0  0  0
   -8.4974   -7.2898    8.6372 N   0  0  0  0  0  0  0  0  0  0  0  0
  -15.0435   -7.2081    6.1436 C   0  0  0  0  0  0  0  0  0  0  0  0
  -14.4419   -7.3156    7.3767 C   0  0  0  0  0  0  0  0  0  0  0  0
  -13.0976   -7.1097    7.2343 N   0  0  0  0  0  0  0  0  0  0  0  0
  -12.1215   -7.1128    8.1166 N   0  0  0  0  0  0  0  0  0  0  0  0
  -10.8374   -6.8879    7.7927 C   0  0  0  0  0  0  0  0  0  0  0  0
  -10.5825   -6.6483    6.4629 C   0  0  0  0  0  0  0  0  0  0  0  0
  -11.5994   -6.6401    5.5124 C   0  0  0  0  0  0  0  0  0  0  0  0
  -12.8748   -6.8792    5.9352 C   0  0  0  0  0  0  0  0  0  0  0  0
  -14.0428   -6.9383    5.2810 N   0  0  0  0  0  0  0  0  0  0  0  0
  -16.8723   -7.4704    4.5125 C   0  0  0  0  0  0  0  0  0  0  0  0
  -16.0079   -7.4527    3.5713 O   0  0  0  0  0  0  0  0  0  0  0  0
  -16.4126   -7.3484    5.8475 N   0  0  0  0  0  0  0  0  0  0  0  0
  -17.1045   -7.3622    6.6152 H   0  0  0  0  0  0  0  0  0  0  0  0
  -18.3287   -7.9080    2.6519 C   0  0  0  0  0  0  0  0  0  0  0  0
  -18.2800   -7.6159    4.1371 C   0  0  0  0  0  0  0  0  0  0  0  0
  -18.8892   -8.7768    4.8635 C   0  0  0  0  0  0  0  0  0  0  0  0
  -19.0658   -6.3436    4.3666 C   0  0  0  0  0  0  0  0  0  0  0  0
  -11.0471   -5.8956   10.7760 C   0  0  0  0  0  0  0  0  0  0  0  0
  -12.1128   -5.3910   10.0697 C   0  0  0  0  0  0  0  0  0  0  0  0
  -13.2354   -4.8659   10.7063 C   0  0  0  0  0  0  0  0  0  0  0  0
  -13.3022   -4.8410   12.0848 C   0  0  0  0  0  0  0  0  0  0  0  0
  -14.4009   -4.3269   12.7040 F   0  0  0  0  0  0  0  0  0  0  0  0
  -12.2406   -5.3436   12.7981 C   0  0  0  0  0  0  0  0  0  0  0  0
  -11.1297   -5.8630   12.1466 C   0  0  0  0  0  0  0  0  0  0  0  0
   -7.8939   -7.8413    7.4348 C   0  0  0  0  0  0  0  0  0  0  0  0
   -8.6108   -9.0365    6.9576 C   0  0  0  0  0  0  0  0  0  0  0  0
   -8.2351   -9.7283    5.8354 C   0  0  0  0  0  0  0  0  0  0  0  0
   -8.8862  -10.8427    5.3783 C   0  0  0  0  0  0  0  0  0  0  0  0
   -9.9822  -11.2933    6.0886 C   0  0  0  0  0  0  0  0  0  0  0  0
  -10.3836  -10.6142    7.2248 C   0  0  0  0  0  0  0  0  0  0  0  0
   -9.7169   -9.5021    7.6627 C   0  0  0  0  0  0  0  0  0  0  0  0
 19 20  1  0  0  0
 20 21  1  0  0  0
 20 22  1  0  0  0
 20 15  1  0  0  0
 15 16  2  0  0  0
 15 17  1  0  0  0
 17  6  1  0  0  0
  6  7  2  0  0  0
  7  8  1  0  0  0
  8  9  1  0  0  0
  9 10  2  0  0  0
 10  1  1  0  0  0
  1  2  2  0  0  0
  2 23  1  0  0  0
 23 24  2  0  0  0
 24 25  1  0  0  0
 25 26  2  0  0  0
 26 27  1  0  0  0
 26 28  1  0  0  0
 28 29  2  0  0  0
  2  3  1  0  0  0
  3  4  2  0  0  0
  4  5  1  0  0  0
  5 30  1  0  0  0
 30 31  1  0  0  0
 31 32  2  0  0  0
 32 33  1  0  0  0
 33 34  2  0  0  0
 34 35  1  0  0  0
 35 36  2  0  0  0
 10 11  1  0  0  0
 11 12  2  0  0  0
 12 13  1  0  0  0
 13 14  2  0  0  0
 14  6  1  0  0  0
 13  8  1  0  0  0
  5  1  1  0  0  0
 36 31  1  0  0  0
 29 23  1  0  0  0
 17 18  1  0  0  0
M  END
> <minimizedAffinity>
15.90609

> <CNNscore>
0.4263843894

> <CNNaffinity>
7.0636849403

> <CNN_VS>
3.0118448734

> <CNNaffinity_variance>
1.1920740604

$$$$
[H]c1c([H])c([H])c(C([H])([H])n2c([H])nc(-c3c([H])c([H])c(F)c([H])c3[H])c2-c2nn3c([H])c(N([H])C(=O)C(C([H])([H])[H])(C([H])([H])[H])C([H])([H])[H])nc3c([H])c2[H])c([H])c1[H]


 36 40  0  0  0  0  0  0  0  0999 V2000
   -9.9510   -7.2148    8.1685 C   0  0  0  0  0  0  0  0  0  0  0  0
   -8.9458   -8.0901    7.8171 C   0  0  0  0  0  0  0  0  0  0  0  0
   -7.7784   -7.4015    7.9822 N   0  0  0  0  0  0  0  0  0  0  0  0
   -8.0166   -6.1783    8.4067 C   0  0  0  0  0  0  0  0  0  0  0  0
   -9.3751   -6.0716    8.5196 N   0  0  0  0  0  0  0  0  0  0  0  0
  -15.6482   -7.7013    6.6549 C   0  0  0  0  0  0  0  0  0  0  0  0
  -14.4699   -7.1148    6.2528 C   0  0  0  0  0  0  0  0  0  0  0  0
  -13.4822   -7.4516    7.1363 N   0  0  0  0  0  0  0  0  0  0  0  0
  -12.2056   -7.1352    7.1720 N   0  0  0  0  0  0  0  0  0  0  0  0
  -11.3688   -7.5631    8.1318 C   0  0  0  0  0  0  0  0  0  0  0  0
  -11.9213   -8.3675    9.1006 C   0  0  0  0  0  0  0  0  0  0  0  0
  -13.2691   -8.7151    9.0827 C   0  0  0  0  0  0  0  0  0  0  0  0
  -14.0427   -8.2325    8.0672 C   0  0  0  0  0  0  0  0  0  0  0  0
  -15.3425   -8.3820    7.7778 N   0  0  0  0  0  0  0  0  0  0  0  0
  -17.0468   -7.0362    4.7377 C   0  0  0  0  0  0  0  0  0  0  0  0
  -15.9988   -6.5998    4.1508 O   0  0  0  0  0  0  0  0  0  0  0  0
  -16.9042   -7.6102    6.0257 N   0  0  0  0  0  0  0  0  0  0  0  0
  -17.7463   -7.9662    6.5077 H   0  0  0  0  0  0  0  0  0  0  0  0
  -18.0595   -7.1750    2.5630 C   0  0  0  0  0  0  0  0  0  0  0  0
  -18.3224   -6.9087    4.0304 C   0  0  0  0  0  0  0  0  0  0  0  0
  -19.2919   -7.9381    4.5274 C   0  0  0  0  0  0  0  0  0  0  0  0
  -18.8948   -5.5121    4.1339 C   0  0  0  0  0  0  0  0  0  0  0  0
   -8.9789   -9.4616    7.3492 C   0  0  0  0  0  0  0  0  0  0  0  0
  -10.0301   -9.8948    6.5768 C   0  0  0  0  0  0  0  0  0  0  0  0
  -10.1032  -11.2016    6.0992 C   0  0  0  0  0  0  0  0  0  0  0  0
   -9.1031  -12.1053    6.3971 C   0  0  0  0  0  0  0  0  0  0  0  0
   -9.1775  -13.3820    5.9289 F   0  0  0  0  0  0  0  0  0  0  0  0
   -8.0487  -11.6798    7.1690 C   0  0  0  0  0  0  0  0  0  0  0  0
   -7.9927  -10.3734    7.6364 C   0  0  0  0  0  0  0  0  0  0  0  0
  -10.0539   -4.8651    8.9640 C   0  0  0  0  0  0  0  0  0  0  0  0
  -11.1424   -5.1630    9.9110 C   0  0  0  0  0  0  0  0  0  0  0  0
  -12.4616   -4.9277    9.6229 C   0  0  0  0  0  0  0  0  0  0  0  0
  -13.4871   -5.2010   10.4881 C   0  0  0  0  0  0  0  0  0  0  0  0
  -13.1727   -5.7440   11.7190 C   0  0  0  0  0  0  0  0  0  0  0  0
  -11.8495   -5.9917   12.0362 C   0  0  0  0  0  0  0  0  0  0  0  0
  -10.8409   -5.7101   11.1550 C   0  0  0  0  0  0  0  0  0  0  0  0
 19 20  1  0  0  0
 20 21  1  0  0  0
 20 22  1  0  0  0
 20 15  1  0  0  0
 15 16  2  0  0  0
 15 17  1  0  0  0
 17  6  1  0  0  0
  6  7  2  0  0  0
  7  8  1  0  0  0
  8  9  1  0  0  0
  9 10  2  0  0  0
 10  1  1  0  0  0
  1  2  2  0  0  0
  2 23  1  0  0  0
 23 24  2  0  0  0
 24 25  1  0  0  0
 25 26  2  0  0  0
 26 27  1  0  0  0
 26 28  1  0  0  0
 28 29  2  0  0  0
  2  3  1  0  0  0
  3  4  2  0  0  0
  4  5  1  0  0  0
  5 30  1  0  0  0
 30 31  1  0  0  0
 31 32  2  0  0  0
 32 33  1  0  0  0
 33 34  2  0  0  0
 34 35  1  0  0  0
 35 36  2  0  0  0
 10 11  1  0  0  0
 11 12  2  0  0  0
 12 13  1  0  0  0
 13 14  2  0  0  0
 14  6  1  0  0  0
 13  8  1  0  0  0
  5  1  1  0  0  0
 36 31  1  0  0  0
 29 23  1  0  0  0
 17 18  1  0  0  0
M  END
> <minimizedAffinity>
3.45396

> <CNNscore>
0.4227356017

> <CNNaffinity>
7.3017592430

> <CNN_VS>
3.0867135525

> <CNNaffinity_variance>
0.7941875458

$$$$
[H]c1c([H])c([H])c(C([H])([H])n2c([H])nc(-c3c([H])c([H])c(F)c([H])c3[H])c2-c2nn3c([H])c(N([H])C(=O)C(C([H])([H])[H])(C([H])([H])[H])C([H])([H])[H])nc3c([H])c2[H])c([H])c1[H]


 36 40  0  0  0  0  0  0  0  0999 V2000
   -7.0139   -7.2540    8.4754 C   0  0  0  0  0  0  0  0  0  0  0  0
   -6.5225   -8.0966    7.5014 C   0  0  0  0  0  0  0  0  0  0  0  0
   -5.1625   -8.0247    7.5988 N   0  0  0  0  0  0  0  0  0  0  0  0
   -4.8088   -7.1991    8.5613 C   0  0  0  0  0  0  0  0  0  0  0  0
   -5.9710   -6.7233    9.1020 N   0  0  0  0  0  0  0  0  0  0  0  0
  -12.8516   -6.5983    7.7849 C   0  0  0  0  0  0  0  0  0  0  0  0
  -11.6991   -6.8341    7.0707 C   0  0  0  0  0  0  0  0  0  0  0  0
  -10.6392   -6.8602    7.9342 N   0  0  0  0  0  0  0  0  0  0  0  0
   -9.3540   -7.0488    7.7244 N   0  0  0  0  0  0  0  0  0  0  0  0
   -8.4397   -7.0406    8.7085 C   0  0  0  0  0  0  0  0  0  0  0  0
   -8.9202   -6.8203    9.9779 C   0  0  0  0  0  0  0  0  0  0  0  0
  -10.2754   -6.6185   10.2231 C   0  0  0  0  0  0  0  0  0  0  0  0
  -11.1306   -6.6440    9.1599 C   0  0  0  0  0  0  0  0  0  0  0  0
  -12.4583   -6.4869    9.0697 N   0  0  0  0  0  0  0  0  0  0  0  0
  -14.8782   -7.6400    6.8458 C   0  0  0  0  0  0  0  0  0  0  0  0
  -14.3043   -8.7793    6.9249 O   0  0  0  0  0  0  0  0  0  0  0  0
  -14.1619   -6.4968    7.2802 N   0  0  0  0  0  0  0  0  0  0  0  0
  -14.6182   -5.5714    7.2203 H   0  0  0  0  0  0  0  0  0  0  0  0
  -16.3000   -8.5748    5.1491 C   0  0  0  0  0  0  0  0  0  0  0  0
  -16.2398   -7.6029    6.3090 C   0  0  0  0  0  0  0  0  0  0  0  0
  -17.2168   -8.0558    7.3515 C   0  0  0  0  0  0  0  0  0  0  0  0
  -16.6015   -6.2381    5.7655 C   0  0  0  0  0  0  0  0  0  0  0  0
   -7.1878   -8.9270    6.5170 C   0  0  0  0  0  0  0  0  0  0  0  0
   -6.7460   -8.9307    5.2155 C   0  0  0  0  0  0  0  0  0  0  0  0
   -7.3493   -9.7161    4.2355 C   0  0  0  0  0  0  0  0  0  0  0  0
   -8.4231  -10.5218    4.5571 C   0  0  0  0  0  0  0  0  0  0  0  0
   -9.0108  -11.2883    3.5969 F   0  0  0  0  0  0  0  0  0  0  0  0
   -8.8708  -10.5236    5.8563 C   0  0  0  0  0  0  0  0  0  0  0  0
   -8.2570   -9.7342    6.8199 C   0  0  0  0  0  0  0  0  0  0  0  0
   -6.0180   -5.7753   10.2035 C   0  0  0  0  0  0  0  0  0  0  0  0
   -4.6987   -5.1767   10.4710 C   0  0  0  0  0  0  0  0  0  0  0  0
   -3.5235   -5.7710   10.0908 C   0  0  0  0  0  0  0  0  0  0  0  0
   -2.2886   -5.2289   10.3272 C   0  0  0  0  0  0  0  0  0  0  0  0
   -2.2256   -4.0159   10.9856 C   0  0  0  0  0  0  0  0  0  0  0  0
   -3.3960   -3.3939   11.3809 C   0  0  0  0  0  0  0  0  0  0  0  0
   -4.6195   -3.9551   11.1336 C   0  0  0  0  0  0  0  0  0  0  0  0
 19 20  1  0  0  0
 20 21  1  0  0  0
 20 22  1  0  0  0
 20 15  1  0  0  0
 15 16  2  0  0  0
 15 17  1  0  0  0
 17  6  1  0  0  0
  6  7  2  0  0  0
  7  8  1  0  0  0
  8  9  1  0  0  0
  9 10  2  0  0  0
 10  1  1  0  0  0
  1  2  2  0  0  0
  2 23  1  0  0  0
 23 24  2  0  0  0
 24 25  1  0  0  0
 25 26  2  0  0  0
 26 27  1  0  0  0
 26 28  1  0  0  0
 28 29  2  0  0  0
  2  3  1  0  0  0
  3  4  2  0  0  0
  4  5  1  0  0  0
  5 30  1  0  0  0
 30 31  1  0  0  0
 31 32  2  0  0  0
 32 33  1  0  0  0
 33 34  2  0  0  0
 34 35  1  0  0  0
 35 36  2  0  0  0
 10 11  1  0  0  0
 11 12  2  0  0  0
 12 13  1  0  0  0
 13 14  2  0  0  0
 14  6  1  0  0  0
 13  8  1  0  0  0
  5  1  1  0  0  0
 36 31  1  0  0  0
 29 23  1  0  0  0
 17 18  1  0  0  0
M  END
> <minimizedAffinity>
6.24927

> <CNNscore>
0.4075438678

> <CNNaffinity>
7.2298636436

> <CNN_VS>
2.9464867115

> <CNNaffinity_variance>
2.5007069111

$$$$
[H]c1c([H])c([H])c(C([H])([H])n2c([H])nc(-c3c([H])c([H])c(F)c([H])c3[H])c2-c2nn3c([H])c(N([H])C(=O)C(C([H])([H])[H])(C([H])([H])[H])C([H])([H])[H])nc3c([H])c2[H])c([H])c1[H]


 36 40  0  0  0  0  0  0  0  0999 V2000
  -13.3336   -7.9502    8.1806 C   0  0  0  0  0  0  0  0  0  0  0  0
  -14.3355   -8.2300    7.2762 C   0  0  0  0  0  0  0  0  0  0  0  0
  -15.4444   -8.5068    8.0232 N   0  0  0  0  0  0  0  0  0  0  0  0
  -15.1743   -8.4119    9.3082 C   0  0  0  0  0  0  0  0  0  0  0  0
  -13.8549   -8.0644    9.3960 N   0  0  0  0  0  0  0  0  0  0  0  0
   -7.4483   -7.7691    7.6185 C   0  0  0  0  0  0  0  0  0  0  0  0
   -8.4504   -8.4465    8.2749 C   0  0  0  0  0  0  0  0  0  0  0  0
   -9.6576   -7.9220    7.9041 N   0  0  0  0  0  0  0  0  0  0  0  0
  -10.8850   -8.2341    8.2604 N   0  0  0  0  0  0  0  0  0  0  0  0
  -11.9712   -7.6006    7.7877 C   0  0  0  0  0  0  0  0  0  0  0  0
  -11.7359   -6.5847    6.8913 C   0  0  0  0  0  0  0  0  0  0  0  0
  -10.4459   -6.2376    6.5000 C   0  0  0  0  0  0  0  0  0  0  0  0
   -9.4032   -6.9379    7.0338 C   0  0  0  0  0  0  0  0  0  0  0  0
   -8.0773   -6.8465    6.8628 N   0  0  0  0  0  0  0  0  0  0  0  0
   -5.1454   -7.3490    6.8476 C   0  0  0  0  0  0  0  0  0  0  0  0
   -5.6085   -6.5477    5.9662 O   0  0  0  0  0  0  0  0  0  0  0  0
   -6.0619   -7.9938    7.7153 N   0  0  0  0  0  0  0  0  0  0  0  0
   -5.6964   -8.6431    8.4315 H   0  0  0  0  0  0  0  0  0  0  0  0
   -3.4009   -8.9298    6.3659 C   0  0  0  0  0  0  0  0  0  0  0  0
   -3.6946   -7.5410    6.8935 C   0  0  0  0  0  0  0  0  0  0  0  0
   -3.0152   -6.5469    6.0010 C   0  0  0  0  0  0  0  0  0  0  0  0
   -3.1555   -7.4780    8.3057 C   0  0  0  0  0  0  0  0  0  0  0  0
  -14.3457   -8.2686    5.8272 C   0  0  0  0  0  0  0  0  0  0  0  0
  -13.7585   -9.3219    5.1676 C   0  0  0  0  0  0  0  0  0  0  0  0
  -13.7481   -9.4058    3.7769 C   0  0  0  0  0  0  0  0  0  0  0  0
  -14.3381   -8.4148    3.0184 C   0  0  0  0  0  0  0  0  0  0  0  0
  -14.3261   -8.4997    1.6591 F   0  0  0  0  0  0  0  0  0  0  0  0
  -14.9273   -7.3584    3.6705 C   0  0  0  0  0  0  0  0  0  0  0  0
  -14.9281   -7.2914    5.0575 C   0  0  0  0  0  0  0  0  0  0  0  0
  -13.1586   -7.8577   10.6556 C   0  0  0  0  0  0  0  0  0  0  0  0
  -13.8667   -8.4846   11.7852 C   0  0  0  0  0  0  0  0  0  0  0  0
  -15.2304   -8.4476   11.9183 C   0  0  0  0  0  0  0  0  0  0  0  0
  -15.9066   -9.0269   12.9584 C   0  0  0  0  0  0  0  0  0  0  0  0
  -15.1720   -9.6845   13.9264 C   0  0  0  0  0  0  0  0  0  0  0  0
  -13.7942   -9.7371   13.8172 C   0  0  0  0  0  0  0  0  0  0  0  0
  -13.1399   -9.1503   12.7681 C   0  0  0  0  0  0  0  0  0  0  0  0
 19 20  1  0  0  0
 20 21  1  0  0  0
 20 22  1  0  0  0
 20 15  1  0  0  0
 15 16  2  0  0  0
 15 17  1  0  0  0
 17  6  1  0  0  0
  6  7  2  0  0  0
  7  8  1  0  0  0
  8  9  1  0  0  0
  9 10  2  0  0  0
 10  1  1  0  0  0
  1  2  2  0  0  0
  2 23  1  0  0  0
 23 24  2  0  0  0
 24 25  1  0  0  0
 25 26  2  0  0  0
 26 27  1  0  0  0
 26 28  1  0  0  0
 28 29  2  0  0  0
  2  3  1  0  0  0
  3  4  2  0  0  0
  4  5  1  0  0  0
  5 30  1  0  0  0
 30 31  1  0  0  0
 31 32  2  0  0  0
 32 33  1  0  0  0
 33 34  2  0  0  0
 34 35  1  0  0  0
 35 36  2  0  0  0
 10 11  1  0  0  0
 11 12  2  0  0  0
 12 13  1  0  0  0
 13 14  2  0  0  0
 14  6  1  0  0  0
 13  8  1  0  0  0
  5  1  1  0  0  0
 36 31  1  0  0  0
 29 23  1  0  0  0
 17 18  1  0  0  0
M  END
> <minimizedAffinity>
12.21533

> <CNNscore>
0.3988567591

> <CNNaffinity>
7.1357584000

> <CNN_VS>
2.8461453915

> <CNNaffinity_variance>
1.2890298367

$$$$
[H]c1c([H])c([H])c(C([H])([H])n2c([H])nc(-c3c([H])c([H])c(F)c([H])c3[H])c2-c2nn3c([H])c(N([H])C(=O)C(C([H])([H])[H])(C([H])([H])[H])C([H])([H])[H])nc3c([H])c2[H])c([H])c1[H]


 36 40  0  0  0  0  0  0  0  0999 V2000
   -9.0496   -6.3883   11.5442 C   0  0  0  0  0  0  0  0  0  0  0  0
  -10.3624   -6.0009   11.7075 C   0  0  0  0  0  0  0  0  0  0  0  0
  -10.5030   -5.7131   13.0349 N   0  0  0  0  0  0  0  0  0  0  0  0
   -9.3675   -5.9018   13.6738 C   0  0  0  0  0  0  0  0  0  0  0  0
   -8.4670   -6.3231   12.7351 N   0  0  0  0  0  0  0  0  0  0  0  0
   -5.3669   -7.4467    7.0383 C   0  0  0  0  0  0  0  0  0  0  0  0
   -5.3908   -6.9410    8.3181 C   0  0  0  0  0  0  0  0  0  0  0  0
   -6.6699   -7.0058    8.7972 N   0  0  0  0  0  0  0  0  0  0  0  0
   -7.1817   -6.6458    9.9546 N   0  0  0  0  0  0  0  0  0  0  0  0
   -8.4830   -6.7844   10.2578 C   0  0  0  0  0  0  0  0  0  0  0  0
   -9.2765   -7.3337    9.2783 C   0  0  0  0  0  0  0  0  0  0  0  0
   -8.7565   -7.7219    8.0468 C   0  0  0  0  0  0  0  0  0  0  0  0
   -7.4213   -7.5424    7.8287 C   0  0  0  0  0  0  0  0  0  0  0  0
   -6.6390   -7.8068    6.7735 N   0  0  0  0  0  0  0  0  0  0  0  0
   -3.3299   -6.4991    6.0251 C   0  0  0  0  0  0  0  0  0  0  0  0
   -3.5345   -5.4177    6.6749 O   0  0  0  0  0  0  0  0  0  0  0  0
   -4.2508   -7.5640    6.1885 N   0  0  0  0  0  0  0  0  0  0  0  0
   -4.0930   -8.4424    5.6673 H   0  0  0  0  0  0  0  0  0  0  0  0
   -1.0992   -7.3783    5.8672 C   0  0  0  0  0  0  0  0  0  0  0  0
   -2.1529   -6.5552    5.1561 C   0  0  0  0  0  0  0  0  0  0  0  0
   -2.4954   -7.2427    3.8691 C   0  0  0  0  0  0  0  0  0  0  0  0
   -1.5583   -5.1855    4.9122 C   0  0  0  0  0  0  0  0  0  0  0  0
  -11.4603   -5.8880   10.7679 C   0  0  0  0  0  0  0  0  0  0  0  0
  -11.9780   -7.0189   10.1830 C   0  0  0  0  0  0  0  0  0  0  0  0
  -13.0364   -6.9613    9.2786 C   0  0  0  0  0  0  0  0  0  0  0  0
  -13.5975   -5.7450    8.9451 C   0  0  0  0  0  0  0  0  0  0  0  0
  -14.6318   -5.6920    8.0606 F   0  0  0  0  0  0  0  0  0  0  0  0
  -13.0854   -4.6096    9.5256 C   0  0  0  0  0  0  0  0  0  0  0  0
  -12.0301   -4.6862   10.4250 C   0  0  0  0  0  0  0  0  0  0  0  0
   -7.0808   -6.6430   13.0354 C   0  0  0  0  0  0  0  0  0  0  0  0
   -6.2641   -5.4312   13.2215 C   0  0  0  0  0  0  0  0  0  0  0  0
   -6.6433   -4.3997   14.0408 C   0  0  0  0  0  0  0  0  0  0  0  0
   -5.8967   -3.2675   14.2294 C   0  0  0  0  0  0  0  0  0  0  0  0
   -4.6951   -3.1607   13.5558 C   0  0  0  0  0  0  0  0  0  0  0  0
   -4.2879   -4.1867   12.7224 C   0  0  0  0  0  0  0  0  0  0  0  0
   -5.0513   -5.3093   12.5494 C   0  0  0  0  0  0  0  0  0  0  0  0
 19 20  1  0  0  0
 20 21  1  0  0  0
 20 22  1  0  0  0
 20 15  1  0  0  0
 15 16  2  0  0  0
 15 17  1  0  0  0
 17  6  1  0  0  0
  6  7  2  0  0  0
  7  8  1  0  0  0
  8  9  1  0  0  0
  9 10  2  0  0  0
 10  1  1  0  0  0
  1  2  2  0  0  0
  2 23  1  0  0  0
 23 24  2  0  0  0
 24 25  1  0  0  0
 25 26  2  0  0  0
 26 27  1  0  0  0
 26 28  1  0  0  0
 28 29  2  0  0  0
  2  3  1  0  0  0
  3  4  2  0  0  0
  4  5  1  0  0  0
  5 30  1  0  0  0
 30 31  1  0  0  0
 31 32  2  0  0  0
 32 33  1  0  0  0
 33 34  2  0  0  0
 34 35  1  0  0  0
 35 36  2  0  0  0
 10 11  1  0  0  0
 11 12  2  0  0  0
 12 13  1  0  0  0
 13 14  2  0  0  0
 14  6  1  0  0  0
 13  8  1  0  0  0
  5  1  1  0  0  0
 36 31  1  0  0  0
 29 23  1  0  0  0
 17 18  1  0  0  0
M  END
> <minimizedAffinity>
14.56774

> <CNNscore>
0.3978981376

> <CNNaffinity>
6.3797883987

> <CNN_VS>
2.5385060310

> <CNNaffinity_variance>
1.0920282602

$$$$
[H]c1c([H])c([H])c(C([H])([H])n2c([H])nc(-c3c([H])c([H])c(F)c([H])c3[H])c2-c2nn3c([H])c(N([H])C(=O)C(C([H])([H])[H])(C([H])([H])[H])C([H])([H])[H])nc3c([H])c2[H])c([H])c1[H]


 36 40  0  0  0  0  0  0  0  0999 V2000
  -13.6630   -7.7271    8.3661 C   0  0  0  0  0  0  0  0  0  0  0  0
  -14.7188   -7.9428    7.5067 C   0  0  0  0  0  0  0  0  0  0  0  0
  -15.8073   -8.1603    8.3018 N   0  0  0  0  0  0  0  0  0  0  0  0
  -15.4749   -8.0899    9.5737 C   0  0  0  0  0  0  0  0  0  0  0  0
  -14.1350   -7.8193    9.6033 N   0  0  0  0  0  0  0  0  0  0  0  0
   -7.8032   -6.9632    8.1088 C   0  0  0  0  0  0  0  0  0  0  0  0
   -8.8125   -7.2913    8.9851 C   0  0  0  0  0  0  0  0  0  0  0  0
  -10.0045   -7.2754    8.3154 N   0  0  0  0  0  0  0  0  0  0  0  0
  -11.2317   -7.5180    8.7233 N   0  0  0  0  0  0  0  0  0  0  0  0
  -12.3016   -7.4537    7.9136 C   0  0  0  0  0  0  0  0  0  0  0  0
  -12.0497   -7.1138    6.6052 C   0  0  0  0  0  0  0  0  0  0  0  0
  -10.7597   -6.8531    6.1518 C   0  0  0  0  0  0  0  0  0  0  0  0
   -9.7342   -6.9431    7.0478 C   0  0  0  0  0  0  0  0  0  0  0  0
   -8.4131   -6.7558    6.9243 N   0  0  0  0  0  0  0  0  0  0  0  0
   -5.4496   -7.0941    7.3898 C   0  0  0  0  0  0  0  0  0  0  0  0
   -5.8473   -7.3900    6.2118 O   0  0  0  0  0  0  0  0  0  0  0  0
   -6.4273   -6.8666    8.3902 N   0  0  0  0  0  0  0  0  0  0  0  0
   -6.1149   -6.6264    9.3457 H   0  0  0  0  0  0  0  0  0  0  0  0
   -3.4049   -8.3449    7.2195 C   0  0  0  0  0  0  0  0  0  0  0  0
   -4.0055   -7.0128    7.6171 C   0  0  0  0  0  0  0  0  0  0  0  0
   -3.4063   -5.9498    6.7467 C   0  0  0  0  0  0  0  0  0  0  0  0
   -3.6693   -6.7903    9.0753 C   0  0  0  0  0  0  0  0  0  0  0  0
  -14.7962   -7.9709    6.0595 C   0  0  0  0  0  0  0  0  0  0  0  0
  -15.3017   -6.8877    5.3811 C   0  0  0  0  0  0  0  0  0  0  0  0
  -15.3908   -6.8660    3.9908 C   0  0  0  0  0  0  0  0  0  0  0  0
  -14.9653   -7.9516    3.2520 C   0  0  0  0  0  0  0  0  0  0  0  0
  -15.0538   -7.9273    1.8932 F   0  0  0  0  0  0  0  0  0  0  0  0
  -14.4586   -9.0386    3.9230 C   0  0  0  0  0  0  0  0  0  0  0  0
  -14.3775   -9.0426    5.3093 C   0  0  0  0  0  0  0  0  0  0  0  0
  -13.3722   -7.6615   10.8311 C   0  0  0  0  0  0  0  0  0  0  0  0
  -13.6391   -8.7490   11.7884 C   0  0  0  0  0  0  0  0  0  0  0  0
  -14.7940   -8.8240   12.5228 C   0  0  0  0  0  0  0  0  0  0  0  0
  -15.0617   -9.8281   13.4144 C   0  0  0  0  0  0  0  0  0  0  0  0
  -14.1141  -10.8195   13.5817 C   0  0  0  0  0  0  0  0  0  0  0  0
  -12.9392  -10.7686   12.8536 C   0  0  0  0  0  0  0  0  0  0  0  0
  -12.6936   -9.7546   11.9678 C   0  0  0  0  0  0  0  0  0  0  0  0
 19 20  1  0  0  0
 20 21  1  0  0  0
 20 22  1  0  0  0
 20 15  1  0  0  0
 15 16  2  0  0  0
 15 17  1  0  0  0
 17  6  1  0  0  0
  6  7  2  0  0  0
  7  8  1  0  0  0
  8  9  1  0  0  0
  9 10  2  0  0  0
 10  1  1  0  0  0
  1  2  2  0  0  0
  2 23  1  0  0  0
 23 24  2  0  0  0
 24 25  1  0  0  0
 25 26  2  0  0  0
 26 27  1  0  0  0
 26 28  1  0  0  0
 28 29  2  0  0  0
  2  3  1  0  0  0
  3  4  2  0  0  0
  4  5  1  0  0  0
  5 30  1  0  0  0
 30 31  1  0  0  0
 31 32  2  0  0  0
 32 33  1  0  0  0
 33 34  2  0  0  0
 34 35  1  0  0  0
 35 36  2  0  0  0
 10 11  1  0  0  0
 11 12  2  0  0  0
 12 13  1  0  0  0
 13 14  2  0  0  0
 14  6  1  0  0  0
 13  8  1  0  0  0
  5  1  1  0  0  0
 36 31  1  0  0  0
 29 23  1  0  0  0
 17 18  1  0  0  0
M  END
> <minimizedAffinity>
13.15975

> <CNNscore>
0.3867826760

> <CNNaffinity>
7.1738181114

> <CNN_VS>
2.7747085094

> <CNNaffinity_variance>
1.0057439804

$$$$
[H]c1nc(N([H])[H])c(OC([H])([H])C([H])([H])[H])c(N2C([H])([H])C([H])([H])N(C([H])(c3c([H])c([H])c(C(F)(F)F)c([H])c3[H])C([H])([H])N([H])[H])C([H])([H])C2([H])[H])n1


 33 35  0  0  0  0  0  0  0  0999 V2000
  -12.5895   -9.1418    7.5102 N   0  0  0  0  0  0  0  0  0  0  0  0
  -13.5051  -10.0312    8.1892 C   0  0  0  0  0  0  0  0  0  0  0  0
  -14.6997   -9.1578    8.4877 C   0  0  0  0  0  0  0  0  0  0  0  0
  -15.5526   -9.1025    7.2718 N   0  0  0  0  0  0  0  0  0  0  0  0
  -14.6153   -8.9563    6.1544 C   0  0  0  0  0  0  0  0  0  0  0  0
  -13.3356   -8.2885    6.5156 C   0  0  0  0  0  0  0  0  0  0  0  0
  -10.4525   -7.9289    7.9955 C   0  0  0  0  0  0  0  0  0  0  0  0
   -9.0423   -7.9380    7.9274 C   0  0  0  0  0  0  0  0  0  0  0  0
   -8.2908   -6.8122    8.3369 N   0  0  0  0  0  0  0  0  0  0  0  0
   -8.4106   -9.0096    7.4754 N   0  0  0  0  0  0  0  0  0  0  0  0
   -9.1405  -10.0771    7.0898 C   0  0  0  0  0  0  0  0  0  0  0  0
  -10.4715  -10.0694    7.1505 N   0  0  0  0  0  0  0  0  0  0  0  0
  -11.2048   -8.9821    7.6098 C   0  0  0  0  0  0  0  0  0  0  0  0
   -7.4361   -6.9668    8.9360 H   0  0  0  0  0  0  0  0  0  0  0  0
   -8.5407   -5.8230    8.0641 H   0  0  0  0  0  0  0  0  0  0  0  0
  -10.9890   -6.7510    8.4917 O   0  0  0  0  0  0  0  0  0  0  0  0
  -12.9315   -6.0817    9.7187 C   0  0  0  0  0  0  0  0  0  0  0  0
  -11.5510   -6.6944    9.7948 C   0  0  0  0  0  0  0  0  0  0  0  0
  -16.3599   -7.9006    7.3425 C   0  0  0  0  0  0  0  0  0  0  0  0
  -15.9270   -6.8770    6.3765 C   0  0  0  0  0  0  0  0  0  0  0  0
  -14.7951   -6.1338    6.6533 C   0  0  0  0  0  0  0  0  0  0  0  0
  -14.4013   -5.0822    5.8377 C   0  0  0  0  0  0  0  0  0  0  0  0
  -15.1444   -4.7528    4.7259 C   0  0  0  0  0  0  0  0  0  0  0  0
  -16.2732   -5.4725    4.4169 C   0  0  0  0  0  0  0  0  0  0  0  0
  -16.6325   -6.5254    5.2632 C   0  0  0  0  0  0  0  0  0  0  0  0
  -14.7560   -3.5913    3.8889 C   0  0  0  0  0  0  0  0  0  0  0  0
  -13.6542   -4.0114    3.1092 F   0  0  0  0  0  0  0  0  0  0  0  0
  -14.3297   -2.5091    4.6188 F   0  0  0  0  0  0  0  0  0  0  0  0
  -15.7363   -3.2656    2.9819 F   0  0  0  0  0  0  0  0  0  0  0  0
  -17.7788   -8.3008    6.8801 C   0  0  0  0  0  0  0  0  0  0  0  0
  -18.6924   -8.4920    7.9495 N   0  0  0  0  0  0  0  0  0  0  0  0
  -18.7856   -9.4799    8.2118 H   0  0  0  0  0  0  0  0  0  0  0  0
  -19.5663   -7.9620    7.8629 H   0  0  0  0  0  0  0  0  0  0  0  0
 17 18  1  0  0  0
 18 16  1  0  0  0
 16  7  1  0  0  0
  7  8  2  0  0  0
  8  9  1  0  0  0
  8 10  1  0  0  0
 10 11  2  0  0  0
 11 12  1  0  0  0
 12 13  2  0  0  0
 13  1  1  0  0  0
  1  2  1  0  0  0
  2  3  1  0  0  0
  3  4  1  0  0  0
  4 19  1  0  0  0
 19 30  1  0  0  0
 30 31  1  0  0  0
 19 20  1  0  0  0
 20 21  2  0  0  0
 21 22  1  0  0  0
 22 23  2  0  0  0
 23 26  1  0  0  0
 26 27  1  0  0  0
 26 28  1  0  0  0
 26 29  1  0  0  0
 23 24  1  0  0  0
 24 25  2  0  0  0
  4  5  1  0  0  0
  5  6  1  0  0  0
 13  7  1  0  0  0
  6  1  1  0  0  0
 25 20  1  0  0  0
  9 14  1  0  0  0
  9 15  1  0  0  0
 31 32  1  0  0  0
 31 33  1  0  0  0
M  END
> <minimizedAffinity>
-4.75273

> <CNNscore>
0.4154589474

> <CNNaffinity>
7.1772551537

> <CNN_VS>
2.9818549156

> <CNNaffinity_variance>
0.0668608099

$$$$
[H]c1nc(N([H])[H])c(OC([H])([H])C([H])([H])[H])c(N2C([H])([H])C([H])([H])N(C([H])(c3c([H])c([H])c(C(F)(F)F)c([H])c3[H])C([H])([H])N([H])[H])C([H])([H])C2([H])[H])n1


 33 35  0  0  0  0  0  0  0  0999 V2000
  -13.8554   -7.7450    7.9717 N   0  0  0  0  0  0  0  0  0  0  0  0
  -14.8037   -8.6117    8.6349 C   0  0  0  0  0  0  0  0  0  0  0  0
  -16.1449   -8.1088    8.1579 C   0  0  0  0  0  0  0  0  0  0  0  0
  -16.4237   -8.7126    6.8288 N   0  0  0  0  0  0  0  0  0  0  0  0
  -15.1515   -8.6435    6.1039 C   0  0  0  0  0  0  0  0  0  0  0  0
  -14.2633   -7.5307    6.5358 C   0  0  0  0  0  0  0  0  0  0  0  0
  -11.3841   -7.3653    8.1201 C   0  0  0  0  0  0  0  0  0  0  0  0
  -10.3241   -6.6985    8.7720 C   0  0  0  0  0  0  0  0  0  0  0  0
   -8.9791   -6.9694    8.4293 N   0  0  0  0  0  0  0  0  0  0  0  0
  -10.5859   -5.8088    9.7163 N   0  0  0  0  0  0  0  0  0  0  0  0
  -11.8740   -5.5590   10.0316 C   0  0  0  0  0  0  0  0  0  0  0  0
  -12.8757   -6.1894    9.4196 N   0  0  0  0  0  0  0  0  0  0  0  0
  -12.6805   -7.1372    8.4222 C   0  0  0  0  0  0  0  0  0  0  0  0
   -8.3157   -6.1578    8.3089 H   0  0  0  0  0  0  0  0  0  0  0  0
   -8.6049   -7.9480    8.2960 H   0  0  0  0  0  0  0  0  0  0  0  0
  -10.9758   -8.2662    7.1489 O   0  0  0  0  0  0  0  0  0  0  0  0
   -9.8347  -10.3390    6.7905 C   0  0  0  0  0  0  0  0  0  0  0  0
  -11.0603   -9.6670    7.3678 C   0  0  0  0  0  0  0  0  0  0  0  0
  -17.3798   -7.8668    6.1419 C   0  0  0  0  0  0  0  0  0  0  0  0
  -16.7479   -6.6810    5.5395 C   0  0  0  0  0  0  0  0  0  0  0  0
  -16.6063   -6.6251    4.1658 C   0  0  0  0  0  0  0  0  0  0  0  0
  -15.9213   -5.5874    3.5495 C   0  0  0  0  0  0  0  0  0  0  0  0
  -15.3581   -4.5841    4.3064 C   0  0  0  0  0  0  0  0  0  0  0  0
  -15.4826   -4.6042    5.6746 C   0  0  0  0  0  0  0  0  0  0  0  0
  -16.1830   -5.6660    6.2544 C   0  0  0  0  0  0  0  0  0  0  0  0
  -14.5751   -3.5080    3.6512 C   0  0  0  0  0  0  0  0  0  0  0  0
  -14.1044   -2.6690    4.6870 F   0  0  0  0  0  0  0  0  0  0  0  0
  -15.3249   -2.7166    2.8161 F   0  0  0  0  0  0  0  0  0  0  0  0
  -13.4443   -3.9982    3.0423 F   0  0  0  0  0  0  0  0  0  0  0  0
  -17.9016   -8.6860    4.9402 C   0  0  0  0  0  0  0  0  0  0  0  0
  -19.1480   -9.3203    5.1829 N   0  0  0  0  0  0  0  0  0  0  0  0
  -19.0387  -10.3009    5.4657 H   0  0  0  0  0  0  0  0  0  0  0  0
  -19.8673   -9.1300    4.4769 H   0  0  0  0  0  0  0  0  0  0  0  0
 17 18  1  0  0  0
 18 16  1  0  0  0
 16  7  1  0  0  0
  7  8  2  0  0  0
  8  9  1  0  0  0
  8 10  1  0  0  0
 10 11  2  0  0  0
 11 12  1  0  0  0
 12 13  2  0  0  0
 13  1  1  0  0  0
  1  2  1  0  0  0
  2  3  1  0  0  0
  3  4  1  0  0  0
  4 19  1  0  0  0
 19 30  1  0  0  0
 30 31  1  0  0  0
 19 20  1  0  0  0
 20 21  2  0  0  0
 21 22  1  0  0  0
 22 23  2  0  0  0
 23 26  1  0  0  0
 26 27  1  0  0  0
 26 28  1  0  0  0
 26 29  1  0  0  0
 23 24  1  0  0  0
 24 25  2  0  0  0
  4  5  1  0  0  0
  5  6  1  0  0  0
 13  7  1  0  0  0
  6  1  1  0  0  0
 25 20  1  0  0  0
  9 14  1  0  0  0
  9 15  1  0  0  0
 31 32  1  0  0  0
 31 33  1  0  0  0
M  END
> <minimizedAffinity>
-4.13323

> <CNNscore>
0.4092626572

> <CNNaffinity>
7.2217340469

> <CNN_VS>
2.9555859566

> <CNNaffinity_variance>
0.0784461126

$$$$
[H]c1nc(N([H])[H])c(OC([H])([H])C([H])([H])[H])c(N2C([H])([H])C([H])([H])N(C([H])(c3c([H])c([H])c(C(F)(F)F)c([H])c3[H])C([H])([H])N([H])[H])C([H])([H])C2([H])[H])n1


 33 35  0  0  0  0  0  0  0  0999 V2000
  -12.8553   -7.6017    7.5352 N   0  0  0  0  0  0  0  0  0  0  0  0
  -12.3890   -6.6485    6.5533 C   0  0  0  0  0  0  0  0  0  0  0  0
  -11.0925   -6.1386    7.1349 C   0  0  0  0  0  0  0  0  0  0  0  0
  -10.0174   -7.1085    6.7995 N   0  0  0  0  0  0  0  0  0  0  0  0
  -10.6155   -8.4298    7.0120 C   0  0  0  0  0  0  0  0  0  0  0  0
  -11.7073   -8.4494    8.0227 C   0  0  0  0  0  0  0  0  0  0  0  0
  -14.5486   -8.1418    9.3001 C   0  0  0  0  0  0  0  0  0  0  0  0
  -15.8887   -8.4738    9.5954 C   0  0  0  0  0  0  0  0  0  0  0  0
  -16.2861   -8.7690   10.9200 N   0  0  0  0  0  0  0  0  0  0  0  0
  -16.7881   -8.5113    8.6251 N   0  0  0  0  0  0  0  0  0  0  0  0
  -16.3951   -8.2255    7.3662 C   0  0  0  0  0  0  0  0  0  0  0  0
  -15.1302   -7.9149    7.0850 N   0  0  0  0  0  0  0  0  0  0  0  0
  -14.1298   -7.8581    8.0479 C   0  0  0  0  0  0  0  0  0  0  0  0
  -17.1807   -8.3450   11.2849 H   0  0  0  0  0  0  0  0  0  0  0  0
  -15.7327   -9.4016   11.5597 H   0  0  0  0  0  0  0  0  0  0  0  0
  -13.7100   -8.1322   10.4039 O   0  0  0  0  0  0  0  0  0  0  0  0
  -13.3518   -9.7350   12.1445 C   0  0  0  0  0  0  0  0  0  0  0  0
  -12.9531   -9.2805   10.7583 C   0  0  0  0  0  0  0  0  0  0  0  0
   -8.9442   -6.9405    7.7594 C   0  0  0  0  0  0  0  0  0  0  0  0
   -8.1202   -8.1532    7.8968 C   0  0  0  0  0  0  0  0  0  0  0  0
   -7.8936   -8.9365    6.7809 C   0  0  0  0  0  0  0  0  0  0  0  0
   -7.2198  -10.1465    6.8696 C   0  0  0  0  0  0  0  0  0  0  0  0
   -6.7636  -10.5969    8.0885 C   0  0  0  0  0  0  0  0  0  0  0  0
   -6.9667   -9.8426    9.2188 C   0  0  0  0  0  0  0  0  0  0  0  0
   -7.6472   -8.6290    9.0845 C   0  0  0  0  0  0  0  0  0  0  0  0
   -6.0968  -11.9179    8.1914 C   0  0  0  0  0  0  0  0  0  0  0  0
   -4.7420  -11.7097    7.8454 F   0  0  0  0  0  0  0  0  0  0  0  0
   -6.5878  -12.8489    7.3095 F   0  0  0  0  0  0  0  0  0  0  0  0
   -6.0715  -12.3772    9.4869 F   0  0  0  0  0  0  0  0  0  0  0  0
   -7.9885   -5.8826    7.1637 C   0  0  0  0  0  0  0  0  0  0  0  0
   -7.6984   -6.0881    5.7895 N   0  0  0  0  0  0  0  0  0  0  0  0
   -6.8117   -6.5850    5.6476 H   0  0  0  0  0  0  0  0  0  0  0  0
   -7.8592   -5.2691    5.1934 H   0  0  0  0  0  0  0  0  0  0  0  0
 17 18  1  0  0  0
 18 16  1  0  0  0
 16  7  1  0  0  0
  7  8  2  0  0  0
  8  9  1  0  0  0
  8 10  1  0  0  0
 10 11  2  0  0  0
 11 12  1  0  0  0
 12 13  2  0  0  0
 13  1  1  0  0  0
  1  2  1  0  0  0
  2  3  1  0  0  0
  3  4  1  0  0  0
  4 19  1  0  0  0
 19 30  1  0  0  0
 30 31  1  0  0  0
 19 20  1  0  0  0
 20 21  2  0  0  0
 21 22  1  0  0  0
 22 23  2  0  0  0
 23 26  1  0  0  0
 26 27  1  0  0  0
 26 28  1  0  0  0
 26 29  1  0  0  0
 23 24  1  0  0  0
 24 25  2  0  0  0
  4  5  1  0  0  0
  5  6  1  0  0  0
 13  7  1  0  0  0
  6  1  1  0  0  0
 25 20  1  0  0  0
  9 14  1  0  0  0
  9 15  1  0  0  0
 31 32  1  0  0  0
 31 33  1  0  0  0
M  END
> <minimizedAffinity>
20.90961

> <CNNscore>
0.3906672001

> <CNNaffinity>
6.2109146118

> <CNN_VS>
2.4264006615

> <CNNaffinity_variance>
1.3535321951

$$$$
[H]c1nc(N([H])[H])c(OC([H])([H])C([H])([H])[H])c(N2C([H])([H])C([H])([H])N(C([H])(c3c([H])c([H])c(C(F)(F)F)c([H])c3[H])C([H])([H])N([H])[H])C([H])([H])C2([H])[H])n1


 33 35  0  0  0  0  0  0  0  0999 V2000
  -12.6203   -7.6070    8.1878 N   0  0  0  0  0  0  0  0  0  0  0  0
  -12.4527   -6.4829    7.2942 C   0  0  0  0  0  0  0  0  0  0  0  0
  -11.1051   -5.9190    7.6748 C   0  0  0  0  0  0  0  0  0  0  0  0
  -10.0555   -6.7103    6.9813 N   0  0  0  0  0  0  0  0  0  0  0  0
  -10.4887   -8.1056    7.0998 C   0  0  0  0  0  0  0  0  0  0  0  0
  -11.3316   -8.3829    8.2941 C   0  0  0  0  0  0  0  0  0  0  0  0
  -14.9302   -8.5287    8.4850 C   0  0  0  0  0  0  0  0  0  0  0  0
  -15.9694   -8.8568    9.3827 C   0  0  0  0  0  0  0  0  0  0  0  0
  -17.2139   -9.3308    8.9070 N   0  0  0  0  0  0  0  0  0  0  0  0
  -15.7828   -8.7206   10.6860 N   0  0  0  0  0  0  0  0  0  0  0  0
  -14.5897   -8.2689   11.1257 C   0  0  0  0  0  0  0  0  0  0  0  0
  -13.6087   -7.9560   10.2800 N   0  0  0  0  0  0  0  0  0  0  0  0
  -13.7301   -8.0692    8.9003 C   0  0  0  0  0  0  0  0  0  0  0  0
  -17.6574  -10.1572    9.3904 H   0  0  0  0  0  0  0  0  0  0  0  0
  -17.7250   -8.8907    8.0942 H   0  0  0  0  0  0  0  0  0  0  0  0
  -15.2514   -8.7216    7.1504 O   0  0  0  0  0  0  0  0  0  0  0  0
  -16.9914   -7.7099    5.8559 C   0  0  0  0  0  0  0  0  0  0  0  0
  -15.5493   -7.6217    6.3028 C   0  0  0  0  0  0  0  0  0  0  0  0
   -8.8168   -6.5593    7.7190 C   0  0  0  0  0  0  0  0  0  0  0  0
   -8.0907   -7.8323    7.8620 C   0  0  0  0  0  0  0  0  0  0  0  0
   -7.9634   -8.6559    6.7594 C   0  0  0  0  0  0  0  0  0  0  0  0
   -7.3883   -9.9150    6.8579 C   0  0  0  0  0  0  0  0  0  0  0  0
   -6.9329  -10.3747    8.0737 C   0  0  0  0  0  0  0  0  0  0  0  0
   -7.0387   -9.5816    9.1907 C   0  0  0  0  0  0  0  0  0  0  0  0
   -7.6217   -8.3194    9.0466 C   0  0  0  0  0  0  0  0  0  0  0  0
   -6.3733  -11.7436    8.1893 C   0  0  0  0  0  0  0  0  0  0  0  0
   -4.9779  -11.6223    7.9979 F   0  0  0  0  0  0  0  0  0  0  0  0
   -6.8284  -12.6044    7.2210 F   0  0  0  0  0  0  0  0  0  0  0  0
   -6.5204  -12.2493    9.4591 F   0  0  0  0  0  0  0  0  0  0  0  0
   -7.8949   -5.6780    6.8468 C   0  0  0  0  0  0  0  0  0  0  0  0
   -7.7882   -6.1227    5.5030 N   0  0  0  0  0  0  0  0  0  0  0  0
   -6.9501   -6.6938    5.3460 H   0  0  0  0  0  0  0  0  0  0  0  0
   -7.9840   -5.4026    4.7994 H   0  0  0  0  0  0  0  0  0  0  0  0
 17 18  1  0  0  0
 18 16  1  0  0  0
 16  7  1  0  0  0
  7  8  2  0  0  0
  8  9  1  0  0  0
  8 10  1  0  0  0
 10 11  2  0  0  0
 11 12  1  0  0  0
 12 13  2  0  0  0
 13  1  1  0  0  0
  1  2  1  0  0  0
  2  3  1  0  0  0
  3  4  1  0  0  0
  4 19  1  0  0  0
 19 30  1  0  0  0
 30 31  1  0  0  0
 19 20  1  0  0  0
 20 21  2  0  0  0
 21 22  1  0  0  0
 22 23  2  0  0  0
 23 26  1  0  0  0
 26 27  1  0  0  0
 26 28  1  0  0  0
 26 29  1  0  0  0
 23 24  1  0  0  0
 24 25  2  0  0  0
  4  5  1  0  0  0
  5  6  1  0  0  0
 13  7  1  0  0  0
  6  1  1  0  0  0
 25 20  1  0  0  0
  9 14  1  0  0  0
  9 15  1  0  0  0
 31 32  1  0  0  0
 31 33  1  0  0  0
M  END
> <minimizedAffinity>
16.55663

> <CNNscore>
0.3788504899

> <CNNaffinity>
6.4000968933

> <CNN_VS>
2.4246797562

> <CNNaffinity_variance>
1.2786712646

$$$$
[H]c1nc(N([H])[H])c(OC([H])([H])C([H])([H])[H])c(N2C([H])([H])C([H])([H])N(C([H])(c3c([H])c([H])c(C(F)(F)F)c([H])c3[H])C([H])([H])N([H])[H])C([H])([H])C2([H])[H])n1


 33 35  0  0  0  0  0  0  0  0999 V2000
  -11.2365   -7.7689    8.1353 N   0  0  0  0  0  0  0  0  0  0  0  0
  -12.1212   -6.6510    8.3760 C   0  0  0  0  0  0  0  0  0  0  0  0
  -13.2516   -6.8706    7.3997 C   0  0  0  0  0  0  0  0  0  0  0  0
  -14.2055   -7.8389    8.0007 N   0  0  0  0  0  0  0  0  0  0  0  0
  -13.3654   -8.8696    8.6175 C   0  0  0  0  0  0  0  0  0  0  0  0
  -12.0349   -9.0378    7.9730 C   0  0  0  0  0  0  0  0  0  0  0  0
   -8.8741   -7.0475    8.5502 C   0  0  0  0  0  0  0  0  0  0  0  0
   -7.5051   -7.2559    8.2748 C   0  0  0  0  0  0  0  0  0  0  0  0
   -6.5207   -6.3881    8.8018 N   0  0  0  0  0  0  0  0  0  0  0  0
   -7.1325   -8.2734    7.5148 N   0  0  0  0  0  0  0  0  0  0  0  0
   -8.0825   -9.0943    7.0203 C   0  0  0  0  0  0  0  0  0  0  0  0
   -9.3752   -8.8976    7.2765 N   0  0  0  0  0  0  0  0  0  0  0  0
   -9.8434   -7.8513    8.0620 C   0  0  0  0  0  0  0  0  0  0  0  0
   -5.6489   -6.8092    9.2210 H   0  0  0  0  0  0  0  0  0  0  0  0
   -6.6137   -5.3361    8.7881 H   0  0  0  0  0  0  0  0  0  0  0  0
   -9.1294   -5.9531    9.3617 O   0  0  0  0  0  0  0  0  0  0  0  0
   -9.8401   -4.5559    7.5534 C   0  0  0  0  0  0  0  0  0  0  0  0
  -10.0843   -4.9707    8.9869 C   0  0  0  0  0  0  0  0  0  0  0  0
  -14.9581   -8.4552    6.9260 C   0  0  0  0  0  0  0  0  0  0  0  0
  -15.9210   -7.5261    6.3113 C   0  0  0  0  0  0  0  0  0  0  0  0
  -15.4460   -6.5092    5.5047 C   0  0  0  0  0  0  0  0  0  0  0  0
  -16.2927   -5.5383    4.9884 C   0  0  0  0  0  0  0  0  0  0  0  0
  -17.6385   -5.5681    5.2791 C   0  0  0  0  0  0  0  0  0  0  0  0
  -18.1472   -6.5667    6.0739 C   0  0  0  0  0  0  0  0  0  0  0  0
  -17.2602   -7.5262    6.5706 C   0  0  0  0  0  0  0  0  0  0  0  0
  -18.5322   -4.4962    4.7762 C   0  0  0  0  0  0  0  0  0  0  0  0
  -19.6901   -4.5285    5.5866 F   0  0  0  0  0  0  0  0  0  0  0  0
  -18.9524   -4.6955    3.4842 F   0  0  0  0  0  0  0  0  0  0  0  0
  -17.9908   -3.2476    4.9705 F   0  0  0  0  0  0  0  0  0  0  0  0
  -13.9417   -8.7652    5.8043 C   0  0  0  0  0  0  0  0  0  0  0  0
  -14.4295   -8.4837    4.5013 N   0  0  0  0  0  0  0  0  0  0  0  0
  -14.8001   -9.3190    4.0341 H   0  0  0  0  0  0  0  0  0  0  0  0
  -13.8176   -7.8835    3.9380 H   0  0  0  0  0  0  0  0  0  0  0  0
 17 18  1  0  0  0
 18 16  1  0  0  0
 16  7  1  0  0  0
  7  8  2  0  0  0
  8  9  1  0  0  0
  8 10  1  0  0  0
 10 11  2  0  0  0
 11 12  1  0  0  0
 12 13  2  0  0  0
 13  1  1  0  0  0
  1  2  1  0  0  0
  2  3  1  0  0  0
  3  4  1  0  0  0
  4 19  1  0  0  0
 19 30  1  0  0  0
 30 31  1  0  0  0
 19 20  1  0  0  0
 20 21  2  0  0  0
 21 22  1  0  0  0
 22 23  2  0  0  0
 23 26  1  0  0  0
 26 27  1  0  0  0
 26 28  1  0  0  0
 26 29  1  0  0  0
 23 24  1  0  0  0
 24 25  2  0  0  0
  4  5  1  0  0  0
  5  6  1  0  0  0
 13  7  1  0  0  0
  6  1  1  0  0  0
 25 20  1  0  0  0
  9 14  1  0  0  0
  9 15  1  0  0  0
 31 32  1  0  0  0
 31 33  1  0  0  0
M  END
> <minimizedAffinity>
4.64021

> <CNNscore>
0.3670254648

> <CNNaffinity>
6.8323974609

> <CNN_VS>
2.5076639652

> <CNNaffinity_variance>
0.9298633337

$$$$
[H]c1nc(N([H])[H])c(OC([H])([H])C([H])([H])[H])c(N2C([H])([H])C([H])([H])N(C([H])(c3c([H])c([H])c(C(F)(F)F)c([H])c3[H])C([H])([H])N([H])[H])C([H])([H])C2([H])[H])n1


 33 35  0  0  0  0  0  0  0  0999 V2000
  -11.1746   -9.0189    7.5660 N   0  0  0  0  0  0  0  0  0  0  0  0
  -11.9654  -10.0570    8.1882 C   0  0  0  0  0  0  0  0  0  0  0  0
  -13.1889   -9.3266    8.6868 C   0  0  0  0  0  0  0  0  0  0  0  0
  -14.1427   -9.1877    7.5556 N   0  0  0  0  0  0  0  0  0  0  0  0
  -13.3150   -8.8277    6.4006 C   0  0  0  0  0  0  0  0  0  0  0  0
  -12.0594   -8.1101    6.7504 C   0  0  0  0  0  0  0  0  0  0  0  0
   -9.1064   -7.6306    7.8285 C   0  0  0  0  0  0  0  0  0  0  0  0
   -7.7030   -7.5568    7.6934 C   0  0  0  0  0  0  0  0  0  0  0  0
   -7.0132   -6.3506    7.9562 N   0  0  0  0  0  0  0  0  0  0  0  0
   -7.0195   -8.6255    7.3161 N   0  0  0  0  0  0  0  0  0  0  0  0
   -7.6906   -9.7702    7.0705 C   0  0  0  0  0  0  0  0  0  0  0  0
   -9.0154   -9.8411    7.1946 N   0  0  0  0  0  0  0  0  0  0  0  0
   -9.8010   -8.7625    7.5826 C   0  0  0  0  0  0  0  0  0  0  0  0
   -6.1255   -6.3905    8.5252 H   0  0  0  0  0  0  0  0  0  0  0  0
   -7.3410   -5.4110    7.6022 H   0  0  0  0  0  0  0  0  0  0  0  0
   -9.7004   -6.4459    8.2349 O   0  0  0  0  0  0  0  0  0  0  0  0
  -11.6885   -5.9734    9.4803 C   0  0  0  0  0  0  0  0  0  0  0  0
  -10.2132   -6.2979    9.5511 C   0  0  0  0  0  0  0  0  0  0  0  0
  -15.0232   -8.0728    7.8435 C   0  0  0  0  0  0  0  0  0  0  0  0
  -15.5822   -7.4700    6.6219 C   0  0  0  0  0  0  0  0  0  0  0  0
  -15.2183   -6.1793    6.2875 C   0  0  0  0  0  0  0  0  0  0  0  0
  -15.7958   -5.5192    5.2119 C   0  0  0  0  0  0  0  0  0  0  0  0
  -16.7586   -6.1452    4.4517 C   0  0  0  0  0  0  0  0  0  0  0  0
  -17.1421   -7.4299    4.7517 C   0  0  0  0  0  0  0  0  0  0  0  0
  -16.5332   -8.0591    5.8414 C   0  0  0  0  0  0  0  0  0  0  0  0
  -17.4179   -5.4176    3.3397 C   0  0  0  0  0  0  0  0  0  0  0  0
  -18.7312   -5.1276    3.7752 F   0  0  0  0  0  0  0  0  0  0  0  0
  -17.5409   -6.1644    2.1940 F   0  0  0  0  0  0  0  0  0  0  0  0
  -16.8343   -4.1935    3.1140 F   0  0  0  0  0  0  0  0  0  0  0  0
  -16.2445   -8.6621    8.5841 C   0  0  0  0  0  0  0  0  0  0  0  0
  -17.4862   -8.1363    8.1409 N   0  0  0  0  0  0  0  0  0  0  0  0
  -17.8237   -7.3741    8.7397 H   0  0  0  0  0  0  0  0  0  0  0  0
  -18.1788   -8.8451    7.8765 H   0  0  0  0  0  0  0  0  0  0  0  0
 17 18  1  0  0  0
 18 16  1  0  0  0
 16  7  1  0  0  0
  7  8  2  0  0  0
  8  9  1  0  0  0
  8 10  1  0  0  0
 10 11  2  0  0  0
 11 12  1  0  0  0
 12 13  2  0  0  0
 13  1  1  0  0  0
  1  2  1  0  0  0
  2  3  1  0  0  0
  3  4  1  0  0  0
  4 19  1  0  0  0
 19 30  1  0  0  0
 30 31  1  0  0  0
 19 20  1  0  0  0
 20 21  2  0  0  0
 21 22  1  0  0  0
 22 23  2  0  0  0
 23 26  1  0  0  0
 26 27  1  0  0  0
 26 28  1  0  0  0
 26 29  1  0  0  0
 23 24  1  0  0  0
 24 25  2  0  0  0
  4  5  1  0  0  0
  5  6  1  0  0  0
 13  7  1  0  0  0
  6  1  1  0  0  0
 25 20  1  0  0  0
  9 14  1  0  0  0
  9 15  1  0  0  0
 31 32  1  0  0  0
 31 33  1  0  0  0
M  END
> <minimizedAffinity>
-6.89986

> <CNNscore>
0.3661672473

> <CNNaffinity>
7.1306991577

> <CNN_VS>
2.6110284328

> <CNNaffinity_variance>
0.0623469837

$$$$
[H]c1nc(N([H])[H])c(OC([H])([H])C([H])([H])[H])c(N2C([H])([H])C([H])([H])N(C([H])(c3c([H])c([H])c(C(F)(F)F)c([H])c3[H])C([H])([H])N([H])[H])C([H])([H])C2([H])[H])n1


 33 35  0  0  0  0  0  0  0  0999 V2000
  -15.0493   -6.5836    5.3048 N   0  0  0  0  0  0  0  0  0  0  0  0
  -14.5889   -7.3032    6.4713 C   0  0  0  0  0  0  0  0  0  0  0  0
  -15.7608   -7.2361    7.4207 C   0  0  0  0  0  0  0  0  0  0  0  0
  -16.7194   -8.3114    7.0552 N   0  0  0  0  0  0  0  0  0  0  0  0
  -16.7738   -8.2926    5.5905 C   0  0  0  0  0  0  0  0  0  0  0  0
  -16.4726   -6.9668    4.9862 C   0  0  0  0  0  0  0  0  0  0  0  0
  -13.5256   -5.8429    3.4601 C   0  0  0  0  0  0  0  0  0  0  0  0
  -12.9092   -4.7616    2.7937 C   0  0  0  0  0  0  0  0  0  0  0  0
  -11.9857   -4.9882    1.7470 N   0  0  0  0  0  0  0  0  0  0  0  0
  -13.1947   -3.5188    3.1485 N   0  0  0  0  0  0  0  0  0  0  0  0
  -14.0791   -3.3175    4.1477 C   0  0  0  0  0  0  0  0  0  0  0  0
  -14.6596   -4.3367    4.7799 N   0  0  0  0  0  0  0  0  0  0  0  0
  -14.4087   -5.6671    4.4667 C   0  0  0  0  0  0  0  0  0  0  0  0
  -12.0634   -4.4060    0.8705 H   0  0  0  0  0  0  0  0  0  0  0  0
  -11.2155   -5.7086    1.8048 H   0  0  0  0  0  0  0  0  0  0  0  0
  -13.1457   -7.0902    2.9896 O   0  0  0  0  0  0  0  0  0  0  0  0
  -15.4342   -7.7696    2.8218 C   0  0  0  0  0  0  0  0  0  0  0  0
  -14.0443   -7.8944    2.2392 C   0  0  0  0  0  0  0  0  0  0  0  0
  -18.0267   -7.9393    7.5591 C   0  0  0  0  0  0  0  0  0  0  0  0
  -18.3408   -6.5224    7.3103 C   0  0  0  0  0  0  0  0  0  0  0  0
  -18.9176   -5.7786    8.3224 C   0  0  0  0  0  0  0  0  0  0  0  0
  -19.3372   -4.4725    8.1129 C   0  0  0  0  0  0  0  0  0  0  0  0
  -19.1892   -3.8881    6.8746 C   0  0  0  0  0  0  0  0  0  0  0  0
  -18.6158   -4.5956    5.8459 C   0  0  0  0  0  0  0  0  0  0  0  0
  -18.2045   -5.9071    6.1005 C   0  0  0  0  0  0  0  0  0  0  0  0
  -19.6925   -2.5133    6.6358 C   0  0  0  0  0  0  0  0  0  0  0  0
  -20.4651   -2.1683    7.7684 F   0  0  0  0  0  0  0  0  0  0  0  0
  -20.5260   -2.4169    5.5488 F   0  0  0  0  0  0  0  0  0  0  0  0
  -18.6707   -1.5944    6.6029 F   0  0  0  0  0  0  0  0  0  0  0  0
  -19.0577   -8.7232    6.7166 C   0  0  0  0  0  0  0  0  0  0  0  0
  -19.1923   -8.2397    5.3889 N   0  0  0  0  0  0  0  0  0  0  0  0
  -19.9880   -7.5999    5.2850 H   0  0  0  0  0  0  0  0  0  0  0  0
  -19.0895   -8.9563    4.6623 H   0  0  0  0  0  0  0  0  0  0  0  0
 17 18  1  0  0  0
 18 16  1  0  0  0
 16  7  1  0  0  0
  7  8  2  0  0  0
  8  9  1  0  0  0
  8 10  1  0  0  0
 10 11  2  0  0  0
 11 12  1  0  0  0
 12 13  2  0  0  0
 13  1  1  0  0  0
  1  2  1  0  0  0
  2  3  1  0  0  0
  3  4  1  0  0  0
  4 19  1  0  0  0
 19 30  1  0  0  0
 30 31  1  0  0  0
 19 20  1  0  0  0
 20 21  2  0  0  0
 21 22  1  0  0  0
 22 23  2  0  0  0
 23 26  1  0  0  0
 26 27  1  0  0  0
 26 28  1  0  0  0
 26 29  1  0  0  0
 23 24  1  0  0  0
 24 25  2  0  0  0
  4  5  1  0  0  0
  5  6  1  0  0  0
 13  7  1  0  0  0
  6  1  1  0  0  0
 25 20  1  0  0  0
  9 14  1  0  0  0
  9 15  1  0  0  0
 31 32  1  0  0  0
 31 33  1  0  0  0
M  END
> <minimizedAffinity>
37.12086

> <CNNscore>
0.3467785120

> <CNNaffinity>
6.5721626282

> <CNN_VS>
2.2790846825

> <CNNaffinity_variance>
1.0643702745

$$$$
[H]c1nc(N([H])[H])c(OC([H])([H])C([H])([H])[H])c(N2C([H])([H])C([H])([H])N(C([H])(c3c([H])c([H])c(C(F)(F)F)c([H])c3[H])C([H])([H])N([H])[H])C([H])([H])C2([H])[H])n1


 33 35  0  0  0  0  0  0  0  0999 V2000
  -11.5746   -8.7887    7.6216 N   0  0  0  0  0  0  0  0  0  0  0  0
  -12.6134   -7.9115    8.1133 C   0  0  0  0  0  0  0  0  0  0  0  0
  -13.5780   -7.8129    6.9562 C   0  0  0  0  0  0  0  0  0  0  0  0
  -14.4725   -8.9992    6.9921 N   0  0  0  0  0  0  0  0  0  0  0  0
  -13.5948  -10.1295    7.3096 C   0  0  0  0  0  0  0  0  0  0  0  0
  -12.1841   -9.9473    6.8731 C   0  0  0  0  0  0  0  0  0  0  0  0
   -9.3491   -7.7329    8.0753 C   0  0  0  0  0  0  0  0  0  0  0  0
   -7.9442   -7.8706    8.0497 C   0  0  0  0  0  0  0  0  0  0  0  0
   -7.1044   -6.7861    8.3938 N   0  0  0  0  0  0  0  0  0  0  0  0
   -7.4009   -9.0256    7.6997 N   0  0  0  0  0  0  0  0  0  0  0  0
   -8.2145  -10.0523    7.3756 C   0  0  0  0  0  0  0  0  0  0  0  0
   -9.5405   -9.9235    7.3963 N   0  0  0  0  0  0  0  0  0  0  0  0
  -10.1838   -8.7434    7.7494 C   0  0  0  0  0  0  0  0  0  0  0  0
   -6.2807   -6.9671    9.0278 H   0  0  0  0  0  0  0  0  0  0  0  0
   -7.2586   -5.8033    8.0388 H   0  0  0  0  0  0  0  0  0  0  0  0
   -9.7891   -6.4771    8.4640 O   0  0  0  0  0  0  0  0  0  0  0  0
  -11.5060   -5.4718    9.7939 C   0  0  0  0  0  0  0  0  0  0  0  0
  -10.1947   -6.2251    9.8016 C   0  0  0  0  0  0  0  0  0  0  0  0
  -15.0040   -9.2026    5.6588 C   0  0  0  0  0  0  0  0  0  0  0  0
  -15.8931   -8.1074    5.2367 C   0  0  0  0  0  0  0  0  0  0  0  0
  -15.4855   -6.8019    5.4361 C   0  0  0  0  0  0  0  0  0  0  0  0
  -16.3243   -5.7309    5.1618 C   0  0  0  0  0  0  0  0  0  0  0  0
  -17.5970   -5.9531    4.6846 C   0  0  0  0  0  0  0  0  0  0  0  0
  -18.0349   -7.2375    4.4697 C   0  0  0  0  0  0  0  0  0  0  0  0
  -17.1571   -8.2869    4.7564 C   0  0  0  0  0  0  0  0  0  0  0  0
  -18.5131   -4.8105    4.4487 C   0  0  0  0  0  0  0  0  0  0  0  0
  -18.0042   -4.1151    3.3281 F   0  0  0  0  0  0  0  0  0  0  0  0
  -18.5452   -3.9116    5.4863 F   0  0  0  0  0  0  0  0  0  0  0  0
  -19.7669   -5.2310    4.0732 F   0  0  0  0  0  0  0  0  0  0  0  0
  -13.8002   -9.1246    4.6933 C   0  0  0  0  0  0  0  0  0  0  0  0
  -14.1719   -8.9586    3.3335 N   0  0  0  0  0  0  0  0  0  0  0  0
  -14.1874   -9.8479    2.8215 H   0  0  0  0  0  0  0  0  0  0  0  0
  -13.7154   -8.1714    2.8603 H   0  0  0  0  0  0  0  0  0  0  0  0
 17 18  1  0  0  0
 18 16  1  0  0  0
 16  7  1  0  0  0
  7  8  2  0  0  0
  8  9  1  0  0  0
  8 10  1  0  0  0
 10 11  2  0  0  0
 11 12  1  0  0  0
 12 13  2  0  0  0
 13  1  1  0  0  0
  1  2  1  0  0  0
  2  3  1  0  0  0
  3  4  1  0  0  0
  4 19  1  0  0  0
 19 30  1  0  0  0
 30 31  1  0  0  0
 19 20  1  0  0  0
 20 21  2  0  0  0
 21 22  1  0  0  0
 22 23  2  0  0  0
 23 26  1  0  0  0
 26 27  1  0  0  0
 26 28  1  0  0  0
 26 29  1  0  0  0
 23 24  1  0  0  0
 24 25  2  0  0  0
  4  5  1  0  0  0
  5  6  1  0  0  0
 13  7  1  0  0  0
  6  1  1  0  0  0
 25 20  1  0  0  0
  9 14  1  0  0  0
  9 15  1  0  0  0
 31 32  1  0  0  0
 31 33  1  0  0  0
M  END
> <minimizedAffinity>
-6.48973

> <CNNscore>
0.2474690080

> <CNNaffinity>
6.7838492393

> <CNN_VS>
1.6787924767

> <CNNaffinity_variance>
0.0633536428

$$$$
[H]c1nc(N([H])[H])c(OC([H])([H])C([H])([H])[H])c(N2C([H])([H])C([H])([H])N(C([H])(c3c([H])c([H])c(C(F)(F)F)c([H])c3[H])C([H])([H])N([H])[H])C([H])([H])C2([H])[H])n1


 33 35  0  0  0  0  0  0  0  0999 V2000
   -7.0260   -6.7830    7.8627 N   0  0  0  0  0  0  0  0  0  0  0  0
   -7.9829   -5.8712    7.2769 C   0  0  0  0  0  0  0  0  0  0  0  0
   -9.1346   -6.7638    6.8820 C   0  0  0  0  0  0  0  0  0  0  0  0
   -9.9838   -6.9876    8.0810 N   0  0  0  0  0  0  0  0  0  0  0  0
   -9.0404   -7.2066    9.1813 C   0  0  0  0  0  0  0  0  0  0  0  0
   -7.7305   -7.7710    8.7580 C   0  0  0  0  0  0  0  0  0  0  0  0
   -4.8443   -7.6381    6.9782 C   0  0  0  0  0  0  0  0  0  0  0  0
   -3.4372   -7.6407    7.0940 C   0  0  0  0  0  0  0  0  0  0  0  0
   -2.6444   -8.4684    6.2657 N   0  0  0  0  0  0  0  0  0  0  0  0
   -2.8474   -6.8619    7.9870 N   0  0  0  0  0  0  0  0  0  0  0  0
   -3.6163   -6.0761    8.7695 C   0  0  0  0  0  0  0  0  0  0  0  0
   -4.9446   -6.0744    8.6637 N   0  0  0  0  0  0  0  0  0  0  0  0
   -5.6352   -6.8656    7.7537 C   0  0  0  0  0  0  0  0  0  0  0  0
   -1.7786   -8.0586    5.8232 H   0  0  0  0  0  0  0  0  0  0  0  0
   -2.8742   -9.4815    6.0752 H   0  0  0  0  0  0  0  0  0  0  0  0
   -5.3348   -8.4924    6.0029 O   0  0  0  0  0  0  0  0  0  0  0  0
   -6.8931   -9.2967    4.3745 C   0  0  0  0  0  0  0  0  0  0  0  0
   -6.4007   -8.0966    5.1518 C   0  0  0  0  0  0  0  0  0  0  0  0
  -10.7329   -8.2122    7.8797 C   0  0  0  0  0  0  0  0  0  0  0  0
  -11.9197   -8.2923    8.7477 C   0  0  0  0  0  0  0  0  0  0  0  0
  -12.4406   -7.1262    9.2760 C   0  0  0  0  0  0  0  0  0  0  0  0
  -13.4873   -7.1476   10.1870 C   0  0  0  0  0  0  0  0  0  0  0  0
  -14.0293   -8.3477   10.5904 C   0  0  0  0  0  0  0  0  0  0  0  0
  -13.5401   -9.5270   10.0828 C   0  0  0  0  0  0  0  0  0  0  0  0
  -12.4874   -9.4602    9.1655 C   0  0  0  0  0  0  0  0  0  0  0  0
  -15.1073   -8.3722   11.6090 C   0  0  0  0  0  0  0  0  0  0  0  0
  -15.4843   -7.0268   11.8242 F   0  0  0  0  0  0  0  0  0  0  0  0
  -14.7004   -8.8643   12.8247 F   0  0  0  0  0  0  0  0  0  0  0  0
  -16.2399   -8.9931   11.1385 F   0  0  0  0  0  0  0  0  0  0  0  0
  -11.3008   -8.1447    6.4444 C   0  0  0  0  0  0  0  0  0  0  0  0
  -12.6688   -7.7698    6.3913 N   0  0  0  0  0  0  0  0  0  0  0  0
  -13.2935   -8.5808    6.3172 H   0  0  0  0  0  0  0  0  0  0  0  0
  -12.8709   -6.9837    5.7642 H   0  0  0  0  0  0  0  0  0  0  0  0
 17 18  1  0  0  0
 18 16  1  0  0  0
 16  7  1  0  0  0
  7  8  2  0  0  0
  8  9  1  0  0  0
  8 10  1  0  0  0
 10 11  2  0  0  0
 11 12  1  0  0  0
 12 13  2  0  0  0
 13  1  1  0  0  0
  1  2  1  0  0  0
  2  3  1  0  0  0
  3  4  1  0  0  0
  4 19  1  0  0  0
 19 30  1  0  0  0
 30 31  1  0  0  0
 19 20  1  0  0  0
 20 21  2  0  0  0
 21 22  1  0  0  0
 22 23  2  0  0  0
 23 26  1  0  0  0
 26 27  1  0  0  0
 26 28  1  0  0  0
 26 29  1  0  0  0
 23 24  1  0  0  0
 24 25  2  0  0  0
  4  5  1  0  0  0
  5  6  1  0  0  0
 13  7  1  0  0  0
  6  1  1  0  0  0
 25 20  1  0  0  0
  9 14  1  0  0  0
  9 15  1  0  0  0
 31 32  1  0  0  0
 31 33  1  0  0  0
M  END
> <minimizedAffinity>
3.28844

> <CNNscore>
0.2335982174

> <CNNaffinity>
5.8835830688

> <CNN_VS>
1.3743945360

> <CNNaffinity_variance>
0.5325392485

$$$$
[H]OC(=O)[C@@]([H])(Oc1c(Br)c([H])c(-c2c([H])c([H])c(-c3c(C([H])([H])c4c([H])c([H])c([H])c([H])c4[H])oc4c([H])c([H])c([H])c([H])c34)c([H])c2[H])c([H])c1Br)C([H])([H])c1c([H])c([H])c([H])c([H])c1[H]


 43 48  0  0  0  0  0  0  0  0999 V2000
   -7.8297   -7.0779    7.5675 C   0  0  0  0  0  0  0  0  0  0  0  0
   -6.8554   -7.1475    8.5441 C   0  0  0  0  0  0  0  0  0  0  0  0
   -5.5532   -6.9181    8.1827 C   0  0  0  0  0  0  0  0  0  0  0  0
   -5.1322   -6.6202    6.9089 C   0  0  0  0  0  0  0  0  0  0  0  0
   -6.1530   -6.5580    5.9471 C   0  0  0  0  0  0  0  0  0  0  0  0
   -7.4580   -6.7819    6.2772 C   0  0  0  0  0  0  0  0  0  0  0  0
   -3.7535   -6.4064    6.5128 C   0  0  0  0  0  0  0  0  0  0  0  0
   -2.6246   -7.0684    6.8284 C   0  0  0  0  0  0  0  0  0  0  0  0
   -1.5882   -6.4641    6.2423 O   0  0  0  0  0  0  0  0  0  0  0  0
   -1.9786   -5.4272    5.5477 C   0  0  0  0  0  0  0  0  0  0  0  0
   -1.3076   -4.5007    4.7804 C   0  0  0  0  0  0  0  0  0  0  0  0
   -1.9776   -3.4813    4.1381 C   0  0  0  0  0  0  0  0  0  0  0  0
   -3.3466   -3.4223    4.2911 C   0  0  0  0  0  0  0  0  0  0  0  0
   -4.0348   -4.3534    5.0647 C   0  0  0  0  0  0  0  0  0  0  0  0
   -3.3435   -5.3419    5.6821 C   0  0  0  0  0  0  0  0  0  0  0  0
   -2.4231   -8.2721    7.6619 C   0  0  0  0  0  0  0  0  0  0  0  0
   -1.9709   -9.4149    6.8458 C   0  0  0  0  0  0  0  0  0  0  0  0
   -1.9269   -9.4631    5.4873 C   0  0  0  0  0  0  0  0  0  0  0  0
   -1.4778  -10.6035    4.8023 C   0  0  0  0  0  0  0  0  0  0  0  0
   -1.0647  -11.7190    5.4879 C   0  0  0  0  0  0  0  0  0  0  0  0
   -1.1009  -11.6921    6.8642 C   0  0  0  0  0  0  0  0  0  0  0  0
   -1.5440  -10.5637    7.5271 C   0  0  0  0  0  0  0  0  0  0  0  0
  -11.9826   -7.7156    8.4664 C   0  0  0  0  0  0  0  0  0  0  0  0
  -11.2937   -8.5425    7.5689 C   0  0  0  0  0  0  0  0  0  0  0  0
  -12.2428   -9.9807    6.7660 Br  0  0  0  0  0  0  0  0  0  0  0  0
   -9.9594   -8.3335    7.2811 C   0  0  0  0  0  0  0  0  0  0  0  0
   -9.2400   -7.3124    7.8552 C   0  0  0  0  0  0  0  0  0  0  0  0
   -9.9105   -6.4871    8.7454 C   0  0  0  0  0  0  0  0  0  0  0  0
  -11.2655   -6.7017    9.0324 C   0  0  0  0  0  0  0  0  0  0  0  0
  -12.0772   -5.4095   10.2117 Br  0  0  0  0  0  0  0  0  0  0  0  0
  -13.3075   -7.9134    8.7510 O   0  0  0  0  0  0  0  0  0  0  0  0
  -14.4181   -7.2555    8.1573 C   0  0  0  0  0  0  0  0  0  0  0  0
  -16.7260   -8.0007    8.0653 O   0  0  0  0  0  0  0  0  0  0  0  0
  -15.4925   -8.2696    8.0794 C   0  0  0  0  0  0  0  0  0  0  0  0
  -15.1896   -9.6243    8.0107 O   0  0  0  0  0  0  0  0  0  0  0  0
  -14.8027  -10.1840    8.7252 H   0  0  0  0  0  0  0  0  0  0  0  0
  -14.1049   -6.7156    6.7717 C   0  0  0  0  0  0  0  0  0  0  0  0
  -15.1235   -7.0377    5.7551 C   0  0  0  0  0  0  0  0  0  0  0  0
  -16.1659   -6.1197    5.5235 C   0  0  0  0  0  0  0  0  0  0  0  0
  -17.1004   -6.4074    4.5480 C   0  0  0  0  0  0  0  0  0  0  0  0
  -17.0435   -7.5673    3.7941 C   0  0  0  0  0  0  0  0  0  0  0  0
  -16.0016   -8.4378    4.0581 C   0  0  0  0  0  0  0  0  0  0  0  0
  -15.0518   -8.1900    5.0180 C   0  0  0  0  0  0  0  0  0  0  0  0
 33 34  2  0  0  0
 34 35  1  0  0  0
 34 32  1  0  0  0
 32 37  1  0  0  0
 37 38  1  0  0  0
 38 39  2  0  0  0
 39 40  1  0  0  0
 40 41  2  0  0  0
 41 42  1  0  0  0
 42 43  2  0  0  0
 32 31  1  0  0  0
 31 23  1  0  0  0
 23 24  2  0  0  0
 24 25  1  0  0  0
 24 26  1  0  0  0
 26 27  2  0  0  0
 27  1  1  0  0  0
  1  2  2  0  0  0
  2  3  1  0  0  0
  3  4  2  0  0  0
  4  7  1  0  0  0
  7  8  2  0  0  0
  8 16  1  0  0  0
 16 17  1  0  0  0
 17 18  2  0  0  0
 18 19  1  0  0  0
 19 20  2  0  0  0
 20 21  1  0  0  0
 21 22  2  0  0  0
  8  9  1  0  0  0
  9 10  1  0  0  0
 10 11  2  0  0  0
 11 12  1  0  0  0
 12 13  2  0  0  0
 13 14  1  0  0  0
 14 15  2  0  0  0
  4  5  1  0  0  0
  5  6  2  0  0  0
 27 28  1  0  0  0
 28 29  2  0  0  0
 29 30  1  0  0  0
 43 38  1  0  0  0
 29 23  1  0  0  0
  6  1  1  0  0  0
 15  7  1  0  0  0
 22 17  1  0  0  0
 15 10  1  0  0  0
 35 36  1  0  0  0
M  END
> <minimizedAffinity>
-10.74843

> <CNNscore>
0.5751567483

> <CNNaffinity>
7.7304353714

> <CNN_VS>
4.4462122917

> <CNNaffinity_variance>
0.1197362989

$$$$
[H]OC(=O)[C@@]([H])(Oc1c(Br)c([H])c(-c2c([H])c([H])c(-c3c(C([H])([H])c4c([H])c([H])c([H])c([H])c4[H])oc4c([H])c([H])c([H])c([H])c34)c([H])c2[H])c([H])c1Br)C([H])([H])c1c([H])c([H])c([H])c([H])c1[H]


 43 48  0  0  0  0  0  0  0  0999 V2000
  -12.1842   -6.3387    9.7259 C   0  0  0  0  0  0  0  0  0  0  0  0
  -12.5213   -6.6109   11.0375 C   0  0  0  0  0  0  0  0  0  0  0  0
  -11.6020   -6.3373   12.0167 C   0  0  0  0  0  0  0  0  0  0  0  0
  -10.3538   -5.8064   11.7963 C   0  0  0  0  0  0  0  0  0  0  0  0
  -10.0512   -5.5435   10.4507 C   0  0  0  0  0  0  0  0  0  0  0  0
  -10.9461   -5.8056    9.4545 C   0  0  0  0  0  0  0  0  0  0  0  0
   -9.3644   -5.5426   12.8233 C   0  0  0  0  0  0  0  0  0  0  0  0
   -9.4435   -4.8574   13.9794 C   0  0  0  0  0  0  0  0  0  0  0  0
   -8.2461   -4.8624   14.5703 O   0  0  0  0  0  0  0  0  0  0  0  0
   -7.3716   -5.5235   13.8573 C   0  0  0  0  0  0  0  0  0  0  0  0
   -6.0352   -5.8076   14.0323 C   0  0  0  0  0  0  0  0  0  0  0  0
   -5.3311   -6.5440   13.1036 C   0  0  0  0  0  0  0  0  0  0  0  0
   -6.0139   -6.9875   11.9909 C   0  0  0  0  0  0  0  0  0  0  0  0
   -7.3647   -6.7056   11.8039 C   0  0  0  0  0  0  0  0  0  0  0  0
   -8.0250   -5.9785   12.7374 C   0  0  0  0  0  0  0  0  0  0  0  0
  -10.5924   -4.1738   14.6092 C   0  0  0  0  0  0  0  0  0  0  0  0
  -10.2259   -2.8150   15.0516 C   0  0  0  0  0  0  0  0  0  0  0  0
  -11.0781   -1.8708   15.5335 C   0  0  0  0  0  0  0  0  0  0  0  0
  -10.6275   -0.6015   15.9300 C   0  0  0  0  0  0  0  0  0  0  0  0
   -9.2985   -0.2679   15.8430 C   0  0  0  0  0  0  0  0  0  0  0  0
   -8.4178   -1.2087   15.3579 C   0  0  0  0  0  0  0  0  0  0  0  0
   -8.8731   -2.4548   14.9717 C   0  0  0  0  0  0  0  0  0  0  0  0
  -14.8106   -7.0932    6.4102 C   0  0  0  0  0  0  0  0  0  0  0  0
  -15.2631   -7.1734    7.7341 C   0  0  0  0  0  0  0  0  0  0  0  0
  -17.0898   -7.6075    8.0321 Br  0  0  0  0  0  0  0  0  0  0  0  0
  -14.4157   -6.9320    8.7973 C   0  0  0  0  0  0  0  0  0  0  0  0
  -13.0936   -6.6013    8.6166 C   0  0  0  0  0  0  0  0  0  0  0  0
  -12.6337   -6.5185    7.3110 C   0  0  0  0  0  0  0  0  0  0  0  0
  -13.4970   -6.7670    6.2352 C   0  0  0  0  0  0  0  0  0  0  0  0
  -12.6817   -6.7094    4.4884 Br  0  0  0  0  0  0  0  0  0  0  0  0
  -15.6442   -7.3381    5.3516 O   0  0  0  0  0  0  0  0  0  0  0  0
  -16.3392   -8.5450    5.0707 C   0  0  0  0  0  0  0  0  0  0  0  0
  -15.9556   -9.9226    3.1097 O   0  0  0  0  0  0  0  0  0  0  0  0
  -15.5015   -9.2740    4.0931 C   0  0  0  0  0  0  0  0  0  0  0  0
  -14.1163   -9.2803    4.2069 O   0  0  0  0  0  0  0  0  0  0  0  0
  -13.5790   -9.7280    4.9028 H   0  0  0  0  0  0  0  0  0  0  0  0
  -17.7245   -8.3012    4.4955 C   0  0  0  0  0  0  0  0  0  0  0  0
  -18.0016   -6.8899    4.1694 C   0  0  0  0  0  0  0  0  0  0  0  0
  -17.1735   -6.2326    3.2393 C   0  0  0  0  0  0  0  0  0  0  0  0
  -17.4542   -4.9209    2.9100 C   0  0  0  0  0  0  0  0  0  0  0  0
  -18.5212   -4.2353    3.4653 C   0  0  0  0  0  0  0  0  0  0  0  0
  -19.3057   -4.9229    4.3736 C   0  0  0  0  0  0  0  0  0  0  0  0
  -19.0620   -6.2268    4.7281 C   0  0  0  0  0  0  0  0  0  0  0  0
 33 34  2  0  0  0
 34 35  1  0  0  0
 34 32  1  0  0  0
 32 37  1  0  0  0
 37 38  1  0  0  0
 38 39  2  0  0  0
 39 40  1  0  0  0
 40 41  2  0  0  0
 41 42  1  0  0  0
 42 43  2  0  0  0
 32 31  1  0  0  0
 31 23  1  0  0  0
 23 24  2  0  0  0
 24 25  1  0  0  0
 24 26  1  0  0  0
 26 27  2  0  0  0
 27  1  1  0  0  0
  1  2  2  0  0  0
  2  3  1  0  0  0
  3  4  2  0  0  0
  4  7  1  0  0  0
  7  8  2  0  0  0
  8 16  1  0  0  0
 16 17  1  0  0  0
 17 18  2  0  0  0
 18 19  1  0  0  0
 19 20  2  0  0  0
 20 21  1  0  0  0
 21 22  2  0  0  0
  8  9  1  0  0  0
  9 10  1  0  0  0
 10 11  2  0  0  0
 11 12  1  0  0  0
 12 13  2  0  0  0
 13 14  1  0  0  0
 14 15  2  0  0  0
  4  5  1  0  0  0
  5  6  2  0  0  0
 27 28  1  0  0  0
 28 29  2  0  0  0
 29 30  1  0  0  0
 43 38  1  0  0  0
 29 23  1  0  0  0
  6  1  1  0  0  0
 15  7  1  0  0  0
 22 17  1  0  0  0
 15 10  1  0  0  0
 35 36  1  0  0  0
M  END
> <minimizedAffinity>
16.15299

> <CNNscore>
0.4701775014

> <CNNaffinity>
6.7725839615

> <CNN_VS>
3.1843166351

> <CNNaffinity_variance>
1.3019490242

$$$$
[H]OC(=O)[C@@]([H])(Oc1c(Br)c([H])c(-c2c([H])c([H])c(-c3c(C([H])([H])c4c([H])c([H])c([H])c([H])c4[H])oc4c([H])c([H])c([H])c([H])c34)c([H])c2[H])c([H])c1Br)C([H])([H])c1c([H])c([H])c([H])c([H])c1[H]


 43 48  0  0  0  0  0  0  0  0999 V2000
   -7.6440   -6.9885    7.5398 C   0  0  0  0  0  0  0  0  0  0  0  0
   -6.6691   -6.9369    8.5171 C   0  0  0  0  0  0  0  0  0  0  0  0
   -5.3694   -6.7356    8.1308 C   0  0  0  0  0  0  0  0  0  0  0  0
   -4.9514   -6.5786    6.8311 C   0  0  0  0  0  0  0  0  0  0  0  0
   -5.9727   -6.6364    5.8694 C   0  0  0  0  0  0  0  0  0  0  0  0
   -7.2752   -6.8358    6.2240 C   0  0  0  0  0  0  0  0  0  0  0  0
   -3.5751   -6.3958    6.4121 C   0  0  0  0  0  0  0  0  0  0  0  0
   -2.4530   -7.0705    6.7253 C   0  0  0  0  0  0  0  0  0  0  0  0
   -1.4150   -6.4953    6.1132 O   0  0  0  0  0  0  0  0  0  0  0  0
   -1.7979   -5.4658    5.4036 C   0  0  0  0  0  0  0  0  0  0  0  0
   -1.1224   -4.5659    4.6090 C   0  0  0  0  0  0  0  0  0  0  0  0
   -1.7844   -3.5482    3.9559 C   0  0  0  0  0  0  0  0  0  0  0  0
   -3.1499   -3.4631    4.1263 C   0  0  0  0  0  0  0  0  0  0  0  0
   -3.8425   -4.3672    4.9275 C   0  0  0  0  0  0  0  0  0  0  0  0
   -3.1591   -5.3549    5.5549 C   0  0  0  0  0  0  0  0  0  0  0  0
   -2.2598   -8.2608    7.5796 C   0  0  0  0  0  0  0  0  0  0  0  0
   -1.8625   -9.4331    6.7770 C   0  0  0  0  0  0  0  0  0  0  0  0
   -1.8504   -9.5090    5.4190 C   0  0  0  0  0  0  0  0  0  0  0  0
   -1.4532  -10.6763    4.7474 C   0  0  0  0  0  0  0  0  0  0  0  0
   -1.0606  -11.7911    5.4462 C   0  0  0  0  0  0  0  0  0  0  0  0
   -1.0651  -11.7365    6.8220 C   0  0  0  0  0  0  0  0  0  0  0  0
   -1.4572  -10.5817    7.4717 C   0  0  0  0  0  0  0  0  0  0  0  0
  -11.7932   -7.6800    8.4157 C   0  0  0  0  0  0  0  0  0  0  0  0
  -11.0995   -6.5967    8.9716 C   0  0  0  0  0  0  0  0  0  0  0  0
  -12.0515   -5.4157   10.1174 Br  0  0  0  0  0  0  0  0  0  0  0  0
   -9.7654   -6.3785    8.6893 C   0  0  0  0  0  0  0  0  0  0  0  0
   -9.0517   -7.2043    7.8536 C   0  0  0  0  0  0  0  0  0  0  0  0
   -9.7270   -8.2799    7.2968 C   0  0  0  0  0  0  0  0  0  0  0  0
  -11.0803   -8.4987    7.5885 C   0  0  0  0  0  0  0  0  0  0  0  0
  -11.8474  -10.0907    6.8161 Br  0  0  0  0  0  0  0  0  0  0  0  0
  -13.1143   -7.9057    8.6971 O   0  0  0  0  0  0  0  0  0  0  0  0
  -14.2382   -7.4168    7.9784 C   0  0  0  0  0  0  0  0  0  0  0  0
  -16.4562   -8.1655    8.6185 O   0  0  0  0  0  0  0  0  0  0  0  0
  -15.3058   -8.4235    8.1668 C   0  0  0  0  0  0  0  0  0  0  0  0
  -15.0926   -9.7574    7.8403 O   0  0  0  0  0  0  0  0  0  0  0  0
  -14.4994  -10.3954    8.3034 H   0  0  0  0  0  0  0  0  0  0  0  0
  -13.9489   -7.2298    6.4983 C   0  0  0  0  0  0  0  0  0  0  0  0
  -14.9694   -6.4444    5.7794 C   0  0  0  0  0  0  0  0  0  0  0  0
  -14.5604   -5.3268    5.0267 C   0  0  0  0  0  0  0  0  0  0  0  0
  -15.5130   -4.6119    4.3272 C   0  0  0  0  0  0  0  0  0  0  0  0
  -16.8530   -4.9597    4.3443 C   0  0  0  0  0  0  0  0  0  0  0  0
  -17.2059   -6.0647    5.0976 C   0  0  0  0  0  0  0  0  0  0  0  0
  -16.2911   -6.8029    5.8069 C   0  0  0  0  0  0  0  0  0  0  0  0
 33 34  2  0  0  0
 34 35  1  0  0  0
 34 32  1  0  0  0
 32 37  1  0  0  0
 37 38  1  0  0  0
 38 39  2  0  0  0
 39 40  1  0  0  0
 40 41  2  0  0  0
 41 42  1  0  0  0
 42 43  2  0  0  0
 32 31  1  0  0  0
 31 23  1  0  0  0
 23 24  2  0  0  0
 24 25  1  0  0  0
 24 26  1  0  0  0
 26 27  2  0  0  0
 27  1  1  0  0  0
  1  2  2  0  0  0
  2  3  1  0  0  0
  3  4  2  0  0  0
  4  7  1  0  0  0
  7  8  2  0  0  0
  8 16  1  0  0  0
 16 17  1  0  0  0
 17 18  2  0  0  0
 18 19  1  0  0  0
 19 20  2  0  0  0
 20 21  1  0  0  0
 21 22  2  0  0  0
  8  9  1  0  0  0
  9 10  1  0  0  0
 10 11  2  0  0  0
 11 12  1  0  0  0
 12 13  2  0  0  0
 13 14  1  0  0  0
 14 15  2  0  0  0
  4  5  1  0  0  0
  5  6  2  0  0  0
 27 28  1  0  0  0
 28 29  2  0  0  0
 29 30  1  0  0  0
 43 38  1  0  0  0
 29 23  1  0  0  0
  6  1  1  0  0  0
 15  7  1  0  0  0
 22 17  1  0  0  0
 15 10  1  0  0  0
 35 36  1  0  0  0
M  END
> <minimizedAffinity>
-10.84279

> <CNNscore>
0.4667407572

> <CNNaffinity>
7.5645270348

> <CNN_VS>
3.5306730270

> <CNNaffinity_variance>
0.1168776527

$$$$
[H]OC(=O)[C@@]([H])(Oc1c(Br)c([H])c(-c2c([H])c([H])c(-c3c(C([H])([H])c4c([H])c([H])c([H])c([H])c4[H])oc4c([H])c([H])c([H])c([H])c34)c([H])c2[H])c([H])c1Br)C([H])([H])c1c([H])c([H])c([H])c([H])c1[H]


 43 48  0  0  0  0  0  0  0  0999 V2000
   -7.6783   -7.0006    7.4022 C   0  0  0  0  0  0  0  0  0  0  0  0
   -6.6841   -6.8993    8.3558 C   0  0  0  0  0  0  0  0  0  0  0  0
   -5.4066   -6.6288    7.9390 C   0  0  0  0  0  0  0  0  0  0  0  0
   -5.0291   -6.4475    6.6302 C   0  0  0  0  0  0  0  0  0  0  0  0
   -6.0688   -6.5574    5.6932 C   0  0  0  0  0  0  0  0  0  0  0  0
   -7.3501   -6.8261    6.0784 C   0  0  0  0  0  0  0  0  0  0  0  0
   -3.6749   -6.1913    6.1787 C   0  0  0  0  0  0  0  0  0  0  0  0
   -2.6728   -7.0289    5.8523 C   0  0  0  0  0  0  0  0  0  0  0  0
   -1.5938   -6.3111    5.5307 O   0  0  0  0  0  0  0  0  0  0  0  0
   -1.8345   -5.0295    5.6278 C   0  0  0  0  0  0  0  0  0  0  0  0
   -1.0658   -3.9076    5.4092 C   0  0  0  0  0  0  0  0  0  0  0  0
   -1.5785   -2.6407    5.5898 C   0  0  0  0  0  0  0  0  0  0  0  0
   -2.8914   -2.5362    5.9975 C   0  0  0  0  0  0  0  0  0  0  0  0
   -3.6773   -3.6637    6.2218 C   0  0  0  0  0  0  0  0  0  0  0  0
   -3.1399   -4.8935    6.0347 C   0  0  0  0  0  0  0  0  0  0  0  0
   -2.6369   -8.5057    5.8077 C   0  0  0  0  0  0  0  0  0  0  0  0
   -2.0907   -9.0628    7.0597 C   0  0  0  0  0  0  0  0  0  0  0  0
   -1.7426  -10.3597    7.2763 C   0  0  0  0  0  0  0  0  0  0  0  0
   -1.2289  -10.7911    8.5098 C   0  0  0  0  0  0  0  0  0  0  0  0
   -1.0600   -9.9095    9.5487 C   0  0  0  0  0  0  0  0  0  0  0  0
   -1.4059   -8.5914    9.3515 C   0  0  0  0  0  0  0  0  0  0  0  0
   -1.9096   -8.1786    8.1328 C   0  0  0  0  0  0  0  0  0  0  0  0
  -11.7607   -7.8034    8.4748 C   0  0  0  0  0  0  0  0  0  0  0  0
  -11.0748   -8.6081    7.5551 C   0  0  0  0  0  0  0  0  0  0  0  0
  -11.9948  -10.0910    6.8010 Br  0  0  0  0  0  0  0  0  0  0  0  0
   -9.7633   -8.3460    7.2114 C   0  0  0  0  0  0  0  0  0  0  0  0
   -9.0645   -7.2913    7.7491 C   0  0  0  0  0  0  0  0  0  0  0  0
   -9.7322   -6.4875    8.6608 C   0  0  0  0  0  0  0  0  0  0  0  0
  -11.0642   -6.7560    9.0045 C   0  0  0  0  0  0  0  0  0  0  0  0
  -11.8806   -5.4893   10.2080 Br  0  0  0  0  0  0  0  0  0  0  0  0
  -13.0634   -8.0539    8.8149 O   0  0  0  0  0  0  0  0  0  0  0  0
  -14.2144   -7.3476    8.3732 C   0  0  0  0  0  0  0  0  0  0  0  0
  -16.5136   -8.1197    8.2854 O   0  0  0  0  0  0  0  0  0  0  0  0
  -15.2769   -8.3654    8.2189 C   0  0  0  0  0  0  0  0  0  0  0  0
  -14.9585   -9.6968    7.9791 O   0  0  0  0  0  0  0  0  0  0  0  0
  -14.5345  -10.3290    8.6067 H   0  0  0  0  0  0  0  0  0  0  0  0
  -13.9861   -6.6238    7.0566 C   0  0  0  0  0  0  0  0  0  0  0  0
  -14.8433   -7.0955    5.9532 C   0  0  0  0  0  0  0  0  0  0  0  0
  -14.4455   -8.2315    5.2223 C   0  0  0  0  0  0  0  0  0  0  0  0
  -15.2657   -8.6917    4.2107 C   0  0  0  0  0  0  0  0  0  0  0  0
  -16.4626   -8.0717    3.8948 C   0  0  0  0  0  0  0  0  0  0  0  0
  -16.8104   -6.9600    4.6405 C   0  0  0  0  0  0  0  0  0  0  0  0
  -16.0247   -6.4702    5.6543 C   0  0  0  0  0  0  0  0  0  0  0  0
 33 34  2  0  0  0
 34 35  1  0  0  0
 34 32  1  0  0  0
 32 37  1  0  0  0
 37 38  1  0  0  0
 38 39  2  0  0  0
 39 40  1  0  0  0
 40 41  2  0  0  0
 41 42  1  0  0  0
 42 43  2  0  0  0
 32 31  1  0  0  0
 31 23  1  0  0  0
 23 24  2  0  0  0
 24 25  1  0  0  0
 24 26  1  0  0  0
 26 27  2  0  0  0
 27  1  1  0  0  0
  1  2  2  0  0  0
  2  3  1  0  0  0
  3  4  2  0  0  0
  4  7  1  0  0  0
  7  8  2  0  0  0
  8 16  1  0  0  0
 16 17  1  0  0  0
 17 18  2  0  0  0
 18 19  1  0  0  0
 19 20  2  0  0  0
 20 21  1  0  0  0
 21 22  2  0  0  0
  8  9  1  0  0  0
  9 10  1  0  0  0
 10 11  2  0  0  0
 11 12  1  0  0  0
 12 13  2  0  0  0
 13 14  1  0  0  0
 14 15  2  0  0  0
  4  5  1  0  0  0
  5  6  2  0  0  0
 27 28  1  0  0  0
 28 29  2  0  0  0
 29 30  1  0  0  0
 43 38  1  0  0  0
 29 23  1  0  0  0
  6  1  1  0  0  0
 15  7  1  0  0  0
 22 17  1  0  0  0
 15 10  1  0  0  0
 35 36  1  0  0  0
M  END
> <minimizedAffinity>
-9.85424

> <CNNscore>
0.4621866047

> <CNNaffinity>
7.5953683853

> <CNN_VS>
3.5104775429

> <CNNaffinity_variance>
0.1095638722

$$$$
[H]OC(=O)[C@@]([H])(Oc1c(Br)c([H])c(-c2c([H])c([H])c(-c3c(C([H])([H])c4c([H])c([H])c([H])c([H])c4[H])oc4c([H])c([H])c([H])c([H])c34)c([H])c2[H])c([H])c1Br)C([H])([H])c1c([H])c([H])c([H])c([H])c1[H]


 43 48  0  0  0  0  0  0  0  0999 V2000
  -10.5228   -6.8782    7.7818 C   0  0  0  0  0  0  0  0  0  0  0  0
   -9.5890   -7.0024    6.7715 C   0  0  0  0  0  0  0  0  0  0  0  0
   -8.2599   -6.9515    7.1030 C   0  0  0  0  0  0  0  0  0  0  0  0
   -7.7739   -6.7844    8.3775 C   0  0  0  0  0  0  0  0  0  0  0  0
   -8.7551   -6.6633    9.3744 C   0  0  0  0  0  0  0  0  0  0  0  0
  -10.0855   -6.7100    9.0745 C   0  0  0  0  0  0  0  0  0  0  0  0
   -6.3703   -6.6990    8.7323 C   0  0  0  0  0  0  0  0  0  0  0  0
   -5.7530   -6.7110    9.9286 C   0  0  0  0  0  0  0  0  0  0  0  0
   -4.4389   -6.5662    9.7409 O   0  0  0  0  0  0  0  0  0  0  0  0
   -4.1536   -6.4592    8.4693 C   0  0  0  0  0  0  0  0  0  0  0  0
   -2.9724   -6.2972    7.7794 C   0  0  0  0  0  0  0  0  0  0  0  0
   -2.9515   -6.2111    6.4037 C   0  0  0  0  0  0  0  0  0  0  0  0
   -4.1578   -6.2935    5.7412 C   0  0  0  0  0  0  0  0  0  0  0  0
   -5.3577   -6.4568    6.4286 C   0  0  0  0  0  0  0  0  0  0  0  0
   -5.3404   -6.5372    7.7812 C   0  0  0  0  0  0  0  0  0  0  0  0
   -6.3088   -6.8582   11.2900 C   0  0  0  0  0  0  0  0  0  0  0  0
   -5.7029   -5.8864   12.2200 C   0  0  0  0  0  0  0  0  0  0  0  0
   -4.4733   -5.3181   12.0979 C   0  0  0  0  0  0  0  0  0  0  0  0
   -3.9864   -4.3995   13.0417 C   0  0  0  0  0  0  0  0  0  0  0  0
   -4.7428   -4.0416   14.1303 C   0  0  0  0  0  0  0  0  0  0  0  0
   -5.9911   -4.6049   14.2738 C   0  0  0  0  0  0  0  0  0  0  0  0
   -6.4596   -5.5070   13.3379 C   0  0  0  0  0  0  0  0  0  0  0  0
  -14.7418   -6.9371    6.9705 C   0  0  0  0  0  0  0  0  0  0  0  0
  -14.2021   -7.5968    8.0829 C   0  0  0  0  0  0  0  0  0  0  0  0
  -15.3941   -8.5102    9.2485 Br  0  0  0  0  0  0  0  0  0  0  0  0
  -12.8453   -7.5772    8.3395 C   0  0  0  0  0  0  0  0  0  0  0  0
  -11.9580   -6.9141    7.5255 C   0  0  0  0  0  0  0  0  0  0  0  0
  -12.4797   -6.2570    6.4214 C   0  0  0  0  0  0  0  0  0  0  0  0
  -13.8572   -6.2819    6.1637 C   0  0  0  0  0  0  0  0  0  0  0  0
  -14.4117   -5.4056    4.5377 Br  0  0  0  0  0  0  0  0  0  0  0  0
  -16.0854   -6.9583    6.7067 O   0  0  0  0  0  0  0  0  0  0  0  0
  -16.7083   -6.9033    5.4309 C   0  0  0  0  0  0  0  0  0  0  0  0
  -17.8391   -4.7589    5.5442 O   0  0  0  0  0  0  0  0  0  0  0  0
  -17.8836   -6.0197    5.5942 C   0  0  0  0  0  0  0  0  0  0  0  0
  -19.1486   -6.5508    5.8157 O   0  0  0  0  0  0  0  0  0  0  0  0
  -19.4655   -7.0134    6.6275 H   0  0  0  0  0  0  0  0  0  0  0  0
  -17.1455   -8.2716    4.9348 C   0  0  0  0  0  0  0  0  0  0  0  0
  -16.2686   -8.8446    3.8968 C   0  0  0  0  0  0  0  0  0  0  0  0
  -15.1553   -8.1002    3.4616 C   0  0  0  0  0  0  0  0  0  0  0  0
  -14.3163   -8.6521    2.5134 C   0  0  0  0  0  0  0  0  0  0  0  0
  -14.5364   -9.9105    1.9796 C   0  0  0  0  0  0  0  0  0  0  0  0
  -15.6423  -10.6030    2.4384 C   0  0  0  0  0  0  0  0  0  0  0  0
  -16.5010  -10.0915    3.3797 C   0  0  0  0  0  0  0  0  0  0  0  0
 33 34  2  0  0  0
 34 35  1  0  0  0
 34 32  1  0  0  0
 32 37  1  0  0  0
 37 38  1  0  0  0
 38 39  2  0  0  0
 39 40  1  0  0  0
 40 41  2  0  0  0
 41 42  1  0  0  0
 42 43  2  0  0  0
 32 31  1  0  0  0
 31 23  1  0  0  0
 23 24  2  0  0  0
 24 25  1  0  0  0
 24 26  1  0  0  0
 26 27  2  0  0  0
 27  1  1  0  0  0
  1  2  2  0  0  0
  2  3  1  0  0  0
  3  4  2  0  0  0
  4  7  1  0  0  0
  7  8  2  0  0  0
  8 16  1  0  0  0
 16 17  1  0  0  0
 17 18  2  0  0  0
 18 19  1  0  0  0
 19 20  2  0  0  0
 20 21  1  0  0  0
 21 22  2  0  0  0
  8  9  1  0  0  0
  9 10  1  0  0  0
 10 11  2  0  0  0
 11 12  1  0  0  0
 12 13  2  0  0  0
 13 14  1  0  0  0
 14 15  2  0  0  0
  4  5  1  0  0  0
  5  6  2  0  0  0
 27 28  1  0  0  0
 28 29  2  0  0  0
 29 30  1  0  0  0
 43 38  1  0  0  0
 29 23  1  0  0  0
  6  1  1  0  0  0
 15  7  1  0  0  0
 22 17  1  0  0  0
 15 10  1  0  0  0
 35 36  1  0  0  0
M  END
> <minimizedAffinity>
7.41084

> <CNNscore>
0.4230044782

> <CNNaffinity>
7.2144002914

> <CNN_VS>
3.0517237186

> <CNNaffinity_variance>
1.1670455933

$$$$
[H]OC(=O)[C@@]([H])(Oc1c(Br)c([H])c(-c2c([H])c([H])c(-c3c(C([H])([H])c4c([H])c([H])c([H])c([H])c4[H])oc4c([H])c([H])c([H])c([H])c34)c([H])c2[H])c([H])c1Br)C([H])([H])c1c([H])c([H])c([H])c([H])c1[H]


 43 48  0  0  0  0  0  0  0  0999 V2000
  -11.5182   -6.4535    8.2738 C   0  0  0  0  0  0  0  0  0  0  0  0
  -11.0339   -5.4139    9.0436 C   0  0  0  0  0  0  0  0  0  0  0  0
   -9.7490   -5.4953    9.5142 C   0  0  0  0  0  0  0  0  0  0  0  0
   -8.8910   -6.5427    9.2789 C   0  0  0  0  0  0  0  0  0  0  0  0
   -9.4214   -7.5775    8.4921 C   0  0  0  0  0  0  0  0  0  0  0  0
  -10.6969   -7.5242    8.0099 C   0  0  0  0  0  0  0  0  0  0  0  0
   -7.5413   -6.6504    9.7983 C   0  0  0  0  0  0  0  0  0  0  0  0
   -6.3895   -7.0253    9.2109 C   0  0  0  0  0  0  0  0  0  0  0  0
   -5.4104   -6.9997   10.1184 O   0  0  0  0  0  0  0  0  0  0  0  0
   -5.8606   -6.6221   11.2866 C   0  0  0  0  0  0  0  0  0  0  0  0
   -5.2611   -6.4413   12.5135 C   0  0  0  0  0  0  0  0  0  0  0  0
   -5.9846   -6.0256   13.6109 C   0  0  0  0  0  0  0  0  0  0  0  0
   -7.3329   -5.7962   13.4361 C   0  0  0  0  0  0  0  0  0  0  0  0
   -7.9491   -5.9762   12.2004 C   0  0  0  0  0  0  0  0  0  0  0  0
   -7.2067   -6.3863   11.1436 C   0  0  0  0  0  0  0  0  0  0  0  0
   -6.1122   -7.4169    7.8130 C   0  0  0  0  0  0  0  0  0  0  0  0
   -6.9851   -8.5278    7.3884 C   0  0  0  0  0  0  0  0  0  0  0  0
   -7.7078   -8.5856    6.2377 C   0  0  0  0  0  0  0  0  0  0  0  0
   -8.5117   -9.6933    5.9245 C   0  0  0  0  0  0  0  0  0  0  0  0
   -8.5963  -10.7652    6.7784 C   0  0  0  0  0  0  0  0  0  0  0  0
   -7.8729  -10.7279    7.9494 C   0  0  0  0  0  0  0  0  0  0  0  0
   -7.0845   -9.6326    8.2461 C   0  0  0  0  0  0  0  0  0  0  0  0
  -15.5271   -6.5248    6.7295 C   0  0  0  0  0  0  0  0  0  0  0  0
  -14.5496   -5.6800    6.1867 C   0  0  0  0  0  0  0  0  0  0  0  0
  -15.0373   -4.5699    4.7225 Br  0  0  0  0  0  0  0  0  0  0  0  0
  -13.2626   -5.6584    6.6868 C   0  0  0  0  0  0  0  0  0  0  0  0
  -12.8731   -6.4587    7.7345 C   0  0  0  0  0  0  0  0  0  0  0  0
  -13.8313   -7.2996    8.2802 C   0  0  0  0  0  0  0  0  0  0  0  0
  -15.1369   -7.3159    7.7709 C   0  0  0  0  0  0  0  0  0  0  0  0
  -16.3748   -8.4651    8.7017 Br  0  0  0  0  0  0  0  0  0  0  0  0
  -16.8069   -6.5461    6.2425 O   0  0  0  0  0  0  0  0  0  0  0  0
  -17.2156   -6.3262    4.8996 C   0  0  0  0  0  0  0  0  0  0  0  0
  -19.2984   -5.2834    4.2181 O   0  0  0  0  0  0  0  0  0  0  0  0
  -18.2811   -5.3019    4.9655 C   0  0  0  0  0  0  0  0  0  0  0  0
  -18.2188   -4.2680    5.8922 O   0  0  0  0  0  0  0  0  0  0  0  0
  -17.5833   -3.5134    5.8992 H   0  0  0  0  0  0  0  0  0  0  0  0
  -17.7410   -7.5877    4.2349 C   0  0  0  0  0  0  0  0  0  0  0  0
  -16.6897   -8.4518    3.6666 C   0  0  0  0  0  0  0  0  0  0  0  0
  -15.4518   -7.8769    3.3203 C   0  0  0  0  0  0  0  0  0  0  0  0
  -14.4568   -8.6934    2.8190 C   0  0  0  0  0  0  0  0  0  0  0  0
  -14.6396  -10.0549    2.6471 C   0  0  0  0  0  0  0  0  0  0  0  0
  -15.8721  -10.5732    3.0014 C   0  0  0  0  0  0  0  0  0  0  0  0
  -16.8875   -9.7974    3.5035 C   0  0  0  0  0  0  0  0  0  0  0  0
 33 34  2  0  0  0
 34 35  1  0  0  0
 34 32  1  0  0  0
 32 37  1  0  0  0
 37 38  1  0  0  0
 38 39  2  0  0  0
 39 40  1  0  0  0
 40 41  2  0  0  0
 41 42  1  0  0  0
 42 43  2  0  0  0
 32 31  1  0  0  0
 31 23  1  0  0  0
 23 24  2  0  0  0
 24 25  1  0  0  0
 24 26  1  0  0  0
 26 27  2  0  0  0
 27  1  1  0  0  0
  1  2  2  0  0  0
  2  3  1  0  0  0
  3  4  2  0  0  0
  4  7  1  0  0  0
  7  8  2  0  0  0
  8 16  1  0  0  0
 16 17  1  0  0  0
 17 18  2  0  0  0
 18 19  1  0  0  0
 19 20  2  0  0  0
 20 21  1  0  0  0
 21 22  2  0  0  0
  8  9  1  0  0  0
  9 10  1  0  0  0
 10 11  2  0  0  0
 11 12  1  0  0  0
 12 13  2  0  0  0
 13 14  1  0  0  0
 14 15  2  0  0  0
  4  5  1  0  0  0
  5  6  2  0  0  0
 27 28  1  0  0  0
 28 29  2  0  0  0
 29 30  1  0  0  0
 43 38  1  0  0  0
 29 23  1  0  0  0
  6  1  1  0  0  0
 15  7  1  0  0  0
 22 17  1  0  0  0
 15 10  1  0  0  0
 35 36  1  0  0  0
M  END
> <minimizedAffinity>
13.85244

> <CNNscore>
0.4077727199

> <CNNaffinity>
7.0708923340

> <CNN_VS>
2.8833169937

> <CNNaffinity_variance>
1.1398441792

$$$$
[H]OC(=O)[C@@]([H])(Oc1c(Br)c([H])c(-c2c([H])c([H])c(-c3c(C([H])([H])c4c([H])c([H])c([H])c([H])c4[H])oc4c([H])c([H])c([H])c([H])c34)c([H])c2[H])c([H])c1Br)C([H])([H])c1c([H])c([H])c([H])c([H])c1[H]


 43 48  0  0  0  0  0  0  0  0999 V2000
   -9.3505   -6.3907    6.5784 C   0  0  0  0  0  0  0  0  0  0  0  0
   -8.5859   -6.4162    5.4283 C   0  0  0  0  0  0  0  0  0  0  0  0
   -7.2209   -6.4006    5.5529 C   0  0  0  0  0  0  0  0  0  0  0  0
   -6.5414   -6.3613    6.7467 C   0  0  0  0  0  0  0  0  0  0  0  0
   -7.3549   -6.3375    7.8907 C   0  0  0  0  0  0  0  0  0  0  0  0
   -8.7163   -6.3519    7.7978 C   0  0  0  0  0  0  0  0  0  0  0  0
   -5.0986   -6.3139    6.8860 C   0  0  0  0  0  0  0  0  0  0  0  0
   -4.2242   -7.2038    7.3918 C   0  0  0  0  0  0  0  0  0  0  0  0
   -2.9950   -6.6855    7.3354 O   0  0  0  0  0  0  0  0  0  0  0  0
   -3.0126   -5.4873    6.8119 C   0  0  0  0  0  0  0  0  0  0  0  0
   -2.0281   -4.5618    6.5444 C   0  0  0  0  0  0  0  0  0  0  0  0
   -2.3258   -3.3430    5.9730 C   0  0  0  0  0  0  0  0  0  0  0  0
   -3.6471   -3.0830    5.6775 C   0  0  0  0  0  0  0  0  0  0  0  0
   -4.6503   -4.0112    5.9440 C   0  0  0  0  0  0  0  0  0  0  0  0
   -4.3210   -5.1991    6.5069 C   0  0  0  0  0  0  0  0  0  0  0  0
   -4.4475   -8.5572    7.9419 C   0  0  0  0  0  0  0  0  0  0  0  0
   -5.8346   -9.0034    7.7110 C   0  0  0  0  0  0  0  0  0  0  0  0
   -6.7163   -9.4087    8.6640 C   0  0  0  0  0  0  0  0  0  0  0  0
   -8.0203   -9.8159    8.3394 C   0  0  0  0  0  0  0  0  0  0  0  0
   -8.4525   -9.8190    7.0363 C   0  0  0  0  0  0  0  0  0  0  0  0
   -7.5763   -9.4124    6.0550 C   0  0  0  0  0  0  0  0  0  0  0  0
   -6.2958   -9.0131    6.3868 C   0  0  0  0  0  0  0  0  0  0  0  0
  -13.6440   -6.3858    6.4135 C   0  0  0  0  0  0  0  0  0  0  0  0
  -12.9580   -6.7291    7.5863 C   0  0  0  0  0  0  0  0  0  0  0  0
  -13.9811   -7.1767    9.1247 Br  0  0  0  0  0  0  0  0  0  0  0  0
  -11.5779   -6.7312    7.6351 C   0  0  0  0  0  0  0  0  0  0  0  0
  -10.8084   -6.3984    6.5456 C   0  0  0  0  0  0  0  0  0  0  0  0
  -11.4755   -6.0566    5.3790 C   0  0  0  0  0  0  0  0  0  0  0  0
  -12.8764   -6.0583    5.3336 C   0  0  0  0  0  0  0  0  0  0  0  0
  -13.6499   -5.6571    3.6132 Br  0  0  0  0  0  0  0  0  0  0  0  0
  -15.0123   -6.3882    6.3566 O   0  0  0  0  0  0  0  0  0  0  0  0
  -15.8253   -5.9279    5.2862 C   0  0  0  0  0  0  0  0  0  0  0  0
  -15.3227   -3.6076    5.7898 O   0  0  0  0  0  0  0  0  0  0  0  0
  -16.1699   -4.5274    5.6156 C   0  0  0  0  0  0  0  0  0  0  0  0
  -17.4956   -4.1333    5.7519 O   0  0  0  0  0  0  0  0  0  0  0  0
  -18.1205   -4.3876    6.4718 H   0  0  0  0  0  0  0  0  0  0  0  0
  -17.0899   -6.7533    5.1164 C   0  0  0  0  0  0  0  0  0  0  0  0
  -16.8602   -8.1006    4.5625 C   0  0  0  0  0  0  0  0  0  0  0  0
  -15.6994   -8.3324    3.7998 C   0  0  0  0  0  0  0  0  0  0  0  0
  -15.4690   -9.6030    3.3095 C   0  0  0  0  0  0  0  0  0  0  0  0
  -16.3421  -10.6515    3.5442 C   0  0  0  0  0  0  0  0  0  0  0  0
  -17.4680  -10.3748    4.2984 C   0  0  0  0  0  0  0  0  0  0  0  0
  -17.7345   -9.1268    4.8048 C   0  0  0  0  0  0  0  0  0  0  0  0
 33 34  2  0  0  0
 34 35  1  0  0  0
 34 32  1  0  0  0
 32 37  1  0  0  0
 37 38  1  0  0  0
 38 39  2  0  0  0
 39 40  1  0  0  0
 40 41  2  0  0  0
 41 42  1  0  0  0
 42 43  2  0  0  0
 32 31  1  0  0  0
 31 23  1  0  0  0
 23 24  2  0  0  0
 24 25  1  0  0  0
 24 26  1  0  0  0
 26 27  2  0  0  0
 27  1  1  0  0  0
  1  2  2  0  0  0
  2  3  1  0  0  0
  3  4  2  0  0  0
  4  7  1  0  0  0
  7  8  2  0  0  0
  8 16  1  0  0  0
 16 17  1  0  0  0
 17 18  2  0  0  0
 18 19  1  0  0  0
 19 20  2  0  0  0
 20 21  1  0  0  0
 21 22  2  0  0  0
  8  9  1  0  0  0
  9 10  1  0  0  0
 10 11  2  0  0  0
 11 12  1  0  0  0
 12 13  2  0  0  0
 13 14  1  0  0  0
 14 15  2  0  0  0
  4  5  1  0  0  0
  5  6  2  0  0  0
 27 28  1  0  0  0
 28 29  2  0  0  0
 29 30  1  0  0  0
 43 38  1  0  0  0
 29 23  1  0  0  0
  6  1  1  0  0  0
 15  7  1  0  0  0
 22 17  1  0  0  0
 15 10  1  0  0  0
 35 36  1  0  0  0
M  END
> <minimizedAffinity>
15.75119

> <CNNscore>
0.3872595429

> <CNNaffinity>
7.0806989670

> <CNN_VS>
2.7420682907

> <CNNaffinity_variance>
1.3163564205

$$$$
[H]OC(=O)[C@@]([H])(Oc1c(Br)c([H])c(-c2c([H])c([H])c(-c3c(C([H])([H])c4c([H])c([H])c([H])c([H])c4[H])oc4c([H])c([H])c([H])c([H])c34)c([H])c2[H])c([H])c1Br)C([H])([H])c1c([H])c([H])c([H])c([H])c1[H]


 43 48  0  0  0  0  0  0  0  0999 V2000
   -7.4788   -6.7552    9.5993 C   0  0  0  0  0  0  0  0  0  0  0  0
   -6.5008   -6.5804    8.6396 C   0  0  0  0  0  0  0  0  0  0  0  0
   -5.2441   -6.2167    9.0488 C   0  0  0  0  0  0  0  0  0  0  0  0
   -4.8728   -6.0088   10.3555 C   0  0  0  0  0  0  0  0  0  0  0  0
   -5.8952   -6.1978   11.2989 C   0  0  0  0  0  0  0  0  0  0  0  0
   -7.1556   -6.5596   10.9214 C   0  0  0  0  0  0  0  0  0  0  0  0
   -3.5539   -5.5945   10.7938 C   0  0  0  0  0  0  0  0  0  0  0  0
   -2.3631   -5.6079   10.1661 C   0  0  0  0  0  0  0  0  0  0  0  0
   -1.4254   -5.1576   11.0033 O   0  0  0  0  0  0  0  0  0  0  0  0
   -1.9412   -4.8430   12.1631 C   0  0  0  0  0  0  0  0  0  0  0  0
   -1.4030   -4.3461   13.3296 C   0  0  0  0  0  0  0  0  0  0  0  0
   -2.1904   -4.0968   14.4334 C   0  0  0  0  0  0  0  0  0  0  0  0
   -3.5391   -4.3626   14.3277 C   0  0  0  0  0  0  0  0  0  0  0  0
   -4.0935   -4.8654   13.1535 C   0  0  0  0  0  0  0  0  0  0  0  0
   -3.2891   -5.0989   12.0883 C   0  0  0  0  0  0  0  0  0  0  0  0
   -2.0118   -6.0178    8.7903 C   0  0  0  0  0  0  0  0  0  0  0  0
   -2.1268   -4.8854    7.8519 C   0  0  0  0  0  0  0  0  0  0  0  0
   -1.1323   -4.0234    7.5088 C   0  0  0  0  0  0  0  0  0  0  0  0
   -1.3447   -2.9729    6.6016 C   0  0  0  0  0  0  0  0  0  0  0  0
   -2.5758   -2.7788    6.0257 C   0  0  0  0  0  0  0  0  0  0  0  0
   -3.5974   -3.6399    6.3587 C   0  0  0  0  0  0  0  0  0  0  0  0
   -3.3759   -4.6706    7.2520 C   0  0  0  0  0  0  0  0  0  0  0  0
  -11.4779   -7.9266    8.5524 C   0  0  0  0  0  0  0  0  0  0  0  0
  -11.2332   -6.8314    9.3917 C   0  0  0  0  0  0  0  0  0  0  0  0
  -12.7257   -5.8528   10.0464 Br  0  0  0  0  0  0  0  0  0  0  0  0
   -9.9465   -6.4589    9.7275 C   0  0  0  0  0  0  0  0  0  0  0  0
   -8.8451   -7.1354    9.2597 C   0  0  0  0  0  0  0  0  0  0  0  0
   -9.0741   -8.2211    8.4279 C   0  0  0  0  0  0  0  0  0  0  0  0
  -10.3819   -8.5969    8.0921 C   0  0  0  0  0  0  0  0  0  0  0  0
  -10.5350  -10.1852    7.0089 Br  0  0  0  0  0  0  0  0  0  0  0  0
  -12.7516   -8.3053    8.2211 O   0  0  0  0  0  0  0  0  0  0  0  0
  -13.8272   -7.4557    7.8469 C   0  0  0  0  0  0  0  0  0  0  0  0
  -16.1101   -7.9605    7.1960 O   0  0  0  0  0  0  0  0  0  0  0  0
  -14.9536   -8.3551    7.5137 C   0  0  0  0  0  0  0  0  0  0  0  0
  -14.7916   -9.7353    7.5289 O   0  0  0  0  0  0  0  0  0  0  0  0
  -14.6529  -10.3090    8.3196 H   0  0  0  0  0  0  0  0  0  0  0  0
  -13.4889   -6.5752    6.6554 C   0  0  0  0  0  0  0  0  0  0  0  0
  -14.5610   -6.4885    5.6465 C   0  0  0  0  0  0  0  0  0  0  0  0
  -15.1642   -5.2397    5.4022 C   0  0  0  0  0  0  0  0  0  0  0  0
  -16.1451   -5.1536    4.4336 C   0  0  0  0  0  0  0  0  0  0  0  0
  -16.5519   -6.2543    3.6988 C   0  0  0  0  0  0  0  0  0  0  0  0
  -15.9302   -7.4586    3.9747 C   0  0  0  0  0  0  0  0  0  0  0  0
  -14.9509   -7.5877    4.9283 C   0  0  0  0  0  0  0  0  0  0  0  0
 33 34  2  0  0  0
 34 35  1  0  0  0
 34 32  1  0  0  0
 32 37  1  0  0  0
 37 38  1  0  0  0
 38 39  2  0  0  0
 39 40  1  0  0  0
 40 41  2  0  0  0
 41 42  1  0  0  0
 42 43  2  0  0  0
 32 31  1  0  0  0
 31 23  1  0  0  0
 23 24  2  0  0  0
 24 25  1  0  0  0
 24 26  1  0  0  0
 26 27  2  0  0  0
 27  1  1  0  0  0
  1  2  2  0  0  0
  2  3  1  0  0  0
  3  4  2  0  0  0
  4  7  1  0  0  0
  7  8  2  0  0  0
  8 16  1  0  0  0
 16 17  1  0  0  0
 17 18  2  0  0  0
 18 19  1  0  0  0
 19 20  2  0  0  0
 20 21  1  0  0  0
 21 22  2  0  0  0
  8  9  1  0  0  0
  9 10  1  0  0  0
 10 11  2  0  0  0
 11 12  1  0  0  0
 12 13  2  0  0  0
 13 14  1  0  0  0
 14 15  2  0  0  0
  4  5  1  0  0  0
  5  6  2  0  0  0
 27 28  1  0  0  0
 28 29  2  0  0  0
 29 30  1  0  0  0
 43 38  1  0  0  0
 29 23  1  0  0  0
  6  1  1  0  0  0
 15  7  1  0  0  0
 22 17  1  0  0  0
 15 10  1  0  0  0
 35 36  1  0  0  0
M  END
> <minimizedAffinity>
-2.35648

> <CNNscore>
0.3645062149

> <CNNaffinity>
7.0840516090

> <CNN_VS>
2.5821807384

> <CNNaffinity_variance>
0.7808987498

$$$$
[H]OC(=O)[C@@]([H])(Oc1c(Br)c([H])c(-c2c([H])c([H])c(-c3c(C([H])([H])c4c([H])c([H])c([H])c([H])c4[H])oc4c([H])c([H])c([H])c([H])c34)c([H])c2[H])c([H])c1Br)C([H])([H])c1c([H])c([H])c([H])c([H])c1[H]


 43 48  0  0  0  0  0  0  0  0999 V2000
   -7.4847   -6.7779    9.0975 C   0  0  0  0  0  0  0  0  0  0  0  0
   -6.6434   -6.5004    8.0377 C   0  0  0  0  0  0  0  0  0  0  0  0
   -5.3520   -6.1305    8.3105 C   0  0  0  0  0  0  0  0  0  0  0  0
   -4.8184   -6.0118    9.5713 C   0  0  0  0  0  0  0  0  0  0  0  0
   -5.7055   -6.3036   10.6197 C   0  0  0  0  0  0  0  0  0  0  0  0
   -6.9966   -6.6741   10.3788 C   0  0  0  0  0  0  0  0  0  0  0  0
   -3.4626   -5.5918    9.8690 C   0  0  0  0  0  0  0  0  0  0  0  0
   -2.3411   -5.6136    9.1247 C   0  0  0  0  0  0  0  0  0  0  0  0
   -1.3244   -5.1523    9.8572 O   0  0  0  0  0  0  0  0  0  0  0  0
   -1.7210   -4.8226   11.0588 C   0  0  0  0  0  0  0  0  0  0  0  0
   -1.0686   -4.3105   12.1586 C   0  0  0  0  0  0  0  0  0  0  0  0
   -1.7411   -4.0468   13.3328 C   0  0  0  0  0  0  0  0  0  0  0  0
   -3.0932   -4.3139   13.3672 C   0  0  0  0  0  0  0  0  0  0  0  0
   -3.7625   -4.8319   12.2614 C   0  0  0  0  0  0  0  0  0  0  0  0
   -3.0693   -5.0794   11.1237 C   0  0  0  0  0  0  0  0  0  0  0  0
   -2.1298   -6.0414    7.7260 C   0  0  0  0  0  0  0  0  0  0  0  0
   -2.1353   -7.5123    7.6128 C   0  0  0  0  0  0  0  0  0  0  0  0
   -2.9843   -8.2555    6.8533 C   0  0  0  0  0  0  0  0  0  0  0  0
   -2.9066   -9.6569    6.8139 C   0  0  0  0  0  0  0  0  0  0  0  0
   -1.9621  -10.3301    7.5486 C   0  0  0  0  0  0  0  0  0  0  0  0
   -1.0921   -9.5975    8.3248 C   0  0  0  0  0  0  0  0  0  0  0  0
   -1.1778   -8.2187    8.3546 C   0  0  0  0  0  0  0  0  0  0  0  0
  -11.5606   -7.9905    8.4828 C   0  0  0  0  0  0  0  0  0  0  0  0
  -11.2355   -6.9227    9.3301 C   0  0  0  0  0  0  0  0  0  0  0  0
  -12.6554   -5.9997   10.1939 Br  0  0  0  0  0  0  0  0  0  0  0  0
   -9.9242   -6.5369    9.5267 C   0  0  0  0  0  0  0  0  0  0  0  0
   -8.8753   -7.1729    8.9062 C   0  0  0  0  0  0  0  0  0  0  0  0
   -9.1840   -8.2312    8.0649 C   0  0  0  0  0  0  0  0  0  0  0  0
  -10.5162   -8.6207    7.8706 C   0  0  0  0  0  0  0  0  0  0  0  0
  -10.7713  -10.1702    6.7510 Br  0  0  0  0  0  0  0  0  0  0  0  0
  -12.8584   -8.3824    8.2888 O   0  0  0  0  0  0  0  0  0  0  0  0
  -13.9598   -7.5545    7.9423 C   0  0  0  0  0  0  0  0  0  0  0  0
  -16.3419   -8.0179    7.9722 O   0  0  0  0  0  0  0  0  0  0  0  0
  -15.1496   -8.4332    7.9736 C   0  0  0  0  0  0  0  0  0  0  0  0
  -15.0133   -9.8159    8.0030 O   0  0  0  0  0  0  0  0  0  0  0  0
  -14.6699  -10.3638    8.7482 H   0  0  0  0  0  0  0  0  0  0  0  0
  -13.8081   -6.9256    6.5672 C   0  0  0  0  0  0  0  0  0  0  0  0
  -14.9880   -7.0869    5.6974 C   0  0  0  0  0  0  0  0  0  0  0  0
  -15.8929   -6.0149    5.5749 C   0  0  0  0  0  0  0  0  0  0  0  0
  -16.9798   -6.1554    4.7342 C   0  0  0  0  0  0  0  0  0  0  0  0
  -17.2057   -7.3145    4.0114 C   0  0  0  0  0  0  0  0  0  0  0  0
  -16.2895   -8.3392    4.1647 C   0  0  0  0  0  0  0  0  0  0  0  0
  -15.1960   -8.2407    4.9891 C   0  0  0  0  0  0  0  0  0  0  0  0
 33 34  2  0  0  0
 34 35  1  0  0  0
 34 32  1  0  0  0
 32 37  1  0  0  0
 37 38  1  0  0  0
 38 39  2  0  0  0
 39 40  1  0  0  0
 40 41  2  0  0  0
 41 42  1  0  0  0
 42 43  2  0  0  0
 32 31  1  0  0  0
 31 23  1  0  0  0
 23 24  2  0  0  0
 24 25  1  0  0  0
 24 26  1  0  0  0
 26 27  2  0  0  0
 27  1  1  0  0  0
  1  2  2  0  0  0
  2  3  1  0  0  0
  3  4  2  0  0  0
  4  7  1  0  0  0
  7  8  2  0  0  0
  8 16  1  0  0  0
 16 17  1  0  0  0
 17 18  2  0  0  0
 18 19  1  0  0  0
 19 20  2  0  0  0
 20 21  1  0  0  0
 21 22  2  0  0  0
  8  9  1  0  0  0
  9 10  1  0  0  0
 10 11  2  0  0  0
 11 12  1  0  0  0
 12 13  2  0  0  0
 13 14  1  0  0  0
 14 15  2  0  0  0
  4  5  1  0  0  0
  5  6  2  0  0  0
 27 28  1  0  0  0
 28 29  2  0  0  0
 29 30  1  0  0  0
 43 38  1  0  0  0
 29 23  1  0  0  0
  6  1  1  0  0  0
 15  7  1  0  0  0
 22 17  1  0  0  0
 15 10  1  0  0  0
 35 36  1  0  0  0
M  END
> <minimizedAffinity>
-4.70491

> <CNNscore>
0.3362587094

> <CNNaffinity>
7.1368546486

> <CNN_VS>
2.3998296261

> <CNNaffinity_variance>
0.3746138513

$$$$
[H]c1c(F)c(C(=O)N([H])S(=O)(=O)C2([H])C([H])([H])C2([H])[H])c([H])c(C2([H])C([H])([H])C2([H])[H])c1OC([H])([H])C1([H])C([H])([H])C([H])([H])C([H])(C(F)(F)F)C([H])([H])C1([H])[H]


 32 35  0  0  0  0  0  0  0  0999 V2000
   -9.2129   -8.1116    7.9096 C   0  0  0  0  0  0  0  0  0  0  0  0
  -10.0885   -7.1798    8.4784 C   0  0  0  0  0  0  0  0  0  0  0  0
  -11.4345   -7.3505    8.5351 C   0  0  0  0  0  0  0  0  0  0  0  0
  -12.0405   -8.5210    8.0025 C   0  0  0  0  0  0  0  0  0  0  0  0
  -11.1613   -9.4292    7.4464 C   0  0  0  0  0  0  0  0  0  0  0  0
   -9.7835   -9.2298    7.4006 C   0  0  0  0  0  0  0  0  0  0  0  0
   -9.0303  -10.1726    6.8263 F   0  0  0  0  0  0  0  0  0  0  0  0
   -7.1029   -8.2672    8.9057 O   0  0  0  0  0  0  0  0  0  0  0  0
   -7.8029   -7.7894    7.9375 C   0  0  0  0  0  0  0  0  0  0  0  0
   -7.0922   -7.0093    7.0233 N   0  0  0  0  0  0  0  0  0  0  0  0
   -7.5321   -6.5845    6.2029 H   0  0  0  0  0  0  0  0  0  0  0  0
   -5.4042   -6.7255    7.2165 S   0  0  0  0  0  0  0  0  0  0  0  0
   -4.6531   -8.0352    7.2334 O   0  0  0  0  0  0  0  0  0  0  0  0
   -5.1066   -6.0210    8.5052 O   0  0  0  0  0  0  0  0  0  0  0  0
   -4.7822   -5.7443    5.8418 C   0  0  0  0  0  0  0  0  0  0  0  0
   -3.9241   -4.5564    6.1326 C   0  0  0  0  0  0  0  0  0  0  0  0
   -3.2709   -5.8146    5.7155 C   0  0  0  0  0  0  0  0  0  0  0  0
  -12.3573   -6.3325    9.1335 C   0  0  0  0  0  0  0  0  0  0  0  0
  -13.2065   -6.6393   10.2892 C   0  0  0  0  0  0  0  0  0  0  0  0
  -11.9542   -5.8863   10.5436 C   0  0  0  0  0  0  0  0  0  0  0  0
  -13.3565   -8.6360    8.0905 O   0  0  0  0  0  0  0  0  0  0  0  0
  -14.4605   -8.8384    7.4191 C   0  0  0  0  0  0  0  0  0  0  0  0
  -14.8902   -8.0571    6.2384 C   0  0  0  0  0  0  0  0  0  0  0  0
  -14.3173   -6.6538    6.1766 C   0  0  0  0  0  0  0  0  0  0  0  0
  -15.3516   -5.8095    5.4868 C   0  0  0  0  0  0  0  0  0  0  0  0
  -15.7099   -6.3391    4.1554 C   0  0  0  0  0  0  0  0  0  0  0  0
  -15.4097   -7.7400    3.8151 C   0  0  0  0  0  0  0  0  0  0  0  0
  -14.8468   -8.6254    4.8890 C   0  0  0  0  0  0  0  0  0  0  0  0
  -17.1825   -6.0024    3.8080 C   0  0  0  0  0  0  0  0  0  0  0  0
  -17.7727   -6.9877    3.0793 F   0  0  0  0  0  0  0  0  0  0  0  0
  -17.9075   -5.8658    4.9840 F   0  0  0  0  0  0  0  0  0  0  0  0
  -17.2511   -4.7916    3.1670 F   0  0  0  0  0  0  0  0  0  0  0  0
  8  9  2  0  0  0
  9 10  1  0  0  0
 10 12  1  0  0  0
 12 13  2  0  0  0
 12 14  2  0  0  0
 12 15  1  0  0  0
 15 16  1  0  0  0
 16 17  1  0  0  0
  9  1  1  0  0  0
  1  2  2  0  0  0
  2  3  1  0  0  0
  3 18  1  0  0  0
 18 19  1  0  0  0
 19 20  1  0  0  0
  3  4  2  0  0  0
  4 21  1  0  0  0
 21 22  1  0  0  0
 22 23  1  0  0  0
 23 24  1  0  0  0
 24 25  1  0  0  0
 25 26  1  0  0  0
 26 29  1  0  0  0
 29 30  1  0  0  0
 29 31  1  0  0  0
 29 32  1  0  0  0
 26 27  1  0  0  0
 27 28  1  0  0  0
  4  5  1  0  0  0
  5  6  2  0  0  0
  6  7  1  0  0  0
 17 15  1  0  0  0
  6  1  1  0  0  0
 20 18  1  0  0  0
 28 23  1  0  0  0
 10 11  1  0  0  0
M  END
> <minimizedAffinity>
-10.58452

> <CNNscore>
0.8059361577

> <CNNaffinity>
7.5951919556

> <CNN_VS>
6.1212396622

> <CNNaffinity_variance>
0.0907083973

$$$$
[H]c1c(F)c(C(=O)N([H])S(=O)(=O)C2([H])C([H])([H])C2([H])[H])c([H])c(C2([H])C([H])([H])C2([H])[H])c1OC([H])([H])C1([H])C([H])([H])C([H])([H])C([H])(C(F)(F)F)C([H])([H])C1([H])[H]


 32 35  0  0  0  0  0  0  0  0999 V2000
   -9.0766   -8.0032    7.9356 C   0  0  0  0  0  0  0  0  0  0  0  0
  -10.0059   -7.1093    8.4793 C   0  0  0  0  0  0  0  0  0  0  0  0
  -11.3433   -7.3426    8.5112 C   0  0  0  0  0  0  0  0  0  0  0  0
  -11.8832   -8.5443    7.9768 C   0  0  0  0  0  0  0  0  0  0  0  0
  -10.9515   -9.4143    7.4456 C   0  0  0  0  0  0  0  0  0  0  0  0
   -9.5839   -9.1508    7.4251 C   0  0  0  0  0  0  0  0  0  0  0  0
   -8.7762  -10.0615    6.8736 F   0  0  0  0  0  0  0  0  0  0  0  0
   -6.9716   -8.0854    8.9510 O   0  0  0  0  0  0  0  0  0  0  0  0
   -7.6840   -7.6150    7.9882 C   0  0  0  0  0  0  0  0  0  0  0  0
   -7.0025   -6.7768    7.1037 N   0  0  0  0  0  0  0  0  0  0  0  0
   -7.4540   -6.3509    6.2903 H   0  0  0  0  0  0  0  0  0  0  0  0
   -5.3320   -6.4181    7.3238 S   0  0  0  0  0  0  0  0  0  0  0  0
   -5.0924   -5.8794    8.7137 O   0  0  0  0  0  0  0  0  0  0  0  0
   -4.8573   -5.3805    6.3524 O   0  0  0  0  0  0  0  0  0  0  0  0
   -4.3492   -7.9132    7.1287 C   0  0  0  0  0  0  0  0  0  0  0  0
   -3.1311   -7.8689    6.2647 C   0  0  0  0  0  0  0  0  0  0  0  0
   -2.9616   -7.7781    7.7298 C   0  0  0  0  0  0  0  0  0  0  0  0
  -12.3245   -6.3646    9.0827 C   0  0  0  0  0  0  0  0  0  0  0  0
  -13.1169   -6.6694   10.2786 C   0  0  0  0  0  0  0  0  0  0  0  0
  -11.9191   -5.8125   10.4542 C   0  0  0  0  0  0  0  0  0  0  0  0
  -13.1938   -8.7203    8.0401 O   0  0  0  0  0  0  0  0  0  0  0  0
  -14.2768   -8.9563    7.3458 C   0  0  0  0  0  0  0  0  0  0  0  0
  -14.7380   -8.1504    6.1939 C   0  0  0  0  0  0  0  0  0  0  0  0
  -14.2001   -6.7322    6.1693 C   0  0  0  0  0  0  0  0  0  0  0  0
  -15.2620   -5.8930    5.5161 C   0  0  0  0  0  0  0  0  0  0  0  0
  -15.6215   -6.3907    4.1727 C   0  0  0  0  0  0  0  0  0  0  0  0
  -15.2911   -7.7728    3.7868 C   0  0  0  0  0  0  0  0  0  0  0  0
  -14.6953   -8.6763    4.8274 C   0  0  0  0  0  0  0  0  0  0  0  0
  -17.1055   -6.0799    3.8505 C   0  0  0  0  0  0  0  0  0  0  0  0
  -17.6729   -7.0457    3.0788 F   0  0  0  0  0  0  0  0  0  0  0  0
  -17.8256   -6.0206    5.0359 F   0  0  0  0  0  0  0  0  0  0  0  0
  -17.2129   -4.8423    3.2688 F   0  0  0  0  0  0  0  0  0  0  0  0
  8  9  2  0  0  0
  9 10  1  0  0  0
 10 12  1  0  0  0
 12 13  2  0  0  0
 12 14  2  0  0  0
 12 15  1  0  0  0
 15 16  1  0  0  0
 16 17  1  0  0  0
  9  1  1  0  0  0
  1  2  2  0  0  0
  2  3  1  0  0  0
  3 18  1  0  0  0
 18 19  1  0  0  0
 19 20  1  0  0  0
  3  4  2  0  0  0
  4 21  1  0  0  0
 21 22  1  0  0  0
 22 23  1  0  0  0
 23 24  1  0  0  0
 24 25  1  0  0  0
 25 26  1  0  0  0
 26 29  1  0  0  0
 29 30  1  0  0  0
 29 31  1  0  0  0
 29 32  1  0  0  0
 26 27  1  0  0  0
 27 28  1  0  0  0
  4  5  1  0  0  0
  5  6  2  0  0  0
  6  7  1  0  0  0
 17 15  1  0  0  0
  6  1  1  0  0  0
 20 18  1  0  0  0
 28 23  1  0  0  0
 10 11  1  0  0  0
M  END
> <minimizedAffinity>
-10.55278

> <CNNscore>
0.7880770564

> <CNNaffinity>
7.5690078735

> <CNN_VS>
5.9649615288

> <CNNaffinity_variance>
0.0741049051

$$$$
[H]c1c(F)c(C(=O)N([H])S(=O)(=O)C2([H])C([H])([H])C2([H])[H])c([H])c(C2([H])C([H])([H])C2([H])[H])c1OC([H])([H])C1([H])C([H])([H])C([H])([H])C([H])(C(F)(F)F)C([H])([H])C1([H])[H]


 32 35  0  0  0  0  0  0  0  0999 V2000
   -9.0736   -8.1084    7.8549 C   0  0  0  0  0  0  0  0  0  0  0  0
  -10.0125   -7.2116    8.3771 C   0  0  0  0  0  0  0  0  0  0  0  0
  -11.3497   -7.4477    8.3925 C   0  0  0  0  0  0  0  0  0  0  0  0
  -11.8793   -8.6556    7.8619 C   0  0  0  0  0  0  0  0  0  0  0  0
  -10.9383   -9.5285    7.3520 C   0  0  0  0  0  0  0  0  0  0  0  0
   -9.5712   -9.2619    7.3481 C   0  0  0  0  0  0  0  0  0  0  0  0
   -8.7538  -10.1758    6.8167 F   0  0  0  0  0  0  0  0  0  0  0  0
   -7.0206   -8.0554    8.9733 O   0  0  0  0  0  0  0  0  0  0  0  0
   -7.6828   -7.7164    7.9234 C   0  0  0  0  0  0  0  0  0  0  0  0
   -6.9542   -7.0024    6.9701 N   0  0  0  0  0  0  0  0  0  0  0  0
   -7.3634   -6.6877    6.0866 H   0  0  0  0  0  0  0  0  0  0  0  0
   -5.2941   -6.6175    7.2217 S   0  0  0  0  0  0  0  0  0  0  0  0
   -4.4886   -7.8802    7.4132 O   0  0  0  0  0  0  0  0  0  0  0  0
   -5.1022   -5.7731    8.4447 O   0  0  0  0  0  0  0  0  0  0  0  0
   -4.6377   -5.7501    5.7878 C   0  0  0  0  0  0  0  0  0  0  0  0
   -3.9083   -4.4627    5.9943 C   0  0  0  0  0  0  0  0  0  0  0  0
   -3.1205   -5.6956    5.7868 C   0  0  0  0  0  0  0  0  0  0  0  0
  -12.3410   -6.4668    8.9410 C   0  0  0  0  0  0  0  0  0  0  0  0
  -13.1645   -6.7705   10.1159 C   0  0  0  0  0  0  0  0  0  0  0  0
  -11.9679   -5.9188   10.3233 C   0  0  0  0  0  0  0  0  0  0  0  0
  -13.1903   -8.8341    7.9085 O   0  0  0  0  0  0  0  0  0  0  0  0
  -14.2607   -9.0953    7.2037 C   0  0  0  0  0  0  0  0  0  0  0  0
  -15.1439   -8.0768    6.5942 C   0  0  0  0  0  0  0  0  0  0  0  0
  -16.3681   -7.7361    7.4227 C   0  0  0  0  0  0  0  0  0  0  0  0
  -17.4497   -7.3766    6.4432 C   0  0  0  0  0  0  0  0  0  0  0  0
  -17.0465   -6.2781    5.5419 C   0  0  0  0  0  0  0  0  0  0  0  0
  -15.6210   -5.9496    5.3733 C   0  0  0  0  0  0  0  0  0  0  0  0
  -14.6065   -6.8302    6.0438 C   0  0  0  0  0  0  0  0  0  0  0  0
  -17.7353   -6.4198    4.1605 C   0  0  0  0  0  0  0  0  0  0  0  0
  -16.8728   -6.1884    3.1344 F   0  0  0  0  0  0  0  0  0  0  0  0
  -18.2087   -7.7172    4.0192 F   0  0  0  0  0  0  0  0  0  0  0  0
  -18.8310   -5.5973    4.0930 F   0  0  0  0  0  0  0  0  0  0  0  0
  8  9  2  0  0  0
  9 10  1  0  0  0
 10 12  1  0  0  0
 12 13  2  0  0  0
 12 14  2  0  0  0
 12 15  1  0  0  0
 15 16  1  0  0  0
 16 17  1  0  0  0
  9  1  1  0  0  0
  1  2  2  0  0  0
  2  3  1  0  0  0
  3 18  1  0  0  0
 18 19  1  0  0  0
 19 20  1  0  0  0
  3  4  2  0  0  0
  4 21  1  0  0  0
 21 22  1  0  0  0
 22 23  1  0  0  0
 23 24  1  0  0  0
 24 25  1  0  0  0
 25 26  1  0  0  0
 26 29  1  0  0  0
 29 30  1  0  0  0
 29 31  1  0  0  0
 29 32  1  0  0  0
 26 27  1  0  0  0
 27 28  1  0  0  0
  4  5  1  0  0  0
  5  6  2  0  0  0
  6  7  1  0  0  0
 17 15  1  0  0  0
  6  1  1  0  0  0
 20 18  1  0  0  0
 28 23  1  0  0  0
 10 11  1  0  0  0
M  END
> <minimizedAffinity>
-10.17293

> <CNNscore>
0.6677039862

> <CNNaffinity>
7.4054231644

> <CNN_VS>
4.9446306229

> <CNNaffinity_variance>
0.0640784279

$$$$
[H]c1c(F)c(C(=O)N([H])S(=O)(=O)C2([H])C([H])([H])C2([H])[H])c([H])c(C2([H])C([H])([H])C2([H])[H])c1OC([H])([H])C1([H])C([H])([H])C([H])([H])C([H])(C(F)(F)F)C([H])([H])C1([H])[H]


 32 35  0  0  0  0  0  0  0  0999 V2000
   -9.5607   -8.2827    7.6940 C   0  0  0  0  0  0  0  0  0  0  0  0
  -10.3288   -7.2674    8.2749 C   0  0  0  0  0  0  0  0  0  0  0  0
  -11.6677   -7.3624    8.4813 C   0  0  0  0  0  0  0  0  0  0  0  0
  -12.3782   -8.5350    8.1056 C   0  0  0  0  0  0  0  0  0  0  0  0
  -11.6041   -9.5262    7.5351 C   0  0  0  0  0  0  0  0  0  0  0  0
  -10.2312   -9.4034    7.3341 C   0  0  0  0  0  0  0  0  0  0  0  0
   -9.5858  -10.4236    6.7611 F   0  0  0  0  0  0  0  0  0  0  0  0
   -7.3472   -8.6631    8.3452 O   0  0  0  0  0  0  0  0  0  0  0  0
   -8.1426   -8.0340    7.5532 C   0  0  0  0  0  0  0  0  0  0  0  0
   -7.5170   -7.1792    6.6437 N   0  0  0  0  0  0  0  0  0  0  0  0
   -8.0382   -6.6336    5.9526 H   0  0  0  0  0  0  0  0  0  0  0  0
   -5.8036   -7.0026    6.6201 S   0  0  0  0  0  0  0  0  0  0  0  0
   -5.3868   -6.1051    5.4797 O   0  0  0  0  0  0  0  0  0  0  0  0
   -5.1152   -8.3198    6.4290 O   0  0  0  0  0  0  0  0  0  0  0  0
   -5.2397   -6.2510    8.1552 C   0  0  0  0  0  0  0  0  0  0  0  0
   -3.8270   -6.4691    8.5895 C   0  0  0  0  0  0  0  0  0  0  0  0
   -4.1734   -5.1946    7.9268 C   0  0  0  0  0  0  0  0  0  0  0  0
  -12.4758   -6.2566    9.0895 C   0  0  0  0  0  0  0  0  0  0  0  0
  -13.2377   -6.4434   10.3286 C   0  0  0  0  0  0  0  0  0  0  0  0
  -11.9273   -5.7561   10.4307 C   0  0  0  0  0  0  0  0  0  0  0  0
  -13.6814   -8.5739    8.3357 O   0  0  0  0  0  0  0  0  0  0  0  0
  -14.8563   -8.7905    7.8033 C   0  0  0  0  0  0  0  0  0  0  0  0
  -15.4487   -7.9965    6.7044 C   0  0  0  0  0  0  0  0  0  0  0  0
  -14.6930   -8.0861    5.3922 C   0  0  0  0  0  0  0  0  0  0  0  0
  -14.8861   -6.7628    4.7067 C   0  0  0  0  0  0  0  0  0  0  0  0
  -16.3134   -6.4307    4.5220 C   0  0  0  0  0  0  0  0  0  0  0  0
  -17.3386   -7.1133    5.3292 C   0  0  0  0  0  0  0  0  0  0  0  0
  -16.8821   -8.0525    6.4079 C   0  0  0  0  0  0  0  0  0  0  0  0
  -16.5300   -4.8963    4.5590 C   0  0  0  0  0  0  0  0  0  0  0  0
  -15.4312   -4.2370    5.0152 F   0  0  0  0  0  0  0  0  0  0  0  0
  -16.7813   -4.4413    3.2717 F   0  0  0  0  0  0  0  0  0  0  0  0
  -17.6431   -4.5946    5.3015 F   0  0  0  0  0  0  0  0  0  0  0  0
  8  9  2  0  0  0
  9 10  1  0  0  0
 10 12  1  0  0  0
 12 13  2  0  0  0
 12 14  2  0  0  0
 12 15  1  0  0  0
 15 16  1  0  0  0
 16 17  1  0  0  0
  9  1  1  0  0  0
  1  2  2  0  0  0
  2  3  1  0  0  0
  3 18  1  0  0  0
 18 19  1  0  0  0
 19 20  1  0  0  0
  3  4  2  0  0  0
  4 21  1  0  0  0
 21 22  1  0  0  0
 22 23  1  0  0  0
 23 24  1  0  0  0
 24 25  1  0  0  0
 25 26  1  0  0  0
 26 29  1  0  0  0
 29 30  1  0  0  0
 29 31  1  0  0  0
 29 32  1  0  0  0
 26 27  1  0  0  0
 27 28  1  0  0  0
  4  5  1  0  0  0
  5  6  2  0  0  0
  6  7  1  0  0  0
 17 15  1  0  0  0
  6  1  1  0  0  0
 20 18  1  0  0  0
 28 23  1  0  0  0
 10 11  1  0  0  0
M  END
> <minimizedAffinity>
-10.22992

> <CNNscore>
0.6675681472

> <CNNaffinity>
7.5631470680

> <CNN_VS>
5.0489158630

> <CNNaffinity_variance>
0.1158721596

$$$$
[H]c1c(F)c(C(=O)N([H])S(=O)(=O)C2([H])C([H])([H])C2([H])[H])c([H])c(C2([H])C([H])([H])C2([H])[H])c1OC([H])([H])C1([H])C([H])([H])C([H])([H])C([H])(C(F)(F)F)C([H])([H])C1([H])[H]


 32 35  0  0  0  0  0  0  0  0999 V2000
   -8.1984   -7.8443    7.5769 C   0  0  0  0  0  0  0  0  0  0  0  0
   -9.2079   -7.0399    8.1175 C   0  0  0  0  0  0  0  0  0  0  0  0
  -10.4838   -7.4632    8.3103 C   0  0  0  0  0  0  0  0  0  0  0  0
  -10.8698   -8.7861    7.9613 C   0  0  0  0  0  0  0  0  0  0  0  0
   -9.8608   -9.5653    7.4303 C   0  0  0  0  0  0  0  0  0  0  0  0
   -8.5591   -9.1065    7.2425 C   0  0  0  0  0  0  0  0  0  0  0  0
   -7.6672   -9.9462    6.7084 F   0  0  0  0  0  0  0  0  0  0  0  0
   -6.4614   -7.0021    6.2570 O   0  0  0  0  0  0  0  0  0  0  0  0
   -6.8856   -7.2508    7.4460 C   0  0  0  0  0  0  0  0  0  0  0  0
   -6.0042   -6.9054    8.4723 N   0  0  0  0  0  0  0  0  0  0  0  0
   -6.2302   -7.0404    9.4610 H   0  0  0  0  0  0  0  0  0  0  0  0
   -4.4677   -6.2059    8.1297 S   0  0  0  0  0  0  0  0  0  0  0  0
   -4.6335   -4.9799    7.2641 O   0  0  0  0  0  0  0  0  0  0  0  0
   -3.5789   -7.1598    7.3911 O   0  0  0  0  0  0  0  0  0  0  0  0
   -3.6639   -5.7031    9.6596 C   0  0  0  0  0  0  0  0  0  0  0  0
   -3.4578   -4.2468    9.9221 C   0  0  0  0  0  0  0  0  0  0  0  0
   -4.5939   -4.9287   10.5765 C   0  0  0  0  0  0  0  0  0  0  0  0
  -11.5552   -6.5806    8.8751 C   0  0  0  0  0  0  0  0  0  0  0  0
  -11.8699   -6.5618   10.3074 C   0  0  0  0  0  0  0  0  0  0  0  0
  -11.0225   -5.4643    9.7806 C   0  0  0  0  0  0  0  0  0  0  0  0
  -12.1257   -9.1455    8.1764 O   0  0  0  0  0  0  0  0  0  0  0  0
  -13.3765   -8.7754    8.0797 C   0  0  0  0  0  0  0  0  0  0  0  0
  -14.0469   -8.3723    6.8239 C   0  0  0  0  0  0  0  0  0  0  0  0
  -13.9432   -6.8921    6.5086 C   0  0  0  0  0  0  0  0  0  0  0  0
  -15.2000   -6.5330    5.7671 C   0  0  0  0  0  0  0  0  0  0  0  0
  -15.3943   -7.3617    4.5600 C   0  0  0  0  0  0  0  0  0  0  0  0
  -14.6758   -8.6394    4.4206 C   0  0  0  0  0  0  0  0  0  0  0  0
  -13.8479   -9.1172    5.5784 C   0  0  0  0  0  0  0  0  0  0  0  0
  -16.9034   -7.5553    4.2634 C   0  0  0  0  0  0  0  0  0  0  0  0
  -17.2739   -8.8621    4.3362 F   0  0  0  0  0  0  0  0  0  0  0  0
  -17.6456   -6.8610    5.2091 F   0  0  0  0  0  0  0  0  0  0  0  0
  -17.2187   -7.0093    3.0452 F   0  0  0  0  0  0  0  0  0  0  0  0
  8  9  2  0  0  0
  9 10  1  0  0  0
 10 12  1  0  0  0
 12 13  2  0  0  0
 12 14  2  0  0  0
 12 15  1  0  0  0
 15 16  1  0  0  0
 16 17  1  0  0  0
  9  1  1  0  0  0
  1  2  2  0  0  0
  2  3  1  0  0  0
  3 18  1  0  0  0
 18 19  1  0  0  0
 19 20  1  0  0  0
  3  4  2  0  0  0
  4 21  1  0  0  0
 21 22  1  0  0  0
 22 23  1  0  0  0
 23 24  1  0  0  0
 24 25  1  0  0  0
 25 26  1  0  0  0
 26 29  1  0  0  0
 29 30  1  0  0  0
 29 31  1  0  0  0
 29 32  1  0  0  0
 26 27  1  0  0  0
 27 28  1  0  0  0
  4  5  1  0  0  0
  5  6  2  0  0  0
  6  7  1  0  0  0
 17 15  1  0  0  0
  6  1  1  0  0  0
 20 18  1  0  0  0
 28 23  1  0  0  0
 10 11  1  0  0  0
M  END
> <minimizedAffinity>
-9.07603

> <CNNscore>
0.5974546671

> <CNNaffinity>
7.2145261765

> <CNN_VS>
4.3103523254

> <CNNaffinity_variance>
0.1727131605

$$$$
[H]c1c(F)c(C(=O)N([H])S(=O)(=O)C2([H])C([H])([H])C2([H])[H])c([H])c(C2([H])C([H])([H])C2([H])[H])c1OC([H])([H])C1([H])C([H])([H])C([H])([H])C([H])(C(F)(F)F)C([H])([H])C1([H])[H]


 32 35  0  0  0  0  0  0  0  0999 V2000
  -14.2920   -8.6367    5.7327 C   0  0  0  0  0  0  0  0  0  0  0  0
  -13.5186   -8.5730    6.8972 C   0  0  0  0  0  0  0  0  0  0  0  0
  -12.2630   -9.0812    6.9943 C   0  0  0  0  0  0  0  0  0  0  0  0
  -11.6525   -9.7237    5.8828 C   0  0  0  0  0  0  0  0  0  0  0  0
  -12.4298   -9.7764    4.7426 C   0  0  0  0  0  0  0  0  0  0  0  0
  -13.7162   -9.2471    4.6692 C   0  0  0  0  0  0  0  0  0  0  0  0
  -14.3807   -9.3669    3.5160 F   0  0  0  0  0  0  0  0  0  0  0  0
  -16.0801   -7.7403    6.9443 O   0  0  0  0  0  0  0  0  0  0  0  0
  -15.6076   -8.0373    5.7848 C   0  0  0  0  0  0  0  0  0  0  0  0
  -16.4450   -7.7332    4.7098 N   0  0  0  0  0  0  0  0  0  0  0  0
  -16.1785   -7.9083    3.7375 H   0  0  0  0  0  0  0  0  0  0  0  0
  -17.9926   -7.0191    4.9598 S   0  0  0  0  0  0  0  0  0  0  0  0
  -18.7094   -6.8515    3.6415 O   0  0  0  0  0  0  0  0  0  0  0  0
  -17.8802   -5.6620    5.5851 O   0  0  0  0  0  0  0  0  0  0  0  0
  -18.9987   -8.0793    6.0100 C   0  0  0  0  0  0  0  0  0  0  0  0
  -20.1872   -8.7639    5.4176 C   0  0  0  0  0  0  0  0  0  0  0  0
  -18.9396   -9.5370    5.5897 C   0  0  0  0  0  0  0  0  0  0  0  0
  -11.4571   -9.0181    8.2562 C   0  0  0  0  0  0  0  0  0  0  0  0
  -10.1668   -8.3239    8.3188 C   0  0  0  0  0  0  0  0  0  0  0  0
  -11.3522   -7.6097    8.8525 C   0  0  0  0  0  0  0  0  0  0  0  0
  -10.4247  -10.1955    6.0336 O   0  0  0  0  0  0  0  0  0  0  0  0
   -9.6578  -11.2464    5.8989 C   0  0  0  0  0  0  0  0  0  0  0  0
   -9.0411  -11.6889    4.6289 C   0  0  0  0  0  0  0  0  0  0  0  0
   -7.8805  -10.8288    4.1659 C   0  0  0  0  0  0  0  0  0  0  0  0
   -7.8971  -10.8767    2.6639 C   0  0  0  0  0  0  0  0  0  0  0  0
   -7.8257  -12.2584    2.1468 C   0  0  0  0  0  0  0  0  0  0  0  0
   -8.1634  -13.3914    3.0246 C   0  0  0  0  0  0  0  0  0  0  0  0
   -8.6869  -13.0916    4.3994 C   0  0  0  0  0  0  0  0  0  0  0  0
   -8.5764  -12.3791    0.7960 C   0  0  0  0  0  0  0  0  0  0  0  0
   -9.2147  -13.5739    0.6722 F   0  0  0  0  0  0  0  0  0  0  0  0
   -9.5416  -11.3841    0.7215 F   0  0  0  0  0  0  0  0  0  0  0  0
   -7.7115  -12.1596   -0.2457 F   0  0  0  0  0  0  0  0  0  0  0  0
  8  9  2  0  0  0
  9 10  1  0  0  0
 10 12  1  0  0  0
 12 13  2  0  0  0
 12 14  2  0  0  0
 12 15  1  0  0  0
 15 16  1  0  0  0
 16 17  1  0  0  0
  9  1  1  0  0  0
  1  2  2  0  0  0
  2  3  1  0  0  0
  3 18  1  0  0  0
 18 19  1  0  0  0
 19 20  1  0  0  0
  3  4  2  0  0  0
  4 21  1  0  0  0
 21 22  1  0  0  0
 22 23  1  0  0  0
 23 24  1  0  0  0
 24 25  1  0  0  0
 25 26  1  0  0  0
 26 29  1  0  0  0
 29 30  1  0  0  0
 29 31  1  0  0  0
 29 32  1  0  0  0
 26 27  1  0  0  0
 27 28  1  0  0  0
  4  5  1  0  0  0
  5  6  2  0  0  0
  6  7  1  0  0  0
 17 15  1  0  0  0
  6  1  1  0  0  0
 20 18  1  0  0  0
 28 23  1  0  0  0
 10 11  1  0  0  0
M  END
> <minimizedAffinity>
10.13963

> <CNNscore>
0.5001152158

> <CNNaffinity>
6.7211275101

> <CNN_VS>
3.3613381386

> <CNNaffinity_variance>
0.9729250073

$$$$
[H]c1c(F)c(C(=O)N([H])S(=O)(=O)C2([H])C([H])([H])C2([H])[H])c([H])c(C2([H])C([H])([H])C2([H])[H])c1OC([H])([H])C1([H])C([H])([H])C([H])([H])C([H])(C(F)(F)F)C([H])([H])C1([H])[H]


 32 35  0  0  0  0  0  0  0  0999 V2000
  -14.5090   -8.3411    5.0924 C   0  0  0  0  0  0  0  0  0  0  0  0
  -14.8116   -6.9919    4.8773 C   0  0  0  0  0  0  0  0  0  0  0  0
  -14.6350   -6.0236    5.8130 C   0  0  0  0  0  0  0  0  0  0  0  0
  -14.1180   -6.3424    7.0983 C   0  0  0  0  0  0  0  0  0  0  0  0
  -13.8245   -7.6779    7.2920 C   0  0  0  0  0  0  0  0  0  0  0  0
  -14.0153   -8.6521    6.3150 C   0  0  0  0  0  0  0  0  0  0  0  0
  -13.7071   -9.9164    6.6188 F   0  0  0  0  0  0  0  0  0  0  0  0
  -13.7835   -9.4221    3.1498 O   0  0  0  0  0  0  0  0  0  0  0  0
  -14.7418   -9.2497    3.9910 C   0  0  0  0  0  0  0  0  0  0  0  0
  -15.9016   -9.9795    3.7234 N   0  0  0  0  0  0  0  0  0  0  0  0
  -16.7284   -9.9395    4.3248 H   0  0  0  0  0  0  0  0  0  0  0  0
  -16.0045  -11.0186    2.3533 S   0  0  0  0  0  0  0  0  0  0  0  0
  -14.9057  -10.6957    1.3694 O   0  0  0  0  0  0  0  0  0  0  0  0
  -17.3104  -10.8589    1.6358 O   0  0  0  0  0  0  0  0  0  0  0  0
  -15.8090  -12.7335    2.8636 C   0  0  0  0  0  0  0  0  0  0  0  0
  -17.0308  -13.5557    3.1149 C   0  0  0  0  0  0  0  0  0  0  0  0
  -16.3280  -13.7110    1.8243 C   0  0  0  0  0  0  0  0  0  0  0  0
  -14.9814   -4.5861    5.5690 C   0  0  0  0  0  0  0  0  0  0  0  0
  -14.8440   -3.9688    4.2458 C   0  0  0  0  0  0  0  0  0  0  0  0
  -16.2033   -4.3900    4.6642 C   0  0  0  0  0  0  0  0  0  0  0  0
  -13.9621   -5.3571    7.9687 O   0  0  0  0  0  0  0  0  0  0  0  0
  -13.9153   -5.0482    9.2388 C   0  0  0  0  0  0  0  0  0  0  0  0
  -12.8545   -5.4764   10.1770 C   0  0  0  0  0  0  0  0  0  0  0  0
  -13.0598   -6.8612   10.7612 C   0  0  0  0  0  0  0  0  0  0  0  0
  -12.4548   -6.8293   12.1365 C   0  0  0  0  0  0  0  0  0  0  0  0
  -11.0347   -6.4237   12.1144 C   0  0  0  0  0  0  0  0  0  0  0  0
  -10.4885   -5.7187   10.9426 C   0  0  0  0  0  0  0  0  0  0  0  0
  -11.4355   -5.3293    9.8446 C   0  0  0  0  0  0  0  0  0  0  0  0
  -10.6561   -5.6770   13.4190 C   0  0  0  0  0  0  0  0  0  0  0  0
  -10.2629   -6.5326   14.4005 F   0  0  0  0  0  0  0  0  0  0  0  0
   -9.5914   -4.8239   13.1621 F   0  0  0  0  0  0  0  0  0  0  0  0
  -11.6982   -4.8848   13.8287 F   0  0  0  0  0  0  0  0  0  0  0  0
  8  9  2  0  0  0
  9 10  1  0  0  0
 10 12  1  0  0  0
 12 13  2  0  0  0
 12 14  2  0  0  0
 12 15  1  0  0  0
 15 16  1  0  0  0
 16 17  1  0  0  0
  9  1  1  0  0  0
  1  2  2  0  0  0
  2  3  1  0  0  0
  3 18  1  0  0  0
 18 19  1  0  0  0
 19 20  1  0  0  0
  3  4  2  0  0  0
  4 21  1  0  0  0
 21 22  1  0  0  0
 22 23  1  0  0  0
 23 24  1  0  0  0
 24 25  1  0  0  0
 25 26  1  0  0  0
 26 29  1  0  0  0
 29 30  1  0  0  0
 29 31  1  0  0  0
 29 32  1  0  0  0
 26 27  1  0  0  0
 27 28  1  0  0  0
  4  5  1  0  0  0
  5  6  2  0  0  0
  6  7  1  0  0  0
 17 15  1  0  0  0
  6  1  1  0  0  0
 20 18  1  0  0  0
 28 23  1  0  0  0
 10 11  1  0  0  0
M  END
> <minimizedAffinity>
22.72528

> <CNNscore>
0.4317312241

> <CNNaffinity>
6.2965044975

> <CNN_VS>
2.7183976173

> <CNNaffinity_variance>
0.8618046045

$$$$
[H]c1c(F)c(C(=O)N([H])S(=O)(=O)C2([H])C([H])([H])C2([H])[H])c([H])c(C2([H])C([H])([H])C2([H])[H])c1OC([H])([H])C1([H])C([H])([H])C([H])([H])C([H])(C(F)(F)F)C([H])([H])C1([H])[H]


 32 35  0  0  0  0  0  0  0  0999 V2000
  -15.9860   -7.9383    6.3540 C   0  0  0  0  0  0  0  0  0  0  0  0
  -15.4906   -8.0700    7.6561 C   0  0  0  0  0  0  0  0  0  0  0  0
  -14.2195   -7.7516    8.0125 C   0  0  0  0  0  0  0  0  0  0  0  0
  -13.2995   -7.2531    7.0502 C   0  0  0  0  0  0  0  0  0  0  0  0
  -13.8060   -7.1290    5.7714 C   0  0  0  0  0  0  0  0  0  0  0  0
  -15.1149   -7.4631    5.4317 C   0  0  0  0  0  0  0  0  0  0  0  0
  -15.4921   -7.3131    4.1586 F   0  0  0  0  0  0  0  0  0  0  0  0
  -17.9501   -7.8418    5.0884 O   0  0  0  0  0  0  0  0  0  0  0  0
  -17.3675   -8.3083    6.1366 C   0  0  0  0  0  0  0  0  0  0  0  0
  -18.1631   -9.1278    6.9396 N   0  0  0  0  0  0  0  0  0  0  0  0
  -17.8124   -9.5704    7.7928 H   0  0  0  0  0  0  0  0  0  0  0  0
  -19.8020   -9.4602    6.5262 S   0  0  0  0  0  0  0  0  0  0  0  0
  -20.0286   -9.2172    5.0533 O   0  0  0  0  0  0  0  0  0  0  0  0
  -20.7513   -8.5773    7.2778 O   0  0  0  0  0  0  0  0  0  0  0  0
  -20.1881  -11.1838    6.8723 C   0  0  0  0  0  0  0  0  0  0  0  0
  -20.9093  -11.5224    8.1361 C   0  0  0  0  0  0  0  0  0  0  0  0
  -21.6821  -11.4540    6.8784 C   0  0  0  0  0  0  0  0  0  0  0  0
  -13.7028   -7.9161    9.4095 C   0  0  0  0  0  0  0  0  0  0  0  0
  -13.6606   -6.7983   10.3579 C   0  0  0  0  0  0  0  0  0  0  0  0
  -14.7803   -7.7622   10.4890 C   0  0  0  0  0  0  0  0  0  0  0  0
  -12.0751   -6.9543    7.4556 O   0  0  0  0  0  0  0  0  0  0  0  0
  -11.1066   -7.2853    8.2699 C   0  0  0  0  0  0  0  0  0  0  0  0
   -9.7852   -7.8018    7.8502 C   0  0  0  0  0  0  0  0  0  0  0  0
   -8.6424   -7.4111    8.7681 C   0  0  0  0  0  0  0  0  0  0  0  0
   -7.4240   -7.2994    7.8953 C   0  0  0  0  0  0  0  0  0  0  0  0
   -7.1553   -8.5440    7.1467 C   0  0  0  0  0  0  0  0  0  0  0  0
   -8.2234   -9.5421    6.9700 C   0  0  0  0  0  0  0  0  0  0  0  0
   -9.5997   -9.2028    7.4647 C   0  0  0  0  0  0  0  0  0  0  0  0
   -6.4767   -8.2327    5.7883 C   0  0  0  0  0  0  0  0  0  0  0  0
   -5.1230   -8.3475    5.8562 F   0  0  0  0  0  0  0  0  0  0  0  0
   -6.9224   -9.1417    4.8383 F   0  0  0  0  0  0  0  0  0  0  0  0
   -6.8555   -6.9911    5.3452 F   0  0  0  0  0  0  0  0  0  0  0  0
  8  9  2  0  0  0
  9 10  1  0  0  0
 10 12  1  0  0  0
 12 13  2  0  0  0
 12 14  2  0  0  0
 12 15  1  0  0  0
 15 16  1  0  0  0
 16 17  1  0  0  0
  9  1  1  0  0  0
  1  2  2  0  0  0
  2  3  1  0  0  0
  3 18  1  0  0  0
 18 19  1  0  0  0
 19 20  1  0  0  0
  3  4  2  0  0  0
  4 21  1  0  0  0
 21 22  1  0  0  0
 22 23  1  0  0  0
 23 24  1  0  0  0
 24 25  1  0  0  0
 25 26  1  0  0  0
 26 29  1  0  0  0
 29 30  1  0  0  0
 29 31  1  0  0  0
 29 32  1  0  0  0
 26 27  1  0  0  0
 27 28  1  0  0  0
  4  5  1  0  0  0
  5  6  2  0  0  0
  6  7  1  0  0  0
 17 15  1  0  0  0
  6  1  1  0  0  0
 20 18  1  0  0  0
 28 23  1  0  0  0
 10 11  1  0  0  0
M  END
> <minimizedAffinity>
-2.91791

> <CNNscore>
0.4275281131

> <CNNaffinity>
7.0934472084

> <CNN_VS>
3.0326480865

> <CNNaffinity_variance>
0.4392413199

$$$$
[H]c1c(F)c(C(=O)N([H])S(=O)(=O)C2([H])C([H])([H])C2([H])[H])c([H])c(C2([H])C([H])([H])C2([H])[H])c1OC([H])([H])C1([H])C([H])([H])C([H])([H])C([H])(C(F)(F)F)C([H])([H])C1([H])[H]


 32 35  0  0  0  0  0  0  0  0999 V2000
   -8.6571   -6.9497    7.6711 C   0  0  0  0  0  0  0  0  0  0  0  0
   -9.1049   -8.2546    7.4362 C   0  0  0  0  0  0  0  0  0  0  0  0
  -10.3769   -8.6668    7.6735 C   0  0  0  0  0  0  0  0  0  0  0  0
  -11.3476   -7.7651    8.1889 C   0  0  0  0  0  0  0  0  0  0  0  0
  -10.8881   -6.4823    8.4135 C   0  0  0  0  0  0  0  0  0  0  0  0
   -9.5771   -6.0848    8.1617 C   0  0  0  0  0  0  0  0  0  0  0  0
   -9.2413   -4.8192    8.4290 F   0  0  0  0  0  0  0  0  0  0  0  0
   -6.9455   -6.6203    6.1122 O   0  0  0  0  0  0  0  0  0  0  0  0
   -7.2747   -6.6633    7.3554 C   0  0  0  0  0  0  0  0  0  0  0  0
   -6.2321   -6.4207    8.2517 N   0  0  0  0  0  0  0  0  0  0  0  0
   -6.3681   -6.4135    9.2657 H   0  0  0  0  0  0  0  0  0  0  0  0
   -4.6344   -6.0980    7.6941 S   0  0  0  0  0  0  0  0  0  0  0  0
   -4.6369   -4.9113    6.7607 O   0  0  0  0  0  0  0  0  0  0  0  0
   -4.0675   -7.2616    6.9390 O   0  0  0  0  0  0  0  0  0  0  0  0
   -3.5619   -5.7095    9.0863 C   0  0  0  0  0  0  0  0  0  0  0  0
   -2.9755   -4.3390    9.1855 C   0  0  0  0  0  0  0  0  0  0  0  0
   -4.1616   -4.6609   10.0060 C   0  0  0  0  0  0  0  0  0  0  0  0
  -10.8327  -10.0737    7.4314 C   0  0  0  0  0  0  0  0  0  0  0  0
  -11.3134  -10.5187    6.1192 C   0  0  0  0  0  0  0  0  0  0  0  0
   -9.9194  -10.8655    6.4884 C   0  0  0  0  0  0  0  0  0  0  0  0
  -12.5732   -8.2210    8.3956 O   0  0  0  0  0  0  0  0  0  0  0  0
  -13.8413   -8.0404    8.1307 C   0  0  0  0  0  0  0  0  0  0  0  0
  -14.4007   -7.8079    6.7810 C   0  0  0  0  0  0  0  0  0  0  0  0
  -14.0951   -6.4377    6.2064 C   0  0  0  0  0  0  0  0  0  0  0  0
  -15.2632   -6.0809    5.3307 C   0  0  0  0  0  0  0  0  0  0  0  0
  -15.5108   -7.0957    4.2864 C   0  0  0  0  0  0  0  0  0  0  0  0
  -14.9565   -8.4522    4.4317 C   0  0  0  0  0  0  0  0  0  0  0  0
  -14.2464   -8.7947    5.7094 C   0  0  0  0  0  0  0  0  0  0  0  0
  -17.0183   -7.1632    3.9320 C   0  0  0  0  0  0  0  0  0  0  0  0
  -17.8053   -6.7977    4.9795 F   0  0  0  0  0  0  0  0  0  0  0  0
  -17.2804   -6.2838    2.8902 F   0  0  0  0  0  0  0  0  0  0  0  0
  -17.3396   -8.4153    3.4732 F   0  0  0  0  0  0  0  0  0  0  0  0
  8  9  2  0  0  0
  9 10  1  0  0  0
 10 12  1  0  0  0
 12 13  2  0  0  0
 12 14  2  0  0  0
 12 15  1  0  0  0
 15 16  1  0  0  0
 16 17  1  0  0  0
  9  1  1  0  0  0
  1  2  2  0  0  0
  2  3  1  0  0  0
  3 18  1  0  0  0
 18 19  1  0  0  0
 19 20  1  0  0  0
  3  4  2  0  0  0
  4 21  1  0  0  0
 21 22  1  0  0  0
 22 23  1  0  0  0
 23 24  1  0  0  0
 24 25  1  0  0  0
 25 26  1  0  0  0
 26 29  1  0  0  0
 29 30  1  0  0  0
 29 31  1  0  0  0
 29 32  1  0  0  0
 26 27  1  0  0  0
 27 28  1  0  0  0
  4  5  1  0  0  0
  5  6  2  0  0  0
  6  7  1  0  0  0
 17 15  1  0  0  0
  6  1  1  0  0  0
 20 18  1  0  0  0
 28 23  1  0  0  0
 10 11  1  0  0  0
M  END
> <minimizedAffinity>
-6.89550

> <CNNscore>
0.2957299352

> <CNNaffinity>
6.8185577393

> <CNN_VS>
2.0164515972

> <CNNaffinity_variance>
0.1469357014

$$$$
[H]OC(=O)C1=C([H])[C@@]([H])(O[C@@]([H])(C([H])([H])C([H])([H])[H])C([H])([H])C([H])([H])C([H])([H])C([H])([H])C([H])([H])C([H])([H])C([H])([H])[H])[C@]([H])(N([H])C(=O)C([H])([H])[H])[C@@]([H])(N([H])[H])C1([H])[H]


 29 29  0  0  0  0  0  0  0  0999 V2000
  -14.9159   -6.8136    6.2552 C   0  0  0  0  0  0  0  0  0  0  0  0
  -15.5712   -8.0366    5.6430 C   0  0  0  0  0  0  0  0  0  0  0  0
  -16.8740   -7.9673    5.3679 C   0  0  0  0  0  0  0  0  0  0  0  0
  -17.4831   -6.6267    5.7105 C   0  0  0  0  0  0  0  0  0  0  0  0
  -16.6859   -5.6337    4.9046 C   0  0  0  0  0  0  0  0  0  0  0  0
  -16.9315   -5.8428    3.4809 N   0  0  0  0  0  0  0  0  0  0  0  0
  -15.2224   -5.7405    5.2341 C   0  0  0  0  0  0  0  0  0  0  0  0
  -17.7464   -6.4765    3.3272 H   0  0  0  0  0  0  0  0  0  0  0  0
  -17.1525   -4.9026    3.0337 H   0  0  0  0  0  0  0  0  0  0  0  0
  -14.8094   -4.4123    5.6252 N   0  0  0  0  0  0  0  0  0  0  0  0
  -14.7117   -3.3401    4.7131 C   0  0  0  0  0  0  0  0  0  0  0  0
  -14.2890   -1.9753    5.1054 C   0  0  0  0  0  0  0  0  0  0  0  0
  -14.9960   -3.5476    3.5083 O   0  0  0  0  0  0  0  0  0  0  0  0
  -14.5755   -4.2494    6.6260 H   0  0  0  0  0  0  0  0  0  0  0  0
  -17.6761   -9.0044    4.7936 C   0  0  0  0  0  0  0  0  0  0  0  0
  -18.9115   -9.1347    5.0225 O   0  0  0  0  0  0  0  0  0  0  0  0
  -17.0659   -9.9223    3.9349 O   0  0  0  0  0  0  0  0  0  0  0  0
  -17.6264  -10.2228    3.1319 H   0  0  0  0  0  0  0  0  0  0  0  0
  -13.5984   -7.0767    6.4126 O   0  0  0  0  0  0  0  0  0  0  0  0
  -13.0344   -6.8722    7.6761 C   0  0  0  0  0  0  0  0  0  0  0  0
  -13.9890   -6.6667    8.7843 C   0  0  0  0  0  0  0  0  0  0  0  0
  -13.3041   -6.0024    9.9802 C   0  0  0  0  0  0  0  0  0  0  0  0
  -11.9544   -7.8121    7.9881 C   0  0  0  0  0  0  0  0  0  0  0  0
  -11.7368   -9.0961    7.3210 C   0  0  0  0  0  0  0  0  0  0  0  0
  -10.3542   -9.5819    7.2259 C   0  0  0  0  0  0  0  0  0  0  0  0
   -9.3706   -8.4242    7.6186 C   0  0  0  0  0  0  0  0  0  0  0  0
   -8.0079   -9.0865    7.6517 C   0  0  0  0  0  0  0  0  0  0  0  0
   -6.7815   -7.3924    6.4076 C   0  0  0  0  0  0  0  0  0  0  0  0
   -7.2205   -8.8244    6.4027 C   0  0  0  0  0  0  0  0  0  0  0  0
 28 29  1  0  0  0
 29 27  1  0  0  0
 27 26  1  0  0  0
 26 25  1  0  0  0
 25 24  1  0  0  0
 24 23  1  0  0  0
 23 20  1  0  0  0
 20 21  1  0  0  0
 21 22  1  0  0  0
 20 19  1  0  0  0
 19  1  1  0  0  0
  1  2  1  0  0  0
  2  3  2  0  0  0
  3 15  1  0  0  0
 15 16  2  0  0  0
 15 17  1  0  0  0
  3  4  1  0  0  0
  4  5  1  0  0  0
  5  6  1  0  0  0
  5  7  1  0  0  0
  7 10  1  0  0  0
 10 11  1  0  0  0
 11 12  1  0  0  0
 11 13  2  0  0  0
  7  1  1  0  0  0
 17 18  1  0  0  0
  6  8  1  0  0  0
  6  9  1  0  0  0
 10 14  1  0  0  0
M  END
> <minimizedAffinity>
-4.66803

> <CNNscore>
0.5405150652

> <CNNaffinity>
6.9281144142

> <CNN_VS>
3.7447502613

> <CNNaffinity_variance>
0.8575829268

$$$$
[H]OC(=O)C1=C([H])[C@@]([H])(O[C@@]([H])(C([H])([H])C([H])([H])[H])C([H])([H])C([H])([H])C([H])([H])C([H])([H])C([H])([H])C([H])([H])C([H])([H])[H])[C@]([H])(N([H])C(=O)C([H])([H])[H])[C@@]([H])(N([H])[H])C1([H])[H]


 29 29  0  0  0  0  0  0  0  0999 V2000
  -16.0261   -7.2190    5.6568 C   0  0  0  0  0  0  0  0  0  0  0  0
  -16.4986   -6.8144    4.2737 C   0  0  0  0  0  0  0  0  0  0  0  0
  -17.3037   -7.6562    3.6248 C   0  0  0  0  0  0  0  0  0  0  0  0
  -17.6285   -8.9001    4.4204 C   0  0  0  0  0  0  0  0  0  0  0  0
  -18.2608   -8.3828    5.6868 C   0  0  0  0  0  0  0  0  0  0  0  0
  -19.5392   -7.7497    5.3772 N   0  0  0  0  0  0  0  0  0  0  0  0
  -17.3308   -7.4339    6.3914 C   0  0  0  0  0  0  0  0  0  0  0  0
  -19.8426   -7.9676    4.4027 H   0  0  0  0  0  0  0  0  0  0  0  0
  -20.2752   -8.1276    6.0468 H   0  0  0  0  0  0  0  0  0  0  0  0
  -17.1803   -7.9532    7.7313 N   0  0  0  0  0  0  0  0  0  0  0  0
  -16.0417   -8.6734    8.1509 C   0  0  0  0  0  0  0  0  0  0  0  0
  -15.8791   -9.2094    9.5226 C   0  0  0  0  0  0  0  0  0  0  0  0
  -15.1178   -8.8726    7.3250 O   0  0  0  0  0  0  0  0  0  0  0  0
  -17.9511   -7.7835    8.4093 H   0  0  0  0  0  0  0  0  0  0  0  0
  -17.8557   -7.4647    2.3181 C   0  0  0  0  0  0  0  0  0  0  0  0
  -18.6415   -8.2868    1.7684 O   0  0  0  0  0  0  0  0  0  0  0  0
  -17.5108   -6.3104    1.6103 O   0  0  0  0  0  0  0  0  0  0  0  0
  -18.2596   -5.8885    1.0529 H   0  0  0  0  0  0  0  0  0  0  0  0
  -15.2639   -6.2167    6.1509 O   0  0  0  0  0  0  0  0  0  0  0  0
  -13.9194   -6.1647    5.7690 C   0  0  0  0  0  0  0  0  0  0  0  0
  -13.5362   -5.0293    4.9057 C   0  0  0  0  0  0  0  0  0  0  0  0
  -14.7671   -4.2288    4.4761 C   0  0  0  0  0  0  0  0  0  0  0  0
  -12.9919   -6.4091    6.8769 C   0  0  0  0  0  0  0  0  0  0  0  0
  -12.2158   -7.6343    7.0704 C   0  0  0  0  0  0  0  0  0  0  0  0
  -11.3162   -7.6876    8.2300 C   0  0  0  0  0  0  0  0  0  0  0  0
   -9.9287   -8.2675    7.7825 C   0  0  0  0  0  0  0  0  0  0  0  0
   -8.9486   -7.1444    8.0552 C   0  0  0  0  0  0  0  0  0  0  0  0
   -7.2780   -7.2233    6.2875 C   0  0  0  0  0  0  0  0  0  0  0  0
   -8.4785   -6.4843    6.7934 C   0  0  0  0  0  0  0  0  0  0  0  0
 28 29  1  0  0  0
 29 27  1  0  0  0
 27 26  1  0  0  0
 26 25  1  0  0  0
 25 24  1  0  0  0
 24 23  1  0  0  0
 23 20  1  0  0  0
 20 21  1  0  0  0
 21 22  1  0  0  0
 20 19  1  0  0  0
 19  1  1  0  0  0
  1  2  1  0  0  0
  2  3  2  0  0  0
  3 15  1  0  0  0
 15 16  2  0  0  0
 15 17  1  0  0  0
  3  4  1  0  0  0
  4  5  1  0  0  0
  5  6  1  0  0  0
  5  7  1  0  0  0
  7 10  1  0  0  0
 10 11  1  0  0  0
 11 12  1  0  0  0
 11 13  2  0  0  0
  7  1  1  0  0  0
 17 18  1  0  0  0
  6  8  1  0  0  0
  6  9  1  0  0  0
 10 14  1  0  0  0
M  END
> <minimizedAffinity>
1.92246

> <CNNscore>
0.4927816689

> <CNNaffinity>
6.6731667519

> <CNN_VS>
3.2884142399

> <CNNaffinity_variance>
1.3667317629

$$$$
[H]OC(=O)C1=C([H])[C@@]([H])(O[C@@]([H])(C([H])([H])C([H])([H])[H])C([H])([H])C([H])([H])C([H])([H])C([H])([H])C([H])([H])C([H])([H])C([H])([H])[H])[C@]([H])(N([H])C(=O)C([H])([H])[H])[C@@]([H])(N([H])[H])C1([H])[H]


 29 29  0  0  0  0  0  0  0  0999 V2000
   -8.9463   -8.2458    6.8253 C   0  0  0  0  0  0  0  0  0  0  0  0
   -7.4843   -7.8613    6.9459 C   0  0  0  0  0  0  0  0  0  0  0  0
   -7.1200   -6.6643    6.4851 C   0  0  0  0  0  0  0  0  0  0  0  0
   -8.2748   -5.8680    5.9213 C   0  0  0  0  0  0  0  0  0  0  0  0
   -9.2492   -5.7559    7.0654 C   0  0  0  0  0  0  0  0  0  0  0  0
   -8.6703   -4.9403    8.1287 N   0  0  0  0  0  0  0  0  0  0  0  0
   -9.6360   -7.1208    7.5647 C   0  0  0  0  0  0  0  0  0  0  0  0
   -7.8145   -4.4420    7.7992 H   0  0  0  0  0  0  0  0  0  0  0  0
   -9.3868   -4.2107    8.4240 H   0  0  0  0  0  0  0  0  0  0  0  0
  -11.0788   -7.1670    7.5055 N   0  0  0  0  0  0  0  0  0  0  0  0
  -11.8895   -7.2989    8.6529 C   0  0  0  0  0  0  0  0  0  0  0  0
  -13.3694   -7.3472    8.6013 C   0  0  0  0  0  0  0  0  0  0  0  0
  -11.3340   -7.3796    9.7756 O   0  0  0  0  0  0  0  0  0  0  0  0
  -11.5308   -7.0995    6.5706 H   0  0  0  0  0  0  0  0  0  0  0  0
   -5.7983   -6.1149    6.5022 C   0  0  0  0  0  0  0  0  0  0  0  0
   -5.4058   -5.2237    5.6979 O   0  0  0  0  0  0  0  0  0  0  0  0
   -4.8921   -6.5854    7.4561 O   0  0  0  0  0  0  0  0  0  0  0  0
   -4.2641   -5.8836    7.8591 H   0  0  0  0  0  0  0  0  0  0  0  0
   -9.1079   -9.4662    7.3861 O   0  0  0  0  0  0  0  0  0  0  0  0
   -8.6435  -10.5802    6.6793 C   0  0  0  0  0  0  0  0  0  0  0  0
   -7.9318  -11.6002    7.4758 C   0  0  0  0  0  0  0  0  0  0  0  0
   -6.8368  -10.9603    8.3314 C   0  0  0  0  0  0  0  0  0  0  0  0
   -9.6347  -11.1340    5.7531 C   0  0  0  0  0  0  0  0  0  0  0  0
   -9.5909  -11.0036    4.2963 C   0  0  0  0  0  0  0  0  0  0  0  0
   -8.4810  -11.6594    3.5929 C   0  0  0  0  0  0  0  0  0  0  0  0
   -8.7714  -11.6562    2.0510 C   0  0  0  0  0  0  0  0  0  0  0  0
   -7.4551  -12.0660    1.4217 C   0  0  0  0  0  0  0  0  0  0  0  0
   -8.9704  -13.8256    0.6939 C   0  0  0  0  0  0  0  0  0  0  0  0
   -7.5313  -13.4192    0.7799 C   0  0  0  0  0  0  0  0  0  0  0  0
 28 29  1  0  0  0
 29 27  1  0  0  0
 27 26  1  0  0  0
 26 25  1  0  0  0
 25 24  1  0  0  0
 24 23  1  0  0  0
 23 20  1  0  0  0
 20 21  1  0  0  0
 21 22  1  0  0  0
 20 19  1  0  0  0
 19  1  1  0  0  0
  1  2  1  0  0  0
  2  3  2  0  0  0
  3 15  1  0  0  0
 15 16  2  0  0  0
 15 17  1  0  0  0
  3  4  1  0  0  0
  4  5  1  0  0  0
  5  6  1  0  0  0
  5  7  1  0  0  0
  7 10  1  0  0  0
 10 11  1  0  0  0
 11 12  1  0  0  0
 11 13  2  0  0  0
  7  1  1  0  0  0
 17 18  1  0  0  0
  6  8  1  0  0  0
  6  9  1  0  0  0
 10 14  1  0  0  0
M  END
> <minimizedAffinity>
7.60363

> <CNNscore>
0.4823673368

> <CNNaffinity>
5.9353995323

> <CNN_VS>
2.8630428314

> <CNNaffinity_variance>
1.4528979063

$$$$
[H]OC(=O)C1=C([H])[C@@]([H])(O[C@@]([H])(C([H])([H])C([H])([H])[H])C([H])([H])C([H])([H])C([H])([H])C([H])([H])C([H])([H])C([H])([H])C([H])([H])[H])[C@]([H])(N([H])C(=O)C([H])([H])[H])[C@@]([H])(N([H])[H])C1([H])[H]


 29 29  0  0  0  0  0  0  0  0999 V2000
  -16.0894   -7.1190    5.4523 C   0  0  0  0  0  0  0  0  0  0  0  0
  -16.5525   -6.6974    4.0710 C   0  0  0  0  0  0  0  0  0  0  0  0
  -17.3439   -7.5362    3.4017 C   0  0  0  0  0  0  0  0  0  0  0  0
  -17.6650   -8.7949    4.1751 C   0  0  0  0  0  0  0  0  0  0  0  0
  -18.3137   -8.3028    5.4431 C   0  0  0  0  0  0  0  0  0  0  0  0
  -19.5948   -7.6764    5.1311 N   0  0  0  0  0  0  0  0  0  0  0  0
  -17.3990   -7.3567    6.1710 C   0  0  0  0  0  0  0  0  0  0  0  0
  -19.8870   -7.8820    4.1505 H   0  0  0  0  0  0  0  0  0  0  0  0
  -20.3336   -8.0711    5.7878 H   0  0  0  0  0  0  0  0  0  0  0  0
  -17.2563   -7.8951    7.5041 N   0  0  0  0  0  0  0  0  0  0  0  0
  -16.1206   -8.6222    7.9199 C   0  0  0  0  0  0  0  0  0  0  0  0
  -15.9662   -9.1779    9.2846 C   0  0  0  0  0  0  0  0  0  0  0  0
  -15.1923   -8.8102    7.0963 O   0  0  0  0  0  0  0  0  0  0  0  0
  -18.0309   -7.7346    8.1802 H   0  0  0  0  0  0  0  0  0  0  0  0
  -17.8854   -7.3295    2.0929 C   0  0  0  0  0  0  0  0  0  0  0  0
  -17.6540   -6.2991    1.4000 O   0  0  0  0  0  0  0  0  0  0  0  0
  -18.7130   -8.3154    1.5495 O   0  0  0  0  0  0  0  0  0  0  0  0
  -18.6061   -8.4835    0.5447 H   0  0  0  0  0  0  0  0  0  0  0  0
  -15.3409   -6.1177    5.9689 O   0  0  0  0  0  0  0  0  0  0  0  0
  -13.9804   -6.0815    5.6467 C   0  0  0  0  0  0  0  0  0  0  0  0
  -13.5703   -5.0336    4.6901 C   0  0  0  0  0  0  0  0  0  0  0  0
  -14.6842   -4.0028    4.4971 C   0  0  0  0  0  0  0  0  0  0  0  0
  -13.1043   -6.1952    6.8159 C   0  0  0  0  0  0  0  0  0  0  0  0
  -12.0530   -7.1987    6.9857 C   0  0  0  0  0  0  0  0  0  0  0  0
  -12.2571   -8.2222    8.0189 C   0  0  0  0  0  0  0  0  0  0  0  0
  -11.6416   -7.7215    9.3724 C   0  0  0  0  0  0  0  0  0  0  0  0
  -12.8301   -7.6138   10.3065 C   0  0  0  0  0  0  0  0  0  0  0  0
  -12.6903   -5.1954   10.5386 C   0  0  0  0  0  0  0  0  0  0  0  0
  -13.5790   -6.3275   10.1239 C   0  0  0  0  0  0  0  0  0  0  0  0
 28 29  1  0  0  0
 29 27  1  0  0  0
 27 26  1  0  0  0
 26 25  1  0  0  0
 25 24  1  0  0  0
 24 23  1  0  0  0
 23 20  1  0  0  0
 20 21  1  0  0  0
 21 22  1  0  0  0
 20 19  1  0  0  0
 19  1  1  0  0  0
  1  2  1  0  0  0
  2  3  2  0  0  0
  3 15  1  0  0  0
 15 16  2  0  0  0
 15 17  1  0  0  0
  3  4  1  0  0  0
  4  5  1  0  0  0
  5  6  1  0  0  0
  5  7  1  0  0  0
  7 10  1  0  0  0
 10 11  1  0  0  0
 11 12  1  0  0  0
 11 13  2  0  0  0
  7  1  1  0  0  0
 17 18  1  0  0  0
  6  8  1  0  0  0
  6  9  1  0  0  0
 10 14  1  0  0  0
M  END
> <minimizedAffinity>
2.48492

> <CNNscore>
0.4628285170

> <CNNaffinity>
6.4419989586

> <CNN_VS>
2.9815409184

> <CNNaffinity_variance>
0.6614621878

$$$$
[H]OC(=O)C1=C([H])[C@@]([H])(O[C@@]([H])(C([H])([H])C([H])([H])[H])C([H])([H])C([H])([H])C([H])([H])C([H])([H])C([H])([H])C([H])([H])C([H])([H])[H])[C@]([H])(N([H])C(=O)C([H])([H])[H])[C@@]([H])(N([H])[H])C1([H])[H]


 29 29  0  0  0  0  0  0  0  0999 V2000
  -15.0449   -8.0976    5.5512 C   0  0  0  0  0  0  0  0  0  0  0  0
  -14.0928   -8.7835    4.5904 C   0  0  0  0  0  0  0  0  0  0  0  0
  -14.2532   -8.5482    3.2878 C   0  0  0  0  0  0  0  0  0  0  0  0
  -15.3847   -7.5902    2.9920 C   0  0  0  0  0  0  0  0  0  0  0  0
  -15.0251   -6.3374    3.7484 C   0  0  0  0  0  0  0  0  0  0  0  0
  -13.8233   -5.7412    3.1728 N   0  0  0  0  0  0  0  0  0  0  0  0
  -14.8467   -6.6371    5.2112 C   0  0  0  0  0  0  0  0  0  0  0  0
  -13.5906   -6.1741    2.2522 H   0  0  0  0  0  0  0  0  0  0  0  0
  -14.0015   -4.7036    3.0167 H   0  0  0  0  0  0  0  0  0  0  0  0
  -15.7376   -5.7382    5.9083 N   0  0  0  0  0  0  0  0  0  0  0  0
  -16.5387   -4.7850    5.2444 C   0  0  0  0  0  0  0  0  0  0  0  0
  -17.4547   -3.8594    5.9512 C   0  0  0  0  0  0  0  0  0  0  0  0
  -16.4758   -4.7135    3.9929 O   0  0  0  0  0  0  0  0  0  0  0  0
  -15.7832   -5.8044    6.9458 H   0  0  0  0  0  0  0  0  0  0  0  0
  -13.4669   -9.0947    2.2239 C   0  0  0  0  0  0  0  0  0  0  0  0
  -12.4976   -9.8828    2.4102 O   0  0  0  0  0  0  0  0  0  0  0  0
  -13.7840   -8.7413    0.9098 O   0  0  0  0  0  0  0  0  0  0  0  0
  -13.6902   -9.4858    0.2126 H   0  0  0  0  0  0  0  0  0  0  0  0
  -14.6851   -8.4331    6.8112 O   0  0  0  0  0  0  0  0  0  0  0  0
  -15.2533   -7.7161    7.8692 C   0  0  0  0  0  0  0  0  0  0  0  0
  -14.4909   -6.5404    8.3362 C   0  0  0  0  0  0  0  0  0  0  0  0
  -13.6869   -6.8742    9.5942 C   0  0  0  0  0  0  0  0  0  0  0  0
  -16.6865   -7.4650    7.6961 C   0  0  0  0  0  0  0  0  0  0  0  0
  -17.6725   -8.4645    7.2839 C   0  0  0  0  0  0  0  0  0  0  0  0
  -18.1908   -8.3762    5.9127 C   0  0  0  0  0  0  0  0  0  0  0  0
  -18.7810   -6.9422    5.6737 C   0  0  0  0  0  0  0  0  0  0  0  0
  -18.9852   -6.8671    4.1740 C   0  0  0  0  0  0  0  0  0  0  0  0
  -18.0031   -7.5049    2.0408 C   0  0  0  0  0  0  0  0  0  0  0  0
  -18.2521   -7.9550    3.4475 C   0  0  0  0  0  0  0  0  0  0  0  0
 28 29  1  0  0  0
 29 27  1  0  0  0
 27 26  1  0  0  0
 26 25  1  0  0  0
 25 24  1  0  0  0
 24 23  1  0  0  0
 23 20  1  0  0  0
 20 21  1  0  0  0
 21 22  1  0  0  0
 20 19  1  0  0  0
 19  1  1  0  0  0
  1  2  1  0  0  0
  2  3  2  0  0  0
  3 15  1  0  0  0
 15 16  2  0  0  0
 15 17  1  0  0  0
  3  4  1  0  0  0
  4  5  1  0  0  0
  5  6  1  0  0  0
  5  7  1  0  0  0
  7 10  1  0  0  0
 10 11  1  0  0  0
 11 12  1  0  0  0
 11 13  2  0  0  0
  7  1  1  0  0  0
 17 18  1  0  0  0
  6  8  1  0  0  0
  6  9  1  0  0  0
 10 14  1  0  0  0
M  END
> <minimizedAffinity>
9.61770

> <CNNscore>
0.4624635577

> <CNNaffinity>
6.3685188293

> <CNN_VS>
2.9452078342

> <CNNaffinity_variance>
1.0365315676

$$$$
[H]OC(=O)C1=C([H])[C@@]([H])(O[C@@]([H])(C([H])([H])C([H])([H])[H])C([H])([H])C([H])([H])C([H])([H])C([H])([H])C([H])([H])C([H])([H])C([H])([H])[H])[C@]([H])(N([H])C(=O)C([H])([H])[H])[C@@]([H])(N([H])[H])C1([H])[H]


 29 29  0  0  0  0  0  0  0  0999 V2000
   -4.9157   -6.3001    7.3672 C   0  0  0  0  0  0  0  0  0  0  0  0
   -4.0001   -6.4610    6.1689 C   0  0  0  0  0  0  0  0  0  0  0  0
   -3.4219   -5.3629    5.6811 C   0  0  0  0  0  0  0  0  0  0  0  0
   -3.7807   -4.1112    6.4491 C   0  0  0  0  0  0  0  0  0  0  0  0
   -3.3404   -4.3968    7.8618 C   0  0  0  0  0  0  0  0  0  0  0  0
   -1.8856   -4.5052    7.9129 N   0  0  0  0  0  0  0  0  0  0  0  0
   -4.0056   -5.6419    8.3803 C   0  0  0  0  0  0  0  0  0  0  0  0
   -1.4498   -4.1620    7.0289 H   0  0  0  0  0  0  0  0  0  0  0  0
   -1.5291   -3.9029    8.7148 H   0  0  0  0  0  0  0  0  0  0  0  0
   -4.6632   -5.2546    9.6072 N   0  0  0  0  0  0  0  0  0  0  0  0
   -3.9882   -5.1629   10.8429 C   0  0  0  0  0  0  0  0  0  0  0  0
   -4.6546   -4.7668   12.1056 C   0  0  0  0  0  0  0  0  0  0  0  0
   -2.7621   -5.4290   10.8797 O   0  0  0  0  0  0  0  0  0  0  0  0
   -5.6798   -5.0360    9.5674 H   0  0  0  0  0  0  0  0  0  0  0  0
   -2.5313   -5.2988    4.5623 C   0  0  0  0  0  0  0  0  0  0  0  0
   -2.6000   -4.4078    3.6697 O   0  0  0  0  0  0  0  0  0  0  0  0
   -1.5329   -6.2695    4.4474 O   0  0  0  0  0  0  0  0  0  0  0  0
   -0.6300   -5.9409    4.0922 H   0  0  0  0  0  0  0  0  0  0  0  0
   -5.3585   -7.5269    7.7260 O   0  0  0  0  0  0  0  0  0  0  0  0
   -6.7204   -7.8048    7.5704 C   0  0  0  0  0  0  0  0  0  0  0  0
   -7.3530   -8.5692    8.6645 C   0  0  0  0  0  0  0  0  0  0  0  0
   -7.8363   -9.9340    8.1701 C   0  0  0  0  0  0  0  0  0  0  0  0
   -7.5012   -6.6479    7.1244 C   0  0  0  0  0  0  0  0  0  0  0  0
   -8.9619   -6.5621    7.1380 C   0  0  0  0  0  0  0  0  0  0  0  0
   -9.6431   -6.8476    8.4073 C   0  0  0  0  0  0  0  0  0  0  0  0
  -10.9114   -7.7279    8.1275 C   0  0  0  0  0  0  0  0  0  0  0  0
  -11.8429   -7.4193    9.2823 C   0  0  0  0  0  0  0  0  0  0  0  0
  -12.9957   -5.5096   10.2549 C   0  0  0  0  0  0  0  0  0  0  0  0
  -11.6653   -6.0214    9.7951 C   0  0  0  0  0  0  0  0  0  0  0  0
 28 29  1  0  0  0
 29 27  1  0  0  0
 27 26  1  0  0  0
 26 25  1  0  0  0
 25 24  1  0  0  0
 24 23  1  0  0  0
 23 20  1  0  0  0
 20 21  1  0  0  0
 21 22  1  0  0  0
 20 19  1  0  0  0
 19  1  1  0  0  0
  1  2  1  0  0  0
  2  3  2  0  0  0
  3 15  1  0  0  0
 15 16  2  0  0  0
 15 17  1  0  0  0
  3  4  1  0  0  0
  4  5  1  0  0  0
  5  6  1  0  0  0
  5  7  1  0  0  0
  7 10  1  0  0  0
 10 11  1  0  0  0
 11 12  1  0  0  0
 11 13  2  0  0  0
  7  1  1  0  0  0
 17 18  1  0  0  0
  6  8  1  0  0  0
  6  9  1  0  0  0
 10 14  1  0  0  0
M  END
> <minimizedAffinity>
-5.93459

> <CNNscore>
0.4455542564

> <CNNaffinity>
5.1992311478

> <CNN_VS>
2.3165395260

> <CNNaffinity_variance>
0.1304895580

$$$$
[H]OC(=O)C1=C([H])[C@@]([H])(O[C@@]([H])(C([H])([H])C([H])([H])[H])C([H])([H])C([H])([H])C([H])([H])C([H])([H])C([H])([H])C([H])([H])C([H])([H])[H])[C@]([H])(N([H])C(=O)C([H])([H])[H])[C@@]([H])(N([H])[H])C1([H])[H]


 29 29  0  0  0  0  0  0  0  0999 V2000
  -12.3502   -8.4264    9.3519 C   0  0  0  0  0  0  0  0  0  0  0  0
  -11.5520   -8.7145    8.0950 C   0  0  0  0  0  0  0  0  0  0  0  0
  -11.9874   -9.6893    7.2962 C   0  0  0  0  0  0  0  0  0  0  0  0
  -13.2555  -10.3442    7.7948 C   0  0  0  0  0  0  0  0  0  0  0  0
  -14.2485   -9.2150    7.8947 C   0  0  0  0  0  0  0  0  0  0  0  0
  -14.5495   -8.7031    6.5612 N   0  0  0  0  0  0  0  0  0  0  0  0
  -13.7263   -8.1315    8.7975 C   0  0  0  0  0  0  0  0  0  0  0  0
  -14.1898   -9.3441    5.8203 H   0  0  0  0  0  0  0  0  0  0  0  0
  -15.6064   -8.6332    6.4559 H   0  0  0  0  0  0  0  0  0  0  0  0
  -14.7435   -7.9346    9.8046 N   0  0  0  0  0  0  0  0  0  0  0  0
  -14.6825   -8.5300   11.0825 C   0  0  0  0  0  0  0  0  0  0  0  0
  -15.7209   -8.3336   12.1209 C   0  0  0  0  0  0  0  0  0  0  0  0
  -13.7019   -9.2633   11.3581 O   0  0  0  0  0  0  0  0  0  0  0  0
  -15.5529   -7.3252    9.5673 H   0  0  0  0  0  0  0  0  0  0  0  0
  -11.3818  -10.1169    6.0718 C   0  0  0  0  0  0  0  0  0  0  0  0
  -11.9406  -10.0063    4.9444 O   0  0  0  0  0  0  0  0  0  0  0  0
  -10.1067  -10.6864    6.1209 O   0  0  0  0  0  0  0  0  0  0  0  0
   -9.4798  -10.4439    5.3480 H   0  0  0  0  0  0  0  0  0  0  0  0
  -11.7688   -7.3850    9.9900 O   0  0  0  0  0  0  0  0  0  0  0  0
  -11.7456   -6.1468    9.3400 C   0  0  0  0  0  0  0  0  0  0  0  0
  -12.5237   -5.0665    9.9796 C   0  0  0  0  0  0  0  0  0  0  0  0
  -12.7688   -5.3707   11.4587 C   0  0  0  0  0  0  0  0  0  0  0  0
  -10.4039   -5.7408    8.9132 C   0  0  0  0  0  0  0  0  0  0  0  0
   -9.3047   -6.6568    8.6071 C   0  0  0  0  0  0  0  0  0  0  0  0
   -8.6753   -6.5385    7.2855 C   0  0  0  0  0  0  0  0  0  0  0  0
   -7.9766   -7.8953    6.9215 C   0  0  0  0  0  0  0  0  0  0  0  0
   -6.7967   -7.4894    6.0616 C   0  0  0  0  0  0  0  0  0  0  0  0
   -4.8679   -6.0296    5.7959 C   0  0  0  0  0  0  0  0  0  0  0  0
   -5.8674   -6.5564    6.7791 C   0  0  0  0  0  0  0  0  0  0  0  0
 28 29  1  0  0  0
 29 27  1  0  0  0
 27 26  1  0  0  0
 26 25  1  0  0  0
 25 24  1  0  0  0
 24 23  1  0  0  0
 23 20  1  0  0  0
 20 21  1  0  0  0
 21 22  1  0  0  0
 20 19  1  0  0  0
 19  1  1  0  0  0
  1  2  1  0  0  0
  2  3  2  0  0  0
  3 15  1  0  0  0
 15 16  2  0  0  0
 15 17  1  0  0  0
  3  4  1  0  0  0
  4  5  1  0  0  0
  5  6  1  0  0  0
  5  7  1  0  0  0
  7 10  1  0  0  0
 10 11  1  0  0  0
 11 12  1  0  0  0
 11 13  2  0  0  0
  7  1  1  0  0  0
 17 18  1  0  0  0
  6  8  1  0  0  0
  6  9  1  0  0  0
 10 14  1  0  0  0
M  END
> <minimizedAffinity>
-0.91787

> <CNNscore>
0.4250021577

> <CNNaffinity>
6.1661581993

> <CNN_VS>
2.6206305027

> <CNNaffinity_variance>
0.3993756175

$$$$
[H]OC(=O)C1=C([H])[C@@]([H])(O[C@@]([H])(C([H])([H])C([H])([H])[H])C([H])([H])C([H])([H])C([H])([H])C([H])([H])C([H])([H])C([H])([H])C([H])([H])[H])[C@]([H])(N([H])C(=O)C([H])([H])[H])[C@@]([H])(N([H])[H])C1([H])[H]


 29 29  0  0  0  0  0  0  0  0999 V2000
  -14.9331   -7.9097    6.7387 C   0  0  0  0  0  0  0  0  0  0  0  0
  -15.7094   -7.5921    5.4753 C   0  0  0  0  0  0  0  0  0  0  0  0
  -16.9582   -8.0508    5.3854 C   0  0  0  0  0  0  0  0  0  0  0  0
  -17.3994   -8.8173    6.6115 C   0  0  0  0  0  0  0  0  0  0  0  0
  -17.2419   -7.8372    7.7454 C   0  0  0  0  0  0  0  0  0  0  0  0
  -18.1915   -6.7403    7.5851 N   0  0  0  0  0  0  0  0  0  0  0  0
  -15.8258   -7.3359    7.8166 C   0  0  0  0  0  0  0  0  0  0  0  0
  -18.9064   -6.9627    6.8579 H   0  0  0  0  0  0  0  0  0  0  0  0
  -18.6947   -6.5900    8.5109 H   0  0  0  0  0  0  0  0  0  0  0  0
  -15.3801   -7.6064    9.1641 N   0  0  0  0  0  0  0  0  0  0  0  0
  -15.9555   -8.6073    9.9755 C   0  0  0  0  0  0  0  0  0  0  0  0
  -15.5049   -8.8912   11.3581 C   0  0  0  0  0  0  0  0  0  0  0  0
  -16.8961   -9.2940    9.5075 O   0  0  0  0  0  0  0  0  0  0  0  0
  -14.6000   -7.0322    9.5440 H   0  0  0  0  0  0  0  0  0  0  0  0
  -17.8533   -7.8640    4.2842 C   0  0  0  0  0  0  0  0  0  0  0  0
  -17.5875   -8.2258    3.1036 O   0  0  0  0  0  0  0  0  0  0  0  0
  -19.0859   -7.2504    4.5223 O   0  0  0  0  0  0  0  0  0  0  0  0
  -19.8799   -7.6245    3.9942 H   0  0  0  0  0  0  0  0  0  0  0  0
  -13.7187   -7.3212    6.6455 O   0  0  0  0  0  0  0  0  0  0  0  0
  -12.7405   -7.6828    7.5775 C   0  0  0  0  0  0  0  0  0  0  0  0
  -12.9526   -7.1999    8.9571 C   0  0  0  0  0  0  0  0  0  0  0  0
  -11.8474   -6.2268    9.3722 C   0  0  0  0  0  0  0  0  0  0  0  0
  -12.3532   -9.0935    7.4941 C   0  0  0  0  0  0  0  0  0  0  0  0
  -11.0181   -9.6184    7.7825 C   0  0  0  0  0  0  0  0  0  0  0  0
   -9.8697   -8.7751    7.4269 C   0  0  0  0  0  0  0  0  0  0  0  0
   -8.7719   -9.6592    6.7377 C   0  0  0  0  0  0  0  0  0  0  0  0
   -7.4777   -9.2323    7.4005 C   0  0  0  0  0  0  0  0  0  0  0  0
   -6.4508   -7.5757    8.8576 C   0  0  0  0  0  0  0  0  0  0  0  0
   -7.5005   -7.7901    7.8109 C   0  0  0  0  0  0  0  0  0  0  0  0
 28 29  1  0  0  0
 29 27  1  0  0  0
 27 26  1  0  0  0
 26 25  1  0  0  0
 25 24  1  0  0  0
 24 23  1  0  0  0
 23 20  1  0  0  0
 20 21  1  0  0  0
 21 22  1  0  0  0
 20 19  1  0  0  0
 19  1  1  0  0  0
  1  2  1  0  0  0
  2  3  2  0  0  0
  3 15  1  0  0  0
 15 16  2  0  0  0
 15 17  1  0  0  0
  3  4  1  0  0  0
  4  5  1  0  0  0
  5  6  1  0  0  0
  5  7  1  0  0  0
  7 10  1  0  0  0
 10 11  1  0  0  0
 11 12  1  0  0  0
 11 13  2  0  0  0
  7  1  1  0  0  0
 17 18  1  0  0  0
  6  8  1  0  0  0
  6  9  1  0  0  0
 10 14  1  0  0  0
M  END
> <minimizedAffinity>
1.28858

> <CNNscore>
0.4073244333

> <CNNaffinity>
6.4353342056

> <CNN_VS>
2.6212687492

> <CNNaffinity_variance>
0.5131019354

$$$$
[H]OC(=O)C1=C([H])[C@@]([H])(O[C@@]([H])(C([H])([H])C([H])([H])[H])C([H])([H])C([H])([H])C([H])([H])C([H])([H])C([H])([H])C([H])([H])C([H])([H])[H])[C@]([H])(N([H])C(=O)C([H])([H])[H])[C@@]([H])(N([H])[H])C1([H])[H]


 29 29  0  0  0  0  0  0  0  0999 V2000
  -14.3993   -8.2073    6.4649 C   0  0  0  0  0  0  0  0  0  0  0  0
  -14.6104   -8.4406    4.9813 C   0  0  0  0  0  0  0  0  0  0  0  0
  -15.3238   -7.5368    4.3088 C   0  0  0  0  0  0  0  0  0  0  0  0
  -15.7958   -6.3898    5.1731 C   0  0  0  0  0  0  0  0  0  0  0  0
  -14.5302   -5.7982    5.7382 C   0  0  0  0  0  0  0  0  0  0  0  0
  -13.7411   -5.2031    4.6639 N   0  0  0  0  0  0  0  0  0  0  0  0
  -13.7474   -6.8425    6.4853 C   0  0  0  0  0  0  0  0  0  0  0  0
  -14.2983   -5.1240    3.7850 H   0  0  0  0  0  0  0  0  0  0  0  0
  -13.4482   -4.2240    4.9612 H   0  0  0  0  0  0  0  0  0  0  0  0
  -13.5371   -6.3039    7.8094 N   0  0  0  0  0  0  0  0  0  0  0  0
  -12.2775   -6.3026    8.4455 C   0  0  0  0  0  0  0  0  0  0  0  0
  -12.0530   -5.7527    9.8028 C   0  0  0  0  0  0  0  0  0  0  0  0
  -11.2952   -6.7906    7.8353 O   0  0  0  0  0  0  0  0  0  0  0  0
  -14.3571   -5.9015    8.3079 H   0  0  0  0  0  0  0  0  0  0  0  0
  -15.6375   -7.5717    2.9127 C   0  0  0  0  0  0  0  0  0  0  0  0
  -14.9390   -8.1866    2.0587 O   0  0  0  0  0  0  0  0  0  0  0  0
  -16.7740   -6.8921    2.4666 O   0  0  0  0  0  0  0  0  0  0  0  0
  -17.3056   -7.3527    1.7220 H   0  0  0  0  0  0  0  0  0  0  0  0
  -13.6218   -9.2064    6.9414 O   0  0  0  0  0  0  0  0  0  0  0  0
  -13.7206   -9.5243    8.2998 C   0  0  0  0  0  0  0  0  0  0  0  0
  -12.4430   -9.7543    9.0043 C   0  0  0  0  0  0  0  0  0  0  0  0
  -11.2700   -9.7600    8.0222 C   0  0  0  0  0  0  0  0  0  0  0  0
  -14.6561   -8.6649    9.0301 C   0  0  0  0  0  0  0  0  0  0  0  0
  -16.0380   -9.0144    9.3604 C   0  0  0  0  0  0  0  0  0  0  0  0
  -17.0429   -8.8713    8.2990 C   0  0  0  0  0  0  0  0  0  0  0  0
  -17.1560   -7.3599    7.8936 C   0  0  0  0  0  0  0  0  0  0  0  0
  -18.0106   -7.3713    6.6423 C   0  0  0  0  0  0  0  0  0  0  0  0
  -18.7025   -8.7307    4.7462 C   0  0  0  0  0  0  0  0  0  0  0  0
  -18.3510   -8.7638    6.2017 C   0  0  0  0  0  0  0  0  0  0  0  0
 28 29  1  0  0  0
 29 27  1  0  0  0
 27 26  1  0  0  0
 26 25  1  0  0  0
 25 24  1  0  0  0
 24 23  1  0  0  0
 23 20  1  0  0  0
 20 21  1  0  0  0
 21 22  1  0  0  0
 20 19  1  0  0  0
 19  1  1  0  0  0
  1  2  1  0  0  0
  2  3  2  0  0  0
  3 15  1  0  0  0
 15 16  2  0  0  0
 15 17  1  0  0  0
  3  4  1  0  0  0
  4  5  1  0  0  0
  5  6  1  0  0  0
  5  7  1  0  0  0
  7 10  1  0  0  0
 10 11  1  0  0  0
 11 12  1  0  0  0
 11 13  2  0  0  0
  7  1  1  0  0  0
 17 18  1  0  0  0
  6  8  1  0  0  0
  6  9  1  0  0  0
 10 14  1  0  0  0
M  END
> <minimizedAffinity>
1.60279

> <CNNscore>
0.3929252326

> <CNNaffinity>
6.1917824745

> <CNN_VS>
2.4329075813

> <CNNaffinity_variance>
0.8079296350

$$$$
[H]c1c([H])c(-c2c([H])c([H])c(C([H])(C(=O)N([H])C([H])([H])C([H])([H])C([H])([H])C([H])([H])C([H])([H])C([H])([H])N([H])c3c4c(nc5c([H])c([H])c([H])c([H])c35)C([H])([H])C([H])([H])C([H])([H])C4([H])[H])C([H])([H])[H])c([H])c2F)c([H])c([H])c1OC([H])([H])C([H])([H])C([H])([H])C([H])([H])C([H])([H])C([H])([H])O[N+](=O)[O-]


 52 56  0  0  0  0  0  0  0  0999 V2000
   -2.5620   -6.6758    5.8791 C   0  0  0  0  0  0  0  0  0  0  0  0
   -3.4614   -5.6264    6.5253 C   0  0  0  0  0  0  0  0  0  0  0  0
   -4.7763   -6.2576    6.7502 C   0  0  0  0  0  0  0  0  0  0  0  0
   -5.6983   -6.2736    5.7303 C   0  0  0  0  0  0  0  0  0  0  0  0
   -6.9622   -6.8420    5.8963 C   0  0  0  0  0  0  0  0  0  0  0  0
   -7.2887   -7.3929    7.0957 C   0  0  0  0  0  0  0  0  0  0  0  0
   -6.3825   -7.3875    8.1277 C   0  0  0  0  0  0  0  0  0  0  0  0
   -6.6939   -7.9264    9.3305 F   0  0  0  0  0  0  0  0  0  0  0  0
   -5.1155   -6.8146    7.9525 C   0  0  0  0  0  0  0  0  0  0  0  0
   -8.5935   -7.9961    7.2952 C   0  0  0  0  0  0  0  0  0  0  0  0
   -9.6733   -7.2680    7.7418 C   0  0  0  0  0  0  0  0  0  0  0  0
  -10.9217   -7.8729    7.9194 C   0  0  0  0  0  0  0  0  0  0  0  0
  -11.1427   -9.2048    7.6649 C   0  0  0  0  0  0  0  0  0  0  0  0
  -10.0274   -9.9360    7.2076 C   0  0  0  0  0  0  0  0  0  0  0  0
   -8.8147   -9.3302    7.0390 C   0  0  0  0  0  0  0  0  0  0  0  0
  -12.3302   -9.8741    7.8175 O   0  0  0  0  0  0  0  0  0  0  0  0
  -13.5719   -9.3279    8.1304 C   0  0  0  0  0  0  0  0  0  0  0  0
  -14.1724   -8.6732    6.9278 C   0  0  0  0  0  0  0  0  0  0  0  0
  -14.6222   -7.2797    7.2548 C   0  0  0  0  0  0  0  0  0  0  0  0
  -14.4867   -6.3905    6.0670 C   0  0  0  0  0  0  0  0  0  0  0  0
  -15.7807   -6.1913    5.3201 C   0  0  0  0  0  0  0  0  0  0  0  0
  -15.7337   -6.9397    4.0197 C   0  0  0  0  0  0  0  0  0  0  0  0
  -16.4790   -8.1601    4.1779 O   0  0  0  0  0  0  0  0  0  0  0  0
  -17.8467   -8.0448    4.1178 N   0  0  0  0  0  0  0  0  0  0  0  0
  -18.4187   -7.2955    3.3044 O   0  0  0  0  0  0  0  0  0  0  0  0
  -18.5605   -8.8132    5.0184 O   0  0  0  0  0  0  0  0  0  0  0  0
   -3.4831   -4.3666    5.7849 C   0  0  0  0  0  0  0  0  0  0  0  0
   -3.8929   -3.2932    6.3525 O   0  0  0  0  0  0  0  0  0  0  0  0
   -3.0738   -4.2167    4.4402 N   0  0  0  0  0  0  0  0  0  0  0  0
   -2.7322   -5.0615    3.9377 H   0  0  0  0  0  0  0  0  0  0  0  0
   -3.0971   -2.9689    3.7267 C   0  0  0  0  0  0  0  0  0  0  0  0
   -2.7846   -3.1371    2.2592 C   0  0  0  0  0  0  0  0  0  0  0  0
   -2.5945   -1.7781    1.6153 C   0  0  0  0  0  0  0  0  0  0  0  0
   -3.9918   -1.1929    1.4015 C   0  0  0  0  0  0  0  0  0  0  0  0
   -4.3399   -1.1413   -0.0369 C   0  0  0  0  0  0  0  0  0  0  0  0
   -5.5654   -0.4050   -0.3770 C   0  0  0  0  0  0  0  0  0  0  0  0
   -6.6373   -1.0985   -0.9534 N   0  0  0  0  0  0  0  0  0  0  0  0
   -6.9550   -1.9922   -0.4191 H   0  0  0  0  0  0  0  0  0  0  0  0
   -7.3983   -0.8718   -2.1018 C   0  0  0  0  0  0  0  0  0  0  0  0
   -8.6183   -0.2339   -1.9972 C   0  0  0  0  0  0  0  0  0  0  0  0
   -9.3446    0.0310   -3.1346 C   0  0  0  0  0  0  0  0  0  0  0  0
   -8.8456   -0.3407   -4.3480 N   0  0  0  0  0  0  0  0  0  0  0  0
   -7.6653   -0.9611   -4.4928 C   0  0  0  0  0  0  0  0  0  0  0  0
   -7.1823   -1.3225   -5.7276 C   0  0  0  0  0  0  0  0  0  0  0  0
   -5.9763   -1.9505   -5.8599 C   0  0  0  0  0  0  0  0  0  0  0  0
   -5.2487   -2.2158   -4.7184 C   0  0  0  0  0  0  0  0  0  0  0  0
   -5.7071   -1.8670   -3.4812 C   0  0  0  0  0  0  0  0  0  0  0  0
   -6.9315   -1.2305   -3.3567 C   0  0  0  0  0  0  0  0  0  0  0  0
  -10.6465    0.6976   -3.0252 C   0  0  0  0  0  0  0  0  0  0  0  0
  -10.8069    1.6209   -1.8681 C   0  0  0  0  0  0  0  0  0  0  0  0
   -9.6528    1.6358   -0.9050 C   0  0  0  0  0  0  0  0  0  0  0  0
   -9.1789    0.1955   -0.6931 C   0  0  0  0  0  0  0  0  0  0  0  0
  1  2  1  0  0  0
  2 27  1  0  0  0
 27 28  2  0  0  0
 27 29  1  0  0  0
 29 31  1  0  0  0
 31 32  1  0  0  0
 32 33  1  0  0  0
 33 34  1  0  0  0
 34 35  1  0  0  0
 35 36  1  0  0  0
 36 37  1  0  0  0
 37 39  1  0  0  0
 39 40  2  0  0  0
 40 41  1  0  0  0
 41 42  2  0  0  0
 42 43  1  0  0  0
 43 44  2  0  0  0
 44 45  1  0  0  0
 45 46  2  0  0  0
 46 47  1  0  0  0
 47 48  2  0  0  0
 41 49  1  0  0  0
 49 50  1  0  0  0
 50 51  1  0  0  0
 51 52  1  0  0  0
  2  3  1  0  0  0
  3  4  2  0  0  0
  4  5  1  0  0  0
  5  6  2  0  0  0
  6 10  1  0  0  0
 10 11  2  0  0  0
 11 12  1  0  0  0
 12 13  2  0  0  0
 13 16  1  0  0  0
 16 17  1  0  0  0
 17 18  1  0  0  0
 18 19  1  0  0  0
 19 20  1  0  0  0
 20 21  1  0  0  0
 21 22  1  0  0  0
 22 23  1  0  0  0
 23 24  1  0  0  0
 24 25  2  0  0  0
 24 26  1  0  0  0
 13 14  1  0  0  0
 14 15  2  0  0  0
  6  7  1  0  0  0
  7  8  1  0  0  0
  7  9  2  0  0  0
 48 39  1  0  0  0
  9  3  1  0  0  0
 52 40  1  0  0  0
 15 10  1  0  0  0
 48 43  1  0  0  0
 29 30  1  0  0  0
 37 38  1  0  0  0
M  CHG 1  24   1
M  CHG 1  26  -1
M  END
> <minimizedAffinity>
-8.82411

> <CNNscore>
0.4234832525

> <CNNaffinity>
7.3187575340

> <CNN_VS>
3.0993711948

> <CNNaffinity_variance>
0.2269030809

$$$$
[H]c1c([H])c(-c2c([H])c([H])c(C([H])(C(=O)N([H])C([H])([H])C([H])([H])C([H])([H])C([H])([H])C([H])([H])C([H])([H])N([H])c3c4c(nc5c([H])c([H])c([H])c([H])c35)C([H])([H])C([H])([H])C([H])([H])C4([H])[H])C([H])([H])[H])c([H])c2F)c([H])c([H])c1OC([H])([H])C([H])([H])C([H])([H])C([H])([H])C([H])([H])C([H])([H])O[N+](=O)[O-]


 52 56  0  0  0  0  0  0  0  0999 V2000
   -2.7111   -5.8225    5.1659 C   0  0  0  0  0  0  0  0  0  0  0  0
   -3.3290   -5.1979    6.4132 C   0  0  0  0  0  0  0  0  0  0  0  0
   -4.6138   -5.8829    6.6534 C   0  0  0  0  0  0  0  0  0  0  0  0
   -5.4826   -6.0710    5.6044 C   0  0  0  0  0  0  0  0  0  0  0  0
   -6.7175   -6.6970    5.7811 C   0  0  0  0  0  0  0  0  0  0  0  0
   -7.0690   -7.1311    7.0207 C   0  0  0  0  0  0  0  0  0  0  0  0
   -6.2159   -6.9533    8.0823 C   0  0  0  0  0  0  0  0  0  0  0  0
   -6.5533   -7.3741    9.3246 F   0  0  0  0  0  0  0  0  0  0  0  0
   -4.9778   -6.3236    7.8961 C   0  0  0  0  0  0  0  0  0  0  0  0
   -8.3442   -7.7905    7.2329 C   0  0  0  0  0  0  0  0  0  0  0  0
   -8.4963   -9.1506    7.0820 C   0  0  0  0  0  0  0  0  0  0  0  0
   -9.7355   -9.7616    7.2990 C   0  0  0  0  0  0  0  0  0  0  0  0
  -10.8553   -9.0561    7.6678 C   0  0  0  0  0  0  0  0  0  0  0  0
  -10.6826   -7.6650    7.8187 C   0  0  0  0  0  0  0  0  0  0  0  0
   -9.4654   -7.0835    7.6034 C   0  0  0  0  0  0  0  0  0  0  0  0
  -12.1042   -9.5761    7.8942 O   0  0  0  0  0  0  0  0  0  0  0  0
  -13.0875   -9.0703    8.7400 C   0  0  0  0  0  0  0  0  0  0  0  0
  -14.3129   -8.7133    7.9611 C   0  0  0  0  0  0  0  0  0  0  0  0
  -14.2682   -7.2749    7.5370 C   0  0  0  0  0  0  0  0  0  0  0  0
  -14.0582   -7.1662    6.0658 C   0  0  0  0  0  0  0  0  0  0  0  0
  -14.4050   -8.4286    5.3188 C   0  0  0  0  0  0  0  0  0  0  0  0
  -15.2923   -8.0986    4.1538 C   0  0  0  0  0  0  0  0  0  0  0  0
  -15.6425   -6.7058    4.2378 O   0  0  0  0  0  0  0  0  0  0  0  0
  -16.8646   -6.3576    3.7153 N   0  0  0  0  0  0  0  0  0  0  0  0
  -17.6580   -7.1990    3.2541 O   0  0  0  0  0  0  0  0  0  0  0  0
  -17.1684   -5.0091    3.7293 O   0  0  0  0  0  0  0  0  0  0  0  0
   -3.3933   -3.7396    6.3431 C   0  0  0  0  0  0  0  0  0  0  0  0
   -2.6593   -3.0249    7.1131 O   0  0  0  0  0  0  0  0  0  0  0  0
   -4.2274   -3.0126    5.4633 N   0  0  0  0  0  0  0  0  0  0  0  0
   -4.8413   -3.5505    4.8179 H   0  0  0  0  0  0  0  0  0  0  0  0
   -4.2761   -1.5771    5.4033 C   0  0  0  0  0  0  0  0  0  0  0  0
   -3.8143   -1.0390    4.0704 C   0  0  0  0  0  0  0  0  0  0  0  0
   -4.4941    0.2860    3.7878 C   0  0  0  0  0  0  0  0  0  0  0  0
   -4.7488    0.3373    2.2801 C   0  0  0  0  0  0  0  0  0  0  0  0
   -5.0090    1.7222    1.8246 C   0  0  0  0  0  0  0  0  0  0  0  0
   -6.3540    1.9834    1.2933 C   0  0  0  0  0  0  0  0  0  0  0  0
   -7.1310    0.9055    0.8501 N   0  0  0  0  0  0  0  0  0  0  0  0
   -7.3844    0.1699    1.6115 H   0  0  0  0  0  0  0  0  0  0  0  0
   -7.6580    0.5743   -0.3997 C   0  0  0  0  0  0  0  0  0  0  0  0
   -6.9280   -0.2228   -1.2587 C   0  0  0  0  0  0  0  0  0  0  0  0
   -7.4685   -0.5871   -2.4698 C   0  0  0  0  0  0  0  0  0  0  0  0
   -8.7186   -0.1548   -2.8008 N   0  0  0  0  0  0  0  0  0  0  0  0
   -9.4604    0.6194   -1.9951 C   0  0  0  0  0  0  0  0  0  0  0  0
  -10.7199    1.0392   -2.3502 C   0  0  0  0  0  0  0  0  0  0  0  0
  -11.4655    1.8245   -1.5173 C   0  0  0  0  0  0  0  0  0  0  0  0
  -10.9223    2.1894   -0.3030 C   0  0  0  0  0  0  0  0  0  0  0  0
   -9.6739    1.7854    0.0722 C   0  0  0  0  0  0  0  0  0  0  0  0
   -8.9250    0.9892   -0.7792 C   0  0  0  0  0  0  0  0  0  0  0  0
   -6.6902   -1.4237   -3.3894 C   0  0  0  0  0  0  0  0  0  0  0  0
   -5.7198   -2.3568   -2.7532 C   0  0  0  0  0  0  0  0  0  0  0  0
   -5.5858   -2.2122   -1.2629 C   0  0  0  0  0  0  0  0  0  0  0  0
   -5.5727   -0.7203   -0.9193 C   0  0  0  0  0  0  0  0  0  0  0  0
  1  2  1  0  0  0
  2 27  1  0  0  0
 27 28  2  0  0  0
 27 29  1  0  0  0
 29 31  1  0  0  0
 31 32  1  0  0  0
 32 33  1  0  0  0
 33 34  1  0  0  0
 34 35  1  0  0  0
 35 36  1  0  0  0
 36 37  1  0  0  0
 37 39  1  0  0  0
 39 40  2  0  0  0
 40 41  1  0  0  0
 41 42  2  0  0  0
 42 43  1  0  0  0
 43 44  2  0  0  0
 44 45  1  0  0  0
 45 46  2  0  0  0
 46 47  1  0  0  0
 47 48  2  0  0  0
 41 49  1  0  0  0
 49 50  1  0  0  0
 50 51  1  0  0  0
 51 52  1  0  0  0
  2  3  1  0  0  0
  3  4  2  0  0  0
  4  5  1  0  0  0
  5  6  2  0  0  0
  6 10  1  0  0  0
 10 11  2  0  0  0
 11 12  1  0  0  0
 12 13  2  0  0  0
 13 16  1  0  0  0
 16 17  1  0  0  0
 17 18  1  0  0  0
 18 19  1  0  0  0
 19 20  1  0  0  0
 20 21  1  0  0  0
 21 22  1  0  0  0
 22 23  1  0  0  0
 23 24  1  0  0  0
 24 25  2  0  0  0
 24 26  1  0  0  0
 13 14  1  0  0  0
 14 15  2  0  0  0
  6  7  1  0  0  0
  7  8  1  0  0  0
  7  9  2  0  0  0
 48 39  1  0  0  0
  9  3  1  0  0  0
 52 40  1  0  0  0
 15 10  1  0  0  0
 48 43  1  0  0  0
 29 30  1  0  0  0
 37 38  1  0  0  0
M  CHG 1  24   1
M  CHG 1  26  -1
M  END
> <minimizedAffinity>
-9.01042

> <CNNscore>
0.3913767934

> <CNNaffinity>
7.4997711182

> <CNN_VS>
2.9352364540

> <CNNaffinity_variance>
0.1682818830

$$$$
[H]c1c([H])c(-c2c([H])c([H])c(C([H])(C(=O)N([H])C([H])([H])C([H])([H])C([H])([H])C([H])([H])C([H])([H])C([H])([H])N([H])c3c4c(nc5c([H])c([H])c([H])c([H])c35)C([H])([H])C([H])([H])C([H])([H])C4([H])[H])C([H])([H])[H])c([H])c2F)c([H])c([H])c1OC([H])([H])C([H])([H])C([H])([H])C([H])([H])C([H])([H])C([H])([H])O[N+](=O)[O-]


 52 56  0  0  0  0  0  0  0  0999 V2000
   -2.4547   -8.2115    6.8905 C   0  0  0  0  0  0  0  0  0  0  0  0
   -3.2781   -6.9485    7.1235 C   0  0  0  0  0  0  0  0  0  0  0  0
   -4.6958   -7.3550    7.1739 C   0  0  0  0  0  0  0  0  0  0  0  0
   -5.4424   -7.0561    8.2892 C   0  0  0  0  0  0  0  0  0  0  0  0
   -6.7821   -7.4331    8.3947 C   0  0  0  0  0  0  0  0  0  0  0  0
   -7.3621   -8.1122    7.3696 C   0  0  0  0  0  0  0  0  0  0  0  0
   -6.6344   -8.4210    6.2465 C   0  0  0  0  0  0  0  0  0  0  0  0
   -7.1950   -9.1023    5.2191 F   0  0  0  0  0  0  0  0  0  0  0  0
   -5.2896   -8.0386    6.1487 C   0  0  0  0  0  0  0  0  0  0  0  0
   -8.7549   -8.5119    7.4494 C   0  0  0  0  0  0  0  0  0  0  0  0
   -9.1819   -9.7549    7.0392 C   0  0  0  0  0  0  0  0  0  0  0  0
  -10.5296  -10.1169    7.1331 C   0  0  0  0  0  0  0  0  0  0  0  0
  -11.4913   -9.2707    7.6297 C   0  0  0  0  0  0  0  0  0  0  0  0
  -11.0377   -8.0024    8.0460 C   0  0  0  0  0  0  0  0  0  0  0  0
   -9.7179   -7.6643    7.9480 C   0  0  0  0  0  0  0  0  0  0  0  0
  -12.8298   -9.5451    7.7504 O   0  0  0  0  0  0  0  0  0  0  0  0
  -13.8517   -8.6463    8.0439 C   0  0  0  0  0  0  0  0  0  0  0  0
  -14.7334   -8.4509    6.8522 C   0  0  0  0  0  0  0  0  0  0  0  0
  -14.1590   -7.4112    5.9356 C   0  0  0  0  0  0  0  0  0  0  0  0
  -14.9501   -6.1507    6.0079 C   0  0  0  0  0  0  0  0  0  0  0  0
  -14.9804   -5.3899    4.7070 C   0  0  0  0  0  0  0  0  0  0  0  0
  -16.3736   -5.4002    4.1482 C   0  0  0  0  0  0  0  0  0  0  0  0
  -16.5536   -6.6253    3.4159 O   0  0  0  0  0  0  0  0  0  0  0  0
  -17.5149   -7.4810    3.8970 N   0  0  0  0  0  0  0  0  0  0  0  0
  -17.2357   -8.5883    4.3931 O   0  0  0  0  0  0  0  0  0  0  0  0
  -18.8220   -7.0416    3.7993 O   0  0  0  0  0  0  0  0  0  0  0  0
   -2.9593   -5.8824    6.1761 C   0  0  0  0  0  0  0  0  0  0  0  0
   -1.9973   -6.0286    5.3421 O   0  0  0  0  0  0  0  0  0  0  0  0
   -3.6467   -4.6502    6.0905 N   0  0  0  0  0  0  0  0  0  0  0  0
   -4.4367   -4.4862    6.7476 H   0  0  0  0  0  0  0  0  0  0  0  0
   -3.3235   -3.6126    5.1494 C   0  0  0  0  0  0  0  0  0  0  0  0
   -3.4589   -2.2315    5.7440 C   0  0  0  0  0  0  0  0  0  0  0  0
   -4.4389   -1.4138    4.9262 C   0  0  0  0  0  0  0  0  0  0  0  0
   -4.6642   -0.1061    5.6877 C   0  0  0  0  0  0  0  0  0  0  0  0
   -4.2675    1.0660    4.8743 C   0  0  0  0  0  0  0  0  0  0  0  0
   -3.1310    0.8639    3.9647 C   0  0  0  0  0  0  0  0  0  0  0  0
   -3.2714    1.2086    2.6143 N   0  0  0  0  0  0  0  0  0  0  0  0
   -2.5599    1.9453    2.2453 H   0  0  0  0  0  0  0  0  0  0  0  0
   -4.1602    0.7902    1.6222 C   0  0  0  0  0  0  0  0  0  0  0  0
   -3.9841   -0.4413    1.0233 C   0  0  0  0  0  0  0  0  0  0  0  0
   -4.8877   -0.8721    0.0802 C   0  0  0  0  0  0  0  0  0  0  0  0
   -5.9442   -0.0743   -0.2465 N   0  0  0  0  0  0  0  0  0  0  0  0
   -6.1516    1.1273    0.3120 C   0  0  0  0  0  0  0  0  0  0  0  0
   -7.2266    1.9114   -0.0318 C   0  0  0  0  0  0  0  0  0  0  0  0
   -7.4272    3.1318    0.5486 C   0  0  0  0  0  0  0  0  0  0  0  0
   -6.5202    3.5628    1.4942 C   0  0  0  0  0  0  0  0  0  0  0  0
   -5.4448    2.8026    1.8523 C   0  0  0  0  0  0  0  0  0  0  0  0
   -5.2495    1.5663    1.2582 C   0  0  0  0  0  0  0  0  0  0  0  0
   -4.6962   -2.1746   -0.5664 C   0  0  0  0  0  0  0  0  0  0  0  0
   -3.9981   -3.2067    0.2489 C   0  0  0  0  0  0  0  0  0  0  0  0
   -3.4744   -2.7213    1.5718 C   0  0  0  0  0  0  0  0  0  0  0  0
   -2.8535   -1.3366    1.3695 C   0  0  0  0  0  0  0  0  0  0  0  0
  1  2  1  0  0  0
  2 27  1  0  0  0
 27 28  2  0  0  0
 27 29  1  0  0  0
 29 31  1  0  0  0
 31 32  1  0  0  0
 32 33  1  0  0  0
 33 34  1  0  0  0
 34 35  1  0  0  0
 35 36  1  0  0  0
 36 37  1  0  0  0
 37 39  1  0  0  0
 39 40  2  0  0  0
 40 41  1  0  0  0
 41 42  2  0  0  0
 42 43  1  0  0  0
 43 44  2  0  0  0
 44 45  1  0  0  0
 45 46  2  0  0  0
 46 47  1  0  0  0
 47 48  2  0  0  0
 41 49  1  0  0  0
 49 50  1  0  0  0
 50 51  1  0  0  0
 51 52  1  0  0  0
  2  3  1  0  0  0
  3  4  2  0  0  0
  4  5  1  0  0  0
  5  6  2  0  0  0
  6 10  1  0  0  0
 10 11  2  0  0  0
 11 12  1  0  0  0
 12 13  2  0  0  0
 13 16  1  0  0  0
 16 17  1  0  0  0
 17 18  1  0  0  0
 18 19  1  0  0  0
 19 20  1  0  0  0
 20 21  1  0  0  0
 21 22  1  0  0  0
 22 23  1  0  0  0
 23 24  1  0  0  0
 24 25  2  0  0  0
 24 26  1  0  0  0
 13 14  1  0  0  0
 14 15  2  0  0  0
  6  7  1  0  0  0
  7  8  1  0  0  0
  7  9  2  0  0  0
 48 39  1  0  0  0
  9  3  1  0  0  0
 52 40  1  0  0  0
 15 10  1  0  0  0
 48 43  1  0  0  0
 29 30  1  0  0  0
 37 38  1  0  0  0
M  CHG 1  24   1
M  CHG 1  26  -1
M  END
> <minimizedAffinity>
-8.19801

> <CNNscore>
0.3411476314

> <CNNaffinity>
7.4439697266

> <CNN_VS>
2.5394926071

> <CNNaffinity_variance>
0.0809756219

$$$$
[H]c1c([H])c(-c2c([H])c([H])c(C([H])(C(=O)N([H])C([H])([H])C([H])([H])C([H])([H])C([H])([H])C([H])([H])C([H])([H])N([H])c3c4c(nc5c([H])c([H])c([H])c([H])c35)C([H])([H])C([H])([H])C([H])([H])C4([H])[H])C([H])([H])[H])c([H])c2F)c([H])c([H])c1OC([H])([H])C([H])([H])C([H])([H])C([H])([H])C([H])([H])C([H])([H])O[N+](=O)[O-]


 52 56  0  0  0  0  0  0  0  0999 V2000
   -3.0033   -6.1328    5.3329 C   0  0  0  0  0  0  0  0  0  0  0  0
   -3.5108   -5.6572    6.6908 C   0  0  0  0  0  0  0  0  0  0  0  0
   -4.8297   -6.2829    6.9073 C   0  0  0  0  0  0  0  0  0  0  0  0
   -5.7066   -6.3863    5.8533 C   0  0  0  0  0  0  0  0  0  0  0  0
   -6.9725   -6.9533    6.0084 C   0  0  0  0  0  0  0  0  0  0  0  0
   -7.3467   -7.4145    7.2315 C   0  0  0  0  0  0  0  0  0  0  0  0
   -6.4860   -7.3209    8.2977 C   0  0  0  0  0  0  0  0  0  0  0  0
   -6.8453   -7.7697    9.5239 F   0  0  0  0  0  0  0  0  0  0  0  0
   -5.2166   -6.7500    8.1332 C   0  0  0  0  0  0  0  0  0  0  0  0
   -8.6545   -8.0141    7.4209 C   0  0  0  0  0  0  0  0  0  0  0  0
   -8.9106   -9.3258    7.0901 C   0  0  0  0  0  0  0  0  0  0  0  0
  -10.1790   -9.8807    7.2890 C   0  0  0  0  0  0  0  0  0  0  0  0
  -11.2268   -9.1648    7.8153 C   0  0  0  0  0  0  0  0  0  0  0  0
  -10.9480   -7.8237    8.1493 C   0  0  0  0  0  0  0  0  0  0  0  0
   -9.7037   -7.2968    7.9492 C   0  0  0  0  0  0  0  0  0  0  0  0
  -12.4979   -9.6304    8.0368 O   0  0  0  0  0  0  0  0  0  0  0  0
  -13.4838   -9.8757    7.0851 C   0  0  0  0  0  0  0  0  0  0  0  0
  -14.4275   -8.7190    7.0008 C   0  0  0  0  0  0  0  0  0  0  0  0
  -13.9972   -7.7641    5.9266 C   0  0  0  0  0  0  0  0  0  0  0  0
  -14.8411   -6.5362    5.9449 C   0  0  0  0  0  0  0  0  0  0  0  0
  -14.7373   -5.7222    4.6805 C   0  0  0  0  0  0  0  0  0  0  0  0
  -15.8427   -4.7073    4.6410 C   0  0  0  0  0  0  0  0  0  0  0  0
  -16.7029   -5.0248    3.5324 O   0  0  0  0  0  0  0  0  0  0  0  0
  -17.8203   -5.7675    3.8281 N   0  0  0  0  0  0  0  0  0  0  0  0
  -18.8568   -5.2584    4.2934 O   0  0  0  0  0  0  0  0  0  0  0  0
  -17.7303   -7.1243    3.5788 O   0  0  0  0  0  0  0  0  0  0  0  0
   -3.4698   -4.2032    6.8324 C   0  0  0  0  0  0  0  0  0  0  0  0
   -3.0454   -3.6739    7.9196 O   0  0  0  0  0  0  0  0  0  0  0  0
   -3.8722   -3.2862    5.8347 N   0  0  0  0  0  0  0  0  0  0  0  0
   -4.2236   -3.6697    4.9335 H   0  0  0  0  0  0  0  0  0  0  0  0
   -3.8217   -1.8577    5.9878 C   0  0  0  0  0  0  0  0  0  0  0  0
   -4.7836   -1.1443    5.0685 C   0  0  0  0  0  0  0  0  0  0  0  0
   -4.1856   -1.0403    3.6796 C   0  0  0  0  0  0  0  0  0  0  0  0
   -3.9858    0.4499    3.3967 C   0  0  0  0  0  0  0  0  0  0  0  0
   -2.5564    0.7698    3.1786 C   0  0  0  0  0  0  0  0  0  0  0  0
   -2.1950    1.2132    1.8249 C   0  0  0  0  0  0  0  0  0  0  0  0
   -1.9203    0.2508    0.8449 N   0  0  0  0  0  0  0  0  0  0  0  0
   -1.1090    0.4991    0.1628 H   0  0  0  0  0  0  0  0  0  0  0  0
   -2.4898   -0.9911    0.5576 C   0  0  0  0  0  0  0  0  0  0  0  0
   -1.9164   -2.1392    1.0670 C   0  0  0  0  0  0  0  0  0  0  0  0
   -2.5057   -3.3575    0.8225 C   0  0  0  0  0  0  0  0  0  0  0  0
   -3.6488   -3.4102    0.0809 N   0  0  0  0  0  0  0  0  0  0  0  0
   -4.2377   -2.3192   -0.4310 C   0  0  0  0  0  0  0  0  0  0  0  0
   -5.3921   -2.3982   -1.1724 C   0  0  0  0  0  0  0  0  0  0  0  0
   -5.9828   -1.2777   -1.6842 C   0  0  0  0  0  0  0  0  0  0  0  0
   -5.3907   -0.0564   -1.4384 C   0  0  0  0  0  0  0  0  0  0  0  0
   -4.2444    0.0479   -0.7053 C   0  0  0  0  0  0  0  0  0  0  0  0
   -3.6523   -1.0940   -0.1904 C   0  0  0  0  0  0  0  0  0  0  0  0
   -1.8918   -4.5798    1.3522 C   0  0  0  0  0  0  0  0  0  0  0  0
   -1.1207   -4.4226    2.6161 C   0  0  0  0  0  0  0  0  0  0  0  0
   -0.9744   -3.0058    3.0969 C   0  0  0  0  0  0  0  0  0  0  0  0
   -0.6825   -2.1112    1.8893 C   0  0  0  0  0  0  0  0  0  0  0  0
  1  2  1  0  0  0
  2 27  1  0  0  0
 27 28  2  0  0  0
 27 29  1  0  0  0
 29 31  1  0  0  0
 31 32  1  0  0  0
 32 33  1  0  0  0
 33 34  1  0  0  0
 34 35  1  0  0  0
 35 36  1  0  0  0
 36 37  1  0  0  0
 37 39  1  0  0  0
 39 40  2  0  0  0
 40 41  1  0  0  0
 41 42  2  0  0  0
 42 43  1  0  0  0
 43 44  2  0  0  0
 44 45  1  0  0  0
 45 46  2  0  0  0
 46 47  1  0  0  0
 47 48  2  0  0  0
 41 49  1  0  0  0
 49 50  1  0  0  0
 50 51  1  0  0  0
 51 52  1  0  0  0
  2  3  1  0  0  0
  3  4  2  0  0  0
  4  5  1  0  0  0
  5  6  2  0  0  0
  6 10  1  0  0  0
 10 11  2  0  0  0
 11 12  1  0  0  0
 12 13  2  0  0  0
 13 16  1  0  0  0
 16 17  1  0  0  0
 17 18  1  0  0  0
 18 19  1  0  0  0
 19 20  1  0  0  0
 20 21  1  0  0  0
 21 22  1  0  0  0
 22 23  1  0  0  0
 23 24  1  0  0  0
 24 25  2  0  0  0
 24 26  1  0  0  0
 13 14  1  0  0  0
 14 15  2  0  0  0
  6  7  1  0  0  0
  7  8  1  0  0  0
  7  9  2  0  0  0
 48 39  1  0  0  0
  9  3  1  0  0  0
 52 40  1  0  0  0
 15 10  1  0  0  0
 48 43  1  0  0  0
 29 30  1  0  0  0
 37 38  1  0  0  0
M  CHG 1  24   1
M  CHG 1  26  -1
M  END
> <minimizedAffinity>
-7.80406

> <CNNscore>
0.3094827533

> <CNNaffinity>
7.1933646202

> <CNN_VS>
2.2262222767

> <CNNaffinity_variance>
0.2546059191

$$$$
[H]c1c([H])c(-c2c([H])c([H])c(C([H])(C(=O)N([H])C([H])([H])C([H])([H])C([H])([H])C([H])([H])C([H])([H])C([H])([H])N([H])c3c4c(nc5c([H])c([H])c([H])c([H])c35)C([H])([H])C([H])([H])C([H])([H])C4([H])[H])C([H])([H])[H])c([H])c2F)c([H])c([H])c1OC([H])([H])C([H])([H])C([H])([H])C([H])([H])C([H])([H])C([H])([H])O[N+](=O)[O-]


 52 56  0  0  0  0  0  0  0  0999 V2000
   -2.1159   -6.3509    6.3027 C   0  0  0  0  0  0  0  0  0  0  0  0
   -3.1121   -5.2486    6.6496 C   0  0  0  0  0  0  0  0  0  0  0  0
   -4.4351   -5.8860    6.7951 C   0  0  0  0  0  0  0  0  0  0  0  0
   -4.8715   -6.2527    8.0464 C   0  0  0  0  0  0  0  0  0  0  0  0
   -6.1065   -6.8744    8.2368 C   0  0  0  0  0  0  0  0  0  0  0  0
   -6.8965   -7.1230    7.1585 C   0  0  0  0  0  0  0  0  0  0  0  0
   -6.4796   -6.7650    5.8998 C   0  0  0  0  0  0  0  0  0  0  0  0
   -7.2515   -7.0110    4.8146 F   0  0  0  0  0  0  0  0  0  0  0  0
   -5.2379   -6.1411    5.7175 C   0  0  0  0  0  0  0  0  0  0  0  0
   -8.1880   -7.7629    7.3273 C   0  0  0  0  0  0  0  0  0  0  0  0
   -9.3181   -7.0495    7.6581 C   0  0  0  0  0  0  0  0  0  0  0  0
  -10.5520   -7.6905    7.8084 C   0  0  0  0  0  0  0  0  0  0  0  0
  -10.7090   -9.0448    7.6393 C   0  0  0  0  0  0  0  0  0  0  0  0
   -9.5427   -9.7606    7.3000 C   0  0  0  0  0  0  0  0  0  0  0  0
   -8.3450   -9.1196    7.1566 C   0  0  0  0  0  0  0  0  0  0  0  0
  -11.8784   -9.7492    7.7727 O   0  0  0  0  0  0  0  0  0  0  0  0
  -12.8919   -9.5327    8.7022 C   0  0  0  0  0  0  0  0  0  0  0  0
  -14.1611   -9.1492    8.0110 C   0  0  0  0  0  0  0  0  0  0  0  0
  -14.6198   -7.7942    8.4635 C   0  0  0  0  0  0  0  0  0  0  0  0
  -14.2984   -6.7606    7.4396 C   0  0  0  0  0  0  0  0  0  0  0  0
  -13.9871   -7.3406    6.0836 C   0  0  0  0  0  0  0  0  0  0  0  0
  -15.0054   -6.8690    5.0865 C   0  0  0  0  0  0  0  0  0  0  0  0
  -16.2671   -7.4786    5.4122 O   0  0  0  0  0  0  0  0  0  0  0  0
  -16.6942   -8.4726    4.5653 N   0  0  0  0  0  0  0  0  0  0  0  0
  -15.9348   -9.0266    3.7489 O   0  0  0  0  0  0  0  0  0  0  0  0
  -18.0261   -8.8278    4.6697 O   0  0  0  0  0  0  0  0  0  0  0  0
   -3.0524   -4.1201    5.7230 C   0  0  0  0  0  0  0  0  0  0  0  0
   -1.9571   -3.8393    5.1199 O   0  0  0  0  0  0  0  0  0  0  0  0
   -4.1416   -3.2728    5.4162 N   0  0  0  0  0  0  0  0  0  0  0  0
   -5.0528   -3.4625    5.8815 H   0  0  0  0  0  0  0  0  0  0  0  0
   -4.0680   -2.1686    4.4985 C   0  0  0  0  0  0  0  0  0  0  0  0
   -4.6940   -0.9127    5.0553 C   0  0  0  0  0  0  0  0  0  0  0  0
   -4.3646    0.2658    4.1606 C   0  0  0  0  0  0  0  0  0  0  0  0
   -4.0940   -0.3023    2.7661 C   0  0  0  0  0  0  0  0  0  0  0  0
   -4.4377    0.6769    1.7096 C   0  0  0  0  0  0  0  0  0  0  0  0
   -5.8691    0.9607    1.5356 C   0  0  0  0  0  0  0  0  0  0  0  0
   -6.3371    1.3457    0.2727 N   0  0  0  0  0  0  0  0  0  0  0  0
   -6.0772    2.3582   -0.0315 H   0  0  0  0  0  0  0  0  0  0  0  0
   -7.0881    0.6796   -0.6976 C   0  0  0  0  0  0  0  0  0  0  0  0
   -8.4432    0.9242   -0.7988 C   0  0  0  0  0  0  0  0  0  0  0  0
   -9.1724    0.3031   -1.7856 C   0  0  0  0  0  0  0  0  0  0  0  0
   -8.5429   -0.5440   -2.6491 N   0  0  0  0  0  0  0  0  0  0  0  0
   -7.2294   -0.8078   -2.5854 C   0  0  0  0  0  0  0  0  0  0  0  0
   -6.6174   -1.6629   -3.4702 C   0  0  0  0  0  0  0  0  0  0  0  0
   -5.2776   -1.9190   -3.3955 C   0  0  0  0  0  0  0  0  0  0  0  0
   -4.5472   -1.2956   -2.4052 C   0  0  0  0  0  0  0  0  0  0  0  0
   -5.1320   -0.4425   -1.5149 C   0  0  0  0  0  0  0  0  0  0  0  0
   -6.4916   -0.1891   -1.5982 C   0  0  0  0  0  0  0  0  0  0  0  0
  -10.6144    0.5517   -1.8876 C   0  0  0  0  0  0  0  0  0  0  0  0
  -11.0767    1.8871   -1.4187 C   0  0  0  0  0  0  0  0  0  0  0  0
  -10.0123    2.7398   -0.7863 C   0  0  0  0  0  0  0  0  0  0  0  0
   -9.1516    1.8517    0.1162 C   0  0  0  0  0  0  0  0  0  0  0  0
  1  2  1  0  0  0
  2 27  1  0  0  0
 27 28  2  0  0  0
 27 29  1  0  0  0
 29 31  1  0  0  0
 31 32  1  0  0  0
 32 33  1  0  0  0
 33 34  1  0  0  0
 34 35  1  0  0  0
 35 36  1  0  0  0
 36 37  1  0  0  0
 37 39  1  0  0  0
 39 40  2  0  0  0
 40 41  1  0  0  0
 41 42  2  0  0  0
 42 43  1  0  0  0
 43 44  2  0  0  0
 44 45  1  0  0  0
 45 46  2  0  0  0
 46 47  1  0  0  0
 47 48  2  0  0  0
 41 49  1  0  0  0
 49 50  1  0  0  0
 50 51  1  0  0  0
 51 52  1  0  0  0
  2  3  1  0  0  0
  3  4  2  0  0  0
  4  5  1  0  0  0
  5  6  2  0  0  0
  6 10  1  0  0  0
 10 11  2  0  0  0
 11 12  1  0  0  0
 12 13  2  0  0  0
 13 16  1  0  0  0
 16 17  1  0  0  0
 17 18  1  0  0  0
 18 19  1  0  0  0
 19 20  1  0  0  0
 20 21  1  0  0  0
 21 22  1  0  0  0
 22 23  1  0  0  0
 23 24  1  0  0  0
 24 25  2  0  0  0
 24 26  1  0  0  0
 13 14  1  0  0  0
 14 15  2  0  0  0
  6  7  1  0  0  0
  7  8  1  0  0  0
  7  9  2  0  0  0
 48 39  1  0  0  0
  9  3  1  0  0  0
 52 40  1  0  0  0
 15 10  1  0  0  0
 48 43  1  0  0  0
 29 30  1  0  0  0
 37 38  1  0  0  0
M  CHG 1  24   1
M  CHG 1  26  -1
M  END
> <minimizedAffinity>
-8.52579

> <CNNscore>
0.3019695580

> <CNNaffinity>
7.2956495285

> <CNN_VS>
2.2030639648

> <CNNaffinity_variance>
0.3445498347

$$$$
[H]c1c([H])c(-c2c([H])c([H])c(C([H])(C(=O)N([H])C([H])([H])C([H])([H])C([H])([H])C([H])([H])C([H])([H])C([H])([H])N([H])c3c4c(nc5c([H])c([H])c([H])c([H])c35)C([H])([H])C([H])([H])C([H])([H])C4([H])[H])C([H])([H])[H])c([H])c2F)c([H])c([H])c1OC([H])([H])C([H])([H])C([H])([H])C([H])([H])C([H])([H])C([H])([H])O[N+](=O)[O-]


 52 56  0  0  0  0  0  0  0  0999 V2000
   -2.3747   -8.4821    6.2034 C   0  0  0  0  0  0  0  0  0  0  0  0
   -3.0533   -7.2329    6.7572 C   0  0  0  0  0  0  0  0  0  0  0  0
   -4.4845   -7.5515    6.9240 C   0  0  0  0  0  0  0  0  0  0  0  0
   -5.1965   -8.0323    5.8504 C   0  0  0  0  0  0  0  0  0  0  0  0
   -6.5559   -8.3325    5.9501 C   0  0  0  0  0  0  0  0  0  0  0  0
   -7.1907   -8.1446    7.1377 C   0  0  0  0  0  0  0  0  0  0  0  0
   -6.4982   -7.6652    8.2226 C   0  0  0  0  0  0  0  0  0  0  0  0
   -7.1166   -7.4665    9.4109 F   0  0  0  0  0  0  0  0  0  0  0  0
   -5.1332   -7.3663    8.1138 C   0  0  0  0  0  0  0  0  0  0  0  0
   -8.6022   -8.4536    7.2720 C   0  0  0  0  0  0  0  0  0  0  0  0
   -9.0997   -9.7140    7.0280 C   0  0  0  0  0  0  0  0  0  0  0  0
  -10.4640   -9.9862    7.1713 C   0  0  0  0  0  0  0  0  0  0  0  0
  -11.3738   -9.0313    7.5559 C   0  0  0  0  0  0  0  0  0  0  0  0
  -10.8484   -7.7465    7.8026 C   0  0  0  0  0  0  0  0  0  0  0  0
   -9.5131   -7.4969    7.6584 C   0  0  0  0  0  0  0  0  0  0  0  0
  -12.7240   -9.2138    7.7143 O   0  0  0  0  0  0  0  0  0  0  0  0
  -13.5894   -8.4626    8.5048 C   0  0  0  0  0  0  0  0  0  0  0  0
  -14.7007   -7.9028    7.6757 C   0  0  0  0  0  0  0  0  0  0  0  0
  -14.2475   -6.6717    6.9477 C   0  0  0  0  0  0  0  0  0  0  0  0
  -14.6282   -6.7408    5.5088 C   0  0  0  0  0  0  0  0  0  0  0  0
  -14.9814   -8.1329    5.0514 C   0  0  0  0  0  0  0  0  0  0  0  0
  -16.0982   -8.0676    4.0504 C   0  0  0  0  0  0  0  0  0  0  0  0
  -16.5287   -6.6987    3.9483 O   0  0  0  0  0  0  0  0  0  0  0  0
  -17.8846   -6.4855    4.0111 N   0  0  0  0  0  0  0  0  0  0  0  0
  -18.7128   -7.4008    3.8487 O   0  0  0  0  0  0  0  0  0  0  0  0
  -18.2833   -5.1868    4.2668 O   0  0  0  0  0  0  0  0  0  0  0  0
   -2.7593   -6.0349    5.9735 C   0  0  0  0  0  0  0  0  0  0  0  0
   -2.2827   -6.1414    4.7886 O   0  0  0  0  0  0  0  0  0  0  0  0
   -2.9630   -4.7100    6.4224 N   0  0  0  0  0  0  0  0  0  0  0  0
   -3.3494   -4.5736    7.3789 H   0  0  0  0  0  0  0  0  0  0  0  0
   -2.6726   -3.5412    5.6374 C   0  0  0  0  0  0  0  0  0  0  0  0
   -3.9086   -2.7302    5.3308 C   0  0  0  0  0  0  0  0  0  0  0  0
   -3.9213   -2.3476    3.8641 C   0  0  0  0  0  0  0  0  0  0  0  0
   -2.8375   -3.1842    3.1815 C   0  0  0  0  0  0  0  0  0  0  0  0
   -2.6593   -2.7840    1.7668 C   0  0  0  0  0  0  0  0  0  0  0  0
   -3.8890   -2.4643    1.0282 C   0  0  0  0  0  0  0  0  0  0  0  0
   -3.9997   -1.2173    0.3998 N   0  0  0  0  0  0  0  0  0  0  0  0
   -3.0563   -0.7499    0.1229 H   0  0  0  0  0  0  0  0  0  0  0  0
   -5.1001   -0.4328    0.0493 C   0  0  0  0  0  0  0  0  0  0  0  0
   -5.4477    0.6464    0.8373 C   0  0  0  0  0  0  0  0  0  0  0  0
   -6.5028    1.4460    0.4648 C   0  0  0  0  0  0  0  0  0  0  0  0
   -7.1875    1.1592   -0.6790 N   0  0  0  0  0  0  0  0  0  0  0  0
   -6.8816    0.1218   -1.4722 C   0  0  0  0  0  0  0  0  0  0  0  0
   -7.5850   -0.1443   -2.6224 C   0  0  0  0  0  0  0  0  0  0  0  0
   -7.2593   -1.2025   -3.4226 C   0  0  0  0  0  0  0  0  0  0  0  0
   -6.2011   -2.0040   -3.0479 C   0  0  0  0  0  0  0  0  0  0  0  0
   -5.4874   -1.7605   -1.9104 C   0  0  0  0  0  0  0  0  0  0  0  0
   -5.8251   -0.6849   -1.1049 C   0  0  0  0  0  0  0  0  0  0  0  0
   -6.8818    2.5858    1.3065 C   0  0  0  0  0  0  0  0  0  0  0  0
   -5.7783    3.2109    2.0867 C   0  0  0  0  0  0  0  0  0  0  0  0
   -4.4573    2.4989    1.9975 C   0  0  0  0  0  0  0  0  0  0  0  0
   -4.7121    0.9914    2.0780 C   0  0  0  0  0  0  0  0  0  0  0  0
  1  2  1  0  0  0
  2 27  1  0  0  0
 27 28  2  0  0  0
 27 29  1  0  0  0
 29 31  1  0  0  0
 31 32  1  0  0  0
 32 33  1  0  0  0
 33 34  1  0  0  0
 34 35  1  0  0  0
 35 36  1  0  0  0
 36 37  1  0  0  0
 37 39  1  0  0  0
 39 40  2  0  0  0
 40 41  1  0  0  0
 41 42  2  0  0  0
 42 43  1  0  0  0
 43 44  2  0  0  0
 44 45  1  0  0  0
 45 46  2  0  0  0
 46 47  1  0  0  0
 47 48  2  0  0  0
 41 49  1  0  0  0
 49 50  1  0  0  0
 50 51  1  0  0  0
 51 52  1  0  0  0
  2  3  1  0  0  0
  3  4  2  0  0  0
  4  5  1  0  0  0
  5  6  2  0  0  0
  6 10  1  0  0  0
 10 11  2  0  0  0
 11 12  1  0  0  0
 12 13  2  0  0  0
 13 16  1  0  0  0
 16 17  1  0  0  0
 17 18  1  0  0  0
 18 19  1  0  0  0
 19 20  1  0  0  0
 20 21  1  0  0  0
 21 22  1  0  0  0
 22 23  1  0  0  0
 23 24  1  0  0  0
 24 25  2  0  0  0
 24 26  1  0  0  0
 13 14  1  0  0  0
 14 15  2  0  0  0
  6  7  1  0  0  0
  7  8  1  0  0  0
  7  9  2  0  0  0
 48 39  1  0  0  0
  9  3  1  0  0  0
 52 40  1  0  0  0
 15 10  1  0  0  0
 48 43  1  0  0  0
 29 30  1  0  0  0
 37 38  1  0  0  0
M  CHG 1  24   1
M  CHG 1  26  -1
M  END
> <minimizedAffinity>
-8.07014

> <CNNscore>
0.2841802239

> <CNNaffinity>
7.2471036911

> <CNN_VS>
2.0594835281

> <CNNaffinity_variance>
0.0802034289

$$$$
[H]c1c([H])c(-c2c([H])c([H])c(C([H])(C(=O)N([H])C([H])([H])C([H])([H])C([H])([H])C([H])([H])C([H])([H])C([H])([H])N([H])c3c4c(nc5c([H])c([H])c([H])c([H])c35)C([H])([H])C([H])([H])C([H])([H])C4([H])[H])C([H])([H])[H])c([H])c2F)c([H])c([H])c1OC([H])([H])C([H])([H])C([H])([H])C([H])([H])C([H])([H])C([H])([H])O[N+](=O)[O-]


 52 56  0  0  0  0  0  0  0  0999 V2000
   -4.1310   -5.7723    5.6322 C   0  0  0  0  0  0  0  0  0  0  0  0
   -4.1841   -6.7021    6.8407 C   0  0  0  0  0  0  0  0  0  0  0  0
   -5.6064   -6.9948    7.1039 C   0  0  0  0  0  0  0  0  0  0  0  0
   -5.9356   -7.9416    8.0449 C   0  0  0  0  0  0  0  0  0  0  0  0
   -7.2645   -8.2684    8.3193 C   0  0  0  0  0  0  0  0  0  0  0  0
   -8.2568   -7.6346    7.6394 C   0  0  0  0  0  0  0  0  0  0  0  0
   -7.9498   -6.6856    6.6952 C   0  0  0  0  0  0  0  0  0  0  0  0
   -8.9258   -6.0494    6.0046 F   0  0  0  0  0  0  0  0  0  0  0  0
   -6.6127   -6.3635    6.4258 C   0  0  0  0  0  0  0  0  0  0  0  0
   -9.6476   -7.9500    7.9080 C   0  0  0  0  0  0  0  0  0  0  0  0
  -10.2434   -9.0927    7.4233 C   0  0  0  0  0  0  0  0  0  0  0  0
  -11.5842   -9.3757    7.7026 C   0  0  0  0  0  0  0  0  0  0  0  0
  -12.3740   -8.5468    8.4620 C   0  0  0  0  0  0  0  0  0  0  0  0
  -11.7488   -7.3816    8.9513 C   0  0  0  0  0  0  0  0  0  0  0  0
  -10.4380   -7.1198    8.6697 C   0  0  0  0  0  0  0  0  0  0  0  0
  -13.6937   -8.7476    8.7771 O   0  0  0  0  0  0  0  0  0  0  0  0
  -14.7495   -7.8594    8.5916 C   0  0  0  0  0  0  0  0  0  0  0  0
  -15.0531   -7.7058    7.1357 C   0  0  0  0  0  0  0  0  0  0  0  0
  -14.4524   -6.4388    6.6021 C   0  0  0  0  0  0  0  0  0  0  0  0
  -14.7415   -6.2907    5.1479 C   0  0  0  0  0  0  0  0  0  0  0  0
  -15.4162   -4.9876    4.8034 C   0  0  0  0  0  0  0  0  0  0  0  0
  -16.7123   -5.2611    4.0972 C   0  0  0  0  0  0  0  0  0  0  0  0
  -17.5074   -6.1177    4.9360 O   0  0  0  0  0  0  0  0  0  0  0  0
  -17.9837   -7.2650    4.3489 N   0  0  0  0  0  0  0  0  0  0  0  0
  -18.4687   -7.2767    3.2022 O   0  0  0  0  0  0  0  0  0  0  0  0
  -17.8947   -8.4169    5.1079 O   0  0  0  0  0  0  0  0  0  0  0  0
   -3.4219   -6.1940    7.9793 C   0  0  0  0  0  0  0  0  0  0  0  0
   -2.5205   -6.9218    8.5272 O   0  0  0  0  0  0  0  0  0  0  0  0
   -3.5946   -4.9152    8.5567 N   0  0  0  0  0  0  0  0  0  0  0  0
   -4.3153   -4.2878    8.1447 H   0  0  0  0  0  0  0  0  0  0  0  0
   -2.8334   -4.4281    9.6747 C   0  0  0  0  0  0  0  0  0  0  0  0
   -3.6752   -3.6334   10.6438 C   0  0  0  0  0  0  0  0  0  0  0  0
   -3.7462   -4.3555   11.9747 C   0  0  0  0  0  0  0  0  0  0  0  0
   -2.3034   -4.6177   12.4109 C   0  0  0  0  0  0  0  0  0  0  0  0
   -1.9286   -3.7730   13.5681 C   0  0  0  0  0  0  0  0  0  0  0  0
   -2.7985   -2.6181   13.8310 C   0  0  0  0  0  0  0  0  0  0  0  0
   -2.2492   -1.3301   13.7911 N   0  0  0  0  0  0  0  0  0  0  0  0
   -1.1803   -1.2735   13.9895 H   0  0  0  0  0  0  0  0  0  0  0  0
   -2.8073   -0.0745   13.5439 C   0  0  0  0  0  0  0  0  0  0  0  0
   -3.1782    0.7282   14.6043 C   0  0  0  0  0  0  0  0  0  0  0  0
   -3.6838    1.9837   14.3599 C   0  0  0  0  0  0  0  0  0  0  0  0
   -3.8089    2.4147   13.0722 N   0  0  0  0  0  0  0  0  0  0  0  0
   -3.4597    1.6670   12.0150 C   0  0  0  0  0  0  0  0  0  0  0  0
   -3.5921    2.1258   10.7263 C   0  0  0  0  0  0  0  0  0  0  0  0
   -3.2285    1.3541    9.6593 C   0  0  0  0  0  0  0  0  0  0  0  0
   -2.7217    0.0951    9.9056 C   0  0  0  0  0  0  0  0  0  0  0  0
   -2.5808   -0.3830   11.1761 C   0  0  0  0  0  0  0  0  0  0  0  0
   -2.9524    0.4067   12.2521 C   0  0  0  0  0  0  0  0  0  0  0  0
   -4.0900    2.8337   15.4840 C   0  0  0  0  0  0  0  0  0  0  0  0
   -3.3522    2.6183   16.7593 C   0  0  0  0  0  0  0  0  0  0  0  0
   -2.3846    1.4680   16.7448 C   0  0  0  0  0  0  0  0  0  0  0  0
   -3.0394    0.2922   16.0150 C   0  0  0  0  0  0  0  0  0  0  0  0
  1  2  1  0  0  0
  2 27  1  0  0  0
 27 28  2  0  0  0
 27 29  1  0  0  0
 29 31  1  0  0  0
 31 32  1  0  0  0
 32 33  1  0  0  0
 33 34  1  0  0  0
 34 35  1  0  0  0
 35 36  1  0  0  0
 36 37  1  0  0  0
 37 39  1  0  0  0
 39 40  2  0  0  0
 40 41  1  0  0  0
 41 42  2  0  0  0
 42 43  1  0  0  0
 43 44  2  0  0  0
 44 45  1  0  0  0
 45 46  2  0  0  0
 46 47  1  0  0  0
 47 48  2  0  0  0
 41 49  1  0  0  0
 49 50  1  0  0  0
 50 51  1  0  0  0
 51 52  1  0  0  0
  2  3  1  0  0  0
  3  4  2  0  0  0
  4  5  1  0  0  0
  5  6  2  0  0  0
  6 10  1  0  0  0
 10 11  2  0  0  0
 11 12  1  0  0  0
 12 13  2  0  0  0
 13 16  1  0  0  0
 16 17  1  0  0  0
 17 18  1  0  0  0
 18 19  1  0  0  0
 19 20  1  0  0  0
 20 21  1  0  0  0
 21 22  1  0  0  0
 22 23  1  0  0  0
 23 24  1  0  0  0
 24 25  2  0  0  0
 24 26  1  0  0  0
 13 14  1  0  0  0
 14 15  2  0  0  0
  6  7  1  0  0  0
  7  8  1  0  0  0
  7  9  2  0  0  0
 48 39  1  0  0  0
  9  3  1  0  0  0
 52 40  1  0  0  0
 15 10  1  0  0  0
 48 43  1  0  0  0
 29 30  1  0  0  0
 37 38  1  0  0  0
M  CHG 1  24   1
M  CHG 1  26  -1
M  END
> <minimizedAffinity>
-7.53819

> <CNNscore>
0.2553132474

> <CNNaffinity>
7.2569808960

> <CNN_VS>
1.8528033495

> <CNNaffinity_variance>
0.2331944406

$$$$
[H]c1c([H])c(-c2c([H])c([H])c(C([H])(C(=O)N([H])C([H])([H])C([H])([H])C([H])([H])C([H])([H])C([H])([H])C([H])([H])N([H])c3c4c(nc5c([H])c([H])c([H])c([H])c35)C([H])([H])C([H])([H])C([H])([H])C4([H])[H])C([H])([H])[H])c([H])c2F)c([H])c([H])c1OC([H])([H])C([H])([H])C([H])([H])C([H])([H])C([H])([H])C([H])([H])O[N+](=O)[O-]


 52 56  0  0  0  0  0  0  0  0999 V2000
   -4.0829   -5.8352    5.6576 C   0  0  0  0  0  0  0  0  0  0  0  0
   -4.1393   -7.0119    6.6270 C   0  0  0  0  0  0  0  0  0  0  0  0
   -5.5629   -7.2691    6.9186 C   0  0  0  0  0  0  0  0  0  0  0  0
   -5.9043   -8.3343    7.7183 C   0  0  0  0  0  0  0  0  0  0  0  0
   -7.2363   -8.6316    8.0106 C   0  0  0  0  0  0  0  0  0  0  0  0
   -8.2193   -7.8486    7.4919 C   0  0  0  0  0  0  0  0  0  0  0  0
   -7.9001   -6.7796    6.6907 C   0  0  0  0  0  0  0  0  0  0  0  0
   -8.8673   -5.9934    6.1610 F   0  0  0  0  0  0  0  0  0  0  0  0
   -6.5600   -6.4881    6.4021 C   0  0  0  0  0  0  0  0  0  0  0  0
   -9.6126   -8.1306    7.7836 C   0  0  0  0  0  0  0  0  0  0  0  0
  -10.2586   -9.2303    7.2648 C   0  0  0  0  0  0  0  0  0  0  0  0
  -11.6006   -9.4821    7.5673 C   0  0  0  0  0  0  0  0  0  0  0  0
  -12.3425   -8.6633    8.3839 C   0  0  0  0  0  0  0  0  0  0  0  0
  -11.6663   -7.5423    8.9074 C   0  0  0  0  0  0  0  0  0  0  0  0
  -10.3551   -7.3107    8.6026 C   0  0  0  0  0  0  0  0  0  0  0  0
  -13.6598   -8.8353    8.7252 O   0  0  0  0  0  0  0  0  0  0  0  0
  -14.6928   -7.9116    8.5924 C   0  0  0  0  0  0  0  0  0  0  0  0
  -15.0477   -7.7287    7.1515 C   0  0  0  0  0  0  0  0  0  0  0  0
  -14.4416   -6.4654    6.6150 C   0  0  0  0  0  0  0  0  0  0  0  0
  -14.7247   -6.3226    5.1591 C   0  0  0  0  0  0  0  0  0  0  0  0
  -15.3722   -5.0088    4.8034 C   0  0  0  0  0  0  0  0  0  0  0  0
  -16.6142   -5.2594    3.9983 C   0  0  0  0  0  0  0  0  0  0  0  0
  -17.5337   -6.0069    4.8141 O   0  0  0  0  0  0  0  0  0  0  0  0
  -17.9794   -7.1953    4.2880 N   0  0  0  0  0  0  0  0  0  0  0  0
  -18.4180   -7.2889    3.1265 O   0  0  0  0  0  0  0  0  0  0  0  0
  -17.9142   -8.2924    5.1266 O   0  0  0  0  0  0  0  0  0  0  0  0
   -3.2785   -6.8259    7.7933 C   0  0  0  0  0  0  0  0  0  0  0  0
   -3.6117   -5.9992    8.7142 O   0  0  0  0  0  0  0  0  0  0  0  0
   -2.0581   -7.5057    8.0090 N   0  0  0  0  0  0  0  0  0  0  0  0
   -1.7464   -8.1882    7.2879 H   0  0  0  0  0  0  0  0  0  0  0  0
   -1.2242   -7.3147    9.1643 C   0  0  0  0  0  0  0  0  0  0  0  0
   -0.2569   -8.4549    9.3729 C   0  0  0  0  0  0  0  0  0  0  0  0
    1.0547   -8.1498    8.6769 C   0  0  0  0  0  0  0  0  0  0  0  0
    1.6699   -9.4954    8.2876 C   0  0  0  0  0  0  0  0  0  0  0  0
    0.6458  -10.4207    7.7508 C   0  0  0  0  0  0  0  0  0  0  0  0
    0.7740  -11.8278    8.1549 C   0  0  0  0  0  0  0  0  0  0  0  0
    0.0106  -12.7976    7.4925 N   0  0  0  0  0  0  0  0  0  0  0  0
   -0.7006  -12.4126    6.7638 H   0  0  0  0  0  0  0  0  0  0  0  0
   -0.0253  -14.1906    7.5799 C   0  0  0  0  0  0  0  0  0  0  0  0
   -0.6276  -14.7908    8.6677 C   0  0  0  0  0  0  0  0  0  0  0  0
   -0.7040  -16.1626    8.7290 C   0  0  0  0  0  0  0  0  0  0  0  0
   -0.1838  -16.9071    7.7119 N   0  0  0  0  0  0  0  0  0  0  0  0
    0.4082  -16.3634    6.6382 C   0  0  0  0  0  0  0  0  0  0  0  0
    0.9218  -17.1356    5.6240 C   0  0  0  0  0  0  0  0  0  0  0  0
    1.5185  -16.5674    4.5343 C   0  0  0  0  0  0  0  0  0  0  0  0
    1.5948  -15.1915    4.4740 C   0  0  0  0  0  0  0  0  0  0  0  0
    1.0924  -14.4033    5.4684 C   0  0  0  0  0  0  0  0  0  0  0  0
    0.4890  -14.9884    6.5699 C   0  0  0  0  0  0  0  0  0  0  0  0
   -1.3324  -16.8031    9.8893 C   0  0  0  0  0  0  0  0  0  0  0  0
   -2.4026  -16.0172   10.5630 C   0  0  0  0  0  0  0  0  0  0  0  0
   -2.5938  -14.6234   10.0333 C   0  0  0  0  0  0  0  0  0  0  0  0
   -1.2154  -14.0068    9.7809 C   0  0  0  0  0  0  0  0  0  0  0  0
  1  2  1  0  0  0
  2 27  1  0  0  0
 27 28  2  0  0  0
 27 29  1  0  0  0
 29 31  1  0  0  0
 31 32  1  0  0  0
 32 33  1  0  0  0
 33 34  1  0  0  0
 34 35  1  0  0  0
 35 36  1  0  0  0
 36 37  1  0  0  0
 37 39  1  0  0  0
 39 40  2  0  0  0
 40 41  1  0  0  0
 41 42  2  0  0  0
 42 43  1  0  0  0
 43 44  2  0  0  0
 44 45  1  0  0  0
 45 46  2  0  0  0
 46 47  1  0  0  0
 47 48  2  0  0  0
 41 49  1  0  0  0
 49 50  1  0  0  0
 50 51  1  0  0  0
 51 52  1  0  0  0
  2  3  1  0  0  0
  3  4  2  0  0  0
  4  5  1  0  0  0
  5  6  2  0  0  0
  6 10  1  0  0  0
 10 11  2  0  0  0
 11 12  1  0  0  0
 12 13  2  0  0  0
 13 16  1  0  0  0
 16 17  1  0  0  0
 17 18  1  0  0  0
 18 19  1  0  0  0
 19 20  1  0  0  0
 20 21  1  0  0  0
 21 22  1  0  0  0
 22 23  1  0  0  0
 23 24  1  0  0  0
 24 25  2  0  0  0
 24 26  1  0  0  0
 13 14  1  0  0  0
 14 15  2  0  0  0
  6  7  1  0  0  0
  7  8  1  0  0  0
  7  9  2  0  0  0
 48 39  1  0  0  0
  9  3  1  0  0  0
 52 40  1  0  0  0
 15 10  1  0  0  0
 48 43  1  0  0  0
 29 30  1  0  0  0
 37 38  1  0  0  0
M  CHG 1  24   1
M  CHG 1  26  -1
M  END
> <minimizedAffinity>
-7.90470

> <CNNscore>
0.2541099191

> <CNNaffinity>
7.0160660744

> <CNN_VS>
1.7828519344

> <CNNaffinity_variance>
0.2463152707

$$$$
[H]c1c([H])c(-c2c([H])c([H])c(C([H])(C(=O)N([H])C([H])([H])C([H])([H])C([H])([H])C([H])([H])C([H])([H])C([H])([H])N([H])c3c4c(nc5c([H])c([H])c([H])c([H])c35)C([H])([H])C([H])([H])C([H])([H])C4([H])[H])C([H])([H])[H])c([H])c2F)c([H])c([H])c1OC([H])([H])C([H])([H])C([H])([H])C([H])([H])C([H])([H])C([H])([H])O[N+](=O)[O-]


 52 56  0  0  0  0  0  0  0  0999 V2000
   -3.0613   -5.1706    5.1363 C   0  0  0  0  0  0  0  0  0  0  0  0
   -3.1576   -5.5347    6.6148 C   0  0  0  0  0  0  0  0  0  0  0  0
   -4.4752   -6.1657    6.8238 C   0  0  0  0  0  0  0  0  0  0  0  0
   -5.3374   -6.2915    5.7601 C   0  0  0  0  0  0  0  0  0  0  0  0
   -6.6015   -6.8646    5.9075 C   0  0  0  0  0  0  0  0  0  0  0  0
   -6.9888   -7.3090    7.1327 C   0  0  0  0  0  0  0  0  0  0  0  0
   -6.1429   -7.1930    8.2085 C   0  0  0  0  0  0  0  0  0  0  0  0
   -6.5155   -7.6249    9.4369 F   0  0  0  0  0  0  0  0  0  0  0  0
   -4.8753   -6.6162    8.0517 C   0  0  0  0  0  0  0  0  0  0  0  0
   -8.2951   -7.9143    7.3143 C   0  0  0  0  0  0  0  0  0  0  0  0
   -9.3957   -7.1763    7.6883 C   0  0  0  0  0  0  0  0  0  0  0  0
  -10.6449   -7.7840    7.8501 C   0  0  0  0  0  0  0  0  0  0  0  0
  -10.8465   -9.1283    7.6507 C   0  0  0  0  0  0  0  0  0  0  0  0
   -9.7101   -9.8695    7.2675 C   0  0  0  0  0  0  0  0  0  0  0  0
   -8.4969   -9.2609    7.1133 C   0  0  0  0  0  0  0  0  0  0  0  0
  -12.0335   -9.8008    7.7926 O   0  0  0  0  0  0  0  0  0  0  0  0
  -13.1179   -9.4389    8.5871 C   0  0  0  0  0  0  0  0  0  0  0  0
  -14.3475   -9.2797    7.7513 C   0  0  0  0  0  0  0  0  0  0  0  0
  -15.3041   -8.3212    8.3971 C   0  0  0  0  0  0  0  0  0  0  0  0
  -16.1784   -7.6808    7.3746 C   0  0  0  0  0  0  0  0  0  0  0  0
  -15.4622   -7.3764    6.0836 C   0  0  0  0  0  0  0  0  0  0  0  0
  -16.2807   -7.8661    4.9244 C   0  0  0  0  0  0  0  0  0  0  0  0
  -17.6367   -7.4252    5.1153 O   0  0  0  0  0  0  0  0  0  0  0  0
  -18.2041   -6.7445    4.0654 N   0  0  0  0  0  0  0  0  0  0  0  0
  -18.4046   -7.2739    2.9565 O   0  0  0  0  0  0  0  0  0  0  0  0
  -18.5435   -5.4268    4.3093 O   0  0  0  0  0  0  0  0  0  0  0  0
   -2.8482   -4.4104    7.4957 C   0  0  0  0  0  0  0  0  0  0  0  0
   -2.0480   -4.5681    8.4841 O   0  0  0  0  0  0  0  0  0  0  0  0
   -3.3733   -3.1060    7.3498 N   0  0  0  0  0  0  0  0  0  0  0  0
   -4.0276   -2.9296    6.5601 H   0  0  0  0  0  0  0  0  0  0  0  0
   -3.0556   -2.0088    8.2227 C   0  0  0  0  0  0  0  0  0  0  0  0
   -2.7720   -0.7332    7.4667 C   0  0  0  0  0  0  0  0  0  0  0  0
   -2.8670   -0.9878    5.9754 C   0  0  0  0  0  0  0  0  0  0  0  0
   -3.8422    0.0482    5.4132 C   0  0  0  0  0  0  0  0  0  0  0  0
   -4.4961   -0.4421    4.1782 C   0  0  0  0  0  0  0  0  0  0  0  0
   -4.3531    0.4122    2.9910 C   0  0  0  0  0  0  0  0  0  0  0  0
   -3.6098   -0.0579    1.9008 N   0  0  0  0  0  0  0  0  0  0  0  0
   -2.8652    0.6344    1.5116 H   0  0  0  0  0  0  0  0  0  0  0  0
   -3.6312   -1.2619    1.1943 C   0  0  0  0  0  0  0  0  0  0  0  0
   -4.5120   -1.4208    0.1429 C   0  0  0  0  0  0  0  0  0  0  0  0
   -4.4988   -2.5895   -0.5819 C   0  0  0  0  0  0  0  0  0  0  0  0
   -3.6137   -3.5721   -0.2496 N   0  0  0  0  0  0  0  0  0  0  0  0
   -2.7418   -3.4572    0.7631 C   0  0  0  0  0  0  0  0  0  0  0  0
   -1.8568   -4.4609    1.0760 C   0  0  0  0  0  0  0  0  0  0  0  0
   -0.9716   -4.3280    2.1080 C   0  0  0  0  0  0  0  0  0  0  0  0
   -0.9859   -3.1554    2.8344 C   0  0  0  0  0  0  0  0  0  0  0  0
   -1.8551   -2.1444    2.5433 C   0  0  0  0  0  0  0  0  0  0  0  0
   -2.7494   -2.2883    1.4948 C   0  0  0  0  0  0  0  0  0  0  0  0
   -5.4417   -2.7657   -1.6915 C   0  0  0  0  0  0  0  0  0  0  0  0
   -5.8600   -1.5194   -2.3908 C   0  0  0  0  0  0  0  0  0  0  0  0
   -5.3543   -0.2459   -1.7726 C   0  0  0  0  0  0  0  0  0  0  0  0
   -5.4749   -0.3639   -0.2509 C   0  0  0  0  0  0  0  0  0  0  0  0
  1  2  1  0  0  0
  2 27  1  0  0  0
 27 28  2  0  0  0
 27 29  1  0  0  0
 29 31  1  0  0  0
 31 32  1  0  0  0
 32 33  1  0  0  0
 33 34  1  0  0  0
 34 35  1  0  0  0
 35 36  1  0  0  0
 36 37  1  0  0  0
 37 39  1  0  0  0
 39 40  2  0  0  0
 40 41  1  0  0  0
 41 42  2  0  0  0
 42 43  1  0  0  0
 43 44  2  0  0  0
 44 45  1  0  0  0
 45 46  2  0  0  0
 46 47  1  0  0  0
 47 48  2  0  0  0
 41 49  1  0  0  0
 49 50  1  0  0  0
 50 51  1  0  0  0
 51 52  1  0  0  0
  2  3  1  0  0  0
  3  4  2  0  0  0
  4  5  1  0  0  0
  5  6  2  0  0  0
  6 10  1  0  0  0
 10 11  2  0  0  0
 11 12  1  0  0  0
 12 13  2  0  0  0
 13 16  1  0  0  0
 16 17  1  0  0  0
 17 18  1  0  0  0
 18 19  1  0  0  0
 19 20  1  0  0  0
 20 21  1  0  0  0
 21 22  1  0  0  0
 22 23  1  0  0  0
 23 24  1  0  0  0
 24 25  2  0  0  0
 24 26  1  0  0  0
 13 14  1  0  0  0
 14 15  2  0  0  0
  6  7  1  0  0  0
  7  8  1  0  0  0
  7  9  2  0  0  0
 48 39  1  0  0  0
  9  3  1  0  0  0
 52 40  1  0  0  0
 15 10  1  0  0  0
 48 43  1  0  0  0
 29 30  1  0  0  0
 37 38  1  0  0  0
M  CHG 1  24   1
M  CHG 1  26  -1
M  END
> <minimizedAffinity>
-7.71513

> <CNNscore>
0.2395915389

> <CNNaffinity>
7.0672483444

> <CNN_VS>
1.6932529211

> <CNNaffinity_variance>
0.1355023235

$$$$
[H]OC(=O)[C@@]([H])(N([H])[H])C([H])([H])OP(=O)(O[H])O[C@]1([H])C([H])([H])C([H])([H])C([H])([H])O[C@]1([H])C([H])([H])OC(=O)C([H])([H])C([H])([H])c1c([H])c([H])c([H])c([H])c1OC([H])([H])c1c([H])c([H])c([H])c(Oc2c([H])c([H])c(C([H])([H])[H])c([H])c2[H])c1[H]


 49 52  0  0  0  0  0  0  0  0999 V2000
   -5.1399   -6.4364    6.5286 C   0  0  0  0  0  0  0  0  0  0  0  0
   -5.8853   -6.3790    5.5369 O   0  0  0  0  0  0  0  0  0  0  0  0
   -3.8807   -5.7984    6.4269 O   0  0  0  0  0  0  0  0  0  0  0  0
   -3.5392   -4.8635    5.5016 C   0  0  0  0  0  0  0  0  0  0  0  0
   -3.8622   -3.4219    5.7547 C   0  0  0  0  0  0  0  0  0  0  0  0
   -3.0902   -2.8442    6.7275 O   0  0  0  0  0  0  0  0  0  0  0  0
   -2.7767   -1.5193    6.5538 C   0  0  0  0  0  0  0  0  0  0  0  0
   -3.8327   -0.6796    5.9083 C   0  0  0  0  0  0  0  0  0  0  0  0
   -4.5016   -1.3150    4.7414 C   0  0  0  0  0  0  0  0  0  0  0  0
   -3.8090   -2.6325    4.4402 C   0  0  0  0  0  0  0  0  0  0  0  0
   -2.5540   -2.4722    3.9334 O   0  0  0  0  0  0  0  0  0  0  0  0
   -2.3099   -3.0375    2.3837 P   0  0  0  0  0  0  0  0  0  0  0  0
   -1.1920   -2.3788    1.6455 O   0  0  0  0  0  0  0  0  0  0  0  0
   -1.9631   -4.7149    2.3815 O   0  0  0  0  0  0  0  0  0  0  0  0
   -2.7932   -5.2124    2.3247 H   0  0  0  0  0  0  0  0  0  0  0  0
   -3.7856   -2.8701    1.5462 O   0  0  0  0  0  0  0  0  0  0  0  0
   -3.8518   -1.6766    0.8323 C   0  0  0  0  0  0  0  0  0  0  0  0
   -4.4501   -2.0295   -0.5206 C   0  0  0  0  0  0  0  0  0  0  0  0
   -5.4345   -3.0554   -0.3216 N   0  0  0  0  0  0  0  0  0  0  0  0
   -6.3430   -2.6948   -0.0225 H   0  0  0  0  0  0  0  0  0  0  0  0
   -5.4473   -3.7855   -1.0454 H   0  0  0  0  0  0  0  0  0  0  0  0
   -3.4469   -2.3488   -1.5404 C   0  0  0  0  0  0  0  0  0  0  0  0
   -3.7740   -2.5831   -2.7240 O   0  0  0  0  0  0  0  0  0  0  0  0
   -2.1070   -2.3974   -1.2068 O   0  0  0  0  0  0  0  0  0  0  0  0
   -1.5300   -1.6375   -0.9334 H   0  0  0  0  0  0  0  0  0  0  0  0
   -5.4784   -7.1201    7.7723 C   0  0  0  0  0  0  0  0  0  0  0  0
   -6.8167   -6.9489    8.3620 C   0  0  0  0  0  0  0  0  0  0  0  0
   -9.1897   -7.7436    7.9950 C   0  0  0  0  0  0  0  0  0  0  0  0
  -10.0221   -8.7491    7.5843 C   0  0  0  0  0  0  0  0  0  0  0  0
   -9.5564  -10.0251    7.2411 C   0  0  0  0  0  0  0  0  0  0  0  0
   -8.2042  -10.2522    7.3281 C   0  0  0  0  0  0  0  0  0  0  0  0
   -7.3495   -9.2626    7.7333 C   0  0  0  0  0  0  0  0  0  0  0  0
   -7.8222   -8.0063    8.0675 C   0  0  0  0  0  0  0  0  0  0  0  0
   -9.6655   -6.5253    8.3353 O   0  0  0  0  0  0  0  0  0  0  0  0
  -10.6247   -6.0957    9.2109 C   0  0  0  0  0  0  0  0  0  0  0  0
  -13.7688   -7.5356    7.6597 C   0  0  0  0  0  0  0  0  0  0  0  0
  -14.5406   -7.8600    8.7784 C   0  0  0  0  0  0  0  0  0  0  0  0
  -13.9849   -7.5829   10.0035 C   0  0  0  0  0  0  0  0  0  0  0  0
  -12.7380   -7.0180   10.1318 C   0  0  0  0  0  0  0  0  0  0  0  0
  -11.9913   -6.7063    9.0061 C   0  0  0  0  0  0  0  0  0  0  0  0
  -12.5227   -6.9719    7.7791 C   0  0  0  0  0  0  0  0  0  0  0  0
  -14.3433   -7.8158    6.4310 O   0  0  0  0  0  0  0  0  0  0  0  0
  -18.6543   -5.0559    4.1423 C   0  0  0  0  0  0  0  0  0  0  0  0
  -17.5151   -5.7750    4.7459 C   0  0  0  0  0  0  0  0  0  0  0  0
  -16.2572   -5.1875    4.7659 C   0  0  0  0  0  0  0  0  0  0  0  0
  -15.2050   -5.8958    5.3410 C   0  0  0  0  0  0  0  0  0  0  0  0
  -15.3822   -7.1438    5.8793 C   0  0  0  0  0  0  0  0  0  0  0  0
  -16.6560   -7.7113    5.8466 C   0  0  0  0  0  0  0  0  0  0  0  0
  -17.7181   -7.0419    5.2880 C   0  0  0  0  0  0  0  0  0  0  0  0
 43 44  1  0  0  0
 44 45  2  0  0  0
 45 46  1  0  0  0
 46 47  2  0  0  0
 47 42  1  0  0  0
 42 36  1  0  0  0
 36 37  2  0  0  0
 37 38  1  0  0  0
 38 39  2  0  0  0
 39 40  1  0  0  0
 40 35  1  0  0  0
 35 34  1  0  0  0
 34 28  1  0  0  0
 28 29  2  0  0  0
 29 30  1  0  0  0
 30 31  2  0  0  0
 31 32  1  0  0  0
 32 33  2  0  0  0
 33 27  1  0  0  0
 27 26  1  0  0  0
 26  1  1  0  0  0
  1  2  2  0  0  0
  1  3  1  0  0  0
  3  4  1  0  0  0
  4  5  1  0  0  0
  5  6  1  0  0  0
  6  7  1  0  0  0
  7  8  1  0  0  0
  8  9  1  0  0  0
  9 10  1  0  0  0
 10 11  1  0  0  0
 11 12  1  0  0  0
 12 13  2  0  0  0
 12 14  1  0  0  0
 12 16  1  0  0  0
 16 17  1  0  0  0
 17 18  1  0  0  0
 18 19  1  0  0  0
 18 22  1  0  0  0
 22 23  2  0  0  0
 22 24  1  0  0  0
 40 41  2  0  0  0
 47 48  1  0  0  0
 48 49  2  0  0  0
 49 44  1  0  0  0
 41 36  1  0  0  0
 33 28  1  0  0  0
 10  5  1  0  0  0
 14 15  1  0  0  0
 19 20  1  0  0  0
 19 21  1  0  0  0
 24 25  1  0  0  0
M  END
> <minimizedAffinity>
-8.45407

> <CNNscore>
0.4642548263

> <CNNaffinity>
6.5843477249

> <CNN_VS>
3.0568151474

> <CNNaffinity_variance>
0.3345195651

$$$$
[H]OC(=O)[C@@]([H])(N([H])[H])C([H])([H])OP(=O)(O[H])O[C@]1([H])C([H])([H])C([H])([H])C([H])([H])O[C@]1([H])C([H])([H])OC(=O)C([H])([H])C([H])([H])c1c([H])c([H])c([H])c([H])c1OC([H])([H])c1c([H])c([H])c([H])c(Oc2c([H])c([H])c(C([H])([H])[H])c([H])c2[H])c1[H]


 49 52  0  0  0  0  0  0  0  0999 V2000
   -4.5092   -6.3402    6.2092 C   0  0  0  0  0  0  0  0  0  0  0  0
   -3.7884   -7.2723    6.6016 O   0  0  0  0  0  0  0  0  0  0  0  0
   -3.8577   -5.1797    5.7278 O   0  0  0  0  0  0  0  0  0  0  0  0
   -3.5416   -4.0845    6.4677 C   0  0  0  0  0  0  0  0  0  0  0  0
   -3.2934   -2.7758    5.7805 C   0  0  0  0  0  0  0  0  0  0  0  0
   -4.4350   -2.1455    5.3612 O   0  0  0  0  0  0  0  0  0  0  0  0
   -4.4293   -0.7738    5.4076 C   0  0  0  0  0  0  0  0  0  0  0  0
   -3.1185   -0.1179    5.1101 C   0  0  0  0  0  0  0  0  0  0  0  0
   -1.9429   -0.7633    5.7536 C   0  0  0  0  0  0  0  0  0  0  0  0
   -2.4351   -1.8685    6.6715 C   0  0  0  0  0  0  0  0  0  0  0  0
   -3.0789   -1.3974    7.7766 O   0  0  0  0  0  0  0  0  0  0  0  0
   -2.1103   -0.7607    8.9754 P   0  0  0  0  0  0  0  0  0  0  0  0
   -0.7662   -1.3983    9.0992 O   0  0  0  0  0  0  0  0  0  0  0  0
   -1.8272    0.9098    8.7238 O   0  0  0  0  0  0  0  0  0  0  0  0
   -2.5276    1.4210    9.1572 H   0  0  0  0  0  0  0  0  0  0  0  0
   -2.9804   -0.8663   10.4379 O   0  0  0  0  0  0  0  0  0  0  0  0
   -3.4441    0.3756   10.8638 C   0  0  0  0  0  0  0  0  0  0  0  0
   -2.6778    0.6951   12.1380 C   0  0  0  0  0  0  0  0  0  0  0  0
   -1.6092    1.5941   11.8049 N   0  0  0  0  0  0  0  0  0  0  0  0
   -1.9032    2.5713   11.7458 H   0  0  0  0  0  0  0  0  0  0  0  0
   -0.7242    1.4110   12.2954 H   0  0  0  0  0  0  0  0  0  0  0  0
   -2.2528   -0.4948   12.8809 C   0  0  0  0  0  0  0  0  0  0  0  0
   -2.9322   -0.9479   13.8274 O   0  0  0  0  0  0  0  0  0  0  0  0
   -1.0800   -1.1430   12.5442 O   0  0  0  0  0  0  0  0  0  0  0  0
   -0.8921   -1.6455   11.7092 H   0  0  0  0  0  0  0  0  0  0  0  0
   -5.9679   -6.3681    6.2222 C   0  0  0  0  0  0  0  0  0  0  0  0
   -6.6855   -6.5843    7.4897 C   0  0  0  0  0  0  0  0  0  0  0  0
   -8.9295   -7.7269    7.7278 C   0  0  0  0  0  0  0  0  0  0  0  0
   -9.6479   -8.8897    7.6618 C   0  0  0  0  0  0  0  0  0  0  0  0
   -9.0490  -10.1394    7.4560 C   0  0  0  0  0  0  0  0  0  0  0  0
   -7.6825  -10.1736    7.3174 C   0  0  0  0  0  0  0  0  0  0  0  0
   -6.9407   -9.0245    7.3765 C   0  0  0  0  0  0  0  0  0  0  0  0
   -7.5448   -7.7966    7.5782 C   0  0  0  0  0  0  0  0  0  0  0  0
   -9.5295   -6.5352    7.9425 O   0  0  0  0  0  0  0  0  0  0  0  0
  -10.2973   -6.0323    8.9568 C   0  0  0  0  0  0  0  0  0  0  0  0
  -13.6660   -7.4994    8.0269 C   0  0  0  0  0  0  0  0  0  0  0  0
  -14.3316   -7.5390    9.2548 C   0  0  0  0  0  0  0  0  0  0  0  0
  -13.6337   -7.0723   10.3417 C   0  0  0  0  0  0  0  0  0  0  0  0
  -12.3499   -6.5914   10.2371 C   0  0  0  0  0  0  0  0  0  0  0  0
  -11.7106   -6.5636    9.0073 C   0  0  0  0  0  0  0  0  0  0  0  0
  -12.3840   -7.0214    7.9138 C   0  0  0  0  0  0  0  0  0  0  0  0
  -14.3831   -7.9684    6.9387 O   0  0  0  0  0  0  0  0  0  0  0  0
  -18.2529   -5.0792    4.0897 C   0  0  0  0  0  0  0  0  0  0  0  0
  -17.2293   -5.8326    4.8407 C   0  0  0  0  0  0  0  0  0  0  0  0
  -15.9356   -5.3376    4.9358 C   0  0  0  0  0  0  0  0  0  0  0  0
  -14.9953   -6.0760    5.6499 C   0  0  0  0  0  0  0  0  0  0  0  0
  -15.3151   -7.2653    6.2515 C   0  0  0  0  0  0  0  0  0  0  0  0
  -16.6220   -7.7403    6.1409 C   0  0  0  0  0  0  0  0  0  0  0  0
  -17.5766   -7.0386    5.4449 C   0  0  0  0  0  0  0  0  0  0  0  0
 43 44  1  0  0  0
 44 45  2  0  0  0
 45 46  1  0  0  0
 46 47  2  0  0  0
 47 42  1  0  0  0
 42 36  1  0  0  0
 36 37  2  0  0  0
 37 38  1  0  0  0
 38 39  2  0  0  0
 39 40  1  0  0  0
 40 35  1  0  0  0
 35 34  1  0  0  0
 34 28  1  0  0  0
 28 29  2  0  0  0
 29 30  1  0  0  0
 30 31  2  0  0  0
 31 32  1  0  0  0
 32 33  2  0  0  0
 33 27  1  0  0  0
 27 26  1  0  0  0
 26  1  1  0  0  0
  1  2  2  0  0  0
  1  3  1  0  0  0
  3  4  1  0  0  0
  4  5  1  0  0  0
  5  6  1  0  0  0
  6  7  1  0  0  0
  7  8  1  0  0  0
  8  9  1  0  0  0
  9 10  1  0  0  0
 10 11  1  0  0  0
 11 12  1  0  0  0
 12 13  2  0  0  0
 12 14  1  0  0  0
 12 16  1  0  0  0
 16 17  1  0  0  0
 17 18  1  0  0  0
 18 19  1  0  0  0
 18 22  1  0  0  0
 22 23  2  0  0  0
 22 24  1  0  0  0
 40 41  2  0  0  0
 47 48  1  0  0  0
 48 49  2  0  0  0
 49 44  1  0  0  0
 41 36  1  0  0  0
 33 28  1  0  0  0
 10  5  1  0  0  0
 14 15  1  0  0  0
 19 20  1  0  0  0
 19 21  1  0  0  0
 24 25  1  0  0  0
M  END
> <minimizedAffinity>
-7.37666

> <CNNscore>
0.3708370030

> <CNNaffinity>
6.5166220665

> <CNN_VS>
2.4166045189

> <CNNaffinity_variance>
0.5279476047

$$$$
[H]OC(=O)[C@@]([H])(N([H])[H])C([H])([H])OP(=O)(O[H])O[C@]1([H])C([H])([H])C([H])([H])C([H])([H])O[C@]1([H])C([H])([H])OC(=O)C([H])([H])C([H])([H])c1c([H])c([H])c([H])c([H])c1OC([H])([H])c1c([H])c([H])c([H])c(Oc2c([H])c([H])c(C([H])([H])[H])c([H])c2[H])c1[H]


 49 52  0  0  0  0  0  0  0  0999 V2000
   -6.0223   -6.9623    6.4732 C   0  0  0  0  0  0  0  0  0  0  0  0
   -6.6533   -6.5610    5.4816 O   0  0  0  0  0  0  0  0  0  0  0  0
   -5.0129   -7.9284    6.2479 O   0  0  0  0  0  0  0  0  0  0  0  0
   -3.8168   -7.9885    6.8901 C   0  0  0  0  0  0  0  0  0  0  0  0
   -2.5648   -8.2188    6.0990 C   0  0  0  0  0  0  0  0  0  0  0  0
   -1.7345   -7.1305    6.0476 O   0  0  0  0  0  0  0  0  0  0  0  0
   -0.3868   -7.3892    6.0252 C   0  0  0  0  0  0  0  0  0  0  0  0
    0.0274   -8.6207    5.2844 C   0  0  0  0  0  0  0  0  0  0  0  0
   -0.8269   -9.8119    5.5368 C   0  0  0  0  0  0  0  0  0  0  0  0
   -1.8380   -9.4670    6.6161 C   0  0  0  0  0  0  0  0  0  0  0  0
   -1.2739   -9.3168    7.8477 O   0  0  0  0  0  0  0  0  0  0  0  0
   -0.7778  -10.7177    8.6042 P   0  0  0  0  0  0  0  0  0  0  0  0
    0.6217  -11.1348    8.2946 O   0  0  0  0  0  0  0  0  0  0  0  0
   -0.8680  -10.5691   10.3082 O   0  0  0  0  0  0  0  0  0  0  0  0
   -1.7500  -10.8396   10.6060 H   0  0  0  0  0  0  0  0  0  0  0  0
   -1.8922  -11.9391    8.1877 O   0  0  0  0  0  0  0  0  0  0  0  0
   -1.2640  -13.1496    7.9074 C   0  0  0  0  0  0  0  0  0  0  0  0
   -1.3736  -13.9826    9.1751 C   0  0  0  0  0  0  0  0  0  0  0  0
   -1.2254  -15.3650    8.8174 N   0  0  0  0  0  0  0  0  0  0  0  0
   -0.2509  -15.6574    8.7187 H   0  0  0  0  0  0  0  0  0  0  0  0
   -1.8480  -16.0092    9.3221 H   0  0  0  0  0  0  0  0  0  0  0  0
   -2.5727  -13.6916    9.9663 C   0  0  0  0  0  0  0  0  0  0  0  0
   -2.4961  -13.1344   11.0828 O   0  0  0  0  0  0  0  0  0  0  0  0
   -3.8225  -14.0328    9.4863 O   0  0  0  0  0  0  0  0  0  0  0  0
   -4.2912  -13.6405    8.7044 H   0  0  0  0  0  0  0  0  0  0  0  0
   -6.2625   -6.5081    7.8388 C   0  0  0  0  0  0  0  0  0  0  0  0
   -6.8546   -7.4284    8.8239 C   0  0  0  0  0  0  0  0  0  0  0  0
   -9.1939   -7.9478    8.0141 C   0  0  0  0  0  0  0  0  0  0  0  0
  -10.0434   -8.8511    7.4356 C   0  0  0  0  0  0  0  0  0  0  0  0
   -9.6674  -10.1707    7.1524 C   0  0  0  0  0  0  0  0  0  0  0  0
   -8.3876  -10.5500    7.4777 C   0  0  0  0  0  0  0  0  0  0  0  0
   -7.5169   -9.6648    8.0544 C   0  0  0  0  0  0  0  0  0  0  0  0
   -7.9003   -8.3641    8.3271 C   0  0  0  0  0  0  0  0  0  0  0  0
   -9.5856   -6.6844    8.2912 O   0  0  0  0  0  0  0  0  0  0  0  0
  -10.4974   -6.1457    9.1572 C   0  0  0  0  0  0  0  0  0  0  0  0
  -13.7430   -7.5622    7.8063 C   0  0  0  0  0  0  0  0  0  0  0  0
  -14.5013   -7.7477    8.9651 C   0  0  0  0  0  0  0  0  0  0  0  0
  -13.9031   -7.3903   10.1487 C   0  0  0  0  0  0  0  0  0  0  0  0
  -12.6283   -6.8780   10.2002 C   0  0  0  0  0  0  0  0  0  0  0  0
  -11.8958   -6.7045    9.0361 C   0  0  0  0  0  0  0  0  0  0  0  0
  -12.4692   -7.0519    7.8490 C   0  0  0  0  0  0  0  0  0  0  0  0
  -14.3601   -7.9222    6.6197 O   0  0  0  0  0  0  0  0  0  0  0  0
  -18.4914   -5.0636    4.1296 C   0  0  0  0  0  0  0  0  0  0  0  0
  -17.4083   -5.8235    4.7843 C   0  0  0  0  0  0  0  0  0  0  0  0
  -17.6793   -7.0553    5.3649 C   0  0  0  0  0  0  0  0  0  0  0  0
  -16.6340   -7.7432    5.9760 C   0  0  0  0  0  0  0  0  0  0  0  0
  -15.3611   -7.2366    6.0169 C   0  0  0  0  0  0  0  0  0  0  0  0
  -15.1155   -5.9972    5.4259 C   0  0  0  0  0  0  0  0  0  0  0  0
  -16.1220   -5.2901    4.8133 C   0  0  0  0  0  0  0  0  0  0  0  0
 43 44  1  0  0  0
 44 45  2  0  0  0
 45 46  1  0  0  0
 46 47  2  0  0  0
 47 42  1  0  0  0
 42 36  1  0  0  0
 36 37  2  0  0  0
 37 38  1  0  0  0
 38 39  2  0  0  0
 39 40  1  0  0  0
 40 35  1  0  0  0
 35 34  1  0  0  0
 34 28  1  0  0  0
 28 29  2  0  0  0
 29 30  1  0  0  0
 30 31  2  0  0  0
 31 32  1  0  0  0
 32 33  2  0  0  0
 33 27  1  0  0  0
 27 26  1  0  0  0
 26  1  1  0  0  0
  1  2  2  0  0  0
  1  3  1  0  0  0
  3  4  1  0  0  0
  4  5  1  0  0  0
  5  6  1  0  0  0
  6  7  1  0  0  0
  7  8  1  0  0  0
  8  9  1  0  0  0
  9 10  1  0  0  0
 10 11  1  0  0  0
 11 12  1  0  0  0
 12 13  2  0  0  0
 12 14  1  0  0  0
 12 16  1  0  0  0
 16 17  1  0  0  0
 17 18  1  0  0  0
 18 19  1  0  0  0
 18 22  1  0  0  0
 22 23  2  0  0  0
 22 24  1  0  0  0
 40 41  2  0  0  0
 47 48  1  0  0  0
 48 49  2  0  0  0
 49 44  1  0  0  0
 41 36  1  0  0  0
 33 28  1  0  0  0
 10  5  1  0  0  0
 14 15  1  0  0  0
 19 20  1  0  0  0
 19 21  1  0  0  0
 24 25  1  0  0  0
M  END
> <minimizedAffinity>
-8.60082

> <CNNscore>
0.3576073945

> <CNNaffinity>
6.5055780411

> <CNN_VS>
2.3264427185

> <CNNaffinity_variance>
0.2567464411

$$$$
[H]OC(=O)[C@@]([H])(N([H])[H])C([H])([H])OP(=O)(O[H])O[C@]1([H])C([H])([H])C([H])([H])C([H])([H])O[C@]1([H])C([H])([H])OC(=O)C([H])([H])C([H])([H])c1c([H])c([H])c([H])c([H])c1OC([H])([H])c1c([H])c([H])c([H])c(Oc2c([H])c([H])c(C([H])([H])[H])c([H])c2[H])c1[H]


 49 52  0  0  0  0  0  0  0  0999 V2000
   -7.6185   -7.6784    7.5053 C   0  0  0  0  0  0  0  0  0  0  0  0
   -7.4220   -8.8675    7.8052 O   0  0  0  0  0  0  0  0  0  0  0  0
   -8.9569   -7.2867    7.2642 O   0  0  0  0  0  0  0  0  0  0  0  0
  -10.0593   -8.0440    7.5049 C   0  0  0  0  0  0  0  0  0  0  0  0
  -10.9275   -7.7297    8.6856 C   0  0  0  0  0  0  0  0  0  0  0  0
  -10.8530   -6.4248    9.0957 O   0  0  0  0  0  0  0  0  0  0  0  0
  -12.0062   -5.8735    9.5956 C   0  0  0  0  0  0  0  0  0  0  0  0
  -12.8888   -6.8006   10.3692 C   0  0  0  0  0  0  0  0  0  0  0  0
  -13.0609   -8.1458    9.7579 C   0  0  0  0  0  0  0  0  0  0  0  0
  -12.3735   -8.1576    8.4038 C   0  0  0  0  0  0  0  0  0  0  0  0
  -13.0128   -7.3932    7.4739 O   0  0  0  0  0  0  0  0  0  0  0  0
  -13.9739   -8.2122    6.3848 P   0  0  0  0  0  0  0  0  0  0  0  0
  -13.3676   -9.4571    5.8270 O   0  0  0  0  0  0  0  0  0  0  0  0
  -15.4600   -8.6800    7.0966 O   0  0  0  0  0  0  0  0  0  0  0  0
  -16.1078   -7.9683    6.9800 H   0  0  0  0  0  0  0  0  0  0  0  0
  -14.3811   -7.1151    5.1449 O   0  0  0  0  0  0  0  0  0  0  0  0
  -15.6610   -7.3394    4.6447 C   0  0  0  0  0  0  0  0  0  0  0  0
  -16.1856   -5.9799    4.2095 C   0  0  0  0  0  0  0  0  0  0  0  0
  -15.3447   -4.9693    4.7861 N   0  0  0  0  0  0  0  0  0  0  0  0
  -14.4883   -4.8005    4.2541 H   0  0  0  0  0  0  0  0  0  0  0  0
  -15.8437   -4.1373    5.1268 H   0  0  0  0  0  0  0  0  0  0  0  0
  -17.6158   -5.7923    4.4698 C   0  0  0  0  0  0  0  0  0  0  0  0
  -18.0320   -4.8337    5.1559 O   0  0  0  0  0  0  0  0  0  0  0  0
  -18.5391   -6.6824    3.9557 O   0  0  0  0  0  0  0  0  0  0  0  0
  -18.7711   -6.8196    3.0006 H   0  0  0  0  0  0  0  0  0  0  0  0
   -6.5642   -6.6774    7.3812 C   0  0  0  0  0  0  0  0  0  0  0  0
   -5.1690   -7.0418    7.6787 C   0  0  0  0  0  0  0  0  0  0  0  0
   -3.3316   -5.3479    7.2878 C   0  0  0  0  0  0  0  0  0  0  0  0
   -2.6459   -4.2581    7.7509 C   0  0  0  0  0  0  0  0  0  0  0  0
   -2.8444   -3.7265    9.0318 C   0  0  0  0  0  0  0  0  0  0  0  0
   -3.7712   -4.3418    9.8381 C   0  0  0  0  0  0  0  0  0  0  0  0
   -4.4730   -5.4318    9.3979 C   0  0  0  0  0  0  0  0  0  0  0  0
   -4.2687   -5.9455    8.1300 C   0  0  0  0  0  0  0  0  0  0  0  0
   -3.1109   -5.8511    6.0532 O   0  0  0  0  0  0  0  0  0  0  0  0
   -2.0981   -6.5843    5.4981 C   0  0  0  0  0  0  0  0  0  0  0  0
   -1.5440   -4.5489    2.3493 C   0  0  0  0  0  0  0  0  0  0  0  0
   -0.7573   -5.4004    1.5693 C   0  0  0  0  0  0  0  0  0  0  0  0
   -0.4463   -6.6189    2.1215 C   0  0  0  0  0  0  0  0  0  0  0  0
   -0.8802   -6.9889    3.3725 C   0  0  0  0  0  0  0  0  0  0  0  0
   -1.6590   -6.1254    4.1273 C   0  0  0  0  0  0  0  0  0  0  0  0
   -1.9809   -4.9103    3.5996 C   0  0  0  0  0  0  0  0  0  0  0  0
   -1.8541   -3.3256    1.7784 O   0  0  0  0  0  0  0  0  0  0  0  0
   -5.2726   -2.5733   -2.6020 C   0  0  0  0  0  0  0  0  0  0  0  0
   -4.3659   -2.7683   -1.4535 C   0  0  0  0  0  0  0  0  0  0  0  0
   -2.9970   -2.8718   -1.6613 C   0  0  0  0  0  0  0  0  0  0  0  0
   -2.1719   -3.0580   -0.5550 C   0  0  0  0  0  0  0  0  0  0  0  0
   -2.6756   -3.1411    0.7170 C   0  0  0  0  0  0  0  0  0  0  0  0
   -4.0545   -3.0339    0.8984 C   0  0  0  0  0  0  0  0  0  0  0  0
   -4.8994   -2.8491   -0.1694 C   0  0  0  0  0  0  0  0  0  0  0  0
 43 44  1  0  0  0
 44 45  2  0  0  0
 45 46  1  0  0  0
 46 47  2  0  0  0
 47 42  1  0  0  0
 42 36  1  0  0  0
 36 37  2  0  0  0
 37 38  1  0  0  0
 38 39  2  0  0  0
 39 40  1  0  0  0
 40 35  1  0  0  0
 35 34  1  0  0  0
 34 28  1  0  0  0
 28 29  2  0  0  0
 29 30  1  0  0  0
 30 31  2  0  0  0
 31 32  1  0  0  0
 32 33  2  0  0  0
 33 27  1  0  0  0
 27 26  1  0  0  0
 26  1  1  0  0  0
  1  2  2  0  0  0
  1  3  1  0  0  0
  3  4  1  0  0  0
  4  5  1  0  0  0
  5  6  1  0  0  0
  6  7  1  0  0  0
  7  8  1  0  0  0
  8  9  1  0  0  0
  9 10  1  0  0  0
 10 11  1  0  0  0
 11 12  1  0  0  0
 12 13  2  0  0  0
 12 14  1  0  0  0
 12 16  1  0  0  0
 16 17  1  0  0  0
 17 18  1  0  0  0
 18 19  1  0  0  0
 18 22  1  0  0  0
 22 23  2  0  0  0
 22 24  1  0  0  0
 40 41  2  0  0  0
 47 48  1  0  0  0
 48 49  2  0  0  0
 49 44  1  0  0  0
 41 36  1  0  0  0
 33 28  1  0  0  0
 10  5  1  0  0  0
 14 15  1  0  0  0
 19 20  1  0  0  0
 19 21  1  0  0  0
 24 25  1  0  0  0
M  END
> <minimizedAffinity>
-7.54049

> <CNNscore>
0.3349339366

> <CNNaffinity>
6.1621913910

> <CNN_VS>
2.0639269352

> <CNNaffinity_variance>
0.0982279554

$$$$
[H]OC(=O)[C@@]([H])(N([H])[H])C([H])([H])OP(=O)(O[H])O[C@]1([H])C([H])([H])C([H])([H])C([H])([H])O[C@]1([H])C([H])([H])OC(=O)C([H])([H])C([H])([H])c1c([H])c([H])c([H])c([H])c1OC([H])([H])c1c([H])c([H])c([H])c(Oc2c([H])c([H])c(C([H])([H])[H])c([H])c2[H])c1[H]


 49 52  0  0  0  0  0  0  0  0999 V2000
  -13.5359   -8.8902    6.3817 C   0  0  0  0  0  0  0  0  0  0  0  0
  -13.6159   -9.5216    5.3152 O   0  0  0  0  0  0  0  0  0  0  0  0
  -13.5168   -7.4778    6.2953 O   0  0  0  0  0  0  0  0  0  0  0  0
  -14.3900   -6.6351    6.9069 C   0  0  0  0  0  0  0  0  0  0  0  0
  -15.1971   -5.6805    6.0799 C   0  0  0  0  0  0  0  0  0  0  0  0
  -14.4840   -5.0759    5.0788 O   0  0  0  0  0  0  0  0  0  0  0  0
  -15.1649   -4.8092    3.9173 C   0  0  0  0  0  0  0  0  0  0  0  0
  -16.6032   -4.4318    4.0779 C   0  0  0  0  0  0  0  0  0  0  0  0
  -17.3547   -5.2594    5.0592 C   0  0  0  0  0  0  0  0  0  0  0  0
  -16.4524   -6.3807    5.5437 C   0  0  0  0  0  0  0  0  0  0  0  0
  -16.2049   -7.3183    4.5859 O   0  0  0  0  0  0  0  0  0  0  0  0
  -17.4855   -8.3039    4.1745 P   0  0  0  0  0  0  0  0  0  0  0  0
  -18.2665   -7.8526    2.9851 O   0  0  0  0  0  0  0  0  0  0  0  0
  -16.9575   -9.8956    3.8256 O   0  0  0  0  0  0  0  0  0  0  0  0
  -16.9499  -10.4159    4.6435 H   0  0  0  0  0  0  0  0  0  0  0  0
  -18.4818   -8.4396    5.5515 O   0  0  0  0  0  0  0  0  0  0  0  0
  -19.3398   -9.5334    5.4732 C   0  0  0  0  0  0  0  0  0  0  0  0
  -20.3598   -9.3470    6.5858 C   0  0  0  0  0  0  0  0  0  0  0  0
  -19.6753   -9.4506    7.8434 N   0  0  0  0  0  0  0  0  0  0  0  0
  -19.2163   -8.5831    8.1294 H   0  0  0  0  0  0  0  0  0  0  0  0
  -20.1916   -9.9578    8.5738 H   0  0  0  0  0  0  0  0  0  0  0  0
  -21.5281  -10.2236    6.4633 C   0  0  0  0  0  0  0  0  0  0  0  0
  -21.5464  -11.3599    6.9840 O   0  0  0  0  0  0  0  0  0  0  0  0
  -22.6419   -9.8041    5.7615 O   0  0  0  0  0  0  0  0  0  0  0  0
  -23.2656   -9.0730    6.0096 H   0  0  0  0  0  0  0  0  0  0  0  0
  -13.4539   -9.5109    7.6996 C   0  0  0  0  0  0  0  0  0  0  0  0
  -12.2371   -9.3472    8.5124 C   0  0  0  0  0  0  0  0  0  0  0  0
  -10.9133   -7.2217    8.8691 C   0  0  0  0  0  0  0  0  0  0  0  0
  -10.8735   -5.9583    9.3933 C   0  0  0  0  0  0  0  0  0  0  0  0
  -11.8975   -5.4388   10.1959 C   0  0  0  0  0  0  0  0  0  0  0  0
  -12.9761   -6.2500   10.4534 C   0  0  0  0  0  0  0  0  0  0  0  0
  -13.0419   -7.5169    9.9387 C   0  0  0  0  0  0  0  0  0  0  0  0
  -12.0248   -8.0170    9.1459 C   0  0  0  0  0  0  0  0  0  0  0  0
   -9.9052   -7.7052    8.1099 O   0  0  0  0  0  0  0  0  0  0  0  0
   -8.6309   -8.1207    8.3835 C   0  0  0  0  0  0  0  0  0  0  0  0
   -5.3647   -6.6418    7.1547 C   0  0  0  0  0  0  0  0  0  0  0  0
   -5.6602   -6.3055    5.8311 C   0  0  0  0  0  0  0  0  0  0  0  0
   -6.9356   -6.5813    5.4024 C   0  0  0  0  0  0  0  0  0  0  0  0
   -7.8764   -7.1569    6.2232 C   0  0  0  0  0  0  0  0  0  0  0  0
   -7.5581   -7.4823    7.5327 C   0  0  0  0  0  0  0  0  0  0  0  0
   -6.2981   -7.2173    7.9807 C   0  0  0  0  0  0  0  0  0  0  0  0
   -4.0768   -6.3539    7.5751 O   0  0  0  0  0  0  0  0  0  0  0  0
    0.0166  -10.1038    8.3638 C   0  0  0  0  0  0  0  0  0  0  0  0
   -1.0659   -9.1226    8.1522 C   0  0  0  0  0  0  0  0  0  0  0  0
   -2.0130   -9.3391    7.1603 C   0  0  0  0  0  0  0  0  0  0  0  0
   -3.0185   -8.3913    6.9871 C   0  0  0  0  0  0  0  0  0  0  0  0
   -3.0914   -7.2642    7.7636 C   0  0  0  0  0  0  0  0  0  0  0  0
   -2.1276   -7.0707    8.7532 C   0  0  0  0  0  0  0  0  0  0  0  0
   -1.1212   -7.9847    8.9535 C   0  0  0  0  0  0  0  0  0  0  0  0
 43 44  1  0  0  0
 44 45  2  0  0  0
 45 46  1  0  0  0
 46 47  2  0  0  0
 47 42  1  0  0  0
 42 36  1  0  0  0
 36 37  2  0  0  0
 37 38  1  0  0  0
 38 39  2  0  0  0
 39 40  1  0  0  0
 40 35  1  0  0  0
 35 34  1  0  0  0
 34 28  1  0  0  0
 28 29  2  0  0  0
 29 30  1  0  0  0
 30 31  2  0  0  0
 31 32  1  0  0  0
 32 33  2  0  0  0
 33 27  1  0  0  0
 27 26  1  0  0  0
 26  1  1  0  0  0
  1  2  2  0  0  0
  1  3  1  0  0  0
  3  4  1  0  0  0
  4  5  1  0  0  0
  5  6  1  0  0  0
  6  7  1  0  0  0
  7  8  1  0  0  0
  8  9  1  0  0  0
  9 10  1  0  0  0
 10 11  1  0  0  0
 11 12  1  0  0  0
 12 13  2  0  0  0
 12 14  1  0  0  0
 12 16  1  0  0  0
 16 17  1  0  0  0
 17 18  1  0  0  0
 18 19  1  0  0  0
 18 22  1  0  0  0
 22 23  2  0  0  0
 22 24  1  0  0  0
 40 41  2  0  0  0
 47 48  1  0  0  0
 48 49  2  0  0  0
 49 44  1  0  0  0
 41 36  1  0  0  0
 33 28  1  0  0  0
 10  5  1  0  0  0
 14 15  1  0  0  0
 19 20  1  0  0  0
 19 21  1  0  0  0
 24 25  1  0  0  0
M  END
> <minimizedAffinity>
-7.67748

> <CNNscore>
0.2854193449

> <CNNaffinity>
6.7346892357

> <CNN_VS>
1.9222105742

> <CNNaffinity_variance>
0.3084972203

$$$$
[H]OC(=O)[C@@]([H])(N([H])[H])C([H])([H])OP(=O)(O[H])O[C@]1([H])C([H])([H])C([H])([H])C([H])([H])O[C@]1([H])C([H])([H])OC(=O)C([H])([H])C([H])([H])c1c([H])c([H])c([H])c([H])c1OC([H])([H])c1c([H])c([H])c([H])c(Oc2c([H])c([H])c(C([H])([H])[H])c([H])c2[H])c1[H]


 49 52  0  0  0  0  0  0  0  0999 V2000
   -4.9620   -6.7528    6.4994 C   0  0  0  0  0  0  0  0  0  0  0  0
   -4.3262   -7.8039    6.6820 O   0  0  0  0  0  0  0  0  0  0  0  0
   -4.4334   -5.8337    5.5620 O   0  0  0  0  0  0  0  0  0  0  0  0
   -3.7871   -4.6772    5.8649 C   0  0  0  0  0  0  0  0  0  0  0  0
   -3.1465   -4.5201    7.2108 C   0  0  0  0  0  0  0  0  0  0  0  0
   -1.8669   -5.0047    7.2748 O   0  0  0  0  0  0  0  0  0  0  0  0
   -0.9965   -4.3287    8.0928 C   0  0  0  0  0  0  0  0  0  0  0  0
   -1.5892   -3.7517    9.3389 C   0  0  0  0  0  0  0  0  0  0  0  0
   -2.9038   -3.0826    9.1471 C   0  0  0  0  0  0  0  0  0  0  0  0
   -3.2257   -3.0563    7.6632 C   0  0  0  0  0  0  0  0  0  0  0  0
   -2.4249   -2.2081    6.9583 O   0  0  0  0  0  0  0  0  0  0  0  0
   -2.9797   -0.6446    6.7892 P   0  0  0  0  0  0  0  0  0  0  0  0
   -3.0138   -0.1405    5.3845 O   0  0  0  0  0  0  0  0  0  0  0  0
   -4.5732   -0.4818    7.3959 O   0  0  0  0  0  0  0  0  0  0  0  0
   -4.5347   -0.2596    8.3387 H   0  0  0  0  0  0  0  0  0  0  0  0
   -2.0061    0.3470    7.7771 O   0  0  0  0  0  0  0  0  0  0  0  0
   -2.7612    1.2489    8.5222 C   0  0  0  0  0  0  0  0  0  0  0  0
   -2.7270    2.5605    7.7533 C   0  0  0  0  0  0  0  0  0  0  0  0
   -3.8880    2.6167    6.9107 N   0  0  0  0  0  0  0  0  0  0  0  0
   -4.7291    2.9331    7.3978 H   0  0  0  0  0  0  0  0  0  0  0  0
   -3.7230    3.0137    5.9767 H   0  0  0  0  0  0  0  0  0  0  0  0
   -1.4623    2.7957    7.0505 C   0  0  0  0  0  0  0  0  0  0  0  0
   -0.5004    3.3614    7.6140 O   0  0  0  0  0  0  0  0  0  0  0  0
   -1.3104    2.3919    5.7380 O   0  0  0  0  0  0  0  0  0  0  0  0
   -1.2807    1.4601    5.3978 H   0  0  0  0  0  0  0  0  0  0  0  0
   -6.2009   -6.4114    7.1904 C   0  0  0  0  0  0  0  0  0  0  0  0
   -6.6657   -7.2411    8.3145 C   0  0  0  0  0  0  0  0  0  0  0  0
   -9.0108   -7.9118    7.6446 C   0  0  0  0  0  0  0  0  0  0  0  0
   -9.8611   -8.9106    7.2552 C   0  0  0  0  0  0  0  0  0  0  0  0
   -9.4801  -10.2583    7.2181 C   0  0  0  0  0  0  0  0  0  0  0  0
   -8.1943  -10.5651    7.5926 C   0  0  0  0  0  0  0  0  0  0  0  0
   -7.3226   -9.5845    7.9835 C   0  0  0  0  0  0  0  0  0  0  0  0
   -7.7111   -8.2573    8.0137 C   0  0  0  0  0  0  0  0  0  0  0  0
   -9.4073   -6.6206    7.6864 O   0  0  0  0  0  0  0  0  0  0  0  0
   -9.7953   -5.7828    8.6958 C   0  0  0  0  0  0  0  0  0  0  0  0
  -13.3074   -7.0957    9.2495 C   0  0  0  0  0  0  0  0  0  0  0  0
  -13.6402   -6.5616   10.4970 C   0  0  0  0  0  0  0  0  0  0  0  0
  -12.6837   -5.7832   11.1016 C   0  0  0  0  0  0  0  0  0  0  0  0
  -11.4627   -5.5379   10.5192 C   0  0  0  0  0  0  0  0  0  0  0  0
  -11.1560   -6.0805    9.2809 C   0  0  0  0  0  0  0  0  0  0  0  0
  -12.0903   -6.8563    8.6613 C   0  0  0  0  0  0  0  0  0  0  0  0
  -14.2827   -7.8746    8.6492 O   0  0  0  0  0  0  0  0  0  0  0  0
  -14.8891   -8.6113    3.1238 C   0  0  0  0  0  0  0  0  0  0  0  0
  -14.7370   -8.4130    4.5788 C   0  0  0  0  0  0  0  0  0  0  0  0
  -15.4251   -7.3879    5.2139 C   0  0  0  0  0  0  0  0  0  0  0  0
  -15.2558   -7.2285    6.5870 C   0  0  0  0  0  0  0  0  0  0  0  0
  -14.4347   -8.0502    7.3145 C   0  0  0  0  0  0  0  0  0  0  0  0
  -13.7550   -9.0725    6.6523 C   0  0  0  0  0  0  0  0  0  0  0  0
  -13.8980   -9.2604    5.2986 C   0  0  0  0  0  0  0  0  0  0  0  0
 43 44  1  0  0  0
 44 45  2  0  0  0
 45 46  1  0  0  0
 46 47  2  0  0  0
 47 42  1  0  0  0
 42 36  1  0  0  0
 36 37  2  0  0  0
 37 38  1  0  0  0
 38 39  2  0  0  0
 39 40  1  0  0  0
 40 35  1  0  0  0
 35 34  1  0  0  0
 34 28  1  0  0  0
 28 29  2  0  0  0
 29 30  1  0  0  0
 30 31  2  0  0  0
 31 32  1  0  0  0
 32 33  2  0  0  0
 33 27  1  0  0  0
 27 26  1  0  0  0
 26  1  1  0  0  0
  1  2  2  0  0  0
  1  3  1  0  0  0
  3  4  1  0  0  0
  4  5  1  0  0  0
  5  6  1  0  0  0
  6  7  1  0  0  0
  7  8  1  0  0  0
  8  9  1  0  0  0
  9 10  1  0  0  0
 10 11  1  0  0  0
 11 12  1  0  0  0
 12 13  2  0  0  0
 12 14  1  0  0  0
 12 16  1  0  0  0
 16 17  1  0  0  0
 17 18  1  0  0  0
 18 19  1  0  0  0
 18 22  1  0  0  0
 22 23  2  0  0  0
 22 24  1  0  0  0
 40 41  2  0  0  0
 47 48  1  0  0  0
 48 49  2  0  0  0
 49 44  1  0  0  0
 41 36  1  0  0  0
 33 28  1  0  0  0
 10  5  1  0  0  0
 14 15  1  0  0  0
 19 20  1  0  0  0
 19 21  1  0  0  0
 24 25  1  0  0  0
M  END
> <minimizedAffinity>
-6.77771

> <CNNscore>
0.2700028419

> <CNNaffinity>
6.4067621231

> <CNN_VS>
1.7298439741

> <CNNaffinity_variance>
0.4012542665

$$$$
[H]OC(=O)[C@@]([H])(N([H])[H])C([H])([H])OP(=O)(O[H])O[C@]1([H])C([H])([H])C([H])([H])C([H])([H])O[C@]1([H])C([H])([H])OC(=O)C([H])([H])C([H])([H])c1c([H])c([H])c([H])c([H])c1OC([H])([H])c1c([H])c([H])c([H])c(Oc2c([H])c([H])c(C([H])([H])[H])c([H])c2[H])c1[H]


 49 52  0  0  0  0  0  0  0  0999 V2000
  -13.4905   -9.5975    6.9258 C   0  0  0  0  0  0  0  0  0  0  0  0
  -13.8810  -10.6578    7.4415 O   0  0  0  0  0  0  0  0  0  0  0  0
  -14.4588   -8.8096    6.2591 O   0  0  0  0  0  0  0  0  0  0  0  0
  -15.2474   -7.8665    6.8381 C   0  0  0  0  0  0  0  0  0  0  0  0
  -15.2736   -6.4781    6.2739 C   0  0  0  0  0  0  0  0  0  0  0  0
  -14.1055   -6.1073    5.6620 O   0  0  0  0  0  0  0  0  0  0  0  0
  -14.2209   -5.2814    4.5719 C   0  0  0  0  0  0  0  0  0  0  0  0
  -15.3297   -4.2792    4.6289 C   0  0  0  0  0  0  0  0  0  0  0  0
  -16.6207   -4.8124    5.1402 C   0  0  0  0  0  0  0  0  0  0  0  0
  -16.4827   -6.3110    5.3445 C   0  0  0  0  0  0  0  0  0  0  0  0
  -16.3895   -7.0029    4.1739 O   0  0  0  0  0  0  0  0  0  0  0  0
  -17.5045   -8.2226    3.9509 P   0  0  0  0  0  0  0  0  0  0  0  0
  -18.4545   -8.0038    2.8204 O   0  0  0  0  0  0  0  0  0  0  0  0
  -16.7332   -9.7213    3.6457 O   0  0  0  0  0  0  0  0  0  0  0  0
  -16.5613  -10.1692    4.4882 H   0  0  0  0  0  0  0  0  0  0  0  0
  -18.3361   -8.4234    5.4257 O   0  0  0  0  0  0  0  0  0  0  0  0
  -19.2372   -9.4839    5.3803 C   0  0  0  0  0  0  0  0  0  0  0  0
  -20.2292   -9.2401    6.5070 C   0  0  0  0  0  0  0  0  0  0  0  0
  -19.4943   -9.1302    7.7354 N   0  0  0  0  0  0  0  0  0  0  0  0
  -19.1000   -8.2002    7.8917 H   0  0  0  0  0  0  0  0  0  0  0  0
  -19.9401   -9.5807    8.5451 H   0  0  0  0  0  0  0  0  0  0  0  0
  -21.3234  -10.2145    6.5461 C   0  0  0  0  0  0  0  0  0  0  0  0
  -21.2669  -11.2272    7.2769 O   0  0  0  0  0  0  0  0  0  0  0  0
  -22.4488  -10.0285    5.7665 O   0  0  0  0  0  0  0  0  0  0  0  0
  -23.1326   -9.3157    5.8626 H   0  0  0  0  0  0  0  0  0  0  0  0
  -12.1098   -9.1270    6.9601 C   0  0  0  0  0  0  0  0  0  0  0  0
  -11.4122   -8.9953    8.2500 C   0  0  0  0  0  0  0  0  0  0  0  0
  -10.7341   -6.7110    9.0985 C   0  0  0  0  0  0  0  0  0  0  0  0
  -11.1073   -5.5509    9.7208 C   0  0  0  0  0  0  0  0  0  0  0  0
  -12.3754   -5.3699   10.2883 C   0  0  0  0  0  0  0  0  0  0  0  0
  -13.2638   -6.4145   10.2038 C   0  0  0  0  0  0  0  0  0  0  0  0
  -12.9166   -7.5847    9.5839 C   0  0  0  0  0  0  0  0  0  0  0  0
  -11.6617   -7.7496    9.0259 C   0  0  0  0  0  0  0  0  0  0  0  0
   -9.4992   -6.8663    8.5721 O   0  0  0  0  0  0  0  0  0  0  0  0
   -8.9193   -6.4863    7.3928 C   0  0  0  0  0  0  0  0  0  0  0  0
   -5.1894   -7.1230    7.6097 C   0  0  0  0  0  0  0  0  0  0  0  0
   -4.9944   -8.1253    6.6559 C   0  0  0  0  0  0  0  0  0  0  0  0
   -6.1115   -8.5460    5.9767 C   0  0  0  0  0  0  0  0  0  0  0  0
   -7.3575   -8.0162    6.2158 C   0  0  0  0  0  0  0  0  0  0  0  0
   -7.5250   -7.0230    7.1684 C   0  0  0  0  0  0  0  0  0  0  0  0
   -6.4301   -6.5891    7.8551 C   0  0  0  0  0  0  0  0  0  0  0  0
   -4.0538   -6.7050    8.2837 O   0  0  0  0  0  0  0  0  0  0  0  0
   -3.0895   -1.4796   10.0740 C   0  0  0  0  0  0  0  0  0  0  0  0
   -3.3377   -2.8542    9.5962 C   0  0  0  0  0  0  0  0  0  0  0  0
   -3.0400   -3.1957    8.2837 C   0  0  0  0  0  0  0  0  0  0  0  0
   -3.2894   -4.5007    7.8666 C   0  0  0  0  0  0  0  0  0  0  0  0
   -3.8164   -5.4419    8.7122 C   0  0  0  0  0  0  0  0  0  0  0  0
   -4.1064   -5.0730   10.0258 C   0  0  0  0  0  0  0  0  0  0  0  0
   -3.8730   -3.7948   10.4729 C   0  0  0  0  0  0  0  0  0  0  0  0
 43 44  1  0  0  0
 44 45  2  0  0  0
 45 46  1  0  0  0
 46 47  2  0  0  0
 47 42  1  0  0  0
 42 36  1  0  0  0
 36 37  2  0  0  0
 37 38  1  0  0  0
 38 39  2  0  0  0
 39 40  1  0  0  0
 40 35  1  0  0  0
 35 34  1  0  0  0
 34 28  1  0  0  0
 28 29  2  0  0  0
 29 30  1  0  0  0
 30 31  2  0  0  0
 31 32  1  0  0  0
 32 33  2  0  0  0
 33 27  1  0  0  0
 27 26  1  0  0  0
 26  1  1  0  0  0
  1  2  2  0  0  0
  1  3  1  0  0  0
  3  4  1  0  0  0
  4  5  1  0  0  0
  5  6  1  0  0  0
  6  7  1  0  0  0
  7  8  1  0  0  0
  8  9  1  0  0  0
  9 10  1  0  0  0
 10 11  1  0  0  0
 11 12  1  0  0  0
 12 13  2  0  0  0
 12 14  1  0  0  0
 12 16  1  0  0  0
 16 17  1  0  0  0
 17 18  1  0  0  0
 18 19  1  0  0  0
 18 22  1  0  0  0
 22 23  2  0  0  0
 22 24  1  0  0  0
 40 41  2  0  0  0
 47 48  1  0  0  0
 48 49  2  0  0  0
 49 44  1  0  0  0
 41 36  1  0  0  0
 33 28  1  0  0  0
 10  5  1  0  0  0
 14 15  1  0  0  0
 19 20  1  0  0  0
 19 21  1  0  0  0
 24 25  1  0  0  0
M  END
> <minimizedAffinity>
-7.65279

> <CNNscore>
0.2663105428

> <CNNaffinity>
6.9271612167

> <CNN_VS>
1.8447760344

> <CNNaffinity_variance>
0.1817819625

$$$$
[H]OC(=O)[C@@]([H])(N([H])[H])C([H])([H])OP(=O)(O[H])O[C@]1([H])C([H])([H])C([H])([H])C([H])([H])O[C@]1([H])C([H])([H])OC(=O)C([H])([H])C([H])([H])c1c([H])c([H])c([H])c([H])c1OC([H])([H])c1c([H])c([H])c([H])c(Oc2c([H])c([H])c(C([H])([H])[H])c([H])c2[H])c1[H]


 49 52  0  0  0  0  0  0  0  0999 V2000
   -4.0281   -2.4226    4.5227 C   0  0  0  0  0  0  0  0  0  0  0  0
   -4.0736   -1.5325    5.3877 O   0  0  0  0  0  0  0  0  0  0  0  0
   -4.2480   -2.0300    3.1810 O   0  0  0  0  0  0  0  0  0  0  0  0
   -3.3105   -1.5148    2.3428 C   0  0  0  0  0  0  0  0  0  0  0  0
   -3.3833   -1.8196    0.8771 C   0  0  0  0  0  0  0  0  0  0  0  0
   -4.0902   -2.9552    0.5823 O   0  0  0  0  0  0  0  0  0  0  0  0
   -4.8063   -2.9439   -0.5885 C   0  0  0  0  0  0  0  0  0  0  0  0
   -4.1873   -2.1909   -1.7229 C   0  0  0  0  0  0  0  0  0  0  0  0
   -3.5973   -0.8784   -1.3462 C   0  0  0  0  0  0  0  0  0  0  0  0
   -3.9162   -0.6010    0.1124 C   0  0  0  0  0  0  0  0  0  0  0  0
   -5.2356   -0.3367    0.3294 O   0  0  0  0  0  0  0  0  0  0  0  0
   -5.6615    1.2744    0.3907 P   0  0  0  0  0  0  0  0  0  0  0  0
   -4.7062    2.1469    1.1353 O   0  0  0  0  0  0  0  0  0  0  0  0
   -5.7953    1.9419   -1.1811 O   0  0  0  0  0  0  0  0  0  0  0  0
   -6.7009    1.8183   -1.5043 H   0  0  0  0  0  0  0  0  0  0  0  0
   -7.2263    1.3585    1.0627 O   0  0  0  0  0  0  0  0  0  0  0  0
   -8.1185    2.0327    0.2331 C   0  0  0  0  0  0  0  0  0  0  0  0
   -9.3415    1.1363    0.1159 C   0  0  0  0  0  0  0  0  0  0  0  0
   -9.5236    0.4604    1.3692 N   0  0  0  0  0  0  0  0  0  0  0  0
  -10.0131    1.0237    2.0678 H   0  0  0  0  0  0  0  0  0  0  0  0
   -9.8129   -0.5231    1.2896 H   0  0  0  0  0  0  0  0  0  0  0  0
   -9.3067    0.2459   -1.0479 C   0  0  0  0  0  0  0  0  0  0  0  0
   -8.2257   -0.1801   -1.5090 O   0  0  0  0  0  0  0  0  0  0  0  0
  -10.4818   -0.1418   -1.6625 O   0  0  0  0  0  0  0  0  0  0  0  0
  -11.1900   -0.7262   -1.2859 H   0  0  0  0  0  0  0  0  0  0  0  0
   -3.7724   -3.8309    4.8059 C   0  0  0  0  0  0  0  0  0  0  0  0
   -3.5107   -4.2648    6.1883 C   0  0  0  0  0  0  0  0  0  0  0  0
   -4.3045   -6.6513    6.4565 C   0  0  0  0  0  0  0  0  0  0  0  0
   -3.9775   -7.9785    6.5203 C   0  0  0  0  0  0  0  0  0  0  0  0
   -2.6521   -8.4319    6.5392 C   0  0  0  0  0  0  0  0  0  0  0  0
   -1.6567   -7.4862    6.4907 C   0  0  0  0  0  0  0  0  0  0  0  0
   -1.9567   -6.1522    6.4235 C   0  0  0  0  0  0  0  0  0  0  0  0
   -3.2699   -5.7179    6.4035 C   0  0  0  0  0  0  0  0  0  0  0  0
   -5.5913   -6.2386    6.4549 O   0  0  0  0  0  0  0  0  0  0  0  0
   -6.7140   -6.6454    5.7874 C   0  0  0  0  0  0  0  0  0  0  0  0
   -9.6254   -7.4914    8.0619 C   0  0  0  0  0  0  0  0  0  0  0  0
   -9.5431   -8.8829    8.1590 C   0  0  0  0  0  0  0  0  0  0  0  0
   -8.5198   -9.4827    7.4667 C   0  0  0  0  0  0  0  0  0  0  0  0
   -7.6213   -8.7618    6.7161 C   0  0  0  0  0  0  0  0  0  0  0  0
   -7.7250   -7.3818    6.6348 C   0  0  0  0  0  0  0  0  0  0  0  0
   -8.7328   -6.7642    7.3141 C   0  0  0  0  0  0  0  0  0  0  0  0
  -10.6589   -6.8993    8.7687 O   0  0  0  0  0  0  0  0  0  0  0  0
  -16.1056   -8.0711    8.1359 C   0  0  0  0  0  0  0  0  0  0  0  0
  -14.6718   -7.7659    8.3106 C   0  0  0  0  0  0  0  0  0  0  0  0
  -14.1380   -7.6534    9.5874 C   0  0  0  0  0  0  0  0  0  0  0  0
  -12.7822   -7.3620    9.7146 C   0  0  0  0  0  0  0  0  0  0  0  0
  -11.9749   -7.1853    8.6211 C   0  0  0  0  0  0  0  0  0  0  0  0
  -12.5360   -7.3039    7.3496 C   0  0  0  0  0  0  0  0  0  0  0  0
  -13.8697   -7.5911    7.1854 C   0  0  0  0  0  0  0  0  0  0  0  0
 43 44  1  0  0  0
 44 45  2  0  0  0
 45 46  1  0  0  0
 46 47  2  0  0  0
 47 42  1  0  0  0
 42 36  1  0  0  0
 36 37  2  0  0  0
 37 38  1  0  0  0
 38 39  2  0  0  0
 39 40  1  0  0  0
 40 35  1  0  0  0
 35 34  1  0  0  0
 34 28  1  0  0  0
 28 29  2  0  0  0
 29 30  1  0  0  0
 30 31  2  0  0  0
 31 32  1  0  0  0
 32 33  2  0  0  0
 33 27  1  0  0  0
 27 26  1  0  0  0
 26  1  1  0  0  0
  1  2  2  0  0  0
  1  3  1  0  0  0
  3  4  1  0  0  0
  4  5  1  0  0  0
  5  6  1  0  0  0
  6  7  1  0  0  0
  7  8  1  0  0  0
  8  9  1  0  0  0
  9 10  1  0  0  0
 10 11  1  0  0  0
 11 12  1  0  0  0
 12 13  2  0  0  0
 12 14  1  0  0  0
 12 16  1  0  0  0
 16 17  1  0  0  0
 17 18  1  0  0  0
 18 19  1  0  0  0
 18 22  1  0  0  0
 22 23  2  0  0  0
 22 24  1  0  0  0
 40 41  2  0  0  0
 47 48  1  0  0  0
 48 49  2  0  0  0
 49 44  1  0  0  0
 41 36  1  0  0  0
 33 28  1  0  0  0
 10  5  1  0  0  0
 14 15  1  0  0  0
 19 20  1  0  0  0
 19 21  1  0  0  0
 24 25  1  0  0  0
M  END
> <minimizedAffinity>
-7.84428

> <CNNscore>
0.2599038482

> <CNNaffinity>
6.1723685265

> <CNN_VS>
1.6042222977

> <CNNaffinity_variance>
0.2264388055

$$$$
[H]OC(=O)[C@@]([H])(N([H])[H])C([H])([H])OP(=O)(O[H])O[C@]1([H])C([H])([H])C([H])([H])C([H])([H])O[C@]1([H])C([H])([H])OC(=O)C([H])([H])C([H])([H])c1c([H])c([H])c([H])c([H])c1OC([H])([H])c1c([H])c([H])c([H])c(Oc2c([H])c([H])c(C([H])([H])[H])c([H])c2[H])c1[H]


 49 52  0  0  0  0  0  0  0  0999 V2000
   -5.2027   -6.9822    6.6942 C   0  0  0  0  0  0  0  0  0  0  0  0
   -4.8384   -8.1666    6.6113 O   0  0  0  0  0  0  0  0  0  0  0  0
   -4.4497   -6.0239    5.9747 O   0  0  0  0  0  0  0  0  0  0  0  0
   -3.3655   -5.3531    6.4453 C   0  0  0  0  0  0  0  0  0  0  0  0
   -2.8444   -5.6613    7.8164 C   0  0  0  0  0  0  0  0  0  0  0  0
   -1.7267   -6.4531    7.8186 O   0  0  0  0  0  0  0  0  0  0  0  0
   -0.8089   -6.2137    8.8107 C   0  0  0  0  0  0  0  0  0  0  0  0
   -1.3723   -5.7950   10.1314 C   0  0  0  0  0  0  0  0  0  0  0  0
   -2.4679   -4.7923   10.0474 C   0  0  0  0  0  0  0  0  0  0  0  0
   -2.6240   -4.3608    8.5998 C   0  0  0  0  0  0  0  0  0  0  0  0
   -1.5805   -3.6070    8.1519 O   0  0  0  0  0  0  0  0  0  0  0  0
   -1.8849   -1.9806    7.9448 P   0  0  0  0  0  0  0  0  0  0  0  0
   -0.9274   -1.2740    7.0436 O   0  0  0  0  0  0  0  0  0  0  0  0
   -3.4446   -1.7193    7.2867 O   0  0  0  0  0  0  0  0  0  0  0  0
   -4.0873   -1.6452    8.0086 H   0  0  0  0  0  0  0  0  0  0  0  0
   -1.9128   -1.2700    9.4944 O   0  0  0  0  0  0  0  0  0  0  0  0
   -1.6694    0.1001    9.4483 C   0  0  0  0  0  0  0  0  0  0  0  0
   -2.9876    0.7724    9.7996 C   0  0  0  0  0  0  0  0  0  0  0  0
   -3.9122   -0.2439   10.2157 N   0  0  0  0  0  0  0  0  0  0  0  0
   -3.8009   -0.5194   11.1938 H   0  0  0  0  0  0  0  0  0  0  0  0
   -4.8764   -0.1099    9.8846 H   0  0  0  0  0  0  0  0  0  0  0  0
   -3.4967    1.6527    8.7440 C   0  0  0  0  0  0  0  0  0  0  0  0
   -3.3671    2.8942    8.8134 O   0  0  0  0  0  0  0  0  0  0  0  0
   -4.1366    1.1192    7.6418 O   0  0  0  0  0  0  0  0  0  0  0  0
   -3.7331    0.5609    6.9273 H   0  0  0  0  0  0  0  0  0  0  0  0
   -6.3410   -6.5261    7.4849 C   0  0  0  0  0  0  0  0  0  0  0  0
   -6.8887   -7.3878    8.5457 C   0  0  0  0  0  0  0  0  0  0  0  0
   -9.2706   -7.9701    7.9246 C   0  0  0  0  0  0  0  0  0  0  0  0
  -10.1417   -8.9020    7.4296 C   0  0  0  0  0  0  0  0  0  0  0  0
   -9.7600  -10.2197    7.1450 C   0  0  0  0  0  0  0  0  0  0  0  0
   -8.4517  -10.5668    7.3805 C   0  0  0  0  0  0  0  0  0  0  0  0
   -7.5592   -9.6527    7.8726 C   0  0  0  0  0  0  0  0  0  0  0  0
   -7.9487   -8.3542    8.1475 C   0  0  0  0  0  0  0  0  0  0  0  0
   -9.6672   -6.7091    8.2055 O   0  0  0  0  0  0  0  0  0  0  0  0
  -10.5721   -6.1756    9.0818 C   0  0  0  0  0  0  0  0  0  0  0  0
  -13.8246   -7.6384    7.7987 C   0  0  0  0  0  0  0  0  0  0  0  0
  -14.5532   -7.8410    8.9737 C   0  0  0  0  0  0  0  0  0  0  0  0
  -13.9338   -7.4792   10.1449 C   0  0  0  0  0  0  0  0  0  0  0  0
  -12.6665   -6.9466   10.1697 C   0  0  0  0  0  0  0  0  0  0  0  0
  -11.9637   -6.7563    8.9900 C   0  0  0  0  0  0  0  0  0  0  0  0
  -12.5585   -7.1078    7.8147 C   0  0  0  0  0  0  0  0  0  0  0  0
  -14.4629   -8.0031    6.6249 O   0  0  0  0  0  0  0  0  0  0  0  0
  -18.5206   -5.0644    4.1072 C   0  0  0  0  0  0  0  0  0  0  0  0
  -17.4568   -5.8455    4.7686 C   0  0  0  0  0  0  0  0  0  0  0  0
  -17.7357   -7.1095    5.2710 C   0  0  0  0  0  0  0  0  0  0  0  0
  -16.7087   -7.8167    5.8909 C   0  0  0  0  0  0  0  0  0  0  0  0
  -15.4460   -7.2982    6.0150 C   0  0  0  0  0  0  0  0  0  0  0  0
  -15.1921   -6.0264    5.5015 C   0  0  0  0  0  0  0  0  0  0  0  0
  -16.1805   -5.2994    4.8828 C   0  0  0  0  0  0  0  0  0  0  0  0
 43 44  1  0  0  0
 44 45  2  0  0  0
 45 46  1  0  0  0
 46 47  2  0  0  0
 47 42  1  0  0  0
 42 36  1  0  0  0
 36 37  2  0  0  0
 37 38  1  0  0  0
 38 39  2  0  0  0
 39 40  1  0  0  0
 40 35  1  0  0  0
 35 34  1  0  0  0
 34 28  1  0  0  0
 28 29  2  0  0  0
 29 30  1  0  0  0
 30 31  2  0  0  0
 31 32  1  0  0  0
 32 33  2  0  0  0
 33 27  1  0  0  0
 27 26  1  0  0  0
 26  1  1  0  0  0
  1  2  2  0  0  0
  1  3  1  0  0  0
  3  4  1  0  0  0
  4  5  1  0  0  0
  5  6  1  0  0  0
  6  7  1  0  0  0
  7  8  1  0  0  0
  8  9  1  0  0  0
  9 10  1  0  0  0
 10 11  1  0  0  0
 11 12  1  0  0  0
 12 13  2  0  0  0
 12 14  1  0  0  0
 12 16  1  0  0  0
 16 17  1  0  0  0
 17 18  1  0  0  0
 18 19  1  0  0  0
 18 22  1  0  0  0
 22 23  2  0  0  0
 22 24  1  0  0  0
 40 41  2  0  0  0
 47 48  1  0  0  0
 48 49  2  0  0  0
 49 44  1  0  0  0
 41 36  1  0  0  0
 33 28  1  0  0  0
 10  5  1  0  0  0
 14 15  1  0  0  0
 19 20  1  0  0  0
 19 21  1  0  0  0
 24 25  1  0  0  0
M  END
> <minimizedAffinity>
-7.96831

> <CNNscore>
0.2594962120

> <CNNaffinity>
6.4841599464

> <CNN_VS>
1.6826149225

> <CNNaffinity_variance>
0.3270430565

$$$$
[H]C([H])([H])C1([H])OC([H])(C([H])([H])[N+](C([H])([H])[H])(C([H])([H])[H])C([H])([H])[H])C([H])([H])OC1([H])[H].[I-]


 12 12  0  0  0  0  0  0  0  0999 V2000
  -13.2570   -6.2475   10.1185 C   0  0  0  0  0  0  0  0  0  0  0  0
  -12.9431   -6.7120    8.6923 C   0  0  0  0  0  0  0  0  0  0  0  0
  -12.0080   -7.8999    8.8404 C   0  0  0  0  0  0  0  0  0  0  0  0
  -12.8321   -9.0450    8.7277 O   0  0  0  0  0  0  0  0  0  0  0  0
  -13.1910   -9.0957    7.3660 C   0  0  0  0  0  0  0  0  0  0  0  0
  -13.9844   -7.8560    6.9687 C   0  0  0  0  0  0  0  0  0  0  0  0
  -14.1216   -7.0258    8.0669 O   0  0  0  0  0  0  0  0  0  0  0  0
  -15.3209   -8.3133    6.4816 C   0  0  0  0  0  0  0  0  0  0  0  0
  -15.6106   -8.0400    5.1254 N   0  0  0  0  0  0  0  0  0  0  0  0
  -15.3626   -6.6160    4.8478 C   0  0  0  0  0  0  0  0  0  0  0  0
  -17.0417   -8.2823    4.8843 C   0  0  0  0  0  0  0  0  0  0  0  0
  -14.8862   -8.7940    4.1603 C   0  0  0  0  0  0  0  0  0  0  0  0
  1  2  1  0  0  0
  2  3  1  0  0  0
  3  4  1  0  0  0
  4  5  1  0  0  0
  5  6  1  0  0  0
  6  8  1  0  0  0
  8  9  1  0  0  0
  9 10  1  0  0  0
  9 11  1  0  0  0
  9 12  1  0  0  0
  6  7  1  0  0  0
  7  2  1  0  0  0
M  CHG 1   9   1
M  END
> <minimizedAffinity>
-4.62554

> <CNNscore>
0.7184743881

> <CNNaffinity>
4.8619604111

> <CNN_VS>
3.4931941032

> <CNNaffinity_variance>
0.2380798310

$$$$
[H]C([H])([H])C1([H])OC([H])(C([H])([H])[N+](C([H])([H])[H])(C([H])([H])[H])C([H])([H])[H])C([H])([H])OC1([H])[H].[I-]


 12 12  0  0  0  0  0  0  0  0999 V2000
  -17.7111   -5.4566    4.1362 C   0  0  0  0  0  0  0  0  0  0  0  0
  -17.2468   -6.7161    4.8754 C   0  0  0  0  0  0  0  0  0  0  0  0
  -16.8209   -7.6961    3.7957 C   0  0  0  0  0  0  0  0  0  0  0  0
  -15.4136   -7.5731    3.7086 O   0  0  0  0  0  0  0  0  0  0  0  0
  -14.9277   -8.1735    4.8871 C   0  0  0  0  0  0  0  0  0  0  0  0
  -15.4286   -7.4297    6.1199 C   0  0  0  0  0  0  0  0  0  0  0  0
  -16.2286   -6.3720    5.7259 O   0  0  0  0  0  0  0  0  0  0  0  0
  -14.2317   -6.9374    6.8666 C   0  0  0  0  0  0  0  0  0  0  0  0
  -13.9924   -7.5456    8.1199 N   0  0  0  0  0  0  0  0  0  0  0  0
  -15.2269   -8.1901    8.5965 C   0  0  0  0  0  0  0  0  0  0  0  0
  -13.6460   -6.5031    9.0987 C   0  0  0  0  0  0  0  0  0  0  0  0
  -12.9592   -8.5232    8.1608 C   0  0  0  0  0  0  0  0  0  0  0  0
  1  2  1  0  0  0
  2  3  1  0  0  0
  3  4  1  0  0  0
  4  5  1  0  0  0
  5  6  1  0  0  0
  6  8  1  0  0  0
  8  9  1  0  0  0
  9 10  1  0  0  0
  9 11  1  0  0  0
  9 12  1  0  0  0
  6  7  1  0  0  0
  7  2  1  0  0  0
M  CHG 1   9   1
M  END
> <minimizedAffinity>
-4.62002

> <CNNscore>
0.7168776989

> <CNNaffinity>
4.8643722534

> <CNN_VS>
3.4871599674

> <CNNaffinity_variance>
0.2885311246

$$$$
[H]C([H])([H])C1([H])OC([H])(C([H])([H])[N+](C([H])([H])[H])(C([H])([H])[H])C([H])([H])[H])C([H])([H])OC1([H])[H].[I-]


 12 12  0  0  0  0  0  0  0  0999 V2000
  -14.8703   -4.3770    4.2446 C   0  0  0  0  0  0  0  0  0  0  0  0
  -15.5949   -5.4543    5.0587 C   0  0  0  0  0  0  0  0  0  0  0  0
  -16.6225   -6.0617    4.1192 C   0  0  0  0  0  0  0  0  0  0  0  0
  -16.0250   -7.2436    3.6200 O   0  0  0  0  0  0  0  0  0  0  0  0
  -16.0303   -8.1360    4.7105 C   0  0  0  0  0  0  0  0  0  0  0  0
  -15.1936   -7.5893    5.8616 C   0  0  0  0  0  0  0  0  0  0  0  0
  -14.6683   -6.3600    5.5054 O   0  0  0  0  0  0  0  0  0  0  0  0
  -14.1014   -8.5725    6.1316 C   0  0  0  0  0  0  0  0  0  0  0  0
  -13.7660   -8.7654    7.4910 N   0  0  0  0  0  0  0  0  0  0  0  0
  -12.5097   -8.0597    7.7916 C   0  0  0  0  0  0  0  0  0  0  0  0
  -13.5214  -10.1973    7.7244 C   0  0  0  0  0  0  0  0  0  0  0  0
  -14.7314   -8.3407    8.4463 C   0  0  0  0  0  0  0  0  0  0  0  0
  1  2  1  0  0  0
  2  3  1  0  0  0
  3  4  1  0  0  0
  4  5  1  0  0  0
  5  6  1  0  0  0
  6  8  1  0  0  0
  8  9  1  0  0  0
  9 10  1  0  0  0
  9 11  1  0  0  0
  9 12  1  0  0  0
  6  7  1  0  0  0
  7  2  1  0  0  0
M  CHG 1   9   1
M  END
> <minimizedAffinity>
-4.75293

> <CNNscore>
0.6927235126

> <CNNaffinity>
4.7006654739

> <CNN_VS>
3.2562615871

> <CNNaffinity_variance>
0.2930958867

$$$$
[H]C([H])([H])C1([H])OC([H])(C([H])([H])[N+](C([H])([H])[H])(C([H])([H])[H])C([H])([H])[H])C([H])([H])OC1([H])[H].[I-]


 12 12  0  0  0  0  0  0  0  0999 V2000
  -17.7248   -5.2000    4.5991 C   0  0  0  0  0  0  0  0  0  0  0  0
  -17.3150   -6.5658    5.1602 C   0  0  0  0  0  0  0  0  0  0  0  0
  -17.3869   -7.5322    3.9904 C   0  0  0  0  0  0  0  0  0  0  0  0
  -16.0591   -7.6473    3.5141 O   0  0  0  0  0  0  0  0  0  0  0  0
  -15.3883   -8.3974    4.5005 C   0  0  0  0  0  0  0  0  0  0  0  0
  -15.3886   -7.6603    5.8348 C   0  0  0  0  0  0  0  0  0  0  0  0
  -16.0582   -6.4576    5.6961 O   0  0  0  0  0  0  0  0  0  0  0  0
  -13.9642   -7.4304    6.2231 C   0  0  0  0  0  0  0  0  0  0  0  0
  -13.6255   -7.7635    7.5544 N   0  0  0  0  0  0  0  0  0  0  0  0
  -12.2361   -8.2471    7.6010 C   0  0  0  0  0  0  0  0  0  0  0  0
  -14.4822   -8.8726    8.0023 C   0  0  0  0  0  0  0  0  0  0  0  0
  -13.7458   -6.7219    8.5164 C   0  0  0  0  0  0  0  0  0  0  0  0
  1  2  1  0  0  0
  2  3  1  0  0  0
  3  4  1  0  0  0
  4  5  1  0  0  0
  5  6  1  0  0  0
  6  8  1  0  0  0
  8  9  1  0  0  0
  9 10  1  0  0  0
  9 11  1  0  0  0
  9 12  1  0  0  0
  6  7  1  0  0  0
  7  2  1  0  0  0
M  CHG 1   9   1
M  END
> <minimizedAffinity>
-4.68605

> <CNNscore>
0.6553757191

> <CNNaffinity>
4.8113775253

> <CNN_VS>
3.1532599926

> <CNNaffinity_variance>
0.2786206603

$$$$
[H]C([H])([H])C1([H])OC([H])(C([H])([H])[N+](C([H])([H])[H])(C([H])([H])[H])C([H])([H])[H])C([H])([H])OC1([H])[H].[I-]


 12 12  0  0  0  0  0  0  0  0999 V2000
  -13.0924   -5.6452   10.3514 C   0  0  0  0  0  0  0  0  0  0  0  0
  -12.7092   -6.3328    9.0366 C   0  0  0  0  0  0  0  0  0  0  0  0
  -11.8421   -7.5176    9.4265 C   0  0  0  0  0  0  0  0  0  0  0  0
  -12.7099   -8.6356    9.4282 O   0  0  0  0  0  0  0  0  0  0  0  0
  -12.9822   -8.8801    8.0675 C   0  0  0  0  0  0  0  0  0  0  0  0
  -13.6895   -7.6874    7.4341 C   0  0  0  0  0  0  0  0  0  0  0  0
  -13.8583   -6.6952    8.3832 O   0  0  0  0  0  0  0  0  0  0  0  0
  -15.0117   -8.1646    6.9274 C   0  0  0  0  0  0  0  0  0  0  0  0
  -15.3029   -7.8594    5.5784 N   0  0  0  0  0  0  0  0  0  0  0  0
  -16.7375   -8.0707    5.3260 C   0  0  0  0  0  0  0  0  0  0  0  0
  -14.5710   -8.7935    4.7084 C   0  0  0  0  0  0  0  0  0  0  0  0
  -14.9844   -6.5418    5.1457 C   0  0  0  0  0  0  0  0  0  0  0  0
  1  2  1  0  0  0
  2  3  1  0  0  0
  3  4  1  0  0  0
  4  5  1  0  0  0
  5  6  1  0  0  0
  6  8  1  0  0  0
  8  9  1  0  0  0
  9 10  1  0  0  0
  9 11  1  0  0  0
  9 12  1  0  0  0
  6  7  1  0  0  0
  7  2  1  0  0  0
M  CHG 1   9   1
M  END
> <minimizedAffinity>
-4.73852

> <CNNscore>
0.6509162784

> <CNNaffinity>
4.6957440376

> <CNN_VS>
3.0565361977

> <CNNaffinity_variance>
0.1679413766

$$$$
[H]C([H])([H])C1([H])OC([H])(C([H])([H])[N+](C([H])([H])[H])(C([H])([H])[H])C([H])([H])[H])C([H])([H])OC1([H])[H].[I-]


 12 12  0  0  0  0  0  0  0  0999 V2000
  -10.9058   -7.4015    8.3636 C   0  0  0  0  0  0  0  0  0  0  0  0
  -11.9931   -8.3232    7.8009 C   0  0  0  0  0  0  0  0  0  0  0  0
  -12.6463   -8.9768    9.0066 C   0  0  0  0  0  0  0  0  0  0  0  0
  -13.8162   -8.2210    9.2577 O   0  0  0  0  0  0  0  0  0  0  0  0
  -14.6920   -8.5560    8.2059 C   0  0  0  0  0  0  0  0  0  0  0  0
  -14.1023   -8.1497    6.8601 C   0  0  0  0  0  0  0  0  0  0  0  0
  -12.8626   -7.5683    7.0575 O   0  0  0  0  0  0  0  0  0  0  0  0
  -15.0467   -7.1792    6.2287 C   0  0  0  0  0  0  0  0  0  0  0  0
  -15.6276   -7.5884    5.0069 N   0  0  0  0  0  0  0  0  0  0  0  0
  -15.8441   -6.4126    4.1482 C   0  0  0  0  0  0  0  0  0  0  0  0
  -16.9507   -8.1720    5.2785 C   0  0  0  0  0  0  0  0  0  0  0  0
  -14.8938   -8.5411    4.2463 C   0  0  0  0  0  0  0  0  0  0  0  0
  1  2  1  0  0  0
  2  3  1  0  0  0
  3  4  1  0  0  0
  4  5  1  0  0  0
  5  6  1  0  0  0
  6  8  1  0  0  0
  8  9  1  0  0  0
  9 10  1  0  0  0
  9 11  1  0  0  0
  9 12  1  0  0  0
  6  7  1  0  0  0
  7  2  1  0  0  0
M  CHG 1   9   1
M  END
> <minimizedAffinity>
-4.46527

> <CNNscore>
0.6403768063

> <CNNaffinity>
4.7829532623

> <CNN_VS>
3.0628924370

> <CNNaffinity_variance>
0.3495885730

$$$$
[H]C([H])([H])C1([H])OC([H])(C([H])([H])[N+](C([H])([H])[H])(C([H])([H])[H])C([H])([H])[H])C([H])([H])OC1([H])[H].[I-]


 12 12  0  0  0  0  0  0  0  0999 V2000
  -15.3001   -4.5783    4.4116 C   0  0  0  0  0  0  0  0  0  0  0  0
  -15.6407   -5.8159    5.2486 C   0  0  0  0  0  0  0  0  0  0  0  0
  -16.0812   -6.8782    4.2562 C   0  0  0  0  0  0  0  0  0  0  0  0
  -14.9411   -7.6886    4.0404 O   0  0  0  0  0  0  0  0  0  0  0  0
  -14.7892   -8.4192    5.2356 C   0  0  0  0  0  0  0  0  0  0  0  0
  -14.5343   -7.4846    6.4127 C   0  0  0  0  0  0  0  0  0  0  0  0
  -14.5305   -6.1746    5.9679 O   0  0  0  0  0  0  0  0  0  0  0  0
  -13.2082   -7.8479    6.9977 C   0  0  0  0  0  0  0  0  0  0  0  0
  -13.1478   -7.8951    8.4091 N   0  0  0  0  0  0  0  0  0  0  0  0
  -12.2028   -6.8762    8.8943 C   0  0  0  0  0  0  0  0  0  0  0  0
  -12.6176   -9.2043    8.8212 C   0  0  0  0  0  0  0  0  0  0  0  0
  -14.3758   -7.7001    9.1009 C   0  0  0  0  0  0  0  0  0  0  0  0
  1  2  1  0  0  0
  2  3  1  0  0  0
  3  4  1  0  0  0
  4  5  1  0  0  0
  5  6  1  0  0  0
  6  8  1  0  0  0
  8  9  1  0  0  0
  9 10  1  0  0  0
  9 11  1  0  0  0
  9 12  1  0  0  0
  6  7  1  0  0  0
  7  2  1  0  0  0
M  CHG 1   9   1
M  END
> <minimizedAffinity>
-4.68905

> <CNNscore>
0.5809600949

> <CNNaffinity>
4.5693297386

> <CNN_VS>
2.6545982361

> <CNNaffinity_variance>
0.3764820099

$$$$
[H]C([H])([H])C1([H])OC([H])(C([H])([H])[N+](C([H])([H])[H])(C([H])([H])[H])C([H])([H])[H])C([H])([H])OC1([H])[H].[I-]


 12 12  0  0  0  0  0  0  0  0999 V2000
  -16.9064   -4.7906    3.7946 C   0  0  0  0  0  0  0  0  0  0  0  0
  -17.2881   -5.8968    4.7841 C   0  0  0  0  0  0  0  0  0  0  0  0
  -18.2177   -6.8281    4.0251 C   0  0  0  0  0  0  0  0  0  0  0  0
  -17.4023   -7.8970    3.5832 O   0  0  0  0  0  0  0  0  0  0  0  0
  -17.1080   -8.6297    4.7503 C   0  0  0  0  0  0  0  0  0  0  0  0
  -16.3316   -7.7744    5.7451 C   0  0  0  0  0  0  0  0  0  0  0  0
  -16.1411   -6.5107    5.2152 O   0  0  0  0  0  0  0  0  0  0  0  0
  -15.0205   -8.4474    5.9912 C   0  0  0  0  0  0  0  0  0  0  0  0
  -14.5622   -8.4369    7.3283 N   0  0  0  0  0  0  0  0  0  0  0  0
  -15.6912   -8.1633    8.2321 C   0  0  0  0  0  0  0  0  0  0  0  0
  -13.6009   -7.3355    7.4953 C   0  0  0  0  0  0  0  0  0  0  0  0
  -13.9275   -9.6246    7.7880 C   0  0  0  0  0  0  0  0  0  0  0  0
  1  2  1  0  0  0
  2  3  1  0  0  0
  3  4  1  0  0  0
  4  5  1  0  0  0
  5  6  1  0  0  0
  6  8  1  0  0  0
  8  9  1  0  0  0
  9 10  1  0  0  0
  9 11  1  0  0  0
  9 12  1  0  0  0
  6  7  1  0  0  0
  7  2  1  0  0  0
M  CHG 1   9   1
M  END
> <minimizedAffinity>
-4.82475

> <CNNscore>
0.5718968511

> <CNNaffinity>
4.7103252411

> <CNN_VS>
2.6938202381

> <CNNaffinity_variance>
0.2342588902

$$$$
[H]C([H])([H])C1([H])OC([H])(C([H])([H])[N+](C([H])([H])[H])(C([H])([H])[H])C([H])([H])[H])C([H])([H])OC1([H])[H].[I-]


 12 12  0  0  0  0  0  0  0  0999 V2000
  -15.6095   -4.7806    4.3566 C   0  0  0  0  0  0  0  0  0  0  0  0
  -15.7728   -5.9005    5.3898 C   0  0  0  0  0  0  0  0  0  0  0  0
  -16.2720   -7.1082    4.6155 C   0  0  0  0  0  0  0  0  0  0  0  0
  -15.1234   -7.8958    4.3636 O   0  0  0  0  0  0  0  0  0  0  0  0
  -14.7831   -8.4444    5.6161 C   0  0  0  0  0  0  0  0  0  0  0  0
  -14.4377   -7.3443    6.6132 C   0  0  0  0  0  0  0  0  0  0  0  0
  -14.5635   -6.1107    5.9995 O   0  0  0  0  0  0  0  0  0  0  0  0
  -13.0308   -7.5695    7.0634 C   0  0  0  0  0  0  0  0  0  0  0  0
  -12.8681   -7.9474    8.4156 N   0  0  0  0  0  0  0  0  0  0  0  0
  -12.6531   -9.4012    8.4966 C   0  0  0  0  0  0  0  0  0  0  0  0
  -14.1112   -7.6551    9.1465 C   0  0  0  0  0  0  0  0  0  0  0  0
  -11.8048   -7.3201    9.1233 C   0  0  0  0  0  0  0  0  0  0  0  0
  1  2  1  0  0  0
  2  3  1  0  0  0
  3  4  1  0  0  0
  4  5  1  0  0  0
  5  6  1  0  0  0
  6  8  1  0  0  0
  8  9  1  0  0  0
  9 10  1  0  0  0
  9 11  1  0  0  0
  9 12  1  0  0  0
  6  7  1  0  0  0
  7  2  1  0  0  0
M  CHG 1   9   1
M  END
> <minimizedAffinity>
-4.56752

> <CNNscore>
0.5716353059

> <CNNaffinity>
4.5842819214

> <CNN_VS>
2.6205372810

> <CNNaffinity_variance>
0.3859563470

$$$$
[H]Sc1nnc(N([H])C(=O)N([H])N=C([H])c2c([H])c([H])c([H])c(OC([H])([H])[H])c2[H])s1


 23 24  0  0  0  0  0  0  0  0999 V2000
  -13.5015   -9.8160    6.8909 N   0  0  0  0  0  0  0  0  0  0  0  0
  -12.1744   -9.3380    6.9655 C   0  0  0  0  0  0  0  0  0  0  0  0
  -11.8366   -8.3279    6.2998 O   0  0  0  0  0  0  0  0  0  0  0  0
  -11.2083   -9.9684    7.7736 N   0  0  0  0  0  0  0  0  0  0  0  0
  -13.7622  -10.6591    7.4537 H   0  0  0  0  0  0  0  0  0  0  0  0
  -11.4615  -10.8000    8.3300 H   0  0  0  0  0  0  0  0  0  0  0  0
   -9.8650   -9.4844    7.8491 C   0  0  0  0  0  0  0  0  0  0  0  0
   -8.7172  -10.1417    7.7086 N   0  0  0  0  0  0  0  0  0  0  0  0
   -7.6176   -9.5285    7.8121 N   0  0  0  0  0  0  0  0  0  0  0  0
   -7.6090   -8.2253    8.0616 C   0  0  0  0  0  0  0  0  0  0  0  0
   -6.1484   -7.2172    8.2360 S   0  0  0  0  0  0  0  0  0  0  0  0
   -9.2799   -7.8952    8.1459 S   0  0  0  0  0  0  0  0  0  0  0  0
   -5.1793   -7.5280    7.2430 H   0  0  0  0  0  0  0  0  0  0  0  0
  -15.2744   -8.3068    6.5230 C   0  0  0  0  0  0  0  0  0  0  0  0
  -14.4941   -9.2475    6.1215 N   0  0  0  0  0  0  0  0  0  0  0  0
  -17.1391   -5.9730    4.2632 C   0  0  0  0  0  0  0  0  0  0  0  0
  -18.2663   -6.7279    4.0173 C   0  0  0  0  0  0  0  0  0  0  0  0
  -18.3969   -7.9762    4.5891 C   0  0  0  0  0  0  0  0  0  0  0  0
  -17.4223   -8.5009    5.4107 C   0  0  0  0  0  0  0  0  0  0  0  0
  -16.3030   -7.7522    5.6555 C   0  0  0  0  0  0  0  0  0  0  0  0
  -16.1756   -6.5085    5.0841 C   0  0  0  0  0  0  0  0  0  0  0  0
  -15.7755   -4.0071    3.8528 C   0  0  0  0  0  0  0  0  0  0  0  0
  -16.9783   -4.7238    3.7080 O   0  0  0  0  0  0  0  0  0  0  0  0
 22 23  1  0  0  0
 23 16  1  0  0  0
 16 17  2  0  0  0
 17 18  1  0  0  0
 18 19  2  0  0  0
 19 20  1  0  0  0
 20 14  1  0  0  0
 14 15  2  0  0  0
 15  1  1  0  0  0
  1  2  1  0  0  0
  2  3  2  0  0  0
  2  4  1  0  0  0
  4  7  1  0  0  0
  7  8  2  0  0  0
  8  9  1  0  0  0
  9 10  2  0  0  0
 10 11  1  0  0  0
 10 12  1  0  0  0
 20 21  2  0  0  0
 21 16  1  0  0  0
 12  7  1  0  0  0
  1  5  1  0  0  0
  4  6  1  0  0  0
 11 13  1  0  0  0
M  END
> <minimizedAffinity>
-5.42402

> <CNNscore>
0.6298933029

> <CNNaffinity>
6.0765099525

> <CNN_VS>
3.8275530338

> <CNNaffinity_variance>
0.2517645955

$$$$
[H]Sc1nnc(N([H])C(=O)N([H])N=C([H])c2c([H])c([H])c([H])c(OC([H])([H])[H])c2[H])s1


 23 24  0  0  0  0  0  0  0  0999 V2000
  -11.8809   -7.6950    8.4728 N   0  0  0  0  0  0  0  0  0  0  0  0
  -13.0525   -7.2185    7.8438 C   0  0  0  0  0  0  0  0  0  0  0  0
  -13.7430   -6.3300    8.4018 O   0  0  0  0  0  0  0  0  0  0  0  0
  -13.4734   -7.7164    6.5954 N   0  0  0  0  0  0  0  0  0  0  0  0
  -11.3199   -8.4356    7.9908 H   0  0  0  0  0  0  0  0  0  0  0  0
  -12.9229   -8.4468    6.1169 H   0  0  0  0  0  0  0  0  0  0  0  0
  -14.6593   -7.2339    5.9587 C   0  0  0  0  0  0  0  0  0  0  0  0
  -15.0074   -5.9892    5.6448 N   0  0  0  0  0  0  0  0  0  0  0  0
  -16.1130   -5.7631    5.0772 N   0  0  0  0  0  0  0  0  0  0  0  0
  -16.9284   -6.7708    4.7939 C   0  0  0  0  0  0  0  0  0  0  0  0
  -18.5172   -6.6210    3.9983 S   0  0  0  0  0  0  0  0  0  0  0  0
  -16.0322   -8.0956    5.3855 S   0  0  0  0  0  0  0  0  0  0  0  0
  -18.4687   -5.7134    2.9047 H   0  0  0  0  0  0  0  0  0  0  0  0
  -11.9303   -6.2794   10.3569 C   0  0  0  0  0  0  0  0  0  0  0  0
  -11.4136   -7.2518    9.6916 N   0  0  0  0  0  0  0  0  0  0  0  0
   -9.5207   -5.6107   13.1457 C   0  0  0  0  0  0  0  0  0  0  0  0
  -10.3790   -5.0679   14.0782 C   0  0  0  0  0  0  0  0  0  0  0  0
  -11.7191   -4.9307   13.7826 C   0  0  0  0  0  0  0  0  0  0  0  0
  -12.2355   -5.3247   12.5668 C   0  0  0  0  0  0  0  0  0  0  0  0
  -11.3843   -5.8637   11.6403 C   0  0  0  0  0  0  0  0  0  0  0  0
  -10.0492   -5.9991   11.9379 C   0  0  0  0  0  0  0  0  0  0  0  0
   -7.4935   -4.8690   14.2562 C   0  0  0  0  0  0  0  0  0  0  0  0
   -8.1782   -5.7612   13.4097 O   0  0  0  0  0  0  0  0  0  0  0  0
 22 23  1  0  0  0
 23 16  1  0  0  0
 16 17  2  0  0  0
 17 18  1  0  0  0
 18 19  2  0  0  0
 19 20  1  0  0  0
 20 14  1  0  0  0
 14 15  2  0  0  0
 15  1  1  0  0  0
  1  2  1  0  0  0
  2  3  2  0  0  0
  2  4  1  0  0  0
  4  7  1  0  0  0
  7  8  2  0  0  0
  8  9  1  0  0  0
  9 10  2  0  0  0
 10 11  1  0  0  0
 10 12  1  0  0  0
 20 21  2  0  0  0
 21 16  1  0  0  0
 12  7  1  0  0  0
  1  5  1  0  0  0
  4  6  1  0  0  0
 11 13  1  0  0  0
M  END
> <minimizedAffinity>
2.53053

> <CNNscore>
0.5629348159

> <CNNaffinity>
5.5626873970

> <CNN_VS>
3.1314303875

> <CNNaffinity_variance>
0.6700974107

$$$$
[H]Sc1nnc(N([H])C(=O)N([H])N=C([H])c2c([H])c([H])c([H])c(OC([H])([H])[H])c2[H])s1


 23 24  0  0  0  0  0  0  0  0999 V2000
  -12.7288   -7.5013    6.6241 N   0  0  0  0  0  0  0  0  0  0  0  0
  -12.5802   -7.0656    7.9595 C   0  0  0  0  0  0  0  0  0  0  0  0
  -13.5965   -6.9016    8.6793 O   0  0  0  0  0  0  0  0  0  0  0  0
  -11.3114   -6.8066    8.5134 N   0  0  0  0  0  0  0  0  0  0  0  0
  -11.8691   -7.6317    6.0416 H   0  0  0  0  0  0  0  0  0  0  0  0
  -10.4613   -6.9339    7.9421 H   0  0  0  0  0  0  0  0  0  0  0  0
  -11.1611   -6.3655    9.8652 C   0  0  0  0  0  0  0  0  0  0  0  0
  -10.0535   -6.1598   10.5724 N   0  0  0  0  0  0  0  0  0  0  0  0
  -10.1290   -5.7642   11.7697 N   0  0  0  0  0  0  0  0  0  0  0  0
  -11.3168   -5.5537   12.3222 C   0  0  0  0  0  0  0  0  0  0  0  0
  -11.5940   -4.9971   13.9935 S   0  0  0  0  0  0  0  0  0  0  0  0
  -12.3561   -5.9531   11.0305 S   0  0  0  0  0  0  0  0  0  0  0  0
  -10.7006   -3.9495   14.3487 H   0  0  0  0  0  0  0  0  0  0  0  0
  -14.7666   -6.8730    5.6196 C   0  0  0  0  0  0  0  0  0  0  0  0
  -13.9386   -7.7720    6.0213 N   0  0  0  0  0  0  0  0  0  0  0  0
  -18.2317   -6.6374    4.2168 C   0  0  0  0  0  0  0  0  0  0  0  0
  -18.4076   -7.9380    3.7943 C   0  0  0  0  0  0  0  0  0  0  0  0
  -17.3995   -8.8621    3.9734 C   0  0  0  0  0  0  0  0  0  0  0  0
  -16.2043   -8.5221    4.5700 C   0  0  0  0  0  0  0  0  0  0  0  0
  -16.0288   -7.2312    4.9897 C   0  0  0  0  0  0  0  0  0  0  0  0
  -17.0352   -6.3124    4.8099 C   0  0  0  0  0  0  0  0  0  0  0  0
  -18.9886   -4.3349    4.3513 C   0  0  0  0  0  0  0  0  0  0  0  0
  -19.2179   -5.6913    4.0529 O   0  0  0  0  0  0  0  0  0  0  0  0
 22 23  1  0  0  0
 23 16  1  0  0  0
 16 17  2  0  0  0
 17 18  1  0  0  0
 18 19  2  0  0  0
 19 20  1  0  0  0
 20 14  1  0  0  0
 14 15  2  0  0  0
 15  1  1  0  0  0
  1  2  1  0  0  0
  2  3  2  0  0  0
  2  4  1  0  0  0
  4  7  1  0  0  0
  7  8  2  0  0  0
  8  9  1  0  0  0
  9 10  2  0  0  0
 10 11  1  0  0  0
 10 12  1  0  0  0
 20 21  2  0  0  0
 21 16  1  0  0  0
 12  7  1  0  0  0
  1  5  1  0  0  0
  4  6  1  0  0  0
 11 13  1  0  0  0
M  END
> <minimizedAffinity>
0.79794

> <CNNscore>
0.5593210459

> <CNNaffinity>
5.7336030006

> <CNN_VS>
3.2069249153

> <CNNaffinity_variance>
0.8589231372

$$$$
[H]Sc1nnc(N([H])C(=O)N([H])N=C([H])c2c([H])c([H])c([H])c(OC([H])([H])[H])c2[H])s1


 23 24  0  0  0  0  0  0  0  0999 V2000
  -12.7190   -8.1168    7.5669 N   0  0  0  0  0  0  0  0  0  0  0  0
  -13.6756   -7.3822    6.8316 C   0  0  0  0  0  0  0  0  0  0  0  0
  -14.2807   -6.4255    7.3758 O   0  0  0  0  0  0  0  0  0  0  0  0
  -13.9739   -7.6952    5.4912 N   0  0  0  0  0  0  0  0  0  0  0  0
  -12.2262   -8.9103    7.0946 H   0  0  0  0  0  0  0  0  0  0  0  0
  -13.4901   -8.4769    5.0219 H   0  0  0  0  0  0  0  0  0  0  0  0
  -14.9421   -6.9515    4.7469 C   0  0  0  0  0  0  0  0  0  0  0  0
  -15.1295   -5.6367    4.6744 N   0  0  0  0  0  0  0  0  0  0  0  0
  -16.0519   -5.1657    3.9511 N   0  0  0  0  0  0  0  0  0  0  0  0
  -16.8352   -5.9859    3.2624 C   0  0  0  0  0  0  0  0  0  0  0  0
  -18.1761   -5.4831    2.1996 S   0  0  0  0  0  0  0  0  0  0  0  0
  -16.1878   -7.5023    3.6976 S   0  0  0  0  0  0  0  0  0  0  0  0
  -17.8132   -4.3683    1.3950 H   0  0  0  0  0  0  0  0  0  0  0  0
  -12.8675   -6.9027    9.5819 C   0  0  0  0  0  0  0  0  0  0  0  0
  -12.3804   -7.8639    8.8790 N   0  0  0  0  0  0  0  0  0  0  0  0
  -11.2015   -5.4862   12.6230 C   0  0  0  0  0  0  0  0  0  0  0  0
  -11.7182   -6.3223   13.5900 C   0  0  0  0  0  0  0  0  0  0  0  0
  -12.5949   -7.3261   13.2350 C   0  0  0  0  0  0  0  0  0  0  0  0
  -12.9765   -7.5233   11.9252 C   0  0  0  0  0  0  0  0  0  0  0  0
  -12.4641   -6.6939   10.9646 C   0  0  0  0  0  0  0  0  0  0  0  0
  -11.5907   -5.6943   11.3214 C   0  0  0  0  0  0  0  0  0  0  0  0
  -10.4156   -3.7883   14.1697 C   0  0  0  0  0  0  0  0  0  0  0  0
  -10.3246   -4.4751   12.9443 O   0  0  0  0  0  0  0  0  0  0  0  0
 22 23  1  0  0  0
 23 16  1  0  0  0
 16 17  2  0  0  0
 17 18  1  0  0  0
 18 19  2  0  0  0
 19 20  1  0  0  0
 20 14  1  0  0  0
 14 15  2  0  0  0
 15  1  1  0  0  0
  1  2  1  0  0  0
  2  3  2  0  0  0
  2  4  1  0  0  0
  4  7  1  0  0  0
  7  8  2  0  0  0
  8  9  1  0  0  0
  9 10  2  0  0  0
 10 11  1  0  0  0
 10 12  1  0  0  0
 20 21  2  0  0  0
 21 16  1  0  0  0
 12  7  1  0  0  0
  1  5  1  0  0  0
  4  6  1  0  0  0
 11 13  1  0  0  0
M  END
> <minimizedAffinity>
11.46786

> <CNNscore>
0.5126990676

> <CNNaffinity>
5.6826586723

> <CNN_VS>
2.9134938717

> <CNNaffinity_variance>
1.1463928223

$$$$
[H]Sc1nnc(N([H])C(=O)N([H])N=C([H])c2c([H])c([H])c([H])c(OC([H])([H])[H])c2[H])s1


 23 24  0  0  0  0  0  0  0  0999 V2000
  -14.8769   -6.6270    6.2091 N   0  0  0  0  0  0  0  0  0  0  0  0
  -16.1929   -6.1787    5.9595 C   0  0  0  0  0  0  0  0  0  0  0  0
  -17.1454   -6.6273    6.6444 O   0  0  0  0  0  0  0  0  0  0  0  0
  -16.4710   -5.2328    4.9537 N   0  0  0  0  0  0  0  0  0  0  0  0
  -14.0976   -6.2404    5.6270 H   0  0  0  0  0  0  0  0  0  0  0  0
  -15.7053   -4.8493    4.3775 H   0  0  0  0  0  0  0  0  0  0  0  0
  -17.8033   -4.7790    4.7012 C   0  0  0  0  0  0  0  0  0  0  0  0
  -18.7723   -5.3469    3.9888 N   0  0  0  0  0  0  0  0  0  0  0  0
  -19.8970   -4.7817    3.8827 N   0  0  0  0  0  0  0  0  0  0  0  0
  -20.1110   -3.6183    4.4838 C   0  0  0  0  0  0  0  0  0  0  0  0
  -21.6356   -2.6947    4.4327 S   0  0  0  0  0  0  0  0  0  0  0  0
  -18.6012   -3.3510    5.2303 S   0  0  0  0  0  0  0  0  0  0  0  0
  -22.7644   -3.5430    4.6005 H   0  0  0  0  0  0  0  0  0  0  0  0
  -13.4808   -7.4761    7.9080 C   0  0  0  0  0  0  0  0  0  0  0  0
  -14.5362   -7.5487    7.1758 N   0  0  0  0  0  0  0  0  0  0  0  0
  -13.4402   -9.3766   11.1355 C   0  0  0  0  0  0  0  0  0  0  0  0
  -12.6009  -10.4148   10.7911 C   0  0  0  0  0  0  0  0  0  0  0  0
  -12.0670  -10.4759    9.5209 C   0  0  0  0  0  0  0  0  0  0  0  0
  -12.3497   -9.5181    8.5707 C   0  0  0  0  0  0  0  0  0  0  0  0
  -13.1828   -8.4870    8.9117 C   0  0  0  0  0  0  0  0  0  0  0  0
  -13.7134   -8.4289   10.1784 C   0  0  0  0  0  0  0  0  0  0  0  0
  -13.3287   -8.6062   13.4348 C   0  0  0  0  0  0  0  0  0  0  0  0
  -13.9892   -9.2867   12.3945 O   0  0  0  0  0  0  0  0  0  0  0  0
 22 23  1  0  0  0
 23 16  1  0  0  0
 16 17  2  0  0  0
 17 18  1  0  0  0
 18 19  2  0  0  0
 19 20  1  0  0  0
 20 14  1  0  0  0
 14 15  2  0  0  0
 15  1  1  0  0  0
  1  2  1  0  0  0
  2  3  2  0  0  0
  2  4  1  0  0  0
  4  7  1  0  0  0
  7  8  2  0  0  0
  8  9  1  0  0  0
  9 10  2  0  0  0
 10 11  1  0  0  0
 10 12  1  0  0  0
 20 21  2  0  0  0
 21 16  1  0  0  0
 12  7  1  0  0  0
  1  5  1  0  0  0
  4  6  1  0  0  0
 11 13  1  0  0  0
M  END
> <minimizedAffinity>
16.90135

> <CNNscore>
0.4730572104

> <CNNaffinity>
5.6373829842

> <CNN_VS>
2.6668045521

> <CNNaffinity_variance>
1.9418079853

$$$$
[H]Sc1nnc(N([H])C(=O)N([H])N=C([H])c2c([H])c([H])c([H])c(OC([H])([H])[H])c2[H])s1


 23 24  0  0  0  0  0  0  0  0999 V2000
  -13.7383   -6.6718    6.2132 N   0  0  0  0  0  0  0  0  0  0  0  0
  -13.8282   -7.4239    7.4055 C   0  0  0  0  0  0  0  0  0  0  0  0
  -14.9307   -7.9166    7.7509 O   0  0  0  0  0  0  0  0  0  0  0  0
  -12.7049   -7.6395    8.2273 N   0  0  0  0  0  0  0  0  0  0  0  0
  -12.8102   -6.2700    5.9436 H   0  0  0  0  0  0  0  0  0  0  0  0
  -11.7879   -7.2449    7.9650 H   0  0  0  0  0  0  0  0  0  0  0  0
  -12.7959   -8.4009    9.4342 C   0  0  0  0  0  0  0  0  0  0  0  0
  -12.7156   -9.7160    9.6158 N   0  0  0  0  0  0  0  0  0  0  0  0
  -12.8223  -10.2045   10.7759 N   0  0  0  0  0  0  0  0  0  0  0  0
  -13.0151   -9.4024   11.8152 C   0  0  0  0  0  0  0  0  0  0  0  0
  -13.1853   -9.9310   13.5097 S   0  0  0  0  0  0  0  0  0  0  0  0
  -13.0393   -7.8768   11.0535 S   0  0  0  0  0  0  0  0  0  0  0  0
  -12.2336  -10.9343   13.8406 H   0  0  0  0  0  0  0  0  0  0  0  0
  -15.6887   -5.5183    5.5640 C   0  0  0  0  0  0  0  0  0  0  0  0
  -14.7963   -6.4234    5.3652 N   0  0  0  0  0  0  0  0  0  0  0  0
  -19.0140   -4.5497    4.1374 C   0  0  0  0  0  0  0  0  0  0  0  0
  -18.8306   -4.9290    2.8246 C   0  0  0  0  0  0  0  0  0  0  0  0
  -17.6337   -5.4900    2.4310 C   0  0  0  0  0  0  0  0  0  0  0  0
  -16.5997   -5.6866    3.3212 C   0  0  0  0  0  0  0  0  0  0  0  0
  -16.7809   -5.3104    4.6247 C   0  0  0  0  0  0  0  0  0  0  0  0
  -17.9748   -4.7515    5.0139 C   0  0  0  0  0  0  0  0  0  0  0  0
  -20.2101   -2.8827    5.4346 C   0  0  0  0  0  0  0  0  0  0  0  0
  -20.1963   -3.9872    4.5622 O   0  0  0  0  0  0  0  0  0  0  0  0
 22 23  1  0  0  0
 23 16  1  0  0  0
 16 17  2  0  0  0
 17 18  1  0  0  0
 18 19  2  0  0  0
 19 20  1  0  0  0
 20 14  1  0  0  0
 14 15  2  0  0  0
 15  1  1  0  0  0
  1  2  1  0  0  0
  2  3  2  0  0  0
  2  4  1  0  0  0
  4  7  1  0  0  0
  7  8  2  0  0  0
  8  9  1  0  0  0
  9 10  2  0  0  0
 10 11  1  0  0  0
 10 12  1  0  0  0
 20 21  2  0  0  0
 21 16  1  0  0  0
 12  7  1  0  0  0
  1  5  1  0  0  0
  4  6  1  0  0  0
 11 13  1  0  0  0
M  END
> <minimizedAffinity>
11.45232

> <CNNscore>
0.4686935544

> <CNNaffinity>
5.4791164398

> <CNN_VS>
2.5680265427

> <CNNaffinity_variance>
1.2070356607

$$$$
[H]Sc1nnc(N([H])C(=O)N([H])N=C([H])c2c([H])c([H])c([H])c(OC([H])([H])[H])c2[H])s1


 23 24  0  0  0  0  0  0  0  0999 V2000
  -13.3079   -7.8016    8.0380 N   0  0  0  0  0  0  0  0  0  0  0  0
  -14.3844   -7.2204    7.3318 C   0  0  0  0  0  0  0  0  0  0  0  0
  -15.4933   -7.0659    7.9011 O   0  0  0  0  0  0  0  0  0  0  0  0
  -14.2488   -6.8047    5.9930 N   0  0  0  0  0  0  0  0  0  0  0  0
  -12.3924   -7.9212    7.5450 H   0  0  0  0  0  0  0  0  0  0  0  0
  -13.3477   -6.9210    5.5034 H   0  0  0  0  0  0  0  0  0  0  0  0
  -15.3386   -6.2164    5.2782 C   0  0  0  0  0  0  0  0  0  0  0  0
  -16.5983   -6.0244    5.6594 N   0  0  0  0  0  0  0  0  0  0  0  0
  -17.4237   -5.4800    4.8732 N   0  0  0  0  0  0  0  0  0  0  0  0
  -17.0317   -5.0990    3.6642 C   0  0  0  0  0  0  0  0  0  0  0  0
  -18.0686   -4.3195    2.4406 S   0  0  0  0  0  0  0  0  0  0  0  0
  -15.3901   -5.5602    3.6899 S   0  0  0  0  0  0  0  0  0  0  0  0
  -18.8967   -3.3195    3.0202 H   0  0  0  0  0  0  0  0  0  0  0  0
  -12.8725   -9.3346    9.7748 C   0  0  0  0  0  0  0  0  0  0  0  0
  -13.3730   -8.2294    9.3468 N   0  0  0  0  0  0  0  0  0  0  0  0
  -12.8641  -11.4005   12.8993 C   0  0  0  0  0  0  0  0  0  0  0  0
  -13.1858  -10.4324   13.8269 C   0  0  0  0  0  0  0  0  0  0  0  0
  -13.3981   -9.1320   13.4192 C   0  0  0  0  0  0  0  0  0  0  0  0
  -13.2976   -8.7638   12.0947 C   0  0  0  0  0  0  0  0  0  0  0  0
  -12.9784   -9.7242   11.1731 C   0  0  0  0  0  0  0  0  0  0  0  0
  -12.7673  -11.0192   11.5824 C   0  0  0  0  0  0  0  0  0  0  0  0
  -13.6972  -13.6425   13.3138 C   0  0  0  0  0  0  0  0  0  0  0  0
  -12.6462  -12.7070   13.2735 O   0  0  0  0  0  0  0  0  0  0  0  0
 22 23  1  0  0  0
 23 16  1  0  0  0
 16 17  2  0  0  0
 17 18  1  0  0  0
 18 19  2  0  0  0
 19 20  1  0  0  0
 20 14  1  0  0  0
 14 15  2  0  0  0
 15  1  1  0  0  0
  1  2  1  0  0  0
  2  3  2  0  0  0
  2  4  1  0  0  0
  4  7  1  0  0  0
  7  8  2  0  0  0
  8  9  1  0  0  0
  9 10  2  0  0  0
 10 11  1  0  0  0
 10 12  1  0  0  0
 20 21  2  0  0  0
 21 16  1  0  0  0
 12  7  1  0  0  0
  1  5  1  0  0  0
  4  6  1  0  0  0
 11 13  1  0  0  0
M  END
> <minimizedAffinity>
18.08265

> <CNNscore>
0.4572490454

> <CNNaffinity>
5.5355896950

> <CNN_VS>
2.5311431885

> <CNNaffinity_variance>
1.3693951368

$$$$
[H]Sc1nnc(N([H])C(=O)N([H])N=C([H])c2c([H])c([H])c([H])c(OC([H])([H])[H])c2[H])s1


 23 24  0  0  0  0  0  0  0  0999 V2000
  -12.8822   -8.8238    7.4599 N   0  0  0  0  0  0  0  0  0  0  0  0
  -11.5482   -8.3644    7.3914 C   0  0  0  0  0  0  0  0  0  0  0  0
  -11.2763   -7.3342    6.7262 O   0  0  0  0  0  0  0  0  0  0  0  0
  -10.5026   -9.0355    8.0547 N   0  0  0  0  0  0  0  0  0  0  0  0
  -13.0871   -9.6842    8.0198 H   0  0  0  0  0  0  0  0  0  0  0  0
  -10.7006   -9.8842    8.6077 H   0  0  0  0  0  0  0  0  0  0  0  0
   -9.1522   -8.5703    7.9853 C   0  0  0  0  0  0  0  0  0  0  0  0
   -8.5577   -7.5880    8.6567 N   0  0  0  0  0  0  0  0  0  0  0  0
   -7.3391   -7.3258    8.4517 N   0  0  0  0  0  0  0  0  0  0  0  0
   -6.6515   -8.0327    7.5640 C   0  0  0  0  0  0  0  0  0  0  0  0
   -4.9318   -7.7902    7.1596 S   0  0  0  0  0  0  0  0  0  0  0  0
   -7.8444   -9.1205    7.0144 S   0  0  0  0  0  0  0  0  0  0  0  0
   -4.1468   -7.5805    8.3265 H   0  0  0  0  0  0  0  0  0  0  0  0
  -13.8576   -7.1688    6.0940 C   0  0  0  0  0  0  0  0  0  0  0  0
  -13.9504   -8.2157    6.8361 N   0  0  0  0  0  0  0  0  0  0  0  0
  -17.2954   -6.7540    4.6659 C   0  0  0  0  0  0  0  0  0  0  0  0
  -17.2330   -5.4342    4.2720 C   0  0  0  0  0  0  0  0  0  0  0  0
  -16.0785   -4.7082    4.4779 C   0  0  0  0  0  0  0  0  0  0  0  0
  -14.9688   -5.2682    5.0737 C   0  0  0  0  0  0  0  0  0  0  0  0
  -15.0297   -6.5783    5.4651 C   0  0  0  0  0  0  0  0  0  0  0  0
  -16.1817   -7.2992    5.2585 C   0  0  0  0  0  0  0  0  0  0  0  0
  -18.5116   -8.8398    4.9167 C   0  0  0  0  0  0  0  0  0  0  0  0
  -18.4325   -7.5057    4.4746 O   0  0  0  0  0  0  0  0  0  0  0  0
 22 23  1  0  0  0
 23 16  1  0  0  0
 16 17  2  0  0  0
 17 18  1  0  0  0
 18 19  2  0  0  0
 19 20  1  0  0  0
 20 14  1  0  0  0
 14 15  2  0  0  0
 15  1  1  0  0  0
  1  2  1  0  0  0
  2  3  2  0  0  0
  2  4  1  0  0  0
  4  7  1  0  0  0
  7  8  2  0  0  0
  8  9  1  0  0  0
  9 10  2  0  0  0
 10 11  1  0  0  0
 10 12  1  0  0  0
 20 21  2  0  0  0
 21 16  1  0  0  0
 12  7  1  0  0  0
  1  5  1  0  0  0
  4  6  1  0  0  0
 11 13  1  0  0  0
M  END
> <minimizedAffinity>
-5.81744

> <CNNscore>
0.4383926392

> <CNNaffinity>
5.8424806595

> <CNN_VS>
2.5613005161

> <CNNaffinity_variance>
0.2864197493

$$$$
[H]Sc1nnc(N([H])C(=O)N([H])N=C([H])c2c([H])c([H])c([H])c(OC([H])([H])[H])c2[H])s1


 23 24  0  0  0  0  0  0  0  0999 V2000
  -11.5352   -9.4522    7.3765 N   0  0  0  0  0  0  0  0  0  0  0  0
  -12.6722   -8.7480    6.9220 C   0  0  0  0  0  0  0  0  0  0  0  0
  -12.6013   -7.5098    6.7234 O   0  0  0  0  0  0  0  0  0  0  0  0
  -13.8968   -9.4013    6.6826 N   0  0  0  0  0  0  0  0  0  0  0  0
  -11.6158  -10.4835    7.5356 H   0  0  0  0  0  0  0  0  0  0  0  0
  -13.9803  -10.4182    6.8384 H   0  0  0  0  0  0  0  0  0  0  0  0
  -15.0477   -8.6884    6.2225 C   0  0  0  0  0  0  0  0  0  0  0  0
  -15.9693   -8.0266    6.9165 N   0  0  0  0  0  0  0  0  0  0  0  0
  -16.9240   -7.4538    6.3195 N   0  0  0  0  0  0  0  0  0  0  0  0
  -17.0064   -7.5135    4.9965 C   0  0  0  0  0  0  0  0  0  0  0  0
  -18.2856   -6.7622    4.0069 S   0  0  0  0  0  0  0  0  0  0  0  0
  -15.6285   -8.4460    4.6225 S   0  0  0  0  0  0  0  0  0  0  0  0
  -18.5838   -5.4455    4.4533 H   0  0  0  0  0  0  0  0  0  0  0  0
   -9.1862   -9.3443    7.2128 C   0  0  0  0  0  0  0  0  0  0  0  0
  -10.3092   -8.8752    7.6299 N   0  0  0  0  0  0  0  0  0  0  0  0
   -5.6355   -8.1756    6.9742 C   0  0  0  0  0  0  0  0  0  0  0  0
   -5.5559   -7.4166    8.1225 C   0  0  0  0  0  0  0  0  0  0  0  0
   -6.6544   -7.3005    8.9483 C   0  0  0  0  0  0  0  0  0  0  0  0
   -7.8469   -7.9282    8.6581 C   0  0  0  0  0  0  0  0  0  0  0  0
   -7.9269   -8.6819    7.5184 C   0  0  0  0  0  0  0  0  0  0  0  0
   -6.8304   -8.7957    6.6974 C   0  0  0  0  0  0  0  0  0  0  0  0
   -3.2709   -7.8846    6.5085 C   0  0  0  0  0  0  0  0  0  0  0  0
   -4.5575   -8.3117    6.1292 O   0  0  0  0  0  0  0  0  0  0  0  0
 22 23  1  0  0  0
 23 16  1  0  0  0
 16 17  2  0  0  0
 17 18  1  0  0  0
 18 19  2  0  0  0
 19 20  1  0  0  0
 20 14  1  0  0  0
 14 15  2  0  0  0
 15  1  1  0  0  0
  1  2  1  0  0  0
  2  3  2  0  0  0
  2  4  1  0  0  0
  4  7  1  0  0  0
  7  8  2  0  0  0
  8  9  1  0  0  0
  9 10  2  0  0  0
 10 11  1  0  0  0
 10 12  1  0  0  0
 20 21  2  0  0  0
 21 16  1  0  0  0
 12  7  1  0  0  0
  1  5  1  0  0  0
  4  6  1  0  0  0
 11 13  1  0  0  0
M  END
> <minimizedAffinity>
-6.26256

> <CNNscore>
0.4015007615

> <CNNaffinity>
5.7145233154

> <CNN_VS>
2.2943854332

> <CNNaffinity_variance>
0.2046946734

$$$$
[H]c1c([H])c(-c2c([H])c(SC([H])([H])[H])n([H])c2-c2c([H])c([H])c(S(=O)(=O)C([H])([H])[H])c([H])c2[H])c([H])c([H])c1F


 25 27  0  0  0  0  0  0  0  0999 V2000
  -13.1694   -9.8097   10.9844 C   0  0  0  0  0  0  0  0  0  0  0  0
  -12.6095   -8.5561   11.2729 C   0  0  0  0  0  0  0  0  0  0  0  0
  -12.9708   -7.6816   10.2783 C   0  0  0  0  0  0  0  0  0  0  0  0
  -13.7404   -8.3900    9.3944 C   0  0  0  0  0  0  0  0  0  0  0  0
  -13.8479   -9.6639    9.8355 N   0  0  0  0  0  0  0  0  0  0  0  0
  -14.3683  -10.4368    9.3795 H   0  0  0  0  0  0  0  0  0  0  0  0
  -12.6088   -6.2790   10.1817 C   0  0  0  0  0  0  0  0  0  0  0  0
  -13.4788   -5.2973   10.6100 C   0  0  0  0  0  0  0  0  0  0  0  0
  -13.1814   -3.9769   10.5353 C   0  0  0  0  0  0  0  0  0  0  0  0
  -11.9764   -3.5720   10.0186 C   0  0  0  0  0  0  0  0  0  0  0  0
  -11.7277   -2.2528    9.9647 F   0  0  0  0  0  0  0  0  0  0  0  0
  -11.0804   -4.5363    9.5797 C   0  0  0  0  0  0  0  0  0  0  0  0
  -11.3942   -5.8696    9.6611 C   0  0  0  0  0  0  0  0  0  0  0  0
  -14.3261   -7.8379    8.1884 C   0  0  0  0  0  0  0  0  0  0  0  0
  -13.5012   -7.2286    7.2369 C   0  0  0  0  0  0  0  0  0  0  0  0
  -14.1287   -6.7309    6.1153 C   0  0  0  0  0  0  0  0  0  0  0  0
  -15.4816   -6.8022    5.8944 C   0  0  0  0  0  0  0  0  0  0  0  0
  -16.2864   -7.4051    6.8396 C   0  0  0  0  0  0  0  0  0  0  0  0
  -15.6971   -7.9072    7.9593 C   0  0  0  0  0  0  0  0  0  0  0  0
  -16.2411   -6.1654    4.4598 S   0  0  0  0  0  0  0  0  0  0  0  0
  -15.4901   -4.5949    4.0762 C   0  0  0  0  0  0  0  0  0  0  0  0
  -17.7075   -5.9214    4.7518 O   0  0  0  0  0  0  0  0  0  0  0  0
  -16.1716   -7.1294    3.3299 O   0  0  0  0  0  0  0  0  0  0  0  0
  -12.5227  -11.0523   13.6212 C   0  0  0  0  0  0  0  0  0  0  0  0
  -13.0375  -11.3191   11.9114 S   0  0  0  0  0  0  0  0  0  0  0  0
 24 25  1  0  0  0
 25  1  1  0  0  0
  1  2  2  0  0  0
  2  3  1  0  0  0
  3  7  1  0  0  0
  7  8  2  0  0  0
  8  9  1  0  0  0
  9 10  2  0  0  0
 10 11  1  0  0  0
 10 12  1  0  0  0
 12 13  2  0  0  0
  3  4  2  0  0  0
  4 14  1  0  0  0
 14 15  2  0  0  0
 15 16  1  0  0  0
 16 17  2  0  0  0
 17 20  1  0  0  0
 20 21  1  0  0  0
 20 22  2  0  0  0
 20 23  2  0  0  0
 17 18  1  0  0  0
 18 19  2  0  0  0
  4  5  1  0  0  0
  5  1  1  0  0  0
 13  7  1  0  0  0
 19 14  1  0  0  0
  5  6  1  0  0  0
M  END
> <minimizedAffinity>
7.62445

> <CNNscore>
0.5438261032

> <CNNaffinity>
6.4848265648

> <CNN_VS>
3.5266180038

> <CNNaffinity_variance>
0.5748581290

$$$$
[H]c1c([H])c(-c2c([H])c(SC([H])([H])[H])n([H])c2-c2c([H])c([H])c(S(=O)(=O)C([H])([H])[H])c([H])c2[H])c([H])c([H])c1F


 25 27  0  0  0  0  0  0  0  0999 V2000
  -14.7030   -7.2025    5.9179 C   0  0  0  0  0  0  0  0  0  0  0  0
  -13.4894   -7.8359    5.6107 C   0  0  0  0  0  0  0  0  0  0  0  0
  -12.6579   -7.7285    6.6978 C   0  0  0  0  0  0  0  0  0  0  0  0
  -13.3527   -7.0394    7.6557 C   0  0  0  0  0  0  0  0  0  0  0  0
  -14.5767   -6.7330    7.1691 N   0  0  0  0  0  0  0  0  0  0  0  0
  -15.3286   -6.2149    7.6614 H   0  0  0  0  0  0  0  0  0  0  0  0
  -11.3058   -8.2449    6.8110 C   0  0  0  0  0  0  0  0  0  0  0  0
  -10.2618   -7.4119    7.1575 C   0  0  0  0  0  0  0  0  0  0  0  0
   -8.9850   -7.8527    7.2715 C   0  0  0  0  0  0  0  0  0  0  0  0
   -8.6903   -9.1725    7.0394 C   0  0  0  0  0  0  0  0  0  0  0  0
   -7.4103   -9.5615    7.1642 F   0  0  0  0  0  0  0  0  0  0  0  0
   -9.7194  -10.0349    6.6892 C   0  0  0  0  0  0  0  0  0  0  0  0
  -11.0075   -9.5754    6.5772 C   0  0  0  0  0  0  0  0  0  0  0  0
  -12.8322   -6.7035    8.9666 C   0  0  0  0  0  0  0  0  0  0  0  0
  -11.5869   -6.0751    9.0746 C   0  0  0  0  0  0  0  0  0  0  0  0
  -11.1599   -5.7833   10.3521 C   0  0  0  0  0  0  0  0  0  0  0  0
  -11.8756   -6.0710   11.4877 C   0  0  0  0  0  0  0  0  0  0  0  0
  -13.1028   -6.6913   11.3700 C   0  0  0  0  0  0  0  0  0  0  0  0
  -13.5533   -6.9929   10.1213 C   0  0  0  0  0  0  0  0  0  0  0  0
  -11.3058   -5.6824   13.0891 S   0  0  0  0  0  0  0  0  0  0  0  0
  -11.8053   -6.9879   14.1956 C   0  0  0  0  0  0  0  0  0  0  0  0
  -11.9743   -4.4025   13.5472 O   0  0  0  0  0  0  0  0  0  0  0  0
   -9.8385   -5.4428   13.1048 O   0  0  0  0  0  0  0  0  0  0  0  0
  -16.4135   -5.3238    4.3495 C   0  0  0  0  0  0  0  0  0  0  0  0
  -16.1457   -7.0231    4.8974 S   0  0  0  0  0  0  0  0  0  0  0  0
 24 25  1  0  0  0
 25  1  1  0  0  0
  1  2  2  0  0  0
  2  3  1  0  0  0
  3  7  1  0  0  0
  7  8  2  0  0  0
  8  9  1  0  0  0
  9 10  2  0  0  0
 10 11  1  0  0  0
 10 12  1  0  0  0
 12 13  2  0  0  0
  3  4  2  0  0  0
  4 14  1  0  0  0
 14 15  2  0  0  0
 15 16  1  0  0  0
 16 17  2  0  0  0
 17 20  1  0  0  0
 20 21  1  0  0  0
 20 22  2  0  0  0
 20 23  2  0  0  0
 17 18  1  0  0  0
 18 19  2  0  0  0
  4  5  1  0  0  0
  5  1  1  0  0  0
 13  7  1  0  0  0
 19 14  1  0  0  0
  5  6  1  0  0  0
M  END
> <minimizedAffinity>
2.51853

> <CNNscore>
0.5198120475

> <CNNaffinity>
6.4950227737

> <CNN_VS>
3.3761911392

> <CNNaffinity_variance>
0.6113314629

$$$$
[H]c1c([H])c(-c2c([H])c(SC([H])([H])[H])n([H])c2-c2c([H])c([H])c(S(=O)(=O)C([H])([H])[H])c([H])c2[H])c([H])c([H])c1F


 25 27  0  0  0  0  0  0  0  0999 V2000
  -11.6562   -6.9513    8.0102 C   0  0  0  0  0  0  0  0  0  0  0  0
  -11.1675   -8.2584    8.1545 C   0  0  0  0  0  0  0  0  0  0  0  0
   -9.8372   -8.2629    7.8154 C   0  0  0  0  0  0  0  0  0  0  0  0
   -9.5171   -6.9773    7.4688 C   0  0  0  0  0  0  0  0  0  0  0  0
  -10.6211   -6.2060    7.5923 N   0  0  0  0  0  0  0  0  0  0  0  0
  -10.6921   -5.1888    7.4013 H   0  0  0  0  0  0  0  0  0  0  0  0
   -8.9431   -9.4066    7.8232 C   0  0  0  0  0  0  0  0  0  0  0  0
   -7.8029   -9.4024    8.6003 C   0  0  0  0  0  0  0  0  0  0  0  0
   -6.9405  -10.4477    8.6346 C   0  0  0  0  0  0  0  0  0  0  0  0
   -7.1856  -11.5658    7.8780 C   0  0  0  0  0  0  0  0  0  0  0  0
   -6.3017  -12.5755    7.9449 F   0  0  0  0  0  0  0  0  0  0  0  0
   -8.3246  -11.5997    7.0862 C   0  0  0  0  0  0  0  0  0  0  0  0
   -9.1892  -10.5345    7.0608 C   0  0  0  0  0  0  0  0  0  0  0  0
   -8.2016   -6.5453    7.0387 C   0  0  0  0  0  0  0  0  0  0  0  0
   -7.9527   -6.3422    5.6770 C   0  0  0  0  0  0  0  0  0  0  0  0
   -6.6809   -5.9282    5.3448 C   0  0  0  0  0  0  0  0  0  0  0  0
   -5.6783   -5.7126    6.2573 C   0  0  0  0  0  0  0  0  0  0  0  0
   -5.9342   -5.9162    7.5981 C   0  0  0  0  0  0  0  0  0  0  0  0
   -7.1813   -6.3254    7.9594 C   0  0  0  0  0  0  0  0  0  0  0  0
   -4.0808   -5.1837    5.8008 S   0  0  0  0  0  0  0  0  0  0  0  0
   -3.3325   -4.3790    7.2045 C   0  0  0  0  0  0  0  0  0  0  0  0
   -4.2047   -4.1616    4.6895 O   0  0  0  0  0  0  0  0  0  0  0  0
   -3.2613   -6.3077    5.2758 O   0  0  0  0  0  0  0  0  0  0  0  0
  -14.3985   -6.5828    6.8879 C   0  0  0  0  0  0  0  0  0  0  0  0
  -13.3010   -6.3476    8.3021 S   0  0  0  0  0  0  0  0  0  0  0  0
 24 25  1  0  0  0
 25  1  1  0  0  0
  1  2  2  0  0  0
  2  3  1  0  0  0
  3  7  1  0  0  0
  7  8  2  0  0  0
  8  9  1  0  0  0
  9 10  2  0  0  0
 10 11  1  0  0  0
 10 12  1  0  0  0
 12 13  2  0  0  0
  3  4  2  0  0  0
  4 14  1  0  0  0
 14 15  2  0  0  0
 15 16  1  0  0  0
 16 17  2  0  0  0
 17 20  1  0  0  0
 20 21  1  0  0  0
 20 22  2  0  0  0
 20 23  2  0  0  0
 17 18  1  0  0  0
 18 19  2  0  0  0
  4  5  1  0  0  0
  5  1  1  0  0  0
 13  7  1  0  0  0
 19 14  1  0  0  0
  5  6  1  0  0  0
M  END
> <minimizedAffinity>
4.39676

> <CNNscore>
0.4659085870

> <CNNaffinity>
5.8284926414

> <CNN_VS>
2.7155447006

> <CNNaffinity_variance>
0.6270318031

$$$$
[H]c1c([H])c(-c2c([H])c(SC([H])([H])[H])n([H])c2-c2c([H])c([H])c(S(=O)(=O)C([H])([H])[H])c([H])c2[H])c([H])c([H])c1F


 25 27  0  0  0  0  0  0  0  0999 V2000
  -10.4874  -10.4740    6.4379 C   0  0  0  0  0  0  0  0  0  0  0  0
  -11.6536  -10.1159    5.7450 C   0  0  0  0  0  0  0  0  0  0  0  0
  -12.2739   -9.1044    6.4355 C   0  0  0  0  0  0  0  0  0  0  0  0
  -11.4985   -8.8477    7.5347 C   0  0  0  0  0  0  0  0  0  0  0  0
  -10.4320   -9.6791    7.5181 N   0  0  0  0  0  0  0  0  0  0  0  0
   -9.6678   -9.7225    8.2184 H   0  0  0  0  0  0  0  0  0  0  0  0
  -13.5103   -8.4361    6.0719 C   0  0  0  0  0  0  0  0  0  0  0  0
  -14.5240   -9.1276    5.4409 C   0  0  0  0  0  0  0  0  0  0  0  0
  -15.6924   -8.5414    5.0821 C   0  0  0  0  0  0  0  0  0  0  0  0
  -15.9026   -7.2110    5.3439 C   0  0  0  0  0  0  0  0  0  0  0  0
  -17.0761   -6.6748    4.9687 F   0  0  0  0  0  0  0  0  0  0  0  0
  -14.9013   -6.4889    5.9776 C   0  0  0  0  0  0  0  0  0  0  0  0
  -13.7234   -7.0948    6.3354 C   0  0  0  0  0  0  0  0  0  0  0  0
  -11.8006   -7.8453    8.5378 C   0  0  0  0  0  0  0  0  0  0  0  0
  -12.9324   -7.9968    9.3460 C   0  0  0  0  0  0  0  0  0  0  0  0
  -13.1524   -7.0066   10.2790 C   0  0  0  0  0  0  0  0  0  0  0  0
  -12.3396   -5.9132   10.4476 C   0  0  0  0  0  0  0  0  0  0  0  0
  -11.2258   -5.7732    9.6448 C   0  0  0  0  0  0  0  0  0  0  0  0
  -10.9803   -6.7348    8.7129 C   0  0  0  0  0  0  0  0  0  0  0  0
  -12.6464   -4.6813   11.6428 S   0  0  0  0  0  0  0  0  0  0  0  0
  -11.6623   -5.0402   13.0852 C   0  0  0  0  0  0  0  0  0  0  0  0
  -14.1051   -4.7461   12.0464 O   0  0  0  0  0  0  0  0  0  0  0  0
  -12.3996   -3.3191   11.1005 O   0  0  0  0  0  0  0  0  0  0  0  0
   -8.8041  -11.6740    4.2836 C   0  0  0  0  0  0  0  0  0  0  0  0
   -9.2925  -11.7203    6.0211 S   0  0  0  0  0  0  0  0  0  0  0  0
 24 25  1  0  0  0
 25  1  1  0  0  0
  1  2  2  0  0  0
  2  3  1  0  0  0
  3  7  1  0  0  0
  7  8  2  0  0  0
  8  9  1  0  0  0
  9 10  2  0  0  0
 10 11  1  0  0  0
 10 12  1  0  0  0
 12 13  2  0  0  0
  3  4  2  0  0  0
  4 14  1  0  0  0
 14 15  2  0  0  0
 15 16  1  0  0  0
 16 17  2  0  0  0
 17 20  1  0  0  0
 20 21  1  0  0  0
 20 22  2  0  0  0
 20 23  2  0  0  0
 17 18  1  0  0  0
 18 19  2  0  0  0
  4  5  1  0  0  0
  5  1  1  0  0  0
 13  7  1  0  0  0
 19 14  1  0  0  0
  5  6  1  0  0  0
M  END
> <minimizedAffinity>
3.71190

> <CNNscore>
0.4146305621

> <CNNaffinity>
6.3364629745

> <CNN_VS>
2.6272912025

> <CNNaffinity_variance>
0.8815673590

$$$$
[H]c1c([H])c(-c2c([H])c(SC([H])([H])[H])n([H])c2-c2c([H])c([H])c(S(=O)(=O)C([H])([H])[H])c([H])c2[H])c([H])c([H])c1F


 25 27  0  0  0  0  0  0  0  0999 V2000
  -10.8094   -9.9533    6.9616 C   0  0  0  0  0  0  0  0  0  0  0  0
  -10.8853   -9.1477    8.1077 C   0  0  0  0  0  0  0  0  0  0  0  0
  -11.9646   -8.3096    7.9768 C   0  0  0  0  0  0  0  0  0  0  0  0
  -12.5404   -8.5983    6.7683 C   0  0  0  0  0  0  0  0  0  0  0  0
  -11.8332   -9.5866    6.1749 N   0  0  0  0  0  0  0  0  0  0  0  0
  -12.0254  -10.0192    5.2518 H   0  0  0  0  0  0  0  0  0  0  0  0
  -12.4102   -7.3119    8.9328 C   0  0  0  0  0  0  0  0  0  0  0  0
  -11.6088   -6.2341    9.2491 C   0  0  0  0  0  0  0  0  0  0  0  0
  -11.9852   -5.2822   10.1377 C   0  0  0  0  0  0  0  0  0  0  0  0
  -13.2043   -5.3680   10.7615 C   0  0  0  0  0  0  0  0  0  0  0  0
  -13.5324   -4.4010   11.6347 F   0  0  0  0  0  0  0  0  0  0  0  0
  -14.0326   -6.4408   10.4638 C   0  0  0  0  0  0  0  0  0  0  0  0
  -13.6391   -7.3974    9.5623 C   0  0  0  0  0  0  0  0  0  0  0  0
  -13.7134   -7.9323    6.2366 C   0  0  0  0  0  0  0  0  0  0  0  0
  -13.6669   -6.5593    5.9718 C   0  0  0  0  0  0  0  0  0  0  0  0
  -14.8183   -5.9970    5.4642 C   0  0  0  0  0  0  0  0  0  0  0  0
  -15.9719   -6.6977    5.2141 C   0  0  0  0  0  0  0  0  0  0  0  0
  -16.0071   -8.0516    5.4791 C   0  0  0  0  0  0  0  0  0  0  0  0
  -14.8857   -8.6376    5.9812 C   0  0  0  0  0  0  0  0  0  0  0  0
  -17.4095   -5.9534    4.5663 S   0  0  0  0  0  0  0  0  0  0  0  0
  -18.4515   -7.2342    3.8943 C   0  0  0  0  0  0  0  0  0  0  0  0
  -17.0124   -5.0326    3.4308 O   0  0  0  0  0  0  0  0  0  0  0  0
  -18.1022   -5.1219    5.5858 O   0  0  0  0  0  0  0  0  0  0  0  0
   -9.0532  -11.1446    4.8611 C   0  0  0  0  0  0  0  0  0  0  0  0
   -9.6204  -11.2146    6.5738 S   0  0  0  0  0  0  0  0  0  0  0  0
 24 25  1  0  0  0
 25  1  1  0  0  0
  1  2  2  0  0  0
  2  3  1  0  0  0
  3  7  1  0  0  0
  7  8  2  0  0  0
  8  9  1  0  0  0
  9 10  2  0  0  0
 10 11  1  0  0  0
 10 12  1  0  0  0
 12 13  2  0  0  0
  3  4  2  0  0  0
  4 14  1  0  0  0
 14 15  2  0  0  0
 15 16  1  0  0  0
 16 17  2  0  0  0
 17 20  1  0  0  0
 20 21  1  0  0  0
 20 22  2  0  0  0
 20 23  2  0  0  0
 17 18  1  0  0  0
 18 19  2  0  0  0
  4  5  1  0  0  0
  5  1  1  0  0  0
 13  7  1  0  0  0
 19 14  1  0  0  0
  5  6  1  0  0  0
M  END
> <minimizedAffinity>
-4.12036

> <CNNscore>
0.4066882133

> <CNNaffinity>
6.3332023621

> <CNN_VS>
2.5756387711

> <CNNaffinity_variance>
0.0435489565

$$$$
[H]c1c([H])c(-c2c([H])c(SC([H])([H])[H])n([H])c2-c2c([H])c([H])c(S(=O)(=O)C([H])([H])[H])c([H])c2[H])c([H])c([H])c1F


 25 27  0  0  0  0  0  0  0  0999 V2000
  -18.9839   -8.9407    5.7865 C   0  0  0  0  0  0  0  0  0  0  0  0
  -18.5504   -7.9366    4.9079 C   0  0  0  0  0  0  0  0  0  0  0  0
  -17.3997   -7.3854    5.4146 C   0  0  0  0  0  0  0  0  0  0  0  0
  -17.1335   -8.0427    6.5860 C   0  0  0  0  0  0  0  0  0  0  0  0
  -18.0946   -8.9716    6.7915 N   0  0  0  0  0  0  0  0  0  0  0  0
  -18.1644   -9.6257    7.5937 H   0  0  0  0  0  0  0  0  0  0  0  0
  -16.6167   -6.3149    4.8242 C   0  0  0  0  0  0  0  0  0  0  0  0
  -17.0894   -5.0185    4.8191 C   0  0  0  0  0  0  0  0  0  0  0  0
  -16.3919   -3.9907    4.2763 C   0  0  0  0  0  0  0  0  0  0  0  0
  -15.1662   -4.2188    3.7033 C   0  0  0  0  0  0  0  0  0  0  0  0
  -14.5133   -3.1686    3.1779 F   0  0  0  0  0  0  0  0  0  0  0  0
  -14.6643   -5.5124    3.6932 C   0  0  0  0  0  0  0  0  0  0  0  0
  -15.3808   -6.5436    4.2462 C   0  0  0  0  0  0  0  0  0  0  0  0
  -16.0008   -7.7625    7.4467 C   0  0  0  0  0  0  0  0  0  0  0  0
  -15.9522   -8.3224    8.7278 C   0  0  0  0  0  0  0  0  0  0  0  0
  -14.8433   -8.0144    9.4862 C   0  0  0  0  0  0  0  0  0  0  0  0
  -13.8168   -7.2098    9.0578 C   0  0  0  0  0  0  0  0  0  0  0  0
  -13.8748   -6.6623    7.7923 C   0  0  0  0  0  0  0  0  0  0  0  0
  -14.9574   -6.9474    7.0178 C   0  0  0  0  0  0  0  0  0  0  0  0
  -12.4255   -6.8455   10.0436 S   0  0  0  0  0  0  0  0  0  0  0  0
  -12.4193   -5.0953   10.3822 C   0  0  0  0  0  0  0  0  0  0  0  0
  -11.1722   -7.1722    9.2578 O   0  0  0  0  0  0  0  0  0  0  0  0
  -12.3986   -7.6721   11.2792 O   0  0  0  0  0  0  0  0  0  0  0  0
  -20.7669  -10.8955    7.1704 C   0  0  0  0  0  0  0  0  0  0  0  0
  -20.4128   -9.9870    5.6509 S   0  0  0  0  0  0  0  0  0  0  0  0
 24 25  1  0  0  0
 25  1  1  0  0  0
  1  2  2  0  0  0
  2  3  1  0  0  0
  3  7  1  0  0  0
  7  8  2  0  0  0
  8  9  1  0  0  0
  9 10  2  0  0  0
 10 11  1  0  0  0
 10 12  1  0  0  0
 12 13  2  0  0  0
  3  4  2  0  0  0
  4 14  1  0  0  0
 14 15  2  0  0  0
 15 16  1  0  0  0
 16 17  2  0  0  0
 17 20  1  0  0  0
 20 21  1  0  0  0
 20 22  2  0  0  0
 20 23  2  0  0  0
 17 18  1  0  0  0
 18 19  2  0  0  0
  4  5  1  0  0  0
  5  1  1  0  0  0
 13  7  1  0  0  0
 19 14  1  0  0  0
  5  6  1  0  0  0
M  END
> <minimizedAffinity>
-2.64267

> <CNNscore>
0.3928156197

> <CNNaffinity>
6.4828529358

> <CNN_VS>
2.5465660095

> <CNNaffinity_variance>
0.1915487796

$$$$
[H]c1c([H])c(-c2c([H])c(SC([H])([H])[H])n([H])c2-c2c([H])c([H])c(S(=O)(=O)C([H])([H])[H])c([H])c2[H])c([H])c([H])c1F


 25 27  0  0  0  0  0  0  0  0999 V2000
  -11.5917   -6.0722    9.6352 C   0  0  0  0  0  0  0  0  0  0  0  0
  -11.7629   -7.3409    9.0615 C   0  0  0  0  0  0  0  0  0  0  0  0
  -10.5952   -7.6917    8.4305 C   0  0  0  0  0  0  0  0  0  0  0  0
   -9.7227   -6.6527    8.6157 C   0  0  0  0  0  0  0  0  0  0  0  0
  -10.3388   -5.6914    9.3404 N   0  0  0  0  0  0  0  0  0  0  0  0
   -9.9335   -4.7849    9.6408 H   0  0  0  0  0  0  0  0  0  0  0  0
  -10.3349   -8.9239    7.7083 C   0  0  0  0  0  0  0  0  0  0  0  0
   -9.0850   -9.5074    7.7412 C   0  0  0  0  0  0  0  0  0  0  0  0
   -8.7991  -10.6554    7.0795 C   0  0  0  0  0  0  0  0  0  0  0  0
   -9.7704  -11.2830    6.3409 C   0  0  0  0  0  0  0  0  0  0  0  0
   -9.4388  -12.4177    5.7023 F   0  0  0  0  0  0  0  0  0  0  0  0
  -11.0376  -10.7201    6.2887 C   0  0  0  0  0  0  0  0  0  0  0  0
  -11.3134   -9.5576    6.9634 C   0  0  0  0  0  0  0  0  0  0  0  0
   -8.3674   -6.6160    8.1017 C   0  0  0  0  0  0  0  0  0  0  0  0
   -8.1469   -6.2907    6.7590 C   0  0  0  0  0  0  0  0  0  0  0  0
   -6.8328   -6.2720    6.3440 C   0  0  0  0  0  0  0  0  0  0  0  0
   -5.7638   -6.5488    7.1596 C   0  0  0  0  0  0  0  0  0  0  0  0
   -5.9924   -6.8688    8.4824 C   0  0  0  0  0  0  0  0  0  0  0  0
   -7.2799   -6.8958    8.9239 C   0  0  0  0  0  0  0  0  0  0  0  0
   -4.1126   -6.5108    6.6008 S   0  0  0  0  0  0  0  0  0  0  0  0
   -3.1164   -5.7123    7.8450 C   0  0  0  0  0  0  0  0  0  0  0  0
   -4.0435   -5.6728    5.3406 O   0  0  0  0  0  0  0  0  0  0  0  0
   -3.6210   -7.8702    6.2532 O   0  0  0  0  0  0  0  0  0  0  0  0
  -12.6068   -3.3387   10.2780 C   0  0  0  0  0  0  0  0  0  0  0  0
  -12.7605   -5.1140   10.5684 S   0  0  0  0  0  0  0  0  0  0  0  0
 24 25  1  0  0  0
 25  1  1  0  0  0
  1  2  2  0  0  0
  2  3  1  0  0  0
  3  7  1  0  0  0
  7  8  2  0  0  0
  8  9  1  0  0  0
  9 10  2  0  0  0
 10 11  1  0  0  0
 10 12  1  0  0  0
 12 13  2  0  0  0
  3  4  2  0  0  0
  4 14  1  0  0  0
 14 15  2  0  0  0
 15 16  1  0  0  0
 16 17  2  0  0  0
 17 20  1  0  0  0
 20 21  1  0  0  0
 20 22  2  0  0  0
 20 23  2  0  0  0
 17 18  1  0  0  0
 18 19  2  0  0  0
  4  5  1  0  0  0
  5  1  1  0  0  0
 13  7  1  0  0  0
 19 14  1  0  0  0
  5  6  1  0  0  0
M  END
> <minimizedAffinity>
-2.86780

> <CNNscore>
0.3924769163

> <CNNaffinity>
5.8217859268

> <CNN_VS>
2.2849166393

> <CNNaffinity_variance>
0.2492953837

$$$$
[H]c1c([H])c(-c2c([H])c(SC([H])([H])[H])n([H])c2-c2c([H])c([H])c(S(=O)(=O)C([H])([H])[H])c([H])c2[H])c([H])c([H])c1F


 25 27  0  0  0  0  0  0  0  0999 V2000
  -15.4401   -8.1819    5.8314 C   0  0  0  0  0  0  0  0  0  0  0  0
  -15.4808   -7.4803    7.0456 C   0  0  0  0  0  0  0  0  0  0  0  0
  -14.2330   -7.5297    7.6159 C   0  0  0  0  0  0  0  0  0  0  0  0
  -13.4409   -8.2510    6.7630 C   0  0  0  0  0  0  0  0  0  0  0  0
  -14.1829   -8.6331    5.6989 N   0  0  0  0  0  0  0  0  0  0  0  0
  -13.8608   -9.1909    4.8857 H   0  0  0  0  0  0  0  0  0  0  0  0
  -13.8305   -6.9332    8.8768 C   0  0  0  0  0  0  0  0  0  0  0  0
  -13.4684   -5.6034    8.9416 C   0  0  0  0  0  0  0  0  0  0  0  0
  -13.0840   -5.0083   10.0973 C   0  0  0  0  0  0  0  0  0  0  0  0
  -13.0441   -5.7317   11.2625 C   0  0  0  0  0  0  0  0  0  0  0  0
  -12.6560   -5.0982   12.3820 F   0  0  0  0  0  0  0  0  0  0  0  0
  -13.4028   -7.0718   11.2291 C   0  0  0  0  0  0  0  0  0  0  0  0
  -13.7900   -7.6616   10.0523 C   0  0  0  0  0  0  0  0  0  0  0  0
  -12.0398   -8.5450    6.9932 C   0  0  0  0  0  0  0  0  0  0  0  0
  -11.5557   -9.8343    6.7472 C   0  0  0  0  0  0  0  0  0  0  0  0
  -10.2134  -10.0372    6.9850 C   0  0  0  0  0  0  0  0  0  0  0  0
   -9.3561   -9.0652    7.4375 C   0  0  0  0  0  0  0  0  0  0  0  0
   -9.8440   -7.7967    7.6773 C   0  0  0  0  0  0  0  0  0  0  0  0
  -11.1662   -7.5636    7.4520 C   0  0  0  0  0  0  0  0  0  0  0  0
   -7.6608   -9.3569    7.7229 S   0  0  0  0  0  0  0  0  0  0  0  0
   -7.0551   -8.1050    8.8381 C   0  0  0  0  0  0  0  0  0  0  0  0
   -6.9142   -9.2139    6.4125 O   0  0  0  0  0  0  0  0  0  0  0  0
   -7.4190  -10.7374    8.2192 O   0  0  0  0  0  0  0  0  0  0  0  0
  -17.2057   -6.9641    3.7541 C   0  0  0  0  0  0  0  0  0  0  0  0
  -16.7540   -8.4545    4.6676 S   0  0  0  0  0  0  0  0  0  0  0  0
 24 25  1  0  0  0
 25  1  1  0  0  0
  1  2  2  0  0  0
  2  3  1  0  0  0
  3  7  1  0  0  0
  7  8  2  0  0  0
  8  9  1  0  0  0
  9 10  2  0  0  0
 10 11  1  0  0  0
 10 12  1  0  0  0
 12 13  2  0  0  0
  3  4  2  0  0  0
  4 14  1  0  0  0
 14 15  2  0  0  0
 15 16  1  0  0  0
 16 17  2  0  0  0
 17 20  1  0  0  0
 20 21  1  0  0  0
 20 22  2  0  0  0
 20 23  2  0  0  0
 17 18  1  0  0  0
 18 19  2  0  0  0
  4  5  1  0  0  0
  5  1  1  0  0  0
 13  7  1  0  0  0
 19 14  1  0  0  0
  5  6  1  0  0  0
M  END
> <minimizedAffinity>
-7.11302

> <CNNscore>
0.3598460853

> <CNNaffinity>
6.5394425392

> <CNN_VS>
2.3531928062

> <CNNaffinity_variance>
0.1544769704

$$$$
[H]c1c([H])c(-c2c([H])c(SC([H])([H])[H])n([H])c2-c2c([H])c([H])c(S(=O)(=O)C([H])([H])[H])c([H])c2[H])c([H])c([H])c1F


 25 27  0  0  0  0  0  0  0  0999 V2000
  -14.2864   -8.6219   11.4703 C   0  0  0  0  0  0  0  0  0  0  0  0
  -12.9599   -8.4922   11.0322 C   0  0  0  0  0  0  0  0  0  0  0  0
  -12.9750   -8.0838    9.7216 C   0  0  0  0  0  0  0  0  0  0  0  0
  -14.2914   -7.9654    9.3634 C   0  0  0  0  0  0  0  0  0  0  0  0
  -15.0621   -8.2922   10.4256 N   0  0  0  0  0  0  0  0  0  0  0  0
  -16.0988   -8.2979   10.4620 H   0  0  0  0  0  0  0  0  0  0  0  0
  -11.8211   -7.8265    8.8791 C   0  0  0  0  0  0  0  0  0  0  0  0
  -11.1017   -6.6563    9.0103 C   0  0  0  0  0  0  0  0  0  0  0  0
  -10.0204   -6.3758    8.2425 C   0  0  0  0  0  0  0  0  0  0  0  0
   -9.6025   -7.2712    7.2905 C   0  0  0  0  0  0  0  0  0  0  0  0
   -8.5263   -6.9482    6.5538 F   0  0  0  0  0  0  0  0  0  0  0  0
  -10.3060   -8.4571    7.1349 C   0  0  0  0  0  0  0  0  0  0  0  0
  -11.3988   -8.7285    7.9189 C   0  0  0  0  0  0  0  0  0  0  0  0
  -14.7526   -7.5588    8.0503 C   0  0  0  0  0  0  0  0  0  0  0  0
  -14.1104   -6.5069    7.3883 C   0  0  0  0  0  0  0  0  0  0  0  0
  -14.6018   -6.1798    6.1429 C   0  0  0  0  0  0  0  0  0  0  0  0
  -15.6581   -6.8167    5.5403 C   0  0  0  0  0  0  0  0  0  0  0  0
  -16.2848   -7.8529    6.2022 C   0  0  0  0  0  0  0  0  0  0  0  0
  -15.8231   -8.2007    7.4347 C   0  0  0  0  0  0  0  0  0  0  0  0
  -16.2503   -6.3788    3.9599 S   0  0  0  0  0  0  0  0  0  0  0  0
  -17.9374   -6.9366    3.8174 C   0  0  0  0  0  0  0  0  0  0  0  0
  -15.4298   -7.1046    2.9134 O   0  0  0  0  0  0  0  0  0  0  0  0
  -16.1009   -4.9218    3.7038 O   0  0  0  0  0  0  0  0  0  0  0  0
  -13.5489   -9.3928   14.2590 C   0  0  0  0  0  0  0  0  0  0  0  0
  -14.8788   -9.1210   13.0686 S   0  0  0  0  0  0  0  0  0  0  0  0
 24 25  1  0  0  0
 25  1  1  0  0  0
  1  2  2  0  0  0
  2  3  1  0  0  0
  3  7  1  0  0  0
  7  8  2  0  0  0
  8  9  1  0  0  0
  9 10  2  0  0  0
 10 11  1  0  0  0
 10 12  1  0  0  0
 12 13  2  0  0  0
  3  4  2  0  0  0
  4 14  1  0  0  0
 14 15  2  0  0  0
 15 16  1  0  0  0
 16 17  2  0  0  0
 17 20  1  0  0  0
 20 21  1  0  0  0
 20 22  2  0  0  0
 20 23  2  0  0  0
 17 18  1  0  0  0
 18 19  2  0  0  0
  4  5  1  0  0  0
  5  1  1  0  0  0
 13  7  1  0  0  0
 19 14  1  0  0  0
  5  6  1  0  0  0
M  END
> <minimizedAffinity>
1.65696

> <CNNscore>
0.3597662151

> <CNNaffinity>
6.2720670700

> <CNN_VS>
2.2564778328

> <CNNaffinity_variance>
0.0974182039

$$$$
[H]OC([H])([H])C([H])([H])N([H])C(=O)[C@@]1([H])O[C@@]([H])(n2c([H])nc3c(N([H])C([H])([H])c4c([H])c([H])c([H])c([H])c4C([H])([H])[H])nc([H])nc32)[C@]([H])(O[H])[C@]1([H])O[H]


 36 39  0  0  0  0  0  0  0  0999 V2000
  -13.8131   -7.4925    8.3256 C   0  0  0  0  0  0  0  0  0  0  0  0
  -13.7241   -6.4180    9.1401 N   0  0  0  0  0  0  0  0  0  0  0  0
  -12.5464   -5.9070    9.5245 C   0  0  0  0  0  0  0  0  0  0  0  0
  -11.4185   -6.4820    9.0858 N   0  0  0  0  0  0  0  0  0  0  0  0
  -11.4417   -7.5449    8.2798 C   0  0  0  0  0  0  0  0  0  0  0  0
  -12.6359   -8.0679    7.8863 C   0  0  0  0  0  0  0  0  0  0  0  0
  -12.3836   -9.1210    7.0867 N   0  0  0  0  0  0  0  0  0  0  0  0
  -11.0545   -9.2762    6.9656 C   0  0  0  0  0  0  0  0  0  0  0  0
  -10.4832   -8.3084    7.6983 N   0  0  0  0  0  0  0  0  0  0  0  0
   -9.0767   -8.1181    7.8397 C   0  0  0  0  0  0  0  0  0  0  0  0
   -8.5657   -7.1349    6.9960 O   0  0  0  0  0  0  0  0  0  0  0  0
   -7.1766   -7.3484    7.0811 C   0  0  0  0  0  0  0  0  0  0  0  0
   -7.1170   -8.8382    6.7630 C   0  0  0  0  0  0  0  0  0  0  0  0
   -5.9066   -9.4028    7.0689 O   0  0  0  0  0  0  0  0  0  0  0  0
   -8.2452   -9.3420    7.6551 C   0  0  0  0  0  0  0  0  0  0  0  0
   -7.6418   -9.7513    8.8559 O   0  0  0  0  0  0  0  0  0  0  0  0
   -5.7974  -10.2364    6.5281 H   0  0  0  0  0  0  0  0  0  0  0  0
   -7.9298  -10.6733    9.0962 H   0  0  0  0  0  0  0  0  0  0  0  0
   -6.4237   -6.5286    6.1462 C   0  0  0  0  0  0  0  0  0  0  0  0
   -6.9745   -6.0532    5.1290 O   0  0  0  0  0  0  0  0  0  0  0  0
   -5.0542   -6.2519    6.3677 N   0  0  0  0  0  0  0  0  0  0  0  0
   -4.5762   -6.6363    7.2061 H   0  0  0  0  0  0  0  0  0  0  0  0
   -4.2778   -5.4343    5.4478 C   0  0  0  0  0  0  0  0  0  0  0  0
   -3.7914   -4.2035    6.1373 C   0  0  0  0  0  0  0  0  0  0  0  0
   -4.2885   -3.0778    5.4777 O   0  0  0  0  0  0  0  0  0  0  0  0
   -4.3882   -2.2980    6.1017 H   0  0  0  0  0  0  0  0  0  0  0  0
  -15.0723   -8.0273    7.9460 N   0  0  0  0  0  0  0  0  0  0  0  0
  -15.7617   -8.2273    8.7120 H   0  0  0  0  0  0  0  0  0  0  0  0
  -15.4320   -8.2994    6.5896 C   0  0  0  0  0  0  0  0  0  0  0  0
  -17.8365   -8.2424    5.0817 C   0  0  0  0  0  0  0  0  0  0  0  0
  -16.9172   -7.0988    5.0162 C   0  0  0  0  0  0  0  0  0  0  0  0
  -17.2181   -6.0288    4.2297 C   0  0  0  0  0  0  0  0  0  0  0  0
  -16.3751   -4.9397    4.1473 C   0  0  0  0  0  0  0  0  0  0  0  0
  -15.2002   -4.9137    4.8666 C   0  0  0  0  0  0  0  0  0  0  0  0
  -14.9237   -6.0189    5.6574 C   0  0  0  0  0  0  0  0  0  0  0  0
  -15.7374   -7.1195    5.7652 C   0  0  0  0  0  0  0  0  0  0  0  0
 30 31  1  0  0  0
 31 32  2  0  0  0
 32 33  1  0  0  0
 33 34  2  0  0  0
 34 35  1  0  0  0
 35 36  2  0  0  0
 36 29  1  0  0  0
 29 27  1  0  0  0
 27  1  1  0  0  0
  1  2  2  0  0  0
  2  3  1  0  0  0
  3  4  2  0  0  0
  4  5  1  0  0  0
  5  6  2  0  0  0
  6  7  1  0  0  0
  7  8  2  0  0  0
  8  9  1  0  0  0
  9 10  1  0  0  0
 10 11  1  0  0  0
 11 12  1  0  0  0
 12 19  1  0  0  0
 19 20  2  0  0  0
 19 21  1  0  0  0
 21 23  1  0  0  0
 23 24  1  0  0  0
 24 25  1  0  0  0
 12 13  1  0  0  0
 13 14  1  0  0  0
 13 15  1  0  0  0
 15 16  1  0  0  0
 36 31  1  0  0  0
  6  1  1  0  0  0
 15 10  1  0  0  0
  9  5  1  0  0  0
 27 28  1  0  0  0
 21 22  1  0  0  0
 25 26  1  0  0  0
 14 17  1  0  0  0
 16 18  1  0  0  0
M  END
> <minimizedAffinity>
-8.63504

> <CNNscore>
0.5773426294

> <CNNaffinity>
6.8695626259

> <CNN_VS>
3.9660913944

> <CNNaffinity_variance>
0.4948774874

$$$$
[H]OC([H])([H])C([H])([H])N([H])C(=O)[C@@]1([H])O[C@@]([H])(n2c([H])nc3c(N([H])C([H])([H])c4c([H])c([H])c([H])c([H])c4C([H])([H])[H])nc([H])nc32)[C@]([H])(O[H])[C@]1([H])O[H]


 36 39  0  0  0  0  0  0  0  0999 V2000
  -11.2469   -8.8063    7.9469 C   0  0  0  0  0  0  0  0  0  0  0  0
  -11.8393   -7.7930    8.6164 N   0  0  0  0  0  0  0  0  0  0  0  0
  -11.1735   -6.6871    8.9761 C   0  0  0  0  0  0  0  0  0  0  0  0
   -9.8755   -6.5830    8.6608 N   0  0  0  0  0  0  0  0  0  0  0  0
   -9.2353   -7.5497    8.0007 C   0  0  0  0  0  0  0  0  0  0  0  0
   -9.9074   -8.6755    7.6330 C   0  0  0  0  0  0  0  0  0  0  0  0
   -9.0433   -9.4820    6.9887 N   0  0  0  0  0  0  0  0  0  0  0  0
   -7.8378   -8.8907    6.9408 C   0  0  0  0  0  0  0  0  0  0  0  0
   -7.9616   -7.7080    7.5620 N   0  0  0  0  0  0  0  0  0  0  0  0
   -6.9060   -6.7640    7.7319 C   0  0  0  0  0  0  0  0  0  0  0  0
   -6.3442   -6.3426    6.5292 O   0  0  0  0  0  0  0  0  0  0  0  0
   -5.1662   -5.6962    6.9499 C   0  0  0  0  0  0  0  0  0  0  0  0
   -4.5586   -6.7913    7.8193 C   0  0  0  0  0  0  0  0  0  0  0  0
   -3.5396   -6.3387    8.6157 O   0  0  0  0  0  0  0  0  0  0  0  0
   -5.7897   -7.2068    8.6158 C   0  0  0  0  0  0  0  0  0  0  0  0
   -5.7473   -6.4733    9.8132 O   0  0  0  0  0  0  0  0  0  0  0  0
   -2.9631   -7.1152    8.8686 H   0  0  0  0  0  0  0  0  0  0  0  0
   -5.8513   -7.0770   10.5977 H   0  0  0  0  0  0  0  0  0  0  0  0
   -4.3144   -5.3022    5.8399 C   0  0  0  0  0  0  0  0  0  0  0  0
   -3.3749   -6.0377    5.4654 O   0  0  0  0  0  0  0  0  0  0  0  0
   -4.5306   -4.0799    5.1612 N   0  0  0  0  0  0  0  0  0  0  0  0
   -5.3052   -3.4532    5.4552 H   0  0  0  0  0  0  0  0  0  0  0  0
   -3.6929   -3.6619    4.0473 C   0  0  0  0  0  0  0  0  0  0  0  0
   -3.7277   -2.1768    3.9054 C   0  0  0  0  0  0  0  0  0  0  0  0
   -4.7501   -1.6606    4.7038 O   0  0  0  0  0  0  0  0  0  0  0  0
   -4.5483   -0.7240    5.0027 H   0  0  0  0  0  0  0  0  0  0  0  0
  -11.9682   -9.9765    7.5919 N   0  0  0  0  0  0  0  0  0  0  0  0
  -11.4113  -10.8102    7.2811 H   0  0  0  0  0  0  0  0  0  0  0  0
  -13.3942  -10.0633    7.6396 C   0  0  0  0  0  0  0  0  0  0  0  0
  -15.4100   -8.2828    8.5478 C   0  0  0  0  0  0  0  0  0  0  0  0
  -15.1125   -8.3627    7.1117 C   0  0  0  0  0  0  0  0  0  0  0  0
  -15.8080   -7.5935    6.2295 C   0  0  0  0  0  0  0  0  0  0  0  0
  -15.5515   -7.6460    4.8748 C   0  0  0  0  0  0  0  0  0  0  0  0
  -14.5767   -8.4867    4.3837 C   0  0  0  0  0  0  0  0  0  0  0  0
  -13.8871   -9.2564    5.3085 C   0  0  0  0  0  0  0  0  0  0  0  0
  -14.1136   -9.2310    6.6624 C   0  0  0  0  0  0  0  0  0  0  0  0
 30 31  1  0  0  0
 31 32  2  0  0  0
 32 33  1  0  0  0
 33 34  2  0  0  0
 34 35  1  0  0  0
 35 36  2  0  0  0
 36 29  1  0  0  0
 29 27  1  0  0  0
 27  1  1  0  0  0
  1  2  2  0  0  0
  2  3  1  0  0  0
  3  4  2  0  0  0
  4  5  1  0  0  0
  5  6  2  0  0  0
  6  7  1  0  0  0
  7  8  2  0  0  0
  8  9  1  0  0  0
  9 10  1  0  0  0
 10 11  1  0  0  0
 11 12  1  0  0  0
 12 19  1  0  0  0
 19 20  2  0  0  0
 19 21  1  0  0  0
 21 23  1  0  0  0
 23 24  1  0  0  0
 24 25  1  0  0  0
 12 13  1  0  0  0
 13 14  1  0  0  0
 13 15  1  0  0  0
 15 16  1  0  0  0
 36 31  1  0  0  0
  6  1  1  0  0  0
 15 10  1  0  0  0
  9  5  1  0  0  0
 27 28  1  0  0  0
 21 22  1  0  0  0
 25 26  1  0  0  0
 14 17  1  0  0  0
 16 18  1  0  0  0
M  END
> <minimizedAffinity>
-8.23851

> <CNNscore>
0.5286583304

> <CNNaffinity>
6.2646455765

> <CNN_VS>
3.3118569851

> <CNNaffinity_variance>
0.1395148486

$$$$
[H]OC([H])([H])C([H])([H])N([H])C(=O)[C@@]1([H])O[C@@]([H])(n2c([H])nc3c(N([H])C([H])([H])c4c([H])c([H])c([H])c([H])c4C([H])([H])[H])nc([H])nc32)[C@]([H])(O[H])[C@]1([H])O[H]


 36 39  0  0  0  0  0  0  0  0999 V2000
  -12.2549   -8.5142    7.7137 C   0  0  0  0  0  0  0  0  0  0  0  0
  -12.1505   -9.7140    7.1008 N   0  0  0  0  0  0  0  0  0  0  0  0
  -10.9681  -10.2370    6.7484 C   0  0  0  0  0  0  0  0  0  0  0  0
   -9.8511   -9.5460    7.0132 N   0  0  0  0  0  0  0  0  0  0  0  0
   -9.8898   -8.3564    7.6161 C   0  0  0  0  0  0  0  0  0  0  0  0
  -11.0888   -7.8206    7.9762 C   0  0  0  0  0  0  0  0  0  0  0  0
  -10.8524   -6.6305    8.5591 N   0  0  0  0  0  0  0  0  0  0  0  0
   -9.5286   -6.4011    8.5757 C   0  0  0  0  0  0  0  0  0  0  0  0
   -8.9445   -7.4613    7.9970 N   0  0  0  0  0  0  0  0  0  0  0  0
   -7.5386   -7.6157    7.8131 C   0  0  0  0  0  0  0  0  0  0  0  0
   -6.7798   -6.8592    8.7028 O   0  0  0  0  0  0  0  0  0  0  0  0
   -5.4912   -6.9226    8.1388 C   0  0  0  0  0  0  0  0  0  0  0  0
   -5.8025   -6.4767    6.7146 C   0  0  0  0  0  0  0  0  0  0  0  0
   -4.7796   -6.7302    5.8389 O   0  0  0  0  0  0  0  0  0  0  0  0
   -7.0387   -7.3242    6.4389 C   0  0  0  0  0  0  0  0  0  0  0  0
   -6.5818   -8.4840    5.7909 O   0  0  0  0  0  0  0  0  0  0  0  0
   -4.8731   -6.1191    5.0532 H   0  0  0  0  0  0  0  0  0  0  0  0
   -7.0974   -8.6442    4.9547 H   0  0  0  0  0  0  0  0  0  0  0  0
   -4.5377   -6.0606    8.8176 C   0  0  0  0  0  0  0  0  0  0  0  0
   -3.3691   -5.9411    8.3886 O   0  0  0  0  0  0  0  0  0  0  0  0
   -4.9119   -5.3398    9.9759 N   0  0  0  0  0  0  0  0  0  0  0  0
   -5.8774   -5.4238   10.3500 H   0  0  0  0  0  0  0  0  0  0  0  0
   -3.9771   -4.4702   10.6741 C   0  0  0  0  0  0  0  0  0  0  0  0
   -4.0601   -4.7007   12.1461 C   0  0  0  0  0  0  0  0  0  0  0  0
   -5.3949   -4.6309   12.5497 O   0  0  0  0  0  0  0  0  0  0  0  0
   -5.5646   -5.1934   13.3634 H   0  0  0  0  0  0  0  0  0  0  0  0
  -13.5201   -7.9720    8.0617 N   0  0  0  0  0  0  0  0  0  0  0  0
  -13.5535   -7.3111    8.8766 H   0  0  0  0  0  0  0  0  0  0  0  0
  -14.7263   -8.2836    7.3611 C   0  0  0  0  0  0  0  0  0  0  0  0
  -17.5051   -7.8044    7.0339 C   0  0  0  0  0  0  0  0  0  0  0  0
  -16.5428   -7.0484    6.2218 C   0  0  0  0  0  0  0  0  0  0  0  0
  -16.9875   -6.1345    5.3158 C   0  0  0  0  0  0  0  0  0  0  0  0
  -16.1085   -5.4087    4.5387 C   0  0  0  0  0  0  0  0  0  0  0  0
  -14.7494   -5.5968    4.6656 C   0  0  0  0  0  0  0  0  0  0  0  0
  -14.3298   -6.5347    5.5970 C   0  0  0  0  0  0  0  0  0  0  0  0
  -15.1736   -7.2748    6.3877 C   0  0  0  0  0  0  0  0  0  0  0  0
 30 31  1  0  0  0
 31 32  2  0  0  0
 32 33  1  0  0  0
 33 34  2  0  0  0
 34 35  1  0  0  0
 35 36  2  0  0  0
 36 29  1  0  0  0
 29 27  1  0  0  0
 27  1  1  0  0  0
  1  2  2  0  0  0
  2  3  1  0  0  0
  3  4  2  0  0  0
  4  5  1  0  0  0
  5  6  2  0  0  0
  6  7  1  0  0  0
  7  8  2  0  0  0
  8  9  1  0  0  0
  9 10  1  0  0  0
 10 11  1  0  0  0
 11 12  1  0  0  0
 12 19  1  0  0  0
 19 20  2  0  0  0
 19 21  1  0  0  0
 21 23  1  0  0  0
 23 24  1  0  0  0
 24 25  1  0  0  0
 12 13  1  0  0  0
 13 14  1  0  0  0
 13 15  1  0  0  0
 15 16  1  0  0  0
 36 31  1  0  0  0
  6  1  1  0  0  0
 15 10  1  0  0  0
  9  5  1  0  0  0
 27 28  1  0  0  0
 21 22  1  0  0  0
 25 26  1  0  0  0
 14 17  1  0  0  0
 16 18  1  0  0  0
M  END
> <minimizedAffinity>
-8.02990

> <CNNscore>
0.5007843375

> <CNNaffinity>
6.5226898193

> <CNN_VS>
3.2664608955

> <CNNaffinity_variance>
0.3497546017

$$$$
[H]OC([H])([H])C([H])([H])N([H])C(=O)[C@@]1([H])O[C@@]([H])(n2c([H])nc3c(N([H])C([H])([H])c4c([H])c([H])c([H])c([H])c4C([H])([H])[H])nc([H])nc32)[C@]([H])(O[H])[C@]1([H])O[H]


 36 39  0  0  0  0  0  0  0  0999 V2000
   -7.4258   -8.0306    8.3366 C   0  0  0  0  0  0  0  0  0  0  0  0
   -7.0245   -9.2942    8.0750 N   0  0  0  0  0  0  0  0  0  0  0  0
   -7.8745  -10.2437    7.6607 C   0  0  0  0  0  0  0  0  0  0  0  0
   -9.1669   -9.9288    7.5006 N   0  0  0  0  0  0  0  0  0  0  0  0
   -9.6234   -8.6987    7.7428 C   0  0  0  0  0  0  0  0  0  0  0  0
   -8.7636   -7.7302    8.1639 C   0  0  0  0  0  0  0  0  0  0  0  0
   -9.4682   -6.5958    8.3333 N   0  0  0  0  0  0  0  0  0  0  0  0
  -10.7565   -6.8255    8.0284 C   0  0  0  0  0  0  0  0  0  0  0  0
  -10.8453   -8.1146    7.6676 N   0  0  0  0  0  0  0  0  0  0  0  0
  -12.0491   -8.7660    7.2667 C   0  0  0  0  0  0  0  0  0  0  0  0
  -12.8392   -7.9922    6.4201 O   0  0  0  0  0  0  0  0  0  0  0  0
  -14.0648   -8.6854    6.4245 C   0  0  0  0  0  0  0  0  0  0  0  0
  -14.3035   -8.7929    7.9264 C   0  0  0  0  0  0  0  0  0  0  0  0
  -15.2847   -9.6932    8.2491 O   0  0  0  0  0  0  0  0  0  0  0  0
  -12.9194   -9.2408    8.3804 C   0  0  0  0  0  0  0  0  0  0  0  0
  -12.9645  -10.6434    8.4484 O   0  0  0  0  0  0  0  0  0  0  0  0
  -15.6420   -9.4650    9.1545 H   0  0  0  0  0  0  0  0  0  0  0  0
  -12.6320  -10.9622    9.3307 H   0  0  0  0  0  0  0  0  0  0  0  0
  -15.1177   -7.9697    5.7230 C   0  0  0  0  0  0  0  0  0  0  0  0
  -14.8466   -7.2258    4.7550 O   0  0  0  0  0  0  0  0  0  0  0  0
  -16.4691   -8.1000    6.1205 N   0  0  0  0  0  0  0  0  0  0  0  0
  -16.7174   -8.7126    6.9219 H   0  0  0  0  0  0  0  0  0  0  0  0
  -17.5420   -7.3950    5.4355 C   0  0  0  0  0  0  0  0  0  0  0  0
  -18.2631   -8.3227    4.5157 C   0  0  0  0  0  0  0  0  0  0  0  0
  -18.9132   -9.3042    5.2664 O   0  0  0  0  0  0  0  0  0  0  0  0
  -19.7300   -9.6486    4.7957 H   0  0  0  0  0  0  0  0  0  0  0  0
   -6.5101   -7.0457    8.7918 N   0  0  0  0  0  0  0  0  0  0  0  0
   -6.8381   -6.3954    9.5477 H   0  0  0  0  0  0  0  0  0  0  0  0
   -5.1857   -6.9067    8.2724 C   0  0  0  0  0  0  0  0  0  0  0  0
   -3.8615   -5.3847    6.2751 C   0  0  0  0  0  0  0  0  0  0  0  0
   -3.8204   -4.9322    7.6718 C   0  0  0  0  0  0  0  0  0  0  0  0
   -3.1434   -3.7971    7.9991 C   0  0  0  0  0  0  0  0  0  0  0  0
   -3.0867   -3.3463    9.3018 C   0  0  0  0  0  0  0  0  0  0  0  0
   -3.7205   -4.0435   10.3071 C   0  0  0  0  0  0  0  0  0  0  0  0
   -4.4008   -5.1949    9.9402 C   0  0  0  0  0  0  0  0  0  0  0  0
   -4.4798   -5.6739    8.6560 C   0  0  0  0  0  0  0  0  0  0  0  0
 30 31  1  0  0  0
 31 32  2  0  0  0
 32 33  1  0  0  0
 33 34  2  0  0  0
 34 35  1  0  0  0
 35 36  2  0  0  0
 36 29  1  0  0  0
 29 27  1  0  0  0
 27  1  1  0  0  0
  1  2  2  0  0  0
  2  3  1  0  0  0
  3  4  2  0  0  0
  4  5  1  0  0  0
  5  6  2  0  0  0
  6  7  1  0  0  0
  7  8  2  0  0  0
  8  9  1  0  0  0
  9 10  1  0  0  0
 10 11  1  0  0  0
 11 12  1  0  0  0
 12 19  1  0  0  0
 19 20  2  0  0  0
 19 21  1  0  0  0
 21 23  1  0  0  0
 23 24  1  0  0  0
 24 25  1  0  0  0
 12 13  1  0  0  0
 13 14  1  0  0  0
 13 15  1  0  0  0
 15 16  1  0  0  0
 36 31  1  0  0  0
  6  1  1  0  0  0
 15 10  1  0  0  0
  9  5  1  0  0  0
 27 28  1  0  0  0
 21 22  1  0  0  0
 25 26  1  0  0  0
 14 17  1  0  0  0
 16 18  1  0  0  0
M  END
> <minimizedAffinity>
-7.68415

> <CNNscore>
0.4957781434

> <CNNaffinity>
6.4320220947

> <CNN_VS>
3.1888558865

> <CNNaffinity_variance>
0.2654263079

$$$$
[H]OC([H])([H])C([H])([H])N([H])C(=O)[C@@]1([H])O[C@@]([H])(n2c([H])nc3c(N([H])C([H])([H])c4c([H])c([H])c([H])c([H])c4C([H])([H])[H])nc([H])nc32)[C@]([H])(O[H])[C@]1([H])O[H]


 36 39  0  0  0  0  0  0  0  0999 V2000
   -8.4349   -8.2090    8.0783 C   0  0  0  0  0  0  0  0  0  0  0  0
   -8.7832   -7.0152    8.6070 N   0  0  0  0  0  0  0  0  0  0  0  0
  -10.0493   -6.5759    8.6100 C   0  0  0  0  0  0  0  0  0  0  0  0
  -11.0022   -7.3476    8.0700 N   0  0  0  0  0  0  0  0  0  0  0  0
  -10.7205   -8.5360    7.5329 C   0  0  0  0  0  0  0  0  0  0  0  0
   -9.4355   -8.9868    7.5273 C   0  0  0  0  0  0  0  0  0  0  0  0
   -9.4232  -10.1956    6.9351 N   0  0  0  0  0  0  0  0  0  0  0  0
  -10.6735  -10.5199    6.5653 C   0  0  0  0  0  0  0  0  0  0  0  0
  -11.4633   -9.4999    6.9339 N   0  0  0  0  0  0  0  0  0  0  0  0
  -12.8728   -9.4452    6.7229 C   0  0  0  0  0  0  0  0  0  0  0  0
  -13.2881   -8.2874    6.0697 O   0  0  0  0  0  0  0  0  0  0  0  0
  -14.6832   -8.3112    6.2589 C   0  0  0  0  0  0  0  0  0  0  0  0
  -14.7429   -8.4859    7.7723 C   0  0  0  0  0  0  0  0  0  0  0  0
  -15.9862   -8.8470    8.2206 O   0  0  0  0  0  0  0  0  0  0  0  0
  -13.7080   -9.5905    7.9496 C   0  0  0  0  0  0  0  0  0  0  0  0
  -14.4232  -10.7997    7.9560 O   0  0  0  0  0  0  0  0  0  0  0  0
  -16.0631   -8.5960    9.1852 H   0  0  0  0  0  0  0  0  0  0  0  0
  -14.1755  -11.3490    8.7482 H   0  0  0  0  0  0  0  0  0  0  0  0
  -15.3343   -7.0983    5.7923 C   0  0  0  0  0  0  0  0  0  0  0  0
  -14.6576   -6.1150    5.4193 O   0  0  0  0  0  0  0  0  0  0  0  0
  -16.7453   -7.0055    5.7505 N   0  0  0  0  0  0  0  0  0  0  0  0
  -17.3275   -7.8100    6.0555 H   0  0  0  0  0  0  0  0  0  0  0  0
  -17.4221   -5.8033    5.2878 C   0  0  0  0  0  0  0  0  0  0  0  0
  -17.9417   -6.0050    3.9036 C   0  0  0  0  0  0  0  0  0  0  0  0
  -18.3672   -7.3268    3.7583 O   0  0  0  0  0  0  0  0  0  0  0  0
  -19.0982   -7.4066    3.0752 H   0  0  0  0  0  0  0  0  0  0  0  0
   -7.0839   -8.6456    8.0705 N   0  0  0  0  0  0  0  0  0  0  0  0
   -6.6594   -8.9155    8.9918 H   0  0  0  0  0  0  0  0  0  0  0  0
   -6.2942   -8.7306    6.8821 C   0  0  0  0  0  0  0  0  0  0  0  0
   -6.8826   -6.5222    5.1983 C   0  0  0  0  0  0  0  0  0  0  0  0
   -5.5794   -6.5876    5.8724 C   0  0  0  0  0  0  0  0  0  0  0  0
   -4.6635   -5.5988    5.6789 C   0  0  0  0  0  0  0  0  0  0  0  0
   -3.4309   -5.6319    6.2981 C   0  0  0  0  0  0  0  0  0  0  0  0
   -3.0996   -6.6770    7.1325 C   0  0  0  0  0  0  0  0  0  0  0  0
   -4.0546   -7.6673    7.3079 C   0  0  0  0  0  0  0  0  0  0  0  0
   -5.2904   -7.6685    6.7099 C   0  0  0  0  0  0  0  0  0  0  0  0
 30 31  1  0  0  0
 31 32  2  0  0  0
 32 33  1  0  0  0
 33 34  2  0  0  0
 34 35  1  0  0  0
 35 36  2  0  0  0
 36 29  1  0  0  0
 29 27  1  0  0  0
 27  1  1  0  0  0
  1  2  2  0  0  0
  2  3  1  0  0  0
  3  4  2  0  0  0
  4  5  1  0  0  0
  5  6  2  0  0  0
  6  7  1  0  0  0
  7  8  2  0  0  0
  8  9  1  0  0  0
  9 10  1  0  0  0
 10 11  1  0  0  0
 11 12  1  0  0  0
 12 19  1  0  0  0
 19 20  2  0  0  0
 19 21  1  0  0  0
 21 23  1  0  0  0
 23 24  1  0  0  0
 24 25  1  0  0  0
 12 13  1  0  0  0
 13 14  1  0  0  0
 13 15  1  0  0  0
 15 16  1  0  0  0
 36 31  1  0  0  0
  6  1  1  0  0  0
 15 10  1  0  0  0
  9  5  1  0  0  0
 27 28  1  0  0  0
 21 22  1  0  0  0
 25 26  1  0  0  0
 14 17  1  0  0  0
 16 18  1  0  0  0
M  END
> <minimizedAffinity>
-8.36472

> <CNNscore>
0.4931977689

> <CNNaffinity>
6.7408776283

> <CNN_VS>
3.3245859146

> <CNNaffinity_variance>
0.2496924847

$$$$
[H]OC([H])([H])C([H])([H])N([H])C(=O)[C@@]1([H])O[C@@]([H])(n2c([H])nc3c(N([H])C([H])([H])c4c([H])c([H])c([H])c([H])c4C([H])([H])[H])nc([H])nc32)[C@]([H])(O[H])[C@]1([H])O[H]


 36 39  0  0  0  0  0  0  0  0999 V2000
   -7.7722   -8.1542    8.2358 C   0  0  0  0  0  0  0  0  0  0  0  0
   -7.4641   -9.4108    7.8460 N   0  0  0  0  0  0  0  0  0  0  0  0
   -8.3885  -10.2635    7.3832 C   0  0  0  0  0  0  0  0  0  0  0  0
   -9.6622   -9.8553    7.3044 N   0  0  0  0  0  0  0  0  0  0  0  0
  -10.0282   -8.6267    7.6741 C   0  0  0  0  0  0  0  0  0  0  0  0
   -9.0926   -7.7565    8.1451 C   0  0  0  0  0  0  0  0  0  0  0  0
   -9.7149   -6.6008    8.4439 N   0  0  0  0  0  0  0  0  0  0  0  0
  -11.0253   -6.7208    8.1722 C   0  0  0  0  0  0  0  0  0  0  0  0
  -11.2110   -7.9633    7.7012 N   0  0  0  0  0  0  0  0  0  0  0  0
  -12.4682   -8.4988    7.2927 C   0  0  0  0  0  0  0  0  0  0  0  0
  -13.3021   -7.5555    6.6973 O   0  0  0  0  0  0  0  0  0  0  0  0
  -14.5465   -8.2141    6.6776 C   0  0  0  0  0  0  0  0  0  0  0  0
  -14.6547   -8.6210    8.1429 C   0  0  0  0  0  0  0  0  0  0  0  0
  -15.6349   -9.5512    8.3690 O   0  0  0  0  0  0  0  0  0  0  0  0
  -13.2526   -9.1755    8.3651 C   0  0  0  0  0  0  0  0  0  0  0  0
  -13.3417  -10.5615    8.1537 O   0  0  0  0  0  0  0  0  0  0  0  0
  -15.9021   -9.5060    9.3313 H   0  0  0  0  0  0  0  0  0  0  0  0
  -12.9437  -11.0588    8.9185 H   0  0  0  0  0  0  0  0  0  0  0  0
  -15.6312   -7.3528    6.2367 C   0  0  0  0  0  0  0  0  0  0  0  0
  -16.7970   -7.5333    6.6518 O   0  0  0  0  0  0  0  0  0  0  0  0
  -15.3905   -6.2939    5.3301 N   0  0  0  0  0  0  0  0  0  0  0  0
  -14.4299   -6.1254    4.9723 H   0  0  0  0  0  0  0  0  0  0  0  0
  -16.4582   -5.4172    4.8730 C   0  0  0  0  0  0  0  0  0  0  0  0
  -17.0860   -5.9707    3.6376 C   0  0  0  0  0  0  0  0  0  0  0  0
  -18.2009   -6.7343    3.9886 O   0  0  0  0  0  0  0  0  0  0  0  0
  -18.8869   -6.7449    3.2561 H   0  0  0  0  0  0  0  0  0  0  0  0
   -6.7785   -7.2743    8.7398 N   0  0  0  0  0  0  0  0  0  0  0  0
   -6.6828   -7.2021    9.7827 H   0  0  0  0  0  0  0  0  0  0  0  0
   -5.9202   -6.4979    7.9010 C   0  0  0  0  0  0  0  0  0  0  0  0
   -3.7726   -5.2963    9.3162 C   0  0  0  0  0  0  0  0  0  0  0  0
   -3.5010   -6.4249    8.4164 C   0  0  0  0  0  0  0  0  0  0  0  0
   -2.2269   -6.8788    8.2605 C   0  0  0  0  0  0  0  0  0  0  0  0
   -1.9400   -7.9369    7.4229 C   0  0  0  0  0  0  0  0  0  0  0  0
   -2.9478   -8.5609    6.7204 C   0  0  0  0  0  0  0  0  0  0  0  0
   -4.2337   -8.0742    6.9016 C   0  0  0  0  0  0  0  0  0  0  0  0
   -4.5576   -7.0251    7.7259 C   0  0  0  0  0  0  0  0  0  0  0  0
 30 31  1  0  0  0
 31 32  2  0  0  0
 32 33  1  0  0  0
 33 34  2  0  0  0
 34 35  1  0  0  0
 35 36  2  0  0  0
 36 29  1  0  0  0
 29 27  1  0  0  0
 27  1  1  0  0  0
  1  2  2  0  0  0
  2  3  1  0  0  0
  3  4  2  0  0  0
  4  5  1  0  0  0
  5  6  2  0  0  0
  6  7  1  0  0  0
  7  8  2  0  0  0
  8  9  1  0  0  0
  9 10  1  0  0  0
 10 11  1  0  0  0
 11 12  1  0  0  0
 12 19  1  0  0  0
 19 20  2  0  0  0
 19 21  1  0  0  0
 21 23  1  0  0  0
 23 24  1  0  0  0
 24 25  1  0  0  0
 12 13  1  0  0  0
 13 14  1  0  0  0
 13 15  1  0  0  0
 15 16  1  0  0  0
 36 31  1  0  0  0
  6  1  1  0  0  0
 15 10  1  0  0  0
  9  5  1  0  0  0
 27 28  1  0  0  0
 21 22  1  0  0  0
 25 26  1  0  0  0
 14 17  1  0  0  0
 16 18  1  0  0  0
M  END
> <minimizedAffinity>
-7.98584

> <CNNscore>
0.4783568382

> <CNNaffinity>
6.4721212387

> <CNN_VS>
3.0959835052

> <CNNaffinity_variance>
0.3056139648

$$$$
[H]OC([H])([H])C([H])([H])N([H])C(=O)[C@@]1([H])O[C@@]([H])(n2c([H])nc3c(N([H])C([H])([H])c4c([H])c([H])c([H])c([H])c4C([H])([H])[H])nc([H])nc32)[C@]([H])(O[H])[C@]1([H])O[H]


 36 39  0  0  0  0  0  0  0  0999 V2000
   -9.5320   -8.5103    7.4807 C   0  0  0  0  0  0  0  0  0  0  0  0
  -10.1386   -7.3231    7.7011 N   0  0  0  0  0  0  0  0  0  0  0  0
   -9.4562   -6.1715    7.7637 C   0  0  0  0  0  0  0  0  0  0  0  0
   -8.1265   -6.1988    7.6022 N   0  0  0  0  0  0  0  0  0  0  0  0
   -7.4709   -7.3397    7.3816 C   0  0  0  0  0  0  0  0  0  0  0  0
   -8.1597   -8.5126    7.3170 C   0  0  0  0  0  0  0  0  0  0  0  0
   -7.2747   -9.5007    7.0880 N   0  0  0  0  0  0  0  0  0  0  0  0
   -6.0395   -8.9782    7.0063 C   0  0  0  0  0  0  0  0  0  0  0  0
   -6.1661   -7.6549    7.1868 N   0  0  0  0  0  0  0  0  0  0  0  0
   -5.0844   -6.7252    7.1748 C   0  0  0  0  0  0  0  0  0  0  0  0
   -5.1578   -5.8073    6.1299 O   0  0  0  0  0  0  0  0  0  0  0  0
   -3.8731   -5.2311    6.1361 C   0  0  0  0  0  0  0  0  0  0  0  0
   -3.0167   -6.4913    6.0848 C   0  0  0  0  0  0  0  0  0  0  0  0
   -1.7006   -6.2566    6.3849 O   0  0  0  0  0  0  0  0  0  0  0  0
   -3.7223   -7.3310    7.1429 C   0  0  0  0  0  0  0  0  0  0  0  0
   -3.0249   -7.1152    8.3432 O   0  0  0  0  0  0  0  0  0  0  0  0
   -1.1479   -6.9923    5.9941 H   0  0  0  0  0  0  0  0  0  0  0  0
   -2.7804   -7.9820    8.7670 H   0  0  0  0  0  0  0  0  0  0  0  0
   -3.6525   -4.3378    5.0109 C   0  0  0  0  0  0  0  0  0  0  0  0
   -2.9111   -4.6781    4.0630 O   0  0  0  0  0  0  0  0  0  0  0  0
   -4.2715   -3.0666    4.9650 N   0  0  0  0  0  0  0  0  0  0  0  0
   -4.8914   -2.7630    5.7413 H   0  0  0  0  0  0  0  0  0  0  0  0
   -4.0676   -2.1534    3.8505 C   0  0  0  0  0  0  0  0  0  0  0  0
   -4.6107   -0.8042    4.1840 C   0  0  0  0  0  0  0  0  0  0  0  0
   -5.2681   -0.8623    5.4143 O   0  0  0  0  0  0  0  0  0  0  0  0
   -5.2482    0.0234    5.8860 H   0  0  0  0  0  0  0  0  0  0  0  0
  -10.2738   -9.7200    7.4362 N   0  0  0  0  0  0  0  0  0  0  0  0
   -9.8284  -10.5740    7.8537 H   0  0  0  0  0  0  0  0  0  0  0  0
  -11.5767   -9.8201    6.8571 C   0  0  0  0  0  0  0  0  0  0  0  0
  -13.9231   -8.9762    5.5003 C   0  0  0  0  0  0  0  0  0  0  0  0
  -13.8111   -8.7607    6.9488 C   0  0  0  0  0  0  0  0  0  0  0  0
  -14.8237   -8.1525    7.6259 C   0  0  0  0  0  0  0  0  0  0  0  0
  -14.7482   -7.9362    8.9865 C   0  0  0  0  0  0  0  0  0  0  0  0
  -13.6349   -8.3354    9.6934 C   0  0  0  0  0  0  0  0  0  0  0  0
  -12.6220   -8.9515    8.9739 C   0  0  0  0  0  0  0  0  0  0  0  0
  -12.6614   -9.1841    7.6214 C   0  0  0  0  0  0  0  0  0  0  0  0
 30 31  1  0  0  0
 31 32  2  0  0  0
 32 33  1  0  0  0
 33 34  2  0  0  0
 34 35  1  0  0  0
 35 36  2  0  0  0
 36 29  1  0  0  0
 29 27  1  0  0  0
 27  1  1  0  0  0
  1  2  2  0  0  0
  2  3  1  0  0  0
  3  4  2  0  0  0
  4  5  1  0  0  0
  5  6  2  0  0  0
  6  7  1  0  0  0
  7  8  2  0  0  0
  8  9  1  0  0  0
  9 10  1  0  0  0
 10 11  1  0  0  0
 11 12  1  0  0  0
 12 19  1  0  0  0
 19 20  2  0  0  0
 19 21  1  0  0  0
 21 23  1  0  0  0
 23 24  1  0  0  0
 24 25  1  0  0  0
 12 13  1  0  0  0
 13 14  1  0  0  0
 13 15  1  0  0  0
 15 16  1  0  0  0
 36 31  1  0  0  0
  6  1  1  0  0  0
 15 10  1  0  0  0
  9  5  1  0  0  0
 27 28  1  0  0  0
 21 22  1  0  0  0
 25 26  1  0  0  0
 14 17  1  0  0  0
 16 18  1  0  0  0
M  END
> <minimizedAffinity>
-7.26647

> <CNNscore>
0.4625545442

> <CNNaffinity>
5.7736840248

> <CNN_VS>
2.6706438065

> <CNNaffinity_variance>
0.1205204353

$$$$
[H]OC([H])([H])C([H])([H])N([H])C(=O)[C@@]1([H])O[C@@]([H])(n2c([H])nc3c(N([H])C([H])([H])c4c([H])c([H])c([H])c([H])c4C([H])([H])[H])nc([H])nc32)[C@]([H])(O[H])[C@]1([H])O[H]


 36 39  0  0  0  0  0  0  0  0999 V2000
  -11.0274   -8.6955    8.0600 C   0  0  0  0  0  0  0  0  0  0  0  0
  -11.3447   -7.4606    8.5078 N   0  0  0  0  0  0  0  0  0  0  0  0
  -10.4213   -6.5074    8.6932 C   0  0  0  0  0  0  0  0  0  0  0  0
   -9.1391   -6.7891    8.4253 N   0  0  0  0  0  0  0  0  0  0  0  0
   -8.7637   -7.9898    7.9807 C   0  0  0  0  0  0  0  0  0  0  0  0
   -9.6983   -8.9618    7.7905 C   0  0  0  0  0  0  0  0  0  0  0  0
   -9.0660  -10.0626    7.3431 N   0  0  0  0  0  0  0  0  0  0  0  0
   -7.7502   -9.8084    7.2459 C   0  0  0  0  0  0  0  0  0  0  0  0
   -7.5713   -8.5377    7.6376 N   0  0  0  0  0  0  0  0  0  0  0  0
   -6.3116   -7.8705    7.6839 C   0  0  0  0  0  0  0  0  0  0  0  0
   -6.0835   -7.2059    8.8864 O   0  0  0  0  0  0  0  0  0  0  0  0
   -4.9747   -6.3929    8.5828 C   0  0  0  0  0  0  0  0  0  0  0  0
   -5.4904   -5.6987    7.3273 C   0  0  0  0  0  0  0  0  0  0  0  0
   -4.5024   -5.0599    6.6250 O   0  0  0  0  0  0  0  0  0  0  0  0
   -6.0634   -6.8978    6.5814 C   0  0  0  0  0  0  0  0  0  0  0  0
   -5.0515   -7.3383    5.7122 O   0  0  0  0  0  0  0  0  0  0  0  0
   -4.9213   -4.3516    6.0572 H   0  0  0  0  0  0  0  0  0  0  0  0
   -5.4019   -7.4313    4.7852 H   0  0  0  0  0  0  0  0  0  0  0  0
   -4.6431   -5.4710    9.6566 C   0  0  0  0  0  0  0  0  0  0  0  0
   -3.9051   -4.4841    9.4438 O   0  0  0  0  0  0  0  0  0  0  0  0
   -5.1480   -5.6711   10.9629 N   0  0  0  0  0  0  0  0  0  0  0  0
   -5.7630   -6.4842   11.1626 H   0  0  0  0  0  0  0  0  0  0  0  0
   -4.8316   -4.7635   12.0554 C   0  0  0  0  0  0  0  0  0  0  0  0
   -5.3003   -5.3347   13.3518 C   0  0  0  0  0  0  0  0  0  0  0  0
   -6.6502   -5.6753   13.2451 O   0  0  0  0  0  0  0  0  0  0  0  0
   -6.8901   -6.4314   13.8600 H   0  0  0  0  0  0  0  0  0  0  0  0
  -12.0208   -9.6951    7.8881 N   0  0  0  0  0  0  0  0  0  0  0  0
  -11.6923  -10.6832    7.7555 H   0  0  0  0  0  0  0  0  0  0  0  0
  -13.4226   -9.4156    7.8881 C   0  0  0  0  0  0  0  0  0  0  0  0
  -14.4356   -6.7708    8.0805 C   0  0  0  0  0  0  0  0  0  0  0  0
  -14.4446   -7.4532    6.7800 C   0  0  0  0  0  0  0  0  0  0  0  0
  -14.9445   -6.8200    5.6833 C   0  0  0  0  0  0  0  0  0  0  0  0
  -14.9665   -7.4344    4.4482 C   0  0  0  0  0  0  0  0  0  0  0  0
  -14.4781   -8.7142    4.2993 C   0  0  0  0  0  0  0  0  0  0  0  0
  -13.9764   -9.3308    5.4357 C   0  0  0  0  0  0  0  0  0  0  0  0
  -13.9373   -8.7518    6.6799 C   0  0  0  0  0  0  0  0  0  0  0  0
 30 31  1  0  0  0
 31 32  2  0  0  0
 32 33  1  0  0  0
 33 34  2  0  0  0
 34 35  1  0  0  0
 35 36  2  0  0  0
 36 29  1  0  0  0
 29 27  1  0  0  0
 27  1  1  0  0  0
  1  2  2  0  0  0
  2  3  1  0  0  0
  3  4  2  0  0  0
  4  5  1  0  0  0
  5  6  2  0  0  0
  6  7  1  0  0  0
  7  8  2  0  0  0
  8  9  1  0  0  0
  9 10  1  0  0  0
 10 11  1  0  0  0
 11 12  1  0  0  0
 12 19  1  0  0  0
 19 20  2  0  0  0
 19 21  1  0  0  0
 21 23  1  0  0  0
 23 24  1  0  0  0
 24 25  1  0  0  0
 12 13  1  0  0  0
 13 14  1  0  0  0
 13 15  1  0  0  0
 15 16  1  0  0  0
 36 31  1  0  0  0
  6  1  1  0  0  0
 15 10  1  0  0  0
  9  5  1  0  0  0
 27 28  1  0  0  0
 21 22  1  0  0  0
 25 26  1  0  0  0
 14 17  1  0  0  0
 16 18  1  0  0  0
M  END
> <minimizedAffinity>
-7.63080

> <CNNscore>
0.4562991858

> <CNNaffinity>
6.1886348724

> <CNN_VS>
2.8238689899

> <CNNaffinity_variance>
0.0627851263

$$$$
[H]OC([H])([H])C([H])([H])N([H])C(=O)[C@@]1([H])O[C@@]([H])(n2c([H])nc3c(N([H])C([H])([H])c4c([H])c([H])c([H])c([H])c4C([H])([H])[H])nc([H])nc32)[C@]([H])(O[H])[C@]1([H])O[H]


 36 39  0  0  0  0  0  0  0  0999 V2000
  -11.1642   -8.6457    8.3891 C   0  0  0  0  0  0  0  0  0  0  0  0
  -11.2356   -7.4017    8.9121 N   0  0  0  0  0  0  0  0  0  0  0  0
  -10.2600   -6.4983    8.7456 C   0  0  0  0  0  0  0  0  0  0  0  0
   -9.1764   -6.8408    8.0359 N   0  0  0  0  0  0  0  0  0  0  0  0
   -9.0480   -8.0535    7.4947 C   0  0  0  0  0  0  0  0  0  0  0  0
  -10.0366   -8.9751    7.6610 C   0  0  0  0  0  0  0  0  0  0  0  0
   -9.6648  -10.1011    7.0238 N   0  0  0  0  0  0  0  0  0  0  0  0
   -8.4611   -9.9120    6.4574 C   0  0  0  0  0  0  0  0  0  0  0  0
   -8.0887   -8.6566    6.7492 N   0  0  0  0  0  0  0  0  0  0  0  0
   -6.8645   -8.0540    6.3339 C   0  0  0  0  0  0  0  0  0  0  0  0
   -5.7801   -8.3984    7.1371 O   0  0  0  0  0  0  0  0  0  0  0  0
   -4.7986   -7.4686    6.7438 C   0  0  0  0  0  0  0  0  0  0  0  0
   -5.5820   -6.1709    6.9062 C   0  0  0  0  0  0  0  0  0  0  0  0
   -4.9752   -5.1004    6.3036 O   0  0  0  0  0  0  0  0  0  0  0  0
   -6.8884   -6.5668    6.2287 C   0  0  0  0  0  0  0  0  0  0  0  0
   -6.7850   -6.1344    4.8960 O   0  0  0  0  0  0  0  0  0  0  0  0
   -5.3095   -4.2612    6.7318 H   0  0  0  0  0  0  0  0  0  0  0  0
   -7.5828   -5.5975    4.6390 H   0  0  0  0  0  0  0  0  0  0  0  0
   -3.6044   -7.5285    7.5703 C   0  0  0  0  0  0  0  0  0  0  0  0
   -3.4291   -6.7073    8.4970 O   0  0  0  0  0  0  0  0  0  0  0  0
   -2.6173   -8.5162    7.3437 N   0  0  0  0  0  0  0  0  0  0  0  0
   -2.7420   -9.2087    6.5795 H   0  0  0  0  0  0  0  0  0  0  0  0
   -1.4129   -8.5983    8.1563 C   0  0  0  0  0  0  0  0  0  0  0  0
   -1.0608  -10.0255    8.4127 C   0  0  0  0  0  0  0  0  0  0  0  0
   -1.6720  -10.8319    7.4506 O   0  0  0  0  0  0  0  0  0  0  0  0
   -1.1484  -11.6721    7.2860 H   0  0  0  0  0  0  0  0  0  0  0  0
  -12.2024   -9.5921    8.5938 N   0  0  0  0  0  0  0  0  0  0  0  0
  -11.9220  -10.5570    8.8974 H   0  0  0  0  0  0  0  0  0  0  0  0
  -13.5869   -9.2900    8.4065 C   0  0  0  0  0  0  0  0  0  0  0  0
  -14.3611   -6.5633    8.2508 C   0  0  0  0  0  0  0  0  0  0  0  0
  -14.3301   -7.3748    7.0270 C   0  0  0  0  0  0  0  0  0  0  0  0
  -14.6800   -6.8197    5.8341 C   0  0  0  0  0  0  0  0  0  0  0  0
  -14.6608   -7.5559    4.6674 C   0  0  0  0  0  0  0  0  0  0  0  0
  -14.2835   -8.8809    4.6873 C   0  0  0  0  0  0  0  0  0  0  0  0
  -13.9334   -9.4156    5.9181 C   0  0  0  0  0  0  0  0  0  0  0  0
  -13.9397   -8.7150    7.0988 C   0  0  0  0  0  0  0  0  0  0  0  0
 30 31  1  0  0  0
 31 32  2  0  0  0
 32 33  1  0  0  0
 33 34  2  0  0  0
 34 35  1  0  0  0
 35 36  2  0  0  0
 36 29  1  0  0  0
 29 27  1  0  0  0
 27  1  1  0  0  0
  1  2  2  0  0  0
  2  3  1  0  0  0
  3  4  2  0  0  0
  4  5  1  0  0  0
  5  6  2  0  0  0
  6  7  1  0  0  0
  7  8  2  0  0  0
  8  9  1  0  0  0
  9 10  1  0  0  0
 10 11  1  0  0  0
 11 12  1  0  0  0
 12 19  1  0  0  0
 19 20  2  0  0  0
 19 21  1  0  0  0
 21 23  1  0  0  0
 23 24  1  0  0  0
 24 25  1  0  0  0
 12 13  1  0  0  0
 13 14  1  0  0  0
 13 15  1  0  0  0
 15 16  1  0  0  0
 36 31  1  0  0  0
  6  1  1  0  0  0
 15 10  1  0  0  0
  9  5  1  0  0  0
 27 28  1  0  0  0
 21 22  1  0  0  0
 25 26  1  0  0  0
 14 17  1  0  0  0
 16 18  1  0  0  0
M  END
> <minimizedAffinity>
-7.73591

> <CNNscore>
0.4455204010

> <CNNaffinity>
6.3309268951

> <CNN_VS>
2.8205571175

> <CNNaffinity_variance>
0.1751852483

$$$$
[H]c1c([H])c([H])c(S(=O)(=O)c2c([H])c([H])c3c(c2[H])c2c(n3[H])C([H])([H])C([H])([H])C([H])(N([H])[H])C2([H])[H])c([H])c1[H]


 26 29  0  0  0  0  0  0  0  0999 V2000
  -15.5351   -9.8229    3.1157 N   0  0  0  0  0  0  0  0  0  0  0  0
  -15.8134   -8.8274    4.1479 C   0  0  0  0  0  0  0  0  0  0  0  0
  -17.2822   -8.7670    4.3604 C   0  0  0  0  0  0  0  0  0  0  0  0
  -17.7183   -8.5004    5.7649 C   0  0  0  0  0  0  0  0  0  0  0  0
  -16.6692   -7.9394    6.6334 C   0  0  0  0  0  0  0  0  0  0  0  0
  -16.7440   -7.1045    7.6700 N   0  0  0  0  0  0  0  0  0  0  0  0
  -15.5292   -6.8672    8.1592 C   0  0  0  0  0  0  0  0  0  0  0  0
  -15.0560   -6.0832    9.2182 C   0  0  0  0  0  0  0  0  0  0  0  0
  -13.6967   -6.0779    9.4387 C   0  0  0  0  0  0  0  0  0  0  0  0
  -12.8108   -6.7916    8.6818 C   0  0  0  0  0  0  0  0  0  0  0  0
  -13.2827   -7.5616    7.6407 C   0  0  0  0  0  0  0  0  0  0  0  0
  -14.6367   -7.5793    7.4055 C   0  0  0  0  0  0  0  0  0  0  0  0
  -15.3520   -8.2529    6.4472 C   0  0  0  0  0  0  0  0  0  0  0  0
  -15.0040   -9.1759    5.3435 C   0  0  0  0  0  0  0  0  0  0  0  0
  -14.5800  -10.1888    3.2361 H   0  0  0  0  0  0  0  0  0  0  0  0
  -15.7516   -9.4565    2.1724 H   0  0  0  0  0  0  0  0  0  0  0  0
  -17.6128   -6.6700    8.0790 H   0  0  0  0  0  0  0  0  0  0  0  0
  -11.0939   -6.7462    9.0090 S   0  0  0  0  0  0  0  0  0  0  0  0
  -10.4799   -5.6744    8.1740 O   0  0  0  0  0  0  0  0  0  0  0  0
  -10.4997   -8.0710    8.6307 O   0  0  0  0  0  0  0  0  0  0  0  0
  -10.8938   -6.4349   10.7189 C   0  0  0  0  0  0  0  0  0  0  0  0
  -11.8266   -6.9090   11.6075 C   0  0  0  0  0  0  0  0  0  0  0  0
  -11.7493   -6.7109   12.9735 C   0  0  0  0  0  0  0  0  0  0  0  0
  -10.6639   -5.9935   13.4417 C   0  0  0  0  0  0  0  0  0  0  0  0
   -9.7062   -5.5026   12.5675 C   0  0  0  0  0  0  0  0  0  0  0  0
   -9.8296   -5.7271   11.2183 C   0  0  0  0  0  0  0  0  0  0  0  0
  1  2  1  0  0  0
  2  3  1  0  0  0
  3  4  1  0  0  0
  4  5  1  0  0  0
  5  6  1  0  0  0
  6  7  1  0  0  0
  7  8  2  0  0  0
  8  9  1  0  0  0
  9 10  2  0  0  0
 10 18  1  0  0  0
 18 19  2  0  0  0
 18 20  2  0  0  0
 18 21  1  0  0  0
 21 22  2  0  0  0
 22 23  1  0  0  0
 23 24  2  0  0  0
 24 25  1  0  0  0
 25 26  2  0  0  0
 10 11  1  0  0  0
 11 12  2  0  0  0
 12 13  1  0  0  0
 13 14  1  0  0  0
 14  2  1  0  0  0
 13  5  2  0  0  0
 12  7  1  0  0  0
 26 21  1  0  0  0
  1 15  1  0  0  0
  1 16  1  0  0  0
  6 17  1  0  0  0
M  END
> <minimizedAffinity>
12.71014

> <CNNscore>
0.5059717894

> <CNNaffinity>
6.3779511452

> <CNN_VS>
3.2270634174

> <CNNaffinity_variance>
1.5186917782

$$$$
[H]c1c([H])c([H])c(S(=O)(=O)c2c([H])c([H])c3c(c2[H])c2c(n3[H])C([H])([H])C([H])([H])C([H])(N([H])[H])C2([H])[H])c([H])c1[H]


 26 29  0  0  0  0  0  0  0  0999 V2000
  -14.0596   -7.9753    9.4712 N   0  0  0  0  0  0  0  0  0  0  0  0
  -12.8576   -7.6757    8.6971 C   0  0  0  0  0  0  0  0  0  0  0  0
  -12.3098   -6.3756    9.1619 C   0  0  0  0  0  0  0  0  0  0  0  0
  -10.8194   -6.2636    9.1470 C   0  0  0  0  0  0  0  0  0  0  0  0
  -10.1405   -7.2678    8.3104 C   0  0  0  0  0  0  0  0  0  0  0  0
   -9.0039   -7.2059    7.6164 N   0  0  0  0  0  0  0  0  0  0  0  0
   -8.7749   -8.3645    7.0027 C   0  0  0  0  0  0  0  0  0  0  0  0
   -7.7489   -8.8234    6.1680 C   0  0  0  0  0  0  0  0  0  0  0  0
   -7.8452  -10.1170    5.7055 C   0  0  0  0  0  0  0  0  0  0  0  0
   -8.8795  -10.9520    6.0218 C   0  0  0  0  0  0  0  0  0  0  0  0
   -9.8865  -10.4944    6.8440 C   0  0  0  0  0  0  0  0  0  0  0  0
   -9.8073   -9.2059    7.3154 C   0  0  0  0  0  0  0  0  0  0  0  0
  -10.6653   -8.5178    8.1366 C   0  0  0  0  0  0  0  0  0  0  0  0
  -11.9414   -8.8388    8.8145 C   0  0  0  0  0  0  0  0  0  0  0  0
  -14.2143   -8.9933    9.4903 H   0  0  0  0  0  0  0  0  0  0  0  0
  -14.8652   -7.4125    9.1469 H   0  0  0  0  0  0  0  0  0  0  0  0
   -8.3491   -6.3840    7.5349 H   0  0  0  0  0  0  0  0  0  0  0  0
   -8.9488  -12.5862    5.4043 S   0  0  0  0  0  0  0  0  0  0  0  0
  -10.3257  -13.1166    5.6188 O   0  0  0  0  0  0  0  0  0  0  0  0
   -7.9688  -13.4279    6.1674 O   0  0  0  0  0  0  0  0  0  0  0  0
   -8.5322  -12.5235    3.7063 C   0  0  0  0  0  0  0  0  0  0  0  0
   -8.4258  -11.3068    3.0794 C   0  0  0  0  0  0  0  0  0  0  0  0
   -8.1018  -11.1624    1.7432 C   0  0  0  0  0  0  0  0  0  0  0  0
   -7.8782  -12.3222    1.0243 C   0  0  0  0  0  0  0  0  0  0  0  0
   -7.9785  -13.5647    1.6312 C   0  0  0  0  0  0  0  0  0  0  0  0
   -8.3036  -13.6537    2.9624 C   0  0  0  0  0  0  0  0  0  0  0  0
  1  2  1  0  0  0
  2  3  1  0  0  0
  3  4  1  0  0  0
  4  5  1  0  0  0
  5  6  1  0  0  0
  6  7  1  0  0  0
  7  8  2  0  0  0
  8  9  1  0  0  0
  9 10  2  0  0  0
 10 18  1  0  0  0
 18 19  2  0  0  0
 18 20  2  0  0  0
 18 21  1  0  0  0
 21 22  2  0  0  0
 22 23  1  0  0  0
 23 24  2  0  0  0
 24 25  1  0  0  0
 25 26  2  0  0  0
 10 11  1  0  0  0
 11 12  2  0  0  0
 12 13  1  0  0  0
 13 14  1  0  0  0
 14  2  1  0  0  0
 13  5  2  0  0  0
 12  7  1  0  0  0
 26 21  1  0  0  0
  1 15  1  0  0  0
  1 16  1  0  0  0
  6 17  1  0  0  0
M  END
> <minimizedAffinity>
14.43775

> <CNNscore>
0.5044791698

> <CNNaffinity>
5.9179654121

> <CNN_VS>
2.9854903221

> <CNNaffinity_variance>
0.7388728857

$$$$
[H]c1c([H])c([H])c(S(=O)(=O)c2c([H])c([H])c3c(c2[H])c2c(n3[H])C([H])([H])C([H])([H])C([H])(N([H])[H])C2([H])[H])c([H])c1[H]


 26 29  0  0  0  0  0  0  0  0999 V2000
  -12.9624   -9.1659    1.2821 N   0  0  0  0  0  0  0  0  0  0  0  0
  -13.6919   -8.4995    2.3581 C   0  0  0  0  0  0  0  0  0  0  0  0
  -15.1475   -8.6448    2.1007 C   0  0  0  0  0  0  0  0  0  0  0  0
  -16.0041   -8.7903    3.3169 C   0  0  0  0  0  0  0  0  0  0  0  0
  -15.3597   -8.3654    4.5713 C   0  0  0  0  0  0  0  0  0  0  0  0
  -15.8706   -7.8340    5.6822 N   0  0  0  0  0  0  0  0  0  0  0  0
  -14.9057   -7.6068    6.5704 C   0  0  0  0  0  0  0  0  0  0  0  0
  -14.8974   -7.0744    7.8651 C   0  0  0  0  0  0  0  0  0  0  0  0
  -13.6794   -6.9873    8.5019 C   0  0  0  0  0  0  0  0  0  0  0  0
  -12.5046   -7.3909    7.9328 C   0  0  0  0  0  0  0  0  0  0  0  0
  -12.5192   -7.9143    6.6579 C   0  0  0  0  0  0  0  0  0  0  0  0
  -13.7258   -8.0090    6.0067 C   0  0  0  0  0  0  0  0  0  0  0  0
  -14.0102   -8.4855    4.7514 C   0  0  0  0  0  0  0  0  0  0  0  0
  -13.2074   -9.0569    3.6467 C   0  0  0  0  0  0  0  0  0  0  0  0
  -12.0322   -9.4513    1.6195 H   0  0  0  0  0  0  0  0  0  0  0  0
  -12.9626   -8.5953    0.4187 H   0  0  0  0  0  0  0  0  0  0  0  0
  -16.8817   -7.6085    5.8760 H   0  0  0  0  0  0  0  0  0  0  0  0
  -10.9868   -7.2561    8.7901 S   0  0  0  0  0  0  0  0  0  0  0  0
  -10.9765   -8.2550    9.8969 O   0  0  0  0  0  0  0  0  0  0  0  0
  -10.8847   -5.8751    9.3677 O   0  0  0  0  0  0  0  0  0  0  0  0
   -9.7048   -7.5492    7.6363 C   0  0  0  0  0  0  0  0  0  0  0  0
   -9.5742   -8.7931    7.0703 C   0  0  0  0  0  0  0  0  0  0  0  0
   -8.5927   -9.1142    6.1512 C   0  0  0  0  0  0  0  0  0  0  0  0
   -7.7091   -8.1095    5.8019 C   0  0  0  0  0  0  0  0  0  0  0  0
   -7.8170   -6.8438    6.3574 C   0  0  0  0  0  0  0  0  0  0  0  0
   -8.8107   -6.5761    7.2667 C   0  0  0  0  0  0  0  0  0  0  0  0
  1  2  1  0  0  0
  2  3  1  0  0  0
  3  4  1  0  0  0
  4  5  1  0  0  0
  5  6  1  0  0  0
  6  7  1  0  0  0
  7  8  2  0  0  0
  8  9  1  0  0  0
  9 10  2  0  0  0
 10 18  1  0  0  0
 18 19  2  0  0  0
 18 20  2  0  0  0
 18 21  1  0  0  0
 21 22  2  0  0  0
 22 23  1  0  0  0
 23 24  2  0  0  0
 24 25  1  0  0  0
 25 26  2  0  0  0
 10 11  1  0  0  0
 11 12  2  0  0  0
 12 13  1  0  0  0
 13 14  1  0  0  0
 14  2  1  0  0  0
 13  5  2  0  0  0
 12  7  1  0  0  0
 26 21  1  0  0  0
  1 15  1  0  0  0
  1 16  1  0  0  0
  6 17  1  0  0  0
M  END
> <minimizedAffinity>
6.15526

> <CNNscore>
0.4750232995

> <CNNaffinity>
6.8201613426

> <CNN_VS>
3.2397356033

> <CNNaffinity_variance>
1.8515636921

$$$$
[H]c1c([H])c([H])c(S(=O)(=O)c2c([H])c([H])c3c(c2[H])c2c(n3[H])C([H])([H])C([H])([H])C([H])(N([H])[H])C2([H])[H])c([H])c1[H]


 26 29  0  0  0  0  0  0  0  0999 V2000
  -13.6357   -8.7592    2.0098 N   0  0  0  0  0  0  0  0  0  0  0  0
  -14.5768   -8.2133    2.9846 C   0  0  0  0  0  0  0  0  0  0  0  0
  -15.9199   -8.1429    2.3544 C   0  0  0  0  0  0  0  0  0  0  0  0
  -17.0736   -8.4008    3.2689 C   0  0  0  0  0  0  0  0  0  0  0  0
  -16.7551   -8.2800    4.7019 C   0  0  0  0  0  0  0  0  0  0  0  0
  -17.5038   -7.8973    5.7364 N   0  0  0  0  0  0  0  0  0  0  0  0
  -16.7934   -7.9423    6.8611 C   0  0  0  0  0  0  0  0  0  0  0  0
  -17.0906   -7.6504    8.1976 C   0  0  0  0  0  0  0  0  0  0  0  0
  -16.0798   -7.8172    9.1179 C   0  0  0  0  0  0  0  0  0  0  0  0
  -14.8258   -8.2466    8.7858 C   0  0  0  0  0  0  0  0  0  0  0  0
  -14.5394   -8.5323    7.4683 C   0  0  0  0  0  0  0  0  0  0  0  0
  -15.5360   -8.3718    6.5356 C   0  0  0  0  0  0  0  0  0  0  0  0
  -15.5112   -8.5842    5.1798 C   0  0  0  0  0  0  0  0  0  0  0  0
  -14.4857   -9.0405    4.2148 C   0  0  0  0  0  0  0  0  0  0  0  0
  -12.8477   -9.2045    2.5012 H   0  0  0  0  0  0  0  0  0  0  0  0
  -13.3714   -8.0494    1.3045 H   0  0  0  0  0  0  0  0  0  0  0  0
  -18.5132   -7.5949    5.7172 H   0  0  0  0  0  0  0  0  0  0  0  0
  -13.5812   -8.4399    9.9983 S   0  0  0  0  0  0  0  0  0  0  0  0
  -12.7058   -9.5800    9.6023 O   0  0  0  0  0  0  0  0  0  0  0  0
  -14.2369   -8.7511   11.3115 O   0  0  0  0  0  0  0  0  0  0  0  0
  -12.6927   -6.9352   10.0825 C   0  0  0  0  0  0  0  0  0  0  0  0
  -11.4547   -6.8458    9.4960 C   0  0  0  0  0  0  0  0  0  0  0  0
  -10.6830   -5.6989    9.5131 C   0  0  0  0  0  0  0  0  0  0  0  0
  -11.2113   -4.5984   10.1627 C   0  0  0  0  0  0  0  0  0  0  0  0
  -12.4591   -4.6596   10.7639 C   0  0  0  0  0  0  0  0  0  0  0  0
  -13.1861   -5.8238   10.7185 C   0  0  0  0  0  0  0  0  0  0  0  0
  1  2  1  0  0  0
  2  3  1  0  0  0
  3  4  1  0  0  0
  4  5  1  0  0  0
  5  6  1  0  0  0
  6  7  1  0  0  0
  7  8  2  0  0  0
  8  9  1  0  0  0
  9 10  2  0  0  0
 10 18  1  0  0  0
 18 19  2  0  0  0
 18 20  2  0  0  0
 18 21  1  0  0  0
 21 22  2  0  0  0
 22 23  1  0  0  0
 23 24  2  0  0  0
 24 25  1  0  0  0
 25 26  2  0  0  0
 10 11  1  0  0  0
 11 12  2  0  0  0
 12 13  1  0  0  0
 13 14  1  0  0  0
 14  2  1  0  0  0
 13  5  2  0  0  0
 12  7  1  0  0  0
 26 21  1  0  0  0
  1 15  1  0  0  0
  1 16  1  0  0  0
  6 17  1  0  0  0
M  END
> <minimizedAffinity>
1.06115

> <CNNscore>
0.4608222544

> <CNNaffinity>
6.2848138809

> <CNN_VS>
2.8961820602

> <CNNaffinity_variance>
0.6855903864

$$$$
[H]c1c([H])c([H])c(S(=O)(=O)c2c([H])c([H])c3c(c2[H])c2c(n3[H])C([H])([H])C([H])([H])C([H])(N([H])[H])C2([H])[H])c([H])c1[H]


 26 29  0  0  0  0  0  0  0  0999 V2000
  -11.2349   -5.0566   11.1455 N   0  0  0  0  0  0  0  0  0  0  0  0
   -9.7852   -5.0563   11.3247 C   0  0  0  0  0  0  0  0  0  0  0  0
   -9.4881   -5.2856   12.7618 C   0  0  0  0  0  0  0  0  0  0  0  0
   -8.2561   -6.0833   13.0445 C   0  0  0  0  0  0  0  0  0  0  0  0
   -7.3144   -6.1721   11.9154 C   0  0  0  0  0  0  0  0  0  0  0  0
   -5.9854   -6.2740   11.8893 N   0  0  0  0  0  0  0  0  0  0  0  0
   -5.5519   -6.3266   10.6320 C   0  0  0  0  0  0  0  0  0  0  0  0
   -4.2795   -6.4328   10.0580 C   0  0  0  0  0  0  0  0  0  0  0  0
   -4.2098   -6.4593    8.6828 C   0  0  0  0  0  0  0  0  0  0  0  0
   -5.3088   -6.3878    7.8741 C   0  0  0  0  0  0  0  0  0  0  0  0
   -6.5588   -6.2834    8.4452 C   0  0  0  0  0  0  0  0  0  0  0  0
   -6.6480   -6.2555    9.8164 C   0  0  0  0  0  0  0  0  0  0  0  0
   -7.7552   -6.1584   10.6218 C   0  0  0  0  0  0  0  0  0  0  0  0
   -9.2120   -6.0512   10.3825 C   0  0  0  0  0  0  0  0  0  0  0  0
  -11.4640   -5.3212   10.1770 H   0  0  0  0  0  0  0  0  0  0  0  0
  -11.6538   -4.1679   11.4710 H   0  0  0  0  0  0  0  0  0  0  0  0
   -5.3312   -6.3113   12.7147 H   0  0  0  0  0  0  0  0  0  0  0  0
   -5.1591   -6.4261    6.1326 S   0  0  0  0  0  0  0  0  0  0  0  0
   -6.3436   -5.7422    5.5393 O   0  0  0  0  0  0  0  0  0  0  0  0
   -5.1381   -7.8583    5.6858 O   0  0  0  0  0  0  0  0  0  0  0  0
   -3.6643   -5.6179    5.7168 C   0  0  0  0  0  0  0  0  0  0  0  0
   -2.9616   -6.0213    4.6085 C   0  0  0  0  0  0  0  0  0  0  0  0
   -1.7733   -5.4412    4.2053 C   0  0  0  0  0  0  0  0  0  0  0  0
   -1.2902   -4.4014    4.9782 C   0  0  0  0  0  0  0  0  0  0  0  0
   -1.9786   -3.9728    6.1028 C   0  0  0  0  0  0  0  0  0  0  0  0
   -3.1556   -4.5831    6.4607 C   0  0  0  0  0  0  0  0  0  0  0  0
  1  2  1  0  0  0
  2  3  1  0  0  0
  3  4  1  0  0  0
  4  5  1  0  0  0
  5  6  1  0  0  0
  6  7  1  0  0  0
  7  8  2  0  0  0
  8  9  1  0  0  0
  9 10  2  0  0  0
 10 18  1  0  0  0
 18 19  2  0  0  0
 18 20  2  0  0  0
 18 21  1  0  0  0
 21 22  2  0  0  0
 22 23  1  0  0  0
 23 24  2  0  0  0
 24 25  1  0  0  0
 25 26  2  0  0  0
 10 11  1  0  0  0
 11 12  2  0  0  0
 12 13  1  0  0  0
 13 14  1  0  0  0
 14  2  1  0  0  0
 13  5  2  0  0  0
 12  7  1  0  0  0
 26 21  1  0  0  0
  1 15  1  0  0  0
  1 16  1  0  0  0
  6 17  1  0  0  0
M  END
> <minimizedAffinity>
23.58753

> <CNNscore>
0.4138317108

> <CNNaffinity>
4.9730577469

> <CNN_VS>
2.0580089092

> <CNNaffinity_variance>
1.2765502930

$$$$
[H]c1c([H])c([H])c(S(=O)(=O)c2c([H])c([H])c3c(c2[H])c2c(n3[H])C([H])([H])C([H])([H])C([H])(N([H])[H])C2([H])[H])c([H])c1[H]


 26 29  0  0  0  0  0  0  0  0999 V2000
  -18.8513   -2.9355   -0.1054 N   0  0  0  0  0  0  0  0  0  0  0  0
  -17.5943   -2.9150    0.6384 C   0  0  0  0  0  0  0  0  0  0  0  0
  -16.9761   -1.5735    0.4818 C   0  0  0  0  0  0  0  0  0  0  0  0
  -16.2281   -1.0673    1.6727 C   0  0  0  0  0  0  0  0  0  0  0  0
  -15.8656   -2.1058    2.6522 C   0  0  0  0  0  0  0  0  0  0  0  0
  -14.8231   -2.2063    3.4770 N   0  0  0  0  0  0  0  0  0  0  0  0
  -14.9065   -3.3265    4.1909 C   0  0  0  0  0  0  0  0  0  0  0  0
  -14.0945   -3.9007    5.1761 C   0  0  0  0  0  0  0  0  0  0  0  0
  -14.5057   -5.1023    5.7088 C   0  0  0  0  0  0  0  0  0  0  0  0
  -15.6494   -5.7424    5.3224 C   0  0  0  0  0  0  0  0  0  0  0  0
  -16.4447   -5.1720    4.3520 C   0  0  0  0  0  0  0  0  0  0  0  0
  -16.0503   -3.9727    3.8089 C   0  0  0  0  0  0  0  0  0  0  0  0
  -16.6531   -3.2066    2.8426 C   0  0  0  0  0  0  0  0  0  0  0  0
  -17.8870   -3.3297    2.0342 C   0  0  0  0  0  0  0  0  0  0  0  0
  -19.4827   -3.6402    0.3011 H   0  0  0  0  0  0  0  0  0  0  0  0
  -18.6844   -3.0271   -1.1227 H   0  0  0  0  0  0  0  0  0  0  0  0
  -14.0256   -1.5257    3.5845 H   0  0  0  0  0  0  0  0  0  0  0  0
  -16.1215   -7.2677    6.0347 S   0  0  0  0  0  0  0  0  0  0  0  0
  -17.5231   -7.1472    6.5286 O   0  0  0  0  0  0  0  0  0  0  0  0
  -15.2113   -7.5574    7.1917 O   0  0  0  0  0  0  0  0  0  0  0  0
  -15.9705   -8.4940    4.7961 C   0  0  0  0  0  0  0  0  0  0  0  0
  -14.7696   -8.6628    4.1528 C   0  0  0  0  0  0  0  0  0  0  0  0
  -14.5595   -9.6052    3.1633 C   0  0  0  0  0  0  0  0  0  0  0  0
  -15.6340  -10.4066    2.8237 C   0  0  0  0  0  0  0  0  0  0  0  0
  -16.8586  -10.2587    3.4566 C   0  0  0  0  0  0  0  0  0  0  0  0
  -17.0152   -9.3066    4.4339 C   0  0  0  0  0  0  0  0  0  0  0  0
  1  2  1  0  0  0
  2  3  1  0  0  0
  3  4  1  0  0  0
  4  5  1  0  0  0
  5  6  1  0  0  0
  6  7  1  0  0  0
  7  8  2  0  0  0
  8  9  1  0  0  0
  9 10  2  0  0  0
 10 18  1  0  0  0
 18 19  2  0  0  0
 18 20  2  0  0  0
 18 21  1  0  0  0
 21 22  2  0  0  0
 22 23  1  0  0  0
 23 24  2  0  0  0
 24 25  1  0  0  0
 25 26  2  0  0  0
 10 11  1  0  0  0
 11 12  2  0  0  0
 12 13  1  0  0  0
 13 14  1  0  0  0
 14  2  1  0  0  0
 13  5  2  0  0  0
 12  7  1  0  0  0
 26 21  1  0  0  0
  1 15  1  0  0  0
  1 16  1  0  0  0
  6 17  1  0  0  0
M  END
> <minimizedAffinity>
29.07843

> <CNNscore>
0.3996880352

> <CNNaffinity>
6.2309293747

> <CNN_VS>
2.4904279709

> <CNNaffinity_variance>
1.0820481777

$$$$
[H]c1c([H])c([H])c(S(=O)(=O)c2c([H])c([H])c3c(c2[H])c2c(n3[H])C([H])([H])C([H])([H])C([H])(N([H])[H])C2([H])[H])c([H])c1[H]


 26 29  0  0  0  0  0  0  0  0999 V2000
   -9.9297   -5.4866   10.1403 N   0  0  0  0  0  0  0  0  0  0  0  0
  -11.0802   -6.3856   10.1877 C   0  0  0  0  0  0  0  0  0  0  0  0
  -11.5207   -6.5127   11.6005 C   0  0  0  0  0  0  0  0  0  0  0  0
  -12.9942   -6.6592   11.8039 C   0  0  0  0  0  0  0  0  0  0  0  0
  -13.7391   -7.0630   10.5991 C   0  0  0  0  0  0  0  0  0  0  0  0
  -14.8478   -7.7897   10.4574 N   0  0  0  0  0  0  0  0  0  0  0  0
  -15.1642   -7.9013    9.1694 C   0  0  0  0  0  0  0  0  0  0  0  0
  -16.2058   -8.5419    8.4879 C   0  0  0  0  0  0  0  0  0  0  0  0
  -16.2142   -8.4420    7.1143 C   0  0  0  0  0  0  0  0  0  0  0  0
  -15.2673   -7.7576    6.4059 C   0  0  0  0  0  0  0  0  0  0  0  0
  -14.2443   -7.1290    7.0826 C   0  0  0  0  0  0  0  0  0  0  0  0
  -14.2195   -7.2178    8.4538 C   0  0  0  0  0  0  0  0  0  0  0  0
  -13.3243   -6.6911    9.3511 C   0  0  0  0  0  0  0  0  0  0  0  0
  -12.0995   -5.8673    9.2400 C   0  0  0  0  0  0  0  0  0  0  0  0
   -9.8674   -5.0530    9.2082 H   0  0  0  0  0  0  0  0  0  0  0  0
   -9.0689   -5.9607   10.4648 H   0  0  0  0  0  0  0  0  0  0  0  0
  -15.4240   -8.2317   11.2213 H   0  0  0  0  0  0  0  0  0  0  0  0
  -15.3292   -7.6648    4.6611 S   0  0  0  0  0  0  0  0  0  0  0  0
  -15.5167   -9.0411    4.1190 O   0  0  0  0  0  0  0  0  0  0  0  0
  -14.0266   -7.1097    4.1650 O   0  0  0  0  0  0  0  0  0  0  0  0
  -16.6607   -6.6115    4.2388 C   0  0  0  0  0  0  0  0  0  0  0  0
  -16.4075   -5.4203    3.6051 C   0  0  0  0  0  0  0  0  0  0  0  0
  -17.3960   -4.5275    3.2348 C   0  0  0  0  0  0  0  0  0  0  0  0
  -18.7001   -4.8791    3.5309 C   0  0  0  0  0  0  0  0  0  0  0  0
  -18.9856   -6.0757    4.1702 C   0  0  0  0  0  0  0  0  0  0  0  0
  -17.9666   -6.9283    4.5172 C   0  0  0  0  0  0  0  0  0  0  0  0
  1  2  1  0  0  0
  2  3  1  0  0  0
  3  4  1  0  0  0
  4  5  1  0  0  0
  5  6  1  0  0  0
  6  7  1  0  0  0
  7  8  2  0  0  0
  8  9  1  0  0  0
  9 10  2  0  0  0
 10 18  1  0  0  0
 18 19  2  0  0  0
 18 20  2  0  0  0
 18 21  1  0  0  0
 21 22  2  0  0  0
 22 23  1  0  0  0
 23 24  2  0  0  0
 24 25  1  0  0  0
 25 26  2  0  0  0
 10 11  1  0  0  0
 11 12  2  0  0  0
 12 13  1  0  0  0
 13 14  1  0  0  0
 14  2  1  0  0  0
 13  5  2  0  0  0
 12  7  1  0  0  0
 26 21  1  0  0  0
  1 15  1  0  0  0
  1 16  1  0  0  0
  6 17  1  0  0  0
M  END
> <minimizedAffinity>
0.60246

> <CNNscore>
0.3977938592

> <CNNaffinity>
6.1912803650

> <CNN_VS>
2.4628531933

> <CNNaffinity_variance>
0.4499445856

$$$$
[H]c1c([H])c([H])c(S(=O)(=O)c2c([H])c([H])c3c(c2[H])c2c(n3[H])C([H])([H])C([H])([H])C([H])(N([H])[H])C2([H])[H])c([H])c1[H]


 26 29  0  0  0  0  0  0  0  0999 V2000
  -18.1950   -8.1011    2.2804 N   0  0  0  0  0  0  0  0  0  0  0  0
  -17.7621   -7.5580    3.5656 C   0  0  0  0  0  0  0  0  0  0  0  0
  -18.9503   -7.0135    4.2711 C   0  0  0  0  0  0  0  0  0  0  0  0
  -18.9385   -7.1608    5.7584 C   0  0  0  0  0  0  0  0  0  0  0  0
  -17.6111   -7.4382    6.3335 C   0  0  0  0  0  0  0  0  0  0  0  0
  -17.0814   -7.1108    7.5122 N   0  0  0  0  0  0  0  0  0  0  0  0
  -15.8383   -7.5774    7.6044 C   0  0  0  0  0  0  0  0  0  0  0  0
  -14.8607   -7.5159    8.6045 C   0  0  0  0  0  0  0  0  0  0  0  0
  -13.6554   -8.1295    8.3448 C   0  0  0  0  0  0  0  0  0  0  0  0
  -13.3818   -8.7815    7.1756 C   0  0  0  0  0  0  0  0  0  0  0  0
  -14.3484   -8.8386    6.1948 C   0  0  0  0  0  0  0  0  0  0  0  0
  -15.5577   -8.2318    6.4363 C   0  0  0  0  0  0  0  0  0  0  0  0
  -16.6706   -8.1448    5.6377 C   0  0  0  0  0  0  0  0  0  0  0  0
  -17.0217   -8.6271    4.2830 C   0  0  0  0  0  0  0  0  0  0  0  0
  -17.5338   -8.8277    1.9713 H   0  0  0  0  0  0  0  0  0  0  0  0
  -18.3738   -7.3467    1.5949 H   0  0  0  0  0  0  0  0  0  0  0  0
  -17.5392   -6.5647    8.2888 H   0  0  0  0  0  0  0  0  0  0  0  0
  -11.8319   -9.5428    6.9015 S   0  0  0  0  0  0  0  0  0  0  0  0
  -11.7062   -9.8535    5.4487 O   0  0  0  0  0  0  0  0  0  0  0  0
  -11.7805  -10.8196    7.6878 O   0  0  0  0  0  0  0  0  0  0  0  0
  -10.5967   -8.4262    7.4381 C   0  0  0  0  0  0  0  0  0  0  0  0
  -10.8395   -7.6159    8.5194 C   0  0  0  0  0  0  0  0  0  0  0  0
   -9.9231   -6.7055    9.0120 C   0  0  0  0  0  0  0  0  0  0  0  0
   -8.7055   -6.6282    8.3612 C   0  0  0  0  0  0  0  0  0  0  0  0
   -8.4326   -7.4341    7.2666 C   0  0  0  0  0  0  0  0  0  0  0  0
   -9.3778   -8.3229    6.8164 C   0  0  0  0  0  0  0  0  0  0  0  0
  1  2  1  0  0  0
  2  3  1  0  0  0
  3  4  1  0  0  0
  4  5  1  0  0  0
  5  6  1  0  0  0
  6  7  1  0  0  0
  7  8  2  0  0  0
  8  9  1  0  0  0
  9 10  2  0  0  0
 10 18  1  0  0  0
 18 19  2  0  0  0
 18 20  2  0  0  0
 18 21  1  0  0  0
 21 22  2  0  0  0
 22 23  1  0  0  0
 23 24  2  0  0  0
 24 25  1  0  0  0
 25 26  2  0  0  0
 10 11  1  0  0  0
 11 12  2  0  0  0
 12 13  1  0  0  0
 13 14  1  0  0  0
 14  2  1  0  0  0
 13  5  2  0  0  0
 12  7  1  0  0  0
 26 21  1  0  0  0
  1 15  1  0  0  0
  1 16  1  0  0  0
  6 17  1  0  0  0
M  END
> <minimizedAffinity>
-0.45285

> <CNNscore>
0.3927498460

> <CNNaffinity>
6.4123764038

> <CNN_VS>
2.5184597969

> <CNNaffinity_variance>
0.8832168579

$$$$
[H]c1c([H])c([H])c(S(=O)(=O)c2c([H])c([H])c3c(c2[H])c2c(n3[H])C([H])([H])C([H])([H])C([H])(N([H])[H])C2([H])[H])c([H])c1[H]


 26 29  0  0  0  0  0  0  0  0999 V2000
  -13.5949   -9.1411    1.7269 N   0  0  0  0  0  0  0  0  0  0  0  0
  -14.4226   -8.4493    2.7118 C   0  0  0  0  0  0  0  0  0  0  0  0
  -15.7615   -8.2079    2.1158 C   0  0  0  0  0  0  0  0  0  0  0  0
  -16.9120   -8.2839    3.0669 C   0  0  0  0  0  0  0  0  0  0  0  0
  -16.5373   -8.1771    4.4873 C   0  0  0  0  0  0  0  0  0  0  0  0
  -17.1952   -7.6721    5.5311 N   0  0  0  0  0  0  0  0  0  0  0  0
  -16.4646   -7.7902    6.6374 C   0  0  0  0  0  0  0  0  0  0  0  0
  -16.6790   -7.4310    7.9734 C   0  0  0  0  0  0  0  0  0  0  0  0
  -15.6737   -7.7156    8.8706 C   0  0  0  0  0  0  0  0  0  0  0  0
  -14.5011   -8.3213    8.5165 C   0  0  0  0  0  0  0  0  0  0  0  0
  -14.2960   -8.6725    7.1997 C   0  0  0  0  0  0  0  0  0  0  0  0
  -15.2884   -8.3963    6.2899 C   0  0  0  0  0  0  0  0  0  0  0  0
  -15.3334   -8.6396    4.9398 C   0  0  0  0  0  0  0  0  0  0  0  0
  -14.4096   -9.2542    3.9600 C   0  0  0  0  0  0  0  0  0  0  0  0
  -12.8614   -9.6801    2.2084 H   0  0  0  0  0  0  0  0  0  0  0  0
  -13.2568   -8.4902    0.9968 H   0  0  0  0  0  0  0  0  0  0  0  0
  -18.1536   -7.2337    5.5309 H   0  0  0  0  0  0  0  0  0  0  0  0
  -13.2593   -8.6581    9.7002 S   0  0  0  0  0  0  0  0  0  0  0  0
  -12.9198  -10.1083    9.6324 O   0  0  0  0  0  0  0  0  0  0  0  0
  -13.7985   -8.3384   11.0634 O   0  0  0  0  0  0  0  0  0  0  0  0
  -11.8827   -7.6483    9.3182 C   0  0  0  0  0  0  0  0  0  0  0  0
  -10.9724   -8.0702    8.3812 C   0  0  0  0  0  0  0  0  0  0  0  0
   -9.8571   -7.3390    8.0171 C   0  0  0  0  0  0  0  0  0  0  0  0
   -9.6738   -6.1215    8.6466 C   0  0  0  0  0  0  0  0  0  0  0  0
  -10.5768   -5.6700    9.5968 C   0  0  0  0  0  0  0  0  0  0  0  0
  -11.6695   -6.4351    9.9229 C   0  0  0  0  0  0  0  0  0  0  0  0
  1  2  1  0  0  0
  2  3  1  0  0  0
  3  4  1  0  0  0
  4  5  1  0  0  0
  5  6  1  0  0  0
  6  7  1  0  0  0
  7  8  2  0  0  0
  8  9  1  0  0  0
  9 10  2  0  0  0
 10 18  1  0  0  0
 18 19  2  0  0  0
 18 20  2  0  0  0
 18 21  1  0  0  0
 21 22  2  0  0  0
 22 23  1  0  0  0
 23 24  2  0  0  0
 24 25  1  0  0  0
 25 26  2  0  0  0
 10 11  1  0  0  0
 11 12  2  0  0  0
 12 13  1  0  0  0
 13 14  1  0  0  0
 14  2  1  0  0  0
 13  5  2  0  0  0
 12  7  1  0  0  0
 26 21  1  0  0  0
  1 15  1  0  0  0
  1 16  1  0  0  0
  6 17  1  0  0  0
M  END
> <minimizedAffinity>
0.43102

> <CNNscore>
0.3705548346

> <CNNaffinity>
6.2750639915

> <CNN_VS>
2.3252553940

> <CNNaffinity_variance>
0.6480250955

$$$$
[H]c1c([H])c(OC([H])([H])[H])c2c(c1[H])[C@]([H])(C([H])([H])N(C([H])([H])[H])C([H])([H])C([H])([H])c1c([H])c([H])c3c(c1[H])C([H])([H])N(S(=O)(=O)C([H])([H])[H])C3([H])[H])C([H])([H])C([H])([H])C2([H])[H]


 30 33  0  0  0  0  0  0  0  0999 V2000
  -17.7232   -8.2698    6.6526 N   0  0  0  0  0  0  0  0  0  0  0  0
  -18.5516   -9.1365    5.9372 C   0  0  0  0  0  0  0  0  0  0  0  0
  -18.0154   -6.9272    6.8062 C   0  0  0  0  0  0  0  0  0  0  0  0
  -14.5509   -4.7093    4.1348 C   0  0  0  0  0  0  0  0  0  0  0  0
  -13.5889   -5.1406    5.0389 C   0  0  0  0  0  0  0  0  0  0  0  0
  -14.0084   -5.9013    6.1326 C   0  0  0  0  0  0  0  0  0  0  0  0
  -15.3369   -6.2365    6.3428 C   0  0  0  0  0  0  0  0  0  0  0  0
  -16.2941   -5.8054    5.4410 C   0  0  0  0  0  0  0  0  0  0  0  0
  -15.8589   -5.0615    4.3767 C   0  0  0  0  0  0  0  0  0  0  0  0
  -16.9573   -4.6542    3.4231 C   0  0  0  0  0  0  0  0  0  0  0  0
  -17.7130   -5.9340    3.0915 C   0  0  0  0  0  0  0  0  0  0  0  0
  -18.3534   -6.5213    4.3278 C   0  0  0  0  0  0  0  0  0  0  0  0
  -17.7358   -6.0810    5.6004 C   0  0  0  0  0  0  0  0  0  0  0  0
  -13.0200   -4.1111    2.2981 C   0  0  0  0  0  0  0  0  0  0  0  0
  -14.2313   -3.9398    3.0045 O   0  0  0  0  0  0  0  0  0  0  0  0
  -16.4749   -8.7527    7.1144 C   0  0  0  0  0  0  0  0  0  0  0  0
  -16.1249   -8.4968    8.5421 C   0  0  0  0  0  0  0  0  0  0  0  0
  -14.6545   -8.1938    8.6886 C   0  0  0  0  0  0  0  0  0  0  0  0
  -14.0722   -7.7911    9.8660 C   0  0  0  0  0  0  0  0  0  0  0  0
  -12.7327   -7.5047    9.9733 C   0  0  0  0  0  0  0  0  0  0  0  0
  -11.8888   -7.6121    8.8708 C   0  0  0  0  0  0  0  0  0  0  0  0
  -12.4565   -8.0105    7.6986 C   0  0  0  0  0  0  0  0  0  0  0  0
  -13.8234   -8.3028    7.5914 C   0  0  0  0  0  0  0  0  0  0  0  0
  -11.4106   -8.0593    6.6421 C   0  0  0  0  0  0  0  0  0  0  0  0
  -10.1880   -7.8440    7.3474 N   0  0  0  0  0  0  0  0  0  0  0  0
  -10.4473   -7.3849    8.6701 C   0  0  0  0  0  0  0  0  0  0  0  0
   -9.2310   -9.2774    7.4556 S   0  0  0  0  0  0  0  0  0  0  0  0
   -7.5444   -8.9700    7.0141 C   0  0  0  0  0  0  0  0  0  0  0  0
   -9.3330   -9.7775    8.8678 O   0  0  0  0  0  0  0  0  0  0  0  0
   -9.8453  -10.3526    6.5877 O   0  0  0  0  0  0  0  0  0  0  0  0
 14 15  1  0  0  0
 15  4  1  0  0  0
  4  5  2  0  0  0
  5  6  1  0  0  0
  6  7  2  0  0  0
  7  8  1  0  0  0
  8  9  2  0  0  0
  9 10  1  0  0  0
 10 11  1  0  0  0
 11 12  1  0  0  0
 12 13  1  0  0  0
 13  3  1  0  0  0
  3  1  1  0  0  0
  1  2  1  0  0  0
  1 16  1  0  0  0
 16 17  1  0  0  0
 17 18  1  0  0  0
 18 19  2  0  0  0
 19 20  1  0  0  0
 20 21  2  0  0  0
 21 22  1  0  0  0
 22 23  2  0  0  0
 22 24  1  0  0  0
 24 25  1  0  0  0
 25 27  1  0  0  0
 27 28  1  0  0  0
 27 29  2  0  0  0
 27 30  2  0  0  0
 25 26  1  0  0  0
  9  4  1  0  0  0
 23 18  1  0  0  0
 13  8  1  0  0  0
 26 21  1  0  0  0
M  END
> <minimizedAffinity>
3.94659

> <CNNscore>
0.4520484805

> <CNNaffinity>
7.2281708717

> <CNN_VS>
3.2674837112

> <CNNaffinity_variance>
0.9588212967

$$$$
[H]c1c([H])c(OC([H])([H])[H])c2c(c1[H])[C@]([H])(C([H])([H])N(C([H])([H])[H])C([H])([H])C([H])([H])c1c([H])c([H])c3c(c1[H])C([H])([H])N(S(=O)(=O)C([H])([H])[H])C3([H])[H])C([H])([H])C([H])([H])C2([H])[H]


 30 33  0  0  0  0  0  0  0  0999 V2000
   -7.8167   -8.3227    8.0872 N   0  0  0  0  0  0  0  0  0  0  0  0
   -7.9605   -9.7105    8.0355 C   0  0  0  0  0  0  0  0  0  0  0  0
   -6.7120   -7.7151    8.6546 C   0  0  0  0  0  0  0  0  0  0  0  0
   -3.1459   -4.4013    8.0544 C   0  0  0  0  0  0  0  0  0  0  0  0
   -3.2380   -4.0702    9.4001 C   0  0  0  0  0  0  0  0  0  0  0  0
   -4.1758   -4.7488   10.1816 C   0  0  0  0  0  0  0  0  0  0  0  0
   -5.0072   -5.7303    9.6651 C   0  0  0  0  0  0  0  0  0  0  0  0
   -4.9143   -6.0586    8.3238 C   0  0  0  0  0  0  0  0  0  0  0  0
   -3.9874   -5.3801    7.5779 C   0  0  0  0  0  0  0  0  0  0  0  0
   -3.9262   -5.8149    6.1326 C   0  0  0  0  0  0  0  0  0  0  0  0
   -3.7935   -7.3316    6.1620 C   0  0  0  0  0  0  0  0  0  0  0  0
   -5.0072   -7.9698    6.7970 C   0  0  0  0  0  0  0  0  0  0  0  0
   -5.7814   -7.0630    7.6764 C   0  0  0  0  0  0  0  0  0  0  0  0
   -2.5183   -2.5387    6.5672 C   0  0  0  0  0  0  0  0  0  0  0  0
   -2.2363   -3.7772    7.1855 O   0  0  0  0  0  0  0  0  0  0  0  0
   -8.9015   -7.5132    7.6721 C   0  0  0  0  0  0  0  0  0  0  0  0
   -9.6179   -6.7328    8.7229 C   0  0  0  0  0  0  0  0  0  0  0  0
  -11.1094   -6.9303    8.6155 C   0  0  0  0  0  0  0  0  0  0  0  0
  -12.0260   -6.2513    9.3812 C   0  0  0  0  0  0  0  0  0  0  0  0
  -13.3804   -6.4585    9.2781 C   0  0  0  0  0  0  0  0  0  0  0  0
  -13.8944   -7.3849    8.3743 C   0  0  0  0  0  0  0  0  0  0  0  0
  -12.9938   -8.0634    7.6104 C   0  0  0  0  0  0  0  0  0  0  0  0
  -11.6123   -7.8501    7.7168 C   0  0  0  0  0  0  0  0  0  0  0  0
  -13.7222   -9.0053    6.7189 C   0  0  0  0  0  0  0  0  0  0  0  0
  -15.0980   -8.6709    6.9030 N   0  0  0  0  0  0  0  0  0  0  0  0
  -15.2596   -7.8210    8.0341 C   0  0  0  0  0  0  0  0  0  0  0  0
  -15.7682   -7.8676    5.5290 S   0  0  0  0  0  0  0  0  0  0  0  0
  -15.2155   -8.5972    4.0136 C   0  0  0  0  0  0  0  0  0  0  0  0
  -17.2629   -7.9483    5.6491 O   0  0  0  0  0  0  0  0  0  0  0  0
  -15.4239   -6.3967    5.5955 O   0  0  0  0  0  0  0  0  0  0  0  0
 14 15  1  0  0  0
 15  4  1  0  0  0
  4  5  2  0  0  0
  5  6  1  0  0  0
  6  7  2  0  0  0
  7  8  1  0  0  0
  8  9  2  0  0  0
  9 10  1  0  0  0
 10 11  1  0  0  0
 11 12  1  0  0  0
 12 13  1  0  0  0
 13  3  1  0  0  0
  3  1  1  0  0  0
  1  2  1  0  0  0
  1 16  1  0  0  0
 16 17  1  0  0  0
 17 18  1  0  0  0
 18 19  2  0  0  0
 19 20  1  0  0  0
 20 21  2  0  0  0
 21 22  1  0  0  0
 22 23  2  0  0  0
 22 24  1  0  0  0
 24 25  1  0  0  0
 25 27  1  0  0  0
 27 28  1  0  0  0
 27 29  2  0  0  0
 27 30  2  0  0  0
 25 26  1  0  0  0
  9  4  1  0  0  0
 23 18  1  0  0  0
 13  8  1  0  0  0
 26 21  1  0  0  0
M  END
> <minimizedAffinity>
-8.07218

> <CNNscore>
0.4419744909

> <CNNaffinity>
6.6469650269

> <CNN_VS>
2.9377889633

> <CNNaffinity_variance>
0.1797793061

$$$$
[H]c1c([H])c(OC([H])([H])[H])c2c(c1[H])[C@]([H])(C([H])([H])N(C([H])([H])[H])C([H])([H])C([H])([H])c1c([H])c([H])c3c(c1[H])C([H])([H])N(S(=O)(=O)C([H])([H])[H])C3([H])[H])C([H])([H])C([H])([H])C2([H])[H]


 30 33  0  0  0  0  0  0  0  0999 V2000
  -17.7072   -7.8102    5.2057 N   0  0  0  0  0  0  0  0  0  0  0  0
  -18.1289   -8.6884    6.2059 C   0  0  0  0  0  0  0  0  0  0  0  0
  -16.5559   -7.0538    5.3241 C   0  0  0  0  0  0  0  0  0  0  0  0
  -12.8592   -8.6959    8.0984 C   0  0  0  0  0  0  0  0  0  0  0  0
  -13.3968   -8.0321    9.1935 C   0  0  0  0  0  0  0  0  0  0  0  0
  -14.5782   -7.3102    9.0100 C   0  0  0  0  0  0  0  0  0  0  0  0
  -15.2245   -7.2354    7.7860 C   0  0  0  0  0  0  0  0  0  0  0  0
  -14.6871   -7.8971    6.6957 C   0  0  0  0  0  0  0  0  0  0  0  0
  -13.5287   -8.5986    6.9002 C   0  0  0  0  0  0  0  0  0  0  0  0
  -13.0214   -9.3163    5.6716 C   0  0  0  0  0  0  0  0  0  0  0  0
  -14.2070  -10.1075    5.1356 C   0  0  0  0  0  0  0  0  0  0  0  0
  -15.3287   -9.1859    4.7158 C   0  0  0  0  0  0  0  0  0  0  0  0
  -15.2829   -7.8458    5.3458 C   0  0  0  0  0  0  0  0  0  0  0  0
  -10.4731   -9.0213    7.5735 C   0  0  0  0  0  0  0  0  0  0  0  0
  -11.6760   -9.4476    8.1794 O   0  0  0  0  0  0  0  0  0  0  0  0
  -18.5604   -7.5840    4.0988 C   0  0  0  0  0  0  0  0  0  0  0  0
  -18.0149   -6.7847    2.9630 C   0  0  0  0  0  0  0  0  0  0  0  0
  -16.8145   -5.9821    3.3988 C   0  0  0  0  0  0  0  0  0  0  0  0
  -15.6071   -5.9985    2.7436 C   0  0  0  0  0  0  0  0  0  0  0  0
  -14.5210   -5.2713    3.1674 C   0  0  0  0  0  0  0  0  0  0  0  0
  -14.5977   -4.4691    4.3030 C   0  0  0  0  0  0  0  0  0  0  0  0
  -15.7905   -4.4460    4.9600 C   0  0  0  0  0  0  0  0  0  0  0  0
  -16.8977   -5.1883    4.5255 C   0  0  0  0  0  0  0  0  0  0  0  0
  -15.6796   -3.5486    6.1409 C   0  0  0  0  0  0  0  0  0  0  0  0
  -14.4032   -2.9264    5.9910 N   0  0  0  0  0  0  0  0  0  0  0  0
  -13.6364   -3.5914    4.9923 C   0  0  0  0  0  0  0  0  0  0  0  0
  -14.5318   -1.2621    5.5484 S   0  0  0  0  0  0  0  0  0  0  0  0
  -13.0345   -0.3802    5.8865 C   0  0  0  0  0  0  0  0  0  0  0  0
  -14.8641   -1.2132    4.0848 O   0  0  0  0  0  0  0  0  0  0  0  0
  -15.7129   -0.6466    6.2643 O   0  0  0  0  0  0  0  0  0  0  0  0
 14 15  1  0  0  0
 15  4  1  0  0  0
  4  5  2  0  0  0
  5  6  1  0  0  0
  6  7  2  0  0  0
  7  8  1  0  0  0
  8  9  2  0  0  0
  9 10  1  0  0  0
 10 11  1  0  0  0
 11 12  1  0  0  0
 12 13  1  0  0  0
 13  3  1  0  0  0
  3  1  1  0  0  0
  1  2  1  0  0  0
  1 16  1  0  0  0
 16 17  1  0  0  0
 17 18  1  0  0  0
 18 19  2  0  0  0
 19 20  1  0  0  0
 20 21  2  0  0  0
 21 22  1  0  0  0
 22 23  2  0  0  0
 22 24  1  0  0  0
 24 25  1  0  0  0
 25 27  1  0  0  0
 27 28  1  0  0  0
 27 29  2  0  0  0
 27 30  2  0  0  0
 25 26  1  0  0  0
  9  4  1  0  0  0
 23 18  1  0  0  0
 13  8  1  0  0  0
 26 21  1  0  0  0
M  END
> <minimizedAffinity>
13.50508

> <CNNscore>
0.4241913557

> <CNNaffinity>
6.7892775536

> <CNN_VS>
2.8799529076

> <CNNaffinity_variance>
0.5211229324

$$$$
[H]c1c([H])c(OC([H])([H])[H])c2c(c1[H])[C@]([H])(C([H])([H])N(C([H])([H])[H])C([H])([H])C([H])([H])c1c([H])c([H])c3c(c1[H])C([H])([H])N(S(=O)(=O)C([H])([H])[H])C3([H])[H])C([H])([H])C([H])([H])C2([H])[H]


 30 33  0  0  0  0  0  0  0  0999 V2000
  -18.8735   -6.8558    5.3390 N   0  0  0  0  0  0  0  0  0  0  0  0
  -19.2998   -6.7645    4.0127 C   0  0  0  0  0  0  0  0  0  0  0  0
  -18.3411   -5.7765    6.0197 C   0  0  0  0  0  0  0  0  0  0  0  0
  -13.6812   -5.0771    4.6578 C   0  0  0  0  0  0  0  0  0  0  0  0
  -13.2962   -6.1485    5.4534 C   0  0  0  0  0  0  0  0  0  0  0  0
  -14.2868   -6.8271    6.1668 C   0  0  0  0  0  0  0  0  0  0  0  0
  -15.6253   -6.4715    6.1075 C   0  0  0  0  0  0  0  0  0  0  0  0
  -16.0069   -5.4033    5.3145 C   0  0  0  0  0  0  0  0  0  0  0  0
  -15.0183   -4.7538    4.6243 C   0  0  0  0  0  0  0  0  0  0  0  0
  -15.5172   -3.6199    3.7600 C   0  0  0  0  0  0  0  0  0  0  0  0
  -16.6534   -4.2016    2.9296 C   0  0  0  0  0  0  0  0  0  0  0  0
  -17.7911   -4.6593    3.8127 C   0  0  0  0  0  0  0  0  0  0  0  0
  -17.4013   -4.9281    5.2165 C   0  0  0  0  0  0  0  0  0  0  0  0
  -12.4969   -4.6189    2.5454 C   0  0  0  0  0  0  0  0  0  0  0  0
  -12.7621   -4.3309    3.9028 O   0  0  0  0  0  0  0  0  0  0  0  0
  -18.8560   -8.1285    5.9591 C   0  0  0  0  0  0  0  0  0  0  0  0
  -18.5199   -9.3045    5.1043 C   0  0  0  0  0  0  0  0  0  0  0  0
  -17.0939   -9.2257    4.6191 C   0  0  0  0  0  0  0  0  0  0  0  0
  -16.0225   -9.7329    5.3137 C   0  0  0  0  0  0  0  0  0  0  0  0
  -14.7291   -9.6360    4.8605 C   0  0  0  0  0  0  0  0  0  0  0  0
  -14.4410   -9.0065    3.6522 C   0  0  0  0  0  0  0  0  0  0  0  0
  -15.4962   -8.5001    2.9559 C   0  0  0  0  0  0  0  0  0  0  0  0
  -16.8153   -8.6006    3.4199 C   0  0  0  0  0  0  0  0  0  0  0  0
  -14.9968   -7.8645    1.7073 C   0  0  0  0  0  0  0  0  0  0  0  0
  -13.6138   -8.2164    1.6626 N   0  0  0  0  0  0  0  0  0  0  0  0
  -13.1925   -8.7510    2.9133 C   0  0  0  0  0  0  0  0  0  0  0  0
  -13.2726   -9.3852    0.4379 S   0  0  0  0  0  0  0  0  0  0  0  0
  -13.0971   -8.6297   -1.1535 C   0  0  0  0  0  0  0  0  0  0  0  0
  -12.0109  -10.0952    0.8365 O   0  0  0  0  0  0  0  0  0  0  0  0
  -14.3595  -10.4366    0.4369 O   0  0  0  0  0  0  0  0  0  0  0  0
 14 15  1  0  0  0
 15  4  1  0  0  0
  4  5  2  0  0  0
  5  6  1  0  0  0
  6  7  2  0  0  0
  7  8  1  0  0  0
  8  9  2  0  0  0
  9 10  1  0  0  0
 10 11  1  0  0  0
 11 12  1  0  0  0
 12 13  1  0  0  0
 13  3  1  0  0  0
  3  1  1  0  0  0
  1  2  1  0  0  0
  1 16  1  0  0  0
 16 17  1  0  0  0
 17 18  1  0  0  0
 18 19  2  0  0  0
 19 20  1  0  0  0
 20 21  2  0  0  0
 21 22  1  0  0  0
 22 23  2  0  0  0
 22 24  1  0  0  0
 24 25  1  0  0  0
 25 27  1  0  0  0
 27 28  1  0  0  0
 27 29  2  0  0  0
 27 30  2  0  0  0
 25 26  1  0  0  0
  9  4  1  0  0  0
 23 18  1  0  0  0
 13  8  1  0  0  0
 26 21  1  0  0  0
M  END
> <minimizedAffinity>
30.08633

> <CNNscore>
0.3934980929

> <CNNaffinity>
6.2127628326

> <CNN_VS>
2.4447102547

> <CNNaffinity_variance>
0.6954496503

$$$$
[H]c1c([H])c(OC([H])([H])[H])c2c(c1[H])[C@]([H])(C([H])([H])N(C([H])([H])[H])C([H])([H])C([H])([H])c1c([H])c([H])c3c(c1[H])C([H])([H])N(S(=O)(=O)C([H])([H])[H])C3([H])[H])C([H])([H])C([H])([H])C2([H])[H]


 30 33  0  0  0  0  0  0  0  0999 V2000
   -6.5754   -7.5118    7.4004 N   0  0  0  0  0  0  0  0  0  0  0  0
   -7.0976   -6.9453    6.2360 C   0  0  0  0  0  0  0  0  0  0  0  0
   -5.2242   -7.4873    7.6921 C   0  0  0  0  0  0  0  0  0  0  0  0
   -2.9013   -3.2264    8.4048 C   0  0  0  0  0  0  0  0  0  0  0  0
   -3.2389   -3.2767    9.7511 C   0  0  0  0  0  0  0  0  0  0  0  0
   -3.9790   -4.3716   10.2030 C   0  0  0  0  0  0  0  0  0  0  0  0
   -4.3826   -5.3975    9.3627 C   0  0  0  0  0  0  0  0  0  0  0  0
   -4.0456   -5.3454    8.0214 C   0  0  0  0  0  0  0  0  0  0  0  0
   -3.3195   -4.2627    7.6019 C   0  0  0  0  0  0  0  0  0  0  0  0
   -2.9663   -4.2929    6.1335 C   0  0  0  0  0  0  0  0  0  0  0  0
   -2.3469   -5.6617    5.8850 C   0  0  0  0  0  0  0  0  0  0  0  0
   -3.3438   -6.7649    6.1546 C   0  0  0  0  0  0  0  0  0  0  0  0
   -4.4612   -6.3710    7.0440 C   0  0  0  0  0  0  0  0  0  0  0  0
   -2.7275   -0.8958    7.6220 C   0  0  0  0  0  0  0  0  0  0  0  0
   -2.1605   -2.1690    7.8528 O   0  0  0  0  0  0  0  0  0  0  0  0
   -7.4400   -8.2573    8.2379 C   0  0  0  0  0  0  0  0  0  0  0  0
   -8.3851   -9.2057    7.5793 C   0  0  0  0  0  0  0  0  0  0  0  0
   -9.8088   -8.7265    7.7155 C   0  0  0  0  0  0  0  0  0  0  0  0
  -10.1636   -7.5585    8.3458 C   0  0  0  0  0  0  0  0  0  0  0  0
  -11.4689   -7.1486    8.4726 C   0  0  0  0  0  0  0  0  0  0  0  0
  -12.5113   -7.9148    7.9572 C   0  0  0  0  0  0  0  0  0  0  0  0
  -12.1701   -9.0748    7.3305 C   0  0  0  0  0  0  0  0  0  0  0  0
  -10.8375   -9.4909    7.2017 C   0  0  0  0  0  0  0  0  0  0  0  0
  -13.4052   -9.7549    6.8571 C   0  0  0  0  0  0  0  0  0  0  0  0
  -14.4435   -8.8043    7.0955 N   0  0  0  0  0  0  0  0  0  0  0  0
  -13.9748   -7.7498    7.9298 C   0  0  0  0  0  0  0  0  0  0  0  0
  -15.0425   -8.1056    5.6342 S   0  0  0  0  0  0  0  0  0  0  0  0
  -14.6632   -6.3793    5.5337 C   0  0  0  0  0  0  0  0  0  0  0  0
  -14.4229   -8.8582    4.4920 O   0  0  0  0  0  0  0  0  0  0  0  0
  -16.5310   -8.3540    5.5377 O   0  0  0  0  0  0  0  0  0  0  0  0
 14 15  1  0  0  0
 15  4  1  0  0  0
  4  5  2  0  0  0
  5  6  1  0  0  0
  6  7  2  0  0  0
  7  8  1  0  0  0
  8  9  2  0  0  0
  9 10  1  0  0  0
 10 11  1  0  0  0
 11 12  1  0  0  0
 12 13  1  0  0  0
 13  3  1  0  0  0
  3  1  1  0  0  0
  1  2  1  0  0  0
  1 16  1  0  0  0
 16 17  1  0  0  0
 17 18  1  0  0  0
 18 19  2  0  0  0
 19 20  1  0  0  0
 20 21  2  0  0  0
 21 22  1  0  0  0
 22 23  2  0  0  0
 22 24  1  0  0  0
 24 25  1  0  0  0
 25 27  1  0  0  0
 27 28  1  0  0  0
 27 29  2  0  0  0
 27 30  2  0  0  0
 25 26  1  0  0  0
  9  4  1  0  0  0
 23 18  1  0  0  0
 13  8  1  0  0  0
 26 21  1  0  0  0
M  END
> <minimizedAffinity>
-7.84000

> <CNNscore>
0.3792162538

> <CNNaffinity>
6.3233137131

> <CNN_VS>
2.3979034424

> <CNNaffinity_variance>
0.1241069883

$$$$
[H]c1c([H])c(OC([H])([H])[H])c2c(c1[H])[C@]([H])(C([H])([H])N(C([H])([H])[H])C([H])([H])C([H])([H])c1c([H])c([H])c3c(c1[H])C([H])([H])N(S(=O)(=O)C([H])([H])[H])C3([H])[H])C([H])([H])C([H])([H])C2([H])[H]


 30 33  0  0  0  0  0  0  0  0999 V2000
  -14.2723   -5.0966    5.8099 N   0  0  0  0  0  0  0  0  0  0  0  0
  -13.8641   -5.5110    4.5406 C   0  0  0  0  0  0  0  0  0  0  0  0
  -14.2944   -5.9531    6.8950 C   0  0  0  0  0  0  0  0  0  0  0  0
  -10.3976   -8.7863    7.8153 C   0  0  0  0  0  0  0  0  0  0  0  0
   -9.8259   -7.7502    8.5423 C   0  0  0  0  0  0  0  0  0  0  0  0
  -10.5379   -6.5537    8.6531 C   0  0  0  0  0  0  0  0  0  0  0  0
  -11.7813   -6.3684    8.0691 C   0  0  0  0  0  0  0  0  0  0  0  0
  -12.3491   -7.4019    7.3446 C   0  0  0  0  0  0  0  0  0  0  0  0
  -11.6326   -8.5653    7.2503 C   0  0  0  0  0  0  0  0  0  0  0  0
  -12.3309   -9.6539    6.4698 C   0  0  0  0  0  0  0  0  0  0  0  0
  -13.7258   -9.7640    7.0705 C   0  0  0  0  0  0  0  0  0  0  0  0
  -14.4989   -8.4789    6.8854 C   0  0  0  0  0  0  0  0  0  0  0  0
  -13.6505   -7.2861    6.6569 C   0  0  0  0  0  0  0  0  0  0  0  0
   -9.7134  -10.6793    6.3929 C   0  0  0  0  0  0  0  0  0  0  0  0
   -9.7626  -10.0271    7.6450 O   0  0  0  0  0  0  0  0  0  0  0  0
  -14.8136   -3.7966    5.9567 C   0  0  0  0  0  0  0  0  0  0  0  0
  -16.2069   -3.5738    5.4713 C   0  0  0  0  0  0  0  0  0  0  0  0
  -16.7044   -4.7703    4.6992 C   0  0  0  0  0  0  0  0  0  0  0  0
  -17.2357   -4.6949    3.4344 C   0  0  0  0  0  0  0  0  0  0  0  0
  -17.6979   -5.7962    2.7551 C   0  0  0  0  0  0  0  0  0  0  0  0
  -17.6472   -7.0634    3.3303 C   0  0  0  0  0  0  0  0  0  0  0  0
  -17.1222   -7.1488    4.5842 C   0  0  0  0  0  0  0  0  0  0  0  0
  -16.6507   -6.0239    5.2753 C   0  0  0  0  0  0  0  0  0  0  0  0
  -17.1579   -8.5666    5.0322 C   0  0  0  0  0  0  0  0  0  0  0  0
  -17.5636   -9.2921    3.8713 N   0  0  0  0  0  0  0  0  0  0  0  0
  -18.0490   -8.4037    2.8700 C   0  0  0  0  0  0  0  0  0  0  0  0
  -16.2730  -10.2149    3.1892 S   0  0  0  0  0  0  0  0  0  0  0  0
  -14.7170   -9.3894    3.3663 C   0  0  0  0  0  0  0  0  0  0  0  0
  -16.2570  -11.5447    3.8865 O   0  0  0  0  0  0  0  0  0  0  0  0
  -16.5841  -10.5090    1.7389 O   0  0  0  0  0  0  0  0  0  0  0  0
 14 15  1  0  0  0
 15  4  1  0  0  0
  4  5  2  0  0  0
  5  6  1  0  0  0
  6  7  2  0  0  0
  7  8  1  0  0  0
  8  9  2  0  0  0
  9 10  1  0  0  0
 10 11  1  0  0  0
 11 12  1  0  0  0
 12 13  1  0  0  0
 13  3  1  0  0  0
  3  1  1  0  0  0
  1  2  1  0  0  0
  1 16  1  0  0  0
 16 17  1  0  0  0
 17 18  1  0  0  0
 18 19  2  0  0  0
 19 20  1  0  0  0
 20 21  2  0  0  0
 21 22  1  0  0  0
 22 23  2  0  0  0
 22 24  1  0  0  0
 24 25  1  0  0  0
 25 27  1  0  0  0
 27 28  1  0  0  0
 27 29  2  0  0  0
 27 30  2  0  0  0
 25 26  1  0  0  0
  9  4  1  0  0  0
 23 18  1  0  0  0
 13  8  1  0  0  0
 26 21  1  0  0  0
M  END
> <minimizedAffinity>
8.17366

> <CNNscore>
0.3738188744

> <CNNaffinity>
6.6510376930

> <CNN_VS>
2.4862835407

> <CNNaffinity_variance>
0.2980382442

$$$$
[H]c1c([H])c(OC([H])([H])[H])c2c(c1[H])[C@]([H])(C([H])([H])N(C([H])([H])[H])C([H])([H])C([H])([H])c1c([H])c([H])c3c(c1[H])C([H])([H])N(S(=O)(=O)C([H])([H])[H])C3([H])[H])C([H])([H])C([H])([H])C2([H])[H]


 30 33  0  0  0  0  0  0  0  0999 V2000
  -14.4702   -8.7139    3.4117 N   0  0  0  0  0  0  0  0  0  0  0  0
  -14.0760   -7.5858    2.6897 C   0  0  0  0  0  0  0  0  0  0  0  0
  -15.7613   -9.2062    3.3662 C   0  0  0  0  0  0  0  0  0  0  0  0
  -17.6364   -5.0604    5.1978 C   0  0  0  0  0  0  0  0  0  0  0  0
  -16.8381   -4.3256    4.3307 C   0  0  0  0  0  0  0  0  0  0  0  0
  -15.9944   -5.0230    3.4633 C   0  0  0  0  0  0  0  0  0  0  0  0
  -15.9285   -6.4074    3.4389 C   0  0  0  0  0  0  0  0  0  0  0  0
  -16.7245   -7.1378    4.3039 C   0  0  0  0  0  0  0  0  0  0  0  0
  -17.5436   -6.4322    5.1446 C   0  0  0  0  0  0  0  0  0  0  0  0
  -18.4011   -7.2994    6.0360 C   0  0  0  0  0  0  0  0  0  0  0  0
  -19.0800   -8.3001    5.1105 C   0  0  0  0  0  0  0  0  0  0  0  0
  -18.0623   -9.1841    4.4277 C   0  0  0  0  0  0  0  0  0  0  0  0
  -16.6966   -8.6122    4.3765 C   0  0  0  0  0  0  0  0  0  0  0  0
  -19.1575   -3.2261    5.8277 C   0  0  0  0  0  0  0  0  0  0  0  0
  -18.5171   -4.4537    6.1079 O   0  0  0  0  0  0  0  0  0  0  0  0
  -13.5546   -9.2861    4.3276 C   0  0  0  0  0  0  0  0  0  0  0  0
  -14.1171  -10.1100    5.4372 C   0  0  0  0  0  0  0  0  0  0  0  0
  -14.1938   -9.3106    6.7140 C   0  0  0  0  0  0  0  0  0  0  0  0
  -15.1963   -8.4137    6.9934 C   0  0  0  0  0  0  0  0  0  0  0  0
  -15.2382   -7.6837    8.1567 C   0  0  0  0  0  0  0  0  0  0  0  0
  -14.2461   -7.8238    9.1239 C   0  0  0  0  0  0  0  0  0  0  0  0
  -13.2476   -8.7106    8.8564 C   0  0  0  0  0  0  0  0  0  0  0  0
  -13.2071   -9.4548    7.6690 C   0  0  0  0  0  0  0  0  0  0  0  0
  -12.2853   -8.7180    9.9905 C   0  0  0  0  0  0  0  0  0  0  0  0
  -12.9141   -7.9160   10.9905 N   0  0  0  0  0  0  0  0  0  0  0  0
  -14.0171   -7.2033   10.4400 C   0  0  0  0  0  0  0  0  0  0  0  0
  -13.4924   -8.8562   12.3186 S   0  0  0  0  0  0  0  0  0  0  0  0
  -12.7933   -8.3164   13.8528 C   0  0  0  0  0  0  0  0  0  0  0  0
  -14.9887   -8.7303   12.3374 O   0  0  0  0  0  0  0  0  0  0  0  0
  -13.2008  -10.3170   12.0585 O   0  0  0  0  0  0  0  0  0  0  0  0
 14 15  1  0  0  0
 15  4  1  0  0  0
  4  5  2  0  0  0
  5  6  1  0  0  0
  6  7  2  0  0  0
  7  8  1  0  0  0
  8  9  2  0  0  0
  9 10  1  0  0  0
 10 11  1  0  0  0
 11 12  1  0  0  0
 12 13  1  0  0  0
 13  3  1  0  0  0
  3  1  1  0  0  0
  1  2  1  0  0  0
  1 16  1  0  0  0
 16 17  1  0  0  0
 17 18  1  0  0  0
 18 19  2  0  0  0
 19 20  1  0  0  0
 20 21  2  0  0  0
 21 22  1  0  0  0
 22 23  2  0  0  0
 22 24  1  0  0  0
 24 25  1  0  0  0
 25 27  1  0  0  0
 27 28  1  0  0  0
 27 29  2  0  0  0
 27 30  2  0  0  0
 25 26  1  0  0  0
  9  4  1  0  0  0
 23 18  1  0  0  0
 13  8  1  0  0  0
 26 21  1  0  0  0
M  END
> <minimizedAffinity>
11.84407

> <CNNscore>
0.3476850688

> <CNNaffinity>
6.6483497620

> <CNN_VS>
2.3115320206

> <CNNaffinity_variance>
0.6462472677

$$$$
[H]c1c([H])c(OC([H])([H])[H])c2c(c1[H])[C@]([H])(C([H])([H])N(C([H])([H])[H])C([H])([H])C([H])([H])c1c([H])c([H])c3c(c1[H])C([H])([H])N(S(=O)(=O)C([H])([H])[H])C3([H])[H])C([H])([H])C([H])([H])C2([H])[H]


 30 33  0  0  0  0  0  0  0  0999 V2000
  -11.1306   -8.9214    7.3242 N   0  0  0  0  0  0  0  0  0  0  0  0
  -11.0142   -7.5978    7.7528 C   0  0  0  0  0  0  0  0  0  0  0  0
  -12.3215   -9.4437    6.8545 C   0  0  0  0  0  0  0  0  0  0  0  0
  -16.4333   -7.5333    4.9830 C   0  0  0  0  0  0  0  0  0  0  0  0
  -16.1197   -8.0880    3.7489 C   0  0  0  0  0  0  0  0  0  0  0  0
  -14.9408   -8.8291    3.6414 C   0  0  0  0  0  0  0  0  0  0  0  0
  -14.0839   -9.0276    4.7128 C   0  0  0  0  0  0  0  0  0  0  0  0
  -14.3978   -8.4738    5.9416 C   0  0  0  0  0  0  0  0  0  0  0  0
  -15.5587   -7.7518    6.0227 C   0  0  0  0  0  0  0  0  0  0  0  0
  -15.8460   -7.2053    7.4013 C   0  0  0  0  0  0  0  0  0  0  0  0
  -15.7164   -8.3887    8.3508 C   0  0  0  0  0  0  0  0  0  0  0  0
  -14.3087   -8.9381    8.3435 C   0  0  0  0  0  0  0  0  0  0  0  0
  -13.5299   -8.5998    7.1294 C   0  0  0  0  0  0  0  0  0  0  0  0
  -17.7341   -5.4610    4.6862 C   0  0  0  0  0  0  0  0  0  0  0  0
  -17.5941   -6.7719    5.1938 O   0  0  0  0  0  0  0  0  0  0  0  0
  -10.0302   -9.7928    7.5093 C   0  0  0  0  0  0  0  0  0  0  0  0
   -8.8880   -9.6688    6.5573 C   0  0  0  0  0  0  0  0  0  0  0  0
   -7.8347   -8.7359    7.1008 C   0  0  0  0  0  0  0  0  0  0  0  0
   -7.5915   -8.5579    8.4412 C   0  0  0  0  0  0  0  0  0  0  0  0
   -6.6373   -7.6903    8.9152 C   0  0  0  0  0  0  0  0  0  0  0  0
   -5.8585   -6.9376    8.0398 C   0  0  0  0  0  0  0  0  0  0  0  0
   -6.0919   -7.1068    6.7087 C   0  0  0  0  0  0  0  0  0  0  0  0
   -7.0657   -7.9930    6.2272 C   0  0  0  0  0  0  0  0  0  0  0  0
   -5.1782   -6.2223    5.9372 C   0  0  0  0  0  0  0  0  0  0  0  0
   -4.2911   -5.6894    6.9208 N   0  0  0  0  0  0  0  0  0  0  0  0
   -4.7818   -5.9509    8.2317 C   0  0  0  0  0  0  0  0  0  0  0  0
   -2.7018   -6.3542    6.8010 S   0  0  0  0  0  0  0  0  0  0  0  0
   -1.6013   -5.2625    5.9459 C   0  0  0  0  0  0  0  0  0  0  0  0
   -2.2196   -6.6147    8.1991 O   0  0  0  0  0  0  0  0  0  0  0  0
   -2.7774   -7.7062    6.1279 O   0  0  0  0  0  0  0  0  0  0  0  0
 14 15  1  0  0  0
 15  4  1  0  0  0
  4  5  2  0  0  0
  5  6  1  0  0  0
  6  7  2  0  0  0
  7  8  1  0  0  0
  8  9  2  0  0  0
  9 10  1  0  0  0
 10 11  1  0  0  0
 11 12  1  0  0  0
 12 13  1  0  0  0
 13  3  1  0  0  0
  3  1  1  0  0  0
  1  2  1  0  0  0
  1 16  1  0  0  0
 16 17  1  0  0  0
 17 18  1  0  0  0
 18 19  2  0  0  0
 19 20  1  0  0  0
 20 21  2  0  0  0
 21 22  1  0  0  0
 22 23  2  0  0  0
 22 24  1  0  0  0
 24 25  1  0  0  0
 25 27  1  0  0  0
 27 28  1  0  0  0
 27 29  2  0  0  0
 27 30  2  0  0  0
 25 26  1  0  0  0
  9  4  1  0  0  0
 23 18  1  0  0  0
 13  8  1  0  0  0
 26 21  1  0  0  0
M  END
> <minimizedAffinity>
-8.38313

> <CNNscore>
0.3466155827

> <CNNaffinity>
6.7482633591

> <CNN_VS>
2.3390531540

> <CNNaffinity_variance>
0.1201930270

$$$$
[H]c1c([H])c(OC([H])([H])[H])c2c(c1[H])[C@]([H])(C([H])([H])N(C([H])([H])[H])C([H])([H])C([H])([H])c1c([H])c([H])c3c(c1[H])C([H])([H])N(S(=O)(=O)C([H])([H])[H])C3([H])[H])C([H])([H])C([H])([H])C2([H])[H]


 30 33  0  0  0  0  0  0  0  0999 V2000
  -12.2568   -6.7189    5.6439 N   0  0  0  0  0  0  0  0  0  0  0  0
  -12.2676   -6.0493    4.4188 C   0  0  0  0  0  0  0  0  0  0  0  0
  -13.4151   -7.1685    6.2502 C   0  0  0  0  0  0  0  0  0  0  0  0
  -18.0798   -8.6200    5.8112 C   0  0  0  0  0  0  0  0  0  0  0  0
  -18.2307   -8.5251    7.1886 C   0  0  0  0  0  0  0  0  0  0  0  0
  -17.1300   -8.1143    7.9439 C   0  0  0  0  0  0  0  0  0  0  0  0
  -15.9070   -7.8015    7.3713 C   0  0  0  0  0  0  0  0  0  0  0  0
  -15.7584   -7.8971    5.9986 C   0  0  0  0  0  0  0  0  0  0  0  0
  -16.8515   -8.3014    5.2792 C   0  0  0  0  0  0  0  0  0  0  0  0
  -16.6191   -8.3526    3.7875 C   0  0  0  0  0  0  0  0  0  0  0  0
  -16.0247   -7.0010    3.4148 C   0  0  0  0  0  0  0  0  0  0  0  0
  -14.6917   -6.7890    4.0943 C   0  0  0  0  0  0  0  0  0  0  0  0
  -14.4859   -7.6206    5.3029 C   0  0  0  0  0  0  0  0  0  0  0  0
  -20.3113   -9.6071    5.4631 C   0  0  0  0  0  0  0  0  0  0  0  0
  -19.1251   -9.0237    4.9649 O   0  0  0  0  0  0  0  0  0  0  0  0
  -11.0351   -6.8147    6.3529 C   0  0  0  0  0  0  0  0  0  0  0  0
  -10.0917   -5.6628    6.2547 C   0  0  0  0  0  0  0  0  0  0  0  0
   -8.6735   -6.1065    6.5139 C   0  0  0  0  0  0  0  0  0  0  0  0
   -7.8066   -6.5065    5.5260 C   0  0  0  0  0  0  0  0  0  0  0  0
   -6.5232   -6.9223    5.7863 C   0  0  0  0  0  0  0  0  0  0  0  0
   -6.0343   -6.9573    7.0898 C   0  0  0  0  0  0  0  0  0  0  0  0
   -6.8861   -6.5628    8.0766 C   0  0  0  0  0  0  0  0  0  0  0  0
   -8.1951   -6.1383    7.8087 C   0  0  0  0  0  0  0  0  0  0  0  0
   -6.1962   -6.6743    9.3896 C   0  0  0  0  0  0  0  0  0  0  0  0
   -4.8427   -6.9773    9.0510 N   0  0  0  0  0  0  0  0  0  0  0  0
   -4.7393   -7.3402    7.6780 C   0  0  0  0  0  0  0  0  0  0  0  0
   -3.7807   -5.6454    9.3348 S   0  0  0  0  0  0  0  0  0  0  0  0
   -4.2954   -4.6874   10.7316 C   0  0  0  0  0  0  0  0  0  0  0  0
   -2.4049   -6.2082    9.5481 O   0  0  0  0  0  0  0  0  0  0  0  0
   -3.6958   -4.8013    8.0830 O   0  0  0  0  0  0  0  0  0  0  0  0
 14 15  1  0  0  0
 15  4  1  0  0  0
  4  5  2  0  0  0
  5  6  1  0  0  0
  6  7  2  0  0  0
  7  8  1  0  0  0
  8  9  2  0  0  0
  9 10  1  0  0  0
 10 11  1  0  0  0
 11 12  1  0  0  0
 12 13  1  0  0  0
 13  3  1  0  0  0
  3  1  1  0  0  0
  1  2  1  0  0  0
  1 16  1  0  0  0
 16 17  1  0  0  0
 17 18  1  0  0  0
 18 19  2  0  0  0
 19 20  1  0  0  0
 20 21  2  0  0  0
 21 22  1  0  0  0
 22 23  2  0  0  0
 22 24  1  0  0  0
 24 25  1  0  0  0
 25 27  1  0  0  0
 27 28  1  0  0  0
 27 29  2  0  0  0
 27 30  2  0  0  0
 25 26  1  0  0  0
  9  4  1  0  0  0
 23 18  1  0  0  0
 13  8  1  0  0  0
 26 21  1  0  0  0
M  END
> <minimizedAffinity>
10.78017

> <CNNscore>
0.3370017409

> <CNNaffinity>
6.2622652054

> <CNN_VS>
2.1103942394

> <CNNaffinity_variance>
1.3619787693

$$$$
[H]N=C(c1c([H])c([H])c(C([H])([H])N([H])C(=O)C2([H])N3C(=O)[C@](O[H])(C([H])([H])c4c([H])c([H])c([H])c([H])c4[H])C([H])([H])C([H])([H])[C@]3([H])C([H])([H])C2([H])[H])c([H])c1[H])N([H])[H]


 36 39  0  0  0  0  0  0  0  0999 V2000
  -12.0439   -8.7584    6.4753 C   0  0  0  0  0  0  0  0  0  0  0  0
  -13.1519   -9.6157    5.9011 C   0  0  0  0  0  0  0  0  0  0  0  0
  -13.4871  -10.4933    7.0974 C   0  0  0  0  0  0  0  0  0  0  0  0
  -13.5271   -9.4691    8.2084 C   0  0  0  0  0  0  0  0  0  0  0  0
  -13.2311  -10.0792    9.5526 C   0  0  0  0  0  0  0  0  0  0  0  0
  -13.0592   -9.0394   10.6105 C   0  0  0  0  0  0  0  0  0  0  0  0
  -12.9411   -7.6346   10.0893 C   0  0  0  0  0  0  0  0  0  0  0  0
  -14.2020   -7.1064    9.7644 O   0  0  0  0  0  0  0  0  0  0  0  0
  -12.0506   -7.6515    8.8992 C   0  0  0  0  0  0  0  0  0  0  0  0
  -11.0191   -6.9669    8.7677 O   0  0  0  0  0  0  0  0  0  0  0  0
  -12.4471   -8.5390    7.8436 N   0  0  0  0  0  0  0  0  0  0  0  0
  -14.8266   -7.4993   10.4442 H   0  0  0  0  0  0  0  0  0  0  0  0
   -9.5602   -8.8951    6.3580 N   0  0  0  0  0  0  0  0  0  0  0  0
  -10.7931   -9.5953    6.4028 C   0  0  0  0  0  0  0  0  0  0  0  0
  -10.8248  -10.8327    6.3823 O   0  0  0  0  0  0  0  0  0  0  0  0
   -9.5173   -7.8360    6.3734 H   0  0  0  0  0  0  0  0  0  0  0  0
   -8.2685   -9.5561    6.2884 C   0  0  0  0  0  0  0  0  0  0  0  0
   -7.8410  -11.3237    2.4268 C   0  0  0  0  0  0  0  0  0  0  0  0
   -7.1556  -10.1943    2.7775 C   0  0  0  0  0  0  0  0  0  0  0  0
   -7.2639   -9.5876    4.0241 C   0  0  0  0  0  0  0  0  0  0  0  0
   -8.0998  -10.1503    4.9468 C   0  0  0  0  0  0  0  0  0  0  0  0
   -8.8004  -11.2841    4.6229 C   0  0  0  0  0  0  0  0  0  0  0  0
   -8.6912  -11.8886    3.3780 C   0  0  0  0  0  0  0  0  0  0  0  0
   -8.0225  -13.1530    0.8343 N   0  0  0  0  0  0  0  0  0  0  0  0
   -7.7144  -11.9435    1.1159 C   0  0  0  0  0  0  0  0  0  0  0  0
   -7.2052  -11.1685    0.0158 N   0  0  0  0  0  0  0  0  0  0  0  0
   -8.3942  -13.7707    1.5715 H   0  0  0  0  0  0  0  0  0  0  0  0
   -7.7257  -10.3372   -0.3354 H   0  0  0  0  0  0  0  0  0  0  0  0
   -6.3040  -11.4566   -0.4225 H   0  0  0  0  0  0  0  0  0  0  0  0
  -12.3816   -6.7477   11.1765 C   0  0  0  0  0  0  0  0  0  0  0  0
  -12.3167   -5.3372   10.8007 C   0  0  0  0  0  0  0  0  0  0  0  0
  -11.2328   -4.7697   10.1601 C   0  0  0  0  0  0  0  0  0  0  0  0
  -11.2071   -3.4259    9.8222 C   0  0  0  0  0  0  0  0  0  0  0  0
  -12.2787   -2.6142   10.1228 C   0  0  0  0  0  0  0  0  0  0  0  0
  -13.3590   -3.1553   10.7554 C   0  0  0  0  0  0  0  0  0  0  0  0
  -13.3777   -4.5066   11.0918 C   0  0  0  0  0  0  0  0  0  0  0  0
 24 25  2  0  0  0
 25 26  1  0  0  0
 25 18  1  0  0  0
 18 19  2  0  0  0
 19 20  1  0  0  0
 20 21  2  0  0  0
 21 17  1  0  0  0
 17 13  1  0  0  0
 13 14  1  0  0  0
 14 15  2  0  0  0
 14  1  1  0  0  0
  1  2  1  0  0  0
  2  3  1  0  0  0
  3  4  1  0  0  0
  4  5  1  0  0  0
  5  6  1  0  0  0
  6  7  1  0  0  0
  7  8  1  0  0  0
  7 30  1  0  0  0
 30 31  1  0  0  0
 31 32  2  0  0  0
 32 33  1  0  0  0
 33 34  2  0  0  0
 34 35  1  0  0  0
 35 36  2  0  0  0
  7  9  1  0  0  0
  9 10  2  0  0  0
  9 11  1  0  0  0
 21 22  1  0  0  0
 22 23  2  0  0  0
 23 18  1  0  0  0
 11  1  1  0  0  0
 11  4  1  0  0  0
 36 31  1  0  0  0
 24 27  1  0  0  0
 26 28  1  0  0  0
 26 29  1  0  0  0
 13 16  1  0  0  0
  8 12  1  0  0  0
M  END
> <minimizedAffinity>
13.43129

> <CNNscore>
0.5574144721

> <CNNaffinity>
6.1020994186

> <CNN_VS>
3.4013984203

> <CNNaffinity_variance>
0.9625960588

$$$$
[H]N=C(c1c([H])c([H])c(C([H])([H])N([H])C(=O)C2([H])N3C(=O)[C@](O[H])(C([H])([H])c4c([H])c([H])c([H])c([H])c4[H])C([H])([H])C([H])([H])[C@]3([H])C([H])([H])C2([H])[H])c([H])c1[H])N([H])[H]


 36 39  0  0  0  0  0  0  0  0999 V2000
  -11.4310   -9.6364    7.3710 C   0  0  0  0  0  0  0  0  0  0  0  0
  -10.4152  -10.6756    6.9462 C   0  0  0  0  0  0  0  0  0  0  0  0
   -9.4122   -9.8100    6.1990 C   0  0  0  0  0  0  0  0  0  0  0  0
   -9.2696   -8.6427    7.1487 C   0  0  0  0  0  0  0  0  0  0  0  0
   -8.8459   -7.3838    6.4399 C   0  0  0  0  0  0  0  0  0  0  0  0
   -8.9138   -6.1907    7.3352 C   0  0  0  0  0  0  0  0  0  0  0  0
   -9.6323   -6.4272    8.6340 C   0  0  0  0  0  0  0  0  0  0  0  0
   -8.8041   -7.0841    9.5597 O   0  0  0  0  0  0  0  0  0  0  0  0
  -10.8531   -7.2277    8.3533 C   0  0  0  0  0  0  0  0  0  0  0  0
  -12.0130   -6.8947    8.6592 O   0  0  0  0  0  0  0  0  0  0  0  0
  -10.6325   -8.4735    7.6760 N   0  0  0  0  0  0  0  0  0  0  0  0
   -7.8845   -6.7259    9.3791 H   0  0  0  0  0  0  0  0  0  0  0  0
  -13.0785   -8.2070    6.1692 N   0  0  0  0  0  0  0  0  0  0  0  0
  -12.3062   -9.3969    6.1682 C   0  0  0  0  0  0  0  0  0  0  0  0
  -12.3588  -10.1905    5.2194 O   0  0  0  0  0  0  0  0  0  0  0  0
  -13.0449   -7.5189    6.9750 H   0  0  0  0  0  0  0  0  0  0  0  0
  -13.9687   -7.8319    5.0845 C   0  0  0  0  0  0  0  0  0  0  0  0
  -18.0073   -8.7166    6.1461 C   0  0  0  0  0  0  0  0  0  0  0  0
  -17.1087   -8.2564    7.0676 C   0  0  0  0  0  0  0  0  0  0  0  0
  -15.7857   -7.9543    6.7641 C   0  0  0  0  0  0  0  0  0  0  0  0
  -15.3618   -8.1269    5.4768 C   0  0  0  0  0  0  0  0  0  0  0  0
  -16.2415   -8.5873    4.5305 C   0  0  0  0  0  0  0  0  0  0  0  0
  -17.5620   -8.8884    4.8350 C   0  0  0  0  0  0  0  0  0  0  0  0
  -19.8516   -9.1542    7.6699 N   0  0  0  0  0  0  0  0  0  0  0  0
  -19.3884   -9.0278    6.4840 C   0  0  0  0  0  0  0  0  0  0  0  0
  -20.3472   -9.2167    5.4280 N   0  0  0  0  0  0  0  0  0  0  0  0
  -19.2243   -9.0332    8.4793 H   0  0  0  0  0  0  0  0  0  0  0  0
  -20.5932   -8.4337    4.7863 H   0  0  0  0  0  0  0  0  0  0  0  0
  -20.7907  -10.1540    5.3186 H   0  0  0  0  0  0  0  0  0  0  0  0
   -9.9841   -5.0962    9.2556 C   0  0  0  0  0  0  0  0  0  0  0  0
  -11.1040   -5.1689   10.1913 C   0  0  0  0  0  0  0  0  0  0  0  0
  -11.0208   -5.7697   11.4321 C   0  0  0  0  0  0  0  0  0  0  0  0
  -12.1068   -5.8214   12.2914 C   0  0  0  0  0  0  0  0  0  0  0  0
  -13.3118   -5.2663   11.9210 C   0  0  0  0  0  0  0  0  0  0  0  0
  -13.4149   -4.6683   10.6996 C   0  0  0  0  0  0  0  0  0  0  0  0
  -12.3191   -4.6201    9.8413 C   0  0  0  0  0  0  0  0  0  0  0  0
 24 25  2  0  0  0
 25 26  1  0  0  0
 25 18  1  0  0  0
 18 19  2  0  0  0
 19 20  1  0  0  0
 20 21  2  0  0  0
 21 17  1  0  0  0
 17 13  1  0  0  0
 13 14  1  0  0  0
 14 15  2  0  0  0
 14  1  1  0  0  0
  1  2  1  0  0  0
  2  3  1  0  0  0
  3  4  1  0  0  0
  4  5  1  0  0  0
  5  6  1  0  0  0
  6  7  1  0  0  0
  7  8  1  0  0  0
  7 30  1  0  0  0
 30 31  1  0  0  0
 31 32  2  0  0  0
 32 33  1  0  0  0
 33 34  2  0  0  0
 34 35  1  0  0  0
 35 36  2  0  0  0
  7  9  1  0  0  0
  9 10  2  0  0  0
  9 11  1  0  0  0
 21 22  1  0  0  0
 22 23  2  0  0  0
 23 18  1  0  0  0
 11  1  1  0  0  0
 11  4  1  0  0  0
 36 31  1  0  0  0
 24 27  1  0  0  0
 26 28  1  0  0  0
 26 29  1  0  0  0
 13 16  1  0  0  0
  8 12  1  0  0  0
M  END
> <minimizedAffinity>
3.34483

> <CNNscore>
0.5003467798

> <CNNaffinity>
6.8126134872

> <CNN_VS>
3.4086692333

> <CNNaffinity_variance>
1.5240244865

$$$$
[H]N=C(c1c([H])c([H])c(C([H])([H])N([H])C(=O)C2([H])N3C(=O)[C@](O[H])(C([H])([H])c4c([H])c([H])c([H])c([H])c4[H])C([H])([H])C([H])([H])[C@]3([H])C([H])([H])C2([H])[H])c([H])c1[H])N([H])[H]


 36 39  0  0  0  0  0  0  0  0999 V2000
  -14.4229   -9.1687    8.4110 C   0  0  0  0  0  0  0  0  0  0  0  0
  -13.9476  -10.4808    7.8240 C   0  0  0  0  0  0  0  0  0  0  0  0
  -12.8861   -9.9933    6.8497 C   0  0  0  0  0  0  0  0  0  0  0  0
  -12.1488   -8.9857    7.7017 C   0  0  0  0  0  0  0  0  0  0  0  0
  -11.4710   -7.9288    6.8708 C   0  0  0  0  0  0  0  0  0  0  0  0
  -10.9283   -6.8214    7.7127 C   0  0  0  0  0  0  0  0  0  0  0  0
  -11.3944   -6.8400    9.1416 C   0  0  0  0  0  0  0  0  0  0  0  0
  -10.6731   -7.7789    9.8983 O   0  0  0  0  0  0  0  0  0  0  0  0
  -12.8477   -7.1522    9.1546 C   0  0  0  0  0  0  0  0  0  0  0  0
  -13.7263   -6.4465    9.6835 O   0  0  0  0  0  0  0  0  0  0  0  0
  -13.2236   -8.3704    8.4958 N   0  0  0  0  0  0  0  0  0  0  0  0
   -9.7461   -7.7582    9.5151 H   0  0  0  0  0  0  0  0  0  0  0  0
  -15.2270   -8.9989    6.0602 N   0  0  0  0  0  0  0  0  0  0  0  0
  -15.3911   -8.5938    7.4097 C   0  0  0  0  0  0  0  0  0  0  0  0
  -16.2894   -7.8063    7.7344 O   0  0  0  0  0  0  0  0  0  0  0  0
  -14.4618   -9.6714    5.7669 H   0  0  0  0  0  0  0  0  0  0  0  0
  -16.0789   -8.5361    4.9783 C   0  0  0  0  0  0  0  0  0  0  0  0
  -15.3267   -4.4077    4.1977 C   0  0  0  0  0  0  0  0  0  0  0  0
  -14.3267   -5.2587    4.5773 C   0  0  0  0  0  0  0  0  0  0  0  0
  -14.5276   -6.6096    4.8391 C   0  0  0  0  0  0  0  0  0  0  0  0
  -15.7914   -7.1124    4.7103 C   0  0  0  0  0  0  0  0  0  0  0  0
  -16.8149   -6.2819    4.3307 C   0  0  0  0  0  0  0  0  0  0  0  0
  -16.6128   -4.9335    4.0696 C   0  0  0  0  0  0  0  0  0  0  0  0
  -14.5029   -2.1783    4.7138 N   0  0  0  0  0  0  0  0  0  0  0  0
  -15.0961   -2.9959    3.9286 C   0  0  0  0  0  0  0  0  0  0  0  0
  -15.5561   -2.4303    2.6882 N   0  0  0  0  0  0  0  0  0  0  0  0
  -14.1450   -2.5104    5.6221 H   0  0  0  0  0  0  0  0  0  0  0  0
  -15.1645   -2.7532    1.7785 H   0  0  0  0  0  0  0  0  0  0  0  0
  -16.2899   -1.6901    2.7192 H   0  0  0  0  0  0  0  0  0  0  0  0
  -11.1202   -5.4941    9.7702 C   0  0  0  0  0  0  0  0  0  0  0  0
  -10.9797   -5.5486   11.2235 C   0  0  0  0  0  0  0  0  0  0  0  0
   -9.7696   -5.7264   11.8647 C   0  0  0  0  0  0  0  0  0  0  0  0
   -9.6769   -5.7757   13.2465 C   0  0  0  0  0  0  0  0  0  0  0  0
  -10.8075   -5.6466   14.0229 C   0  0  0  0  0  0  0  0  0  0  0  0
  -12.0125   -5.4702   13.4091 C   0  0  0  0  0  0  0  0  0  0  0  0
  -12.0978   -5.4216   12.0198 C   0  0  0  0  0  0  0  0  0  0  0  0
 24 25  2  0  0  0
 25 26  1  0  0  0
 25 18  1  0  0  0
 18 19  2  0  0  0
 19 20  1  0  0  0
 20 21  2  0  0  0
 21 17  1  0  0  0
 17 13  1  0  0  0
 13 14  1  0  0  0
 14 15  2  0  0  0
 14  1  1  0  0  0
  1  2  1  0  0  0
  2  3  1  0  0  0
  3  4  1  0  0  0
  4  5  1  0  0  0
  5  6  1  0  0  0
  6  7  1  0  0  0
  7  8  1  0  0  0
  7 30  1  0  0  0
 30 31  1  0  0  0
 31 32  2  0  0  0
 32 33  1  0  0  0
 33 34  2  0  0  0
 34 35  1  0  0  0
 35 36  2  0  0  0
  7  9  1  0  0  0
  9 10  2  0  0  0
  9 11  1  0  0  0
 21 22  1  0  0  0
 22 23  2  0  0  0
 23 18  1  0  0  0
 11  1  1  0  0  0
 11  4  1  0  0  0
 36 31  1  0  0  0
 24 27  1  0  0  0
 26 28  1  0  0  0
 26 29  1  0  0  0
 13 16  1  0  0  0
  8 12  1  0  0  0
M  END
> <minimizedAffinity>
2.87120

> <CNNscore>
0.4980706275

> <CNNaffinity>
6.6586213112

> <CNN_VS>
3.3164637089

> <CNNaffinity_variance>
0.3881075084

$$$$
[H]N=C(c1c([H])c([H])c(C([H])([H])N([H])C(=O)C2([H])N3C(=O)[C@](O[H])(C([H])([H])c4c([H])c([H])c([H])c([H])c4[H])C([H])([H])C([H])([H])[C@]3([H])C([H])([H])C2([H])[H])c([H])c1[H])N([H])[H]


 36 39  0  0  0  0  0  0  0  0999 V2000
  -14.0533   -8.8526    9.5679 C   0  0  0  0  0  0  0  0  0  0  0  0
  -14.2992   -7.9666   10.7707 C   0  0  0  0  0  0  0  0  0  0  0  0
  -13.8029   -6.6269   10.2485 C   0  0  0  0  0  0  0  0  0  0  0  0
  -14.4327   -6.5978    8.8747 C   0  0  0  0  0  0  0  0  0  0  0  0
  -13.6603   -5.7320    7.9153 C   0  0  0  0  0  0  0  0  0  0  0  0
  -14.1561   -5.8738    6.5139 C   0  0  0  0  0  0  0  0  0  0  0  0
  -15.1056   -7.0197    6.3026 C   0  0  0  0  0  0  0  0  0  0  0  0
  -16.4014   -6.6913    6.7358 O   0  0  0  0  0  0  0  0  0  0  0  0
  -14.5835   -8.2007    7.0392 C   0  0  0  0  0  0  0  0  0  0  0  0
  -14.3432   -9.3116    6.5314 O   0  0  0  0  0  0  0  0  0  0  0  0
  -14.3529   -8.0015    8.4415 N   0  0  0  0  0  0  0  0  0  0  0  0
  -16.5009   -5.7150    6.5272 H   0  0  0  0  0  0  0  0  0  0  0  0
  -11.6957   -8.2993    8.9871 N   0  0  0  0  0  0  0  0  0  0  0  0
  -12.5898   -9.2087    9.6083 C   0  0  0  0  0  0  0  0  0  0  0  0
  -12.1744  -10.2401   10.1527 O   0  0  0  0  0  0  0  0  0  0  0  0
  -12.0367   -7.4130    8.5160 H   0  0  0  0  0  0  0  0  0  0  0  0
  -10.2574   -8.4983    8.9425 C   0  0  0  0  0  0  0  0  0  0  0  0
   -9.1939  -10.8170    5.5202 C   0  0  0  0  0  0  0  0  0  0  0  0
  -10.4991  -10.6240    5.8773 C   0  0  0  0  0  0  0  0  0  0  0  0
  -10.8891   -9.8748    6.9820 C   0  0  0  0  0  0  0  0  0  0  0  0
   -9.9161   -9.3018    7.7511 C   0  0  0  0  0  0  0  0  0  0  0  0
   -8.5976   -9.4784    7.4169 C   0  0  0  0  0  0  0  0  0  0  0  0
   -8.2098  -10.2265    6.3137 C   0  0  0  0  0  0  0  0  0  0  0  0
   -8.4338  -11.1310    3.2314 N   0  0  0  0  0  0  0  0  0  0  0  0
   -8.8059  -11.6054    4.3599 C   0  0  0  0  0  0  0  0  0  0  0  0
   -8.8270  -13.0415    4.4442 N   0  0  0  0  0  0  0  0  0  0  0  0
   -8.3933  -10.1098    3.0945 H   0  0  0  0  0  0  0  0  0  0  0  0
   -8.1953  -13.5453    5.1018 H   0  0  0  0  0  0  0  0  0  0  0  0
   -9.4881  -13.5675    3.8330 H   0  0  0  0  0  0  0  0  0  0  0  0
  -15.2169   -7.3051    4.8235 C   0  0  0  0  0  0  0  0  0  0  0  0
  -16.4709   -6.8410    4.2342 C   0  0  0  0  0  0  0  0  0  0  0  0
  -16.6147   -5.6113    3.6224 C   0  0  0  0  0  0  0  0  0  0  0  0
  -17.8222   -5.2050    3.0771 C   0  0  0  0  0  0  0  0  0  0  0  0
  -18.9226   -6.0316    3.1344 C   0  0  0  0  0  0  0  0  0  0  0  0
  -18.8015   -7.2504    3.7343 C   0  0  0  0  0  0  0  0  0  0  0  0
  -17.5847   -7.6519    4.2802 C   0  0  0  0  0  0  0  0  0  0  0  0
 24 25  2  0  0  0
 25 26  1  0  0  0
 25 18  1  0  0  0
 18 19  2  0  0  0
 19 20  1  0  0  0
 20 21  2  0  0  0
 21 17  1  0  0  0
 17 13  1  0  0  0
 13 14  1  0  0  0
 14 15  2  0  0  0
 14  1  1  0  0  0
  1  2  1  0  0  0
  2  3  1  0  0  0
  3  4  1  0  0  0
  4  5  1  0  0  0
  5  6  1  0  0  0
  6  7  1  0  0  0
  7  8  1  0  0  0
  7 30  1  0  0  0
 30 31  1  0  0  0
 31 32  2  0  0  0
 32 33  1  0  0  0
 33 34  2  0  0  0
 34 35  1  0  0  0
 35 36  2  0  0  0
  7  9  1  0  0  0
  9 10  2  0  0  0
  9 11  1  0  0  0
 21 22  1  0  0  0
 22 23  2  0  0  0
 23 18  1  0  0  0
 11  1  1  0  0  0
 11  4  1  0  0  0
 36 31  1  0  0  0
 24 27  1  0  0  0
 26 28  1  0  0  0
 26 29  1  0  0  0
 13 16  1  0  0  0
  8 12  1  0  0  0
M  END
> <minimizedAffinity>
8.50582

> <CNNscore>
0.4807888865

> <CNNaffinity>
6.5771341324

> <CNN_VS>
3.1622130871

> <CNNaffinity_variance>
0.6311917305

$$$$
[H]N=C(c1c([H])c([H])c(C([H])([H])N([H])C(=O)C2([H])N3C(=O)[C@](O[H])(C([H])([H])c4c([H])c([H])c([H])c([H])c4[H])C([H])([H])C([H])([H])[C@]3([H])C([H])([H])C2([H])[H])c([H])c1[H])N([H])[H]


 36 39  0  0  0  0  0  0  0  0999 V2000
   -8.6445   -6.5262    7.1399 C   0  0  0  0  0  0  0  0  0  0  0  0
   -7.2935   -6.0319    7.6119 C   0  0  0  0  0  0  0  0  0  0  0  0
   -6.8863   -7.1574    8.5506 C   0  0  0  0  0  0  0  0  0  0  0  0
   -7.2425   -8.3710    7.7228 C   0  0  0  0  0  0  0  0  0  0  0  0
   -7.5271   -9.5769    8.5781 C   0  0  0  0  0  0  0  0  0  0  0  0
   -8.0842  -10.7081    7.7784 C   0  0  0  0  0  0  0  0  0  0  0  0
   -8.4983  -10.3384    6.3816 C   0  0  0  0  0  0  0  0  0  0  0  0
   -7.3871  -10.2697    5.5244 O   0  0  0  0  0  0  0  0  0  0  0  0
   -9.2082   -9.0334    6.4351 C   0  0  0  0  0  0  0  0  0  0  0  0
  -10.3584   -8.8266    6.0061 O   0  0  0  0  0  0  0  0  0  0  0  0
   -8.4751   -7.9556    7.0353 N   0  0  0  0  0  0  0  0  0  0  0  0
   -6.7666  -10.9868    5.8523 H   0  0  0  0  0  0  0  0  0  0  0  0
  -10.5037   -7.1968    8.6549 N   0  0  0  0  0  0  0  0  0  0  0  0
   -9.6199   -6.1710    8.2320 C   0  0  0  0  0  0  0  0  0  0  0  0
   -9.6593   -5.0442    8.7434 O   0  0  0  0  0  0  0  0  0  0  0  0
  -10.4826   -8.1658    8.2255 H   0  0  0  0  0  0  0  0  0  0  0  0
  -11.4993   -7.0137    9.6968 C   0  0  0  0  0  0  0  0  0  0  0  0
  -15.3478   -7.7282    7.9944 C   0  0  0  0  0  0  0  0  0  0  0  0
  -15.1317   -7.8208    9.3409 C   0  0  0  0  0  0  0  0  0  0  0  0
  -13.8957   -7.5943    9.9366 C   0  0  0  0  0  0  0  0  0  0  0  0
  -12.8417   -7.2620    9.1332 C   0  0  0  0  0  0  0  0  0  0  0  0
  -13.0289   -7.1617    7.7781 C   0  0  0  0  0  0  0  0  0  0  0  0
  -14.2635   -7.3880    7.1849 C   0  0  0  0  0  0  0  0  0  0  0  0
  -17.7287   -8.2235    8.0289 N   0  0  0  0  0  0  0  0  0  0  0  0
  -16.6497   -7.9697    7.3899 C   0  0  0  0  0  0  0  0  0  0  0  0
  -16.7805   -7.9288    5.9577 N   0  0  0  0  0  0  0  0  0  0  0  0
  -17.7140   -8.2694    9.0589 H   0  0  0  0  0  0  0  0  0  0  0  0
  -16.6077   -7.0458    5.4326 H   0  0  0  0  0  0  0  0  0  0  0  0
  -17.0520   -8.8019    5.4564 H   0  0  0  0  0  0  0  0  0  0  0  0
   -9.3913  -11.4225    5.8257 C   0  0  0  0  0  0  0  0  0  0  0  0
   -8.9268  -11.9614    4.5495 C   0  0  0  0  0  0  0  0  0  0  0  0
   -8.7235  -11.1857    3.4251 C   0  0  0  0  0  0  0  0  0  0  0  0
   -8.2846  -11.7344    2.2305 C   0  0  0  0  0  0  0  0  0  0  0  0
   -8.0378  -13.0864    2.1371 C   0  0  0  0  0  0  0  0  0  0  0  0
   -8.2324  -13.8699    3.2363 C   0  0  0  0  0  0  0  0  0  0  0  0
   -8.6737  -13.3115    4.4334 C   0  0  0  0  0  0  0  0  0  0  0  0
 24 25  2  0  0  0
 25 26  1  0  0  0
 25 18  1  0  0  0
 18 19  2  0  0  0
 19 20  1  0  0  0
 20 21  2  0  0  0
 21 17  1  0  0  0
 17 13  1  0  0  0
 13 14  1  0  0  0
 14 15  2  0  0  0
 14  1  1  0  0  0
  1  2  1  0  0  0
  2  3  1  0  0  0
  3  4  1  0  0  0
  4  5  1  0  0  0
  5  6  1  0  0  0
  6  7  1  0  0  0
  7  8  1  0  0  0
  7 30  1  0  0  0
 30 31  1  0  0  0
 31 32  2  0  0  0
 32 33  1  0  0  0
 33 34  2  0  0  0
 34 35  1  0  0  0
 35 36  2  0  0  0
  7  9  1  0  0  0
  9 10  2  0  0  0
  9 11  1  0  0  0
 21 22  1  0  0  0
 22 23  2  0  0  0
 23 18  1  0  0  0
 11  1  1  0  0  0
 11  4  1  0  0  0
 36 31  1  0  0  0
 24 27  1  0  0  0
 26 28  1  0  0  0
 26 29  1  0  0  0
 13 16  1  0  0  0
  8 12  1  0  0  0
M  END
> <minimizedAffinity>
8.78426

> <CNNscore>
0.4744431973

> <CNNaffinity>
6.5215330124

> <CNN_VS>
3.0940968990

> <CNNaffinity_variance>
0.5369371176

$$$$
[H]N=C(c1c([H])c([H])c(C([H])([H])N([H])C(=O)C2([H])N3C(=O)[C@](O[H])(C([H])([H])c4c([H])c([H])c([H])c([H])c4[H])C([H])([H])C([H])([H])[C@]3([H])C([H])([H])C2([H])[H])c([H])c1[H])N([H])[H]


 36 39  0  0  0  0  0  0  0  0999 V2000
  -12.1187   -8.9421    7.5678 C   0  0  0  0  0  0  0  0  0  0  0  0
  -12.4286   -9.6157    8.8878 C   0  0  0  0  0  0  0  0  0  0  0  0
  -13.6850   -8.8670    9.3058 C   0  0  0  0  0  0  0  0  0  0  0  0
  -14.4650   -8.8605    8.0111 C   0  0  0  0  0  0  0  0  0  0  0  0
  -15.4296   -7.7068    7.9364 C   0  0  0  0  0  0  0  0  0  0  0  0
  -16.0393   -7.5775    6.5795 C   0  0  0  0  0  0  0  0  0  0  0  0
  -15.3837   -8.4180    5.5198 C   0  0  0  0  0  0  0  0  0  0  0  0
  -15.8133   -9.7538    5.5938 O   0  0  0  0  0  0  0  0  0  0  0  0
  -13.9104   -8.3242    5.6947 C   0  0  0  0  0  0  0  0  0  0  0  0
  -13.1074   -7.9603    4.8158 O   0  0  0  0  0  0  0  0  0  0  0  0
  -13.4179   -8.6908    6.9917 N   0  0  0  0  0  0  0  0  0  0  0  0
  -16.7731   -9.6981    5.8806 H   0  0  0  0  0  0  0  0  0  0  0  0
  -10.0443   -7.5643    7.5706 N   0  0  0  0  0  0  0  0  0  0  0  0
  -11.4175   -7.6544    7.9147 C   0  0  0  0  0  0  0  0  0  0  0  0
  -11.9982   -6.7140    8.4724 O   0  0  0  0  0  0  0  0  0  0  0  0
   -9.5334   -8.3617    7.0941 H   0  0  0  0  0  0  0  0  0  0  0  0
   -9.2299   -6.3910    7.8358 C   0  0  0  0  0  0  0  0  0  0  0  0
   -5.1848   -7.2203    6.7547 C   0  0  0  0  0  0  0  0  0  0  0  0
   -6.1143   -6.8520    5.8226 C   0  0  0  0  0  0  0  0  0  0  0  0
   -7.4407   -6.5711    6.1318 C   0  0  0  0  0  0  0  0  0  0  0  0
   -7.8354   -6.6687    7.4362 C   0  0  0  0  0  0  0  0  0  0  0  0
   -6.9243   -7.0361    8.3933 C   0  0  0  0  0  0  0  0  0  0  0  0
   -5.6004   -7.3161    8.0832 C   0  0  0  0  0  0  0  0  0  0  0  0
   -2.9911   -6.6986    5.8431 N   0  0  0  0  0  0  0  0  0  0  0  0
   -3.8006   -7.5108    6.4107 C   0  0  0  0  0  0  0  0  0  0  0  0
   -3.2552   -8.8065    6.7166 N   0  0  0  0  0  0  0  0  0  0  0  0
   -3.3099   -5.7504    5.5930 H   0  0  0  0  0  0  0  0  0  0  0  0
   -3.1641   -9.1259    7.7040 H   0  0  0  0  0  0  0  0  0  0  0  0
   -2.9529   -9.4192    5.9289 H   0  0  0  0  0  0  0  0  0  0  0  0
  -15.8041   -7.9163    4.1584 C   0  0  0  0  0  0  0  0  0  0  0  0
  -16.7352   -6.7917    4.2149 C   0  0  0  0  0  0  0  0  0  0  0  0
  -16.3378   -5.4845    4.4161 C   0  0  0  0  0  0  0  0  0  0  0  0
  -17.2518   -4.4440    4.4665 C   0  0  0  0  0  0  0  0  0  0  0  0
  -18.5978   -4.6949    4.3149 C   0  0  0  0  0  0  0  0  0  0  0  0
  -19.0110   -5.9792    4.1153 C   0  0  0  0  0  0  0  0  0  0  0  0
  -18.0865   -7.0197    4.0658 C   0  0  0  0  0  0  0  0  0  0  0  0
 24 25  2  0  0  0
 25 26  1  0  0  0
 25 18  1  0  0  0
 18 19  2  0  0  0
 19 20  1  0  0  0
 20 21  2  0  0  0
 21 17  1  0  0  0
 17 13  1  0  0  0
 13 14  1  0  0  0
 14 15  2  0  0  0
 14  1  1  0  0  0
  1  2  1  0  0  0
  2  3  1  0  0  0
  3  4  1  0  0  0
  4  5  1  0  0  0
  5  6  1  0  0  0
  6  7  1  0  0  0
  7  8  1  0  0  0
  7 30  1  0  0  0
 30 31  1  0  0  0
 31 32  2  0  0  0
 32 33  1  0  0  0
 33 34  2  0  0  0
 34 35  1  0  0  0
 35 36  2  0  0  0
  7  9  1  0  0  0
  9 10  2  0  0  0
  9 11  1  0  0  0
 21 22  1  0  0  0
 22 23  2  0  0  0
 23 18  1  0  0  0
 11  1  1  0  0  0
 11  4  1  0  0  0
 36 31  1  0  0  0
 24 27  1  0  0  0
 26 28  1  0  0  0
 26 29  1  0  0  0
 13 16  1  0  0  0
  8 12  1  0  0  0
M  END
> <minimizedAffinity>
-5.59837

> <CNNscore>
0.4742596745

> <CNNaffinity>
6.4825377464

> <CNN_VS>
3.0744061470

> <CNNaffinity_variance>
0.1546195745

$$$$
[H]N=C(c1c([H])c([H])c(C([H])([H])N([H])C(=O)C2([H])N3C(=O)[C@](O[H])(C([H])([H])c4c([H])c([H])c([H])c([H])c4[H])C([H])([H])C([H])([H])[C@]3([H])C([H])([H])C2([H])[H])c([H])c1[H])N([H])[H]


 36 39  0  0  0  0  0  0  0  0999 V2000
  -12.9377   -9.7455    6.3773 C   0  0  0  0  0  0  0  0  0  0  0  0
  -13.0769  -11.0936    7.0520 C   0  0  0  0  0  0  0  0  0  0  0  0
  -13.8065  -10.7035    8.3284 C   0  0  0  0  0  0  0  0  0  0  0  0
  -14.8677   -9.7741    7.7854 C   0  0  0  0  0  0  0  0  0  0  0  0
  -15.3339   -8.7818    8.8172 C   0  0  0  0  0  0  0  0  0  0  0  0
  -16.2176   -7.7346    8.2236 C   0  0  0  0  0  0  0  0  0  0  0  0
  -16.2382   -7.7163    6.7208 C   0  0  0  0  0  0  0  0  0  0  0  0
  -17.0768   -8.7227    6.2126 O   0  0  0  0  0  0  0  0  0  0  0  0
  -14.8449   -7.8902    6.2325 C   0  0  0  0  0  0  0  0  0  0  0  0
  -14.2521   -7.1074    5.4674 O   0  0  0  0  0  0  0  0  0  0  0  0
  -14.1675   -9.0642    6.7037 N   0  0  0  0  0  0  0  0  0  0  0  0
  -17.8282   -8.7877    6.8742 H   0  0  0  0  0  0  0  0  0  0  0  0
  -11.8393   -8.8526    8.4262 N   0  0  0  0  0  0  0  0  0  0  0  0
  -11.7546   -9.0770    7.0280 C   0  0  0  0  0  0  0  0  0  0  0  0
  -10.7522   -8.7350    6.3869 O   0  0  0  0  0  0  0  0  0  0  0  0
  -12.6915   -9.1386    8.9881 H   0  0  0  0  0  0  0  0  0  0  0  0
  -10.7835   -8.2218    9.1992 C   0  0  0  0  0  0  0  0  0  0  0  0
  -11.9407   -4.2467   10.2378 C   0  0  0  0  0  0  0  0  0  0  0  0
  -12.7458   -5.3192   10.5018 C   0  0  0  0  0  0  0  0  0  0  0  0
  -12.4069   -6.6296   10.1825 C   0  0  0  0  0  0  0  0  0  0  0  0
  -11.2056   -6.8566    9.5724 C   0  0  0  0  0  0  0  0  0  0  0  0
  -10.3769   -5.7994    9.2952 C   0  0  0  0  0  0  0  0  0  0  0  0
  -10.7166   -4.4918    9.6146 C   0  0  0  0  0  0  0  0  0  0  0  0
  -11.8143   -2.1935   11.5353 N   0  0  0  0  0  0  0  0  0  0  0  0
  -12.3139   -2.8820   10.5796 C   0  0  0  0  0  0  0  0  0  0  0  0
  -13.3243   -2.2123    9.8045 N   0  0  0  0  0  0  0  0  0  0  0  0
  -11.0843   -2.6062   12.1353 H   0  0  0  0  0  0  0  0  0  0  0  0
  -13.1709   -2.0059    8.7950 H   0  0  0  0  0  0  0  0  0  0  0  0
  -14.2135   -1.9377   10.2749 H   0  0  0  0  0  0  0  0  0  0  0  0
  -16.8217   -6.4054    6.2488 C   0  0  0  0  0  0  0  0  0  0  0  0
  -17.1969   -6.4104    4.8367 C   0  0  0  0  0  0  0  0  0  0  0  0
  -16.8980   -5.3806    3.9665 C   0  0  0  0  0  0  0  0  0  0  0  0
  -17.2737   -5.4204    2.6331 C   0  0  0  0  0  0  0  0  0  0  0  0
  -17.9646   -6.5050    2.1390 C   0  0  0  0  0  0  0  0  0  0  0  0
  -18.2696   -7.5326    2.9822 C   0  0  0  0  0  0  0  0  0  0  0  0
  -17.8887   -7.4855    4.3209 C   0  0  0  0  0  0  0  0  0  0  0  0
 24 25  2  0  0  0
 25 26  1  0  0  0
 25 18  1  0  0  0
 18 19  2  0  0  0
 19 20  1  0  0  0
 20 21  2  0  0  0
 21 17  1  0  0  0
 17 13  1  0  0  0
 13 14  1  0  0  0
 14 15  2  0  0  0
 14  1  1  0  0  0
  1  2  1  0  0  0
  2  3  1  0  0  0
  3  4  1  0  0  0
  4  5  1  0  0  0
  5  6  1  0  0  0
  6  7  1  0  0  0
  7  8  1  0  0  0
  7 30  1  0  0  0
 30 31  1  0  0  0
 31 32  2  0  0  0
 32 33  1  0  0  0
 33 34  2  0  0  0
 34 35  1  0  0  0
 35 36  2  0  0  0
  7  9  1  0  0  0
  9 10  2  0  0  0
  9 11  1  0  0  0
 21 22  1  0  0  0
 22 23  2  0  0  0
 23 18  1  0  0  0
 11  1  1  0  0  0
 11  4  1  0  0  0
 36 31  1  0  0  0
 24 27  1  0  0  0
 26 28  1  0  0  0
 26 29  1  0  0  0
 13 16  1  0  0  0
  8 12  1  0  0  0
M  END
> <minimizedAffinity>
6.62890

> <CNNscore>
0.4595471025

> <CNNaffinity>
6.6534981728

> <CNN_VS>
3.0575957298

> <CNNaffinity_variance>
0.6608006954

$$$$
[H]N=C(c1c([H])c([H])c(C([H])([H])N([H])C(=O)C2([H])N3C(=O)[C@](O[H])(C([H])([H])c4c([H])c([H])c([H])c([H])c4[H])C([H])([H])C([H])([H])[C@]3([H])C([H])([H])C2([H])[H])c([H])c1[H])N([H])[H]


 36 39  0  0  0  0  0  0  0  0999 V2000
  -13.2344  -10.1334    6.8076 C   0  0  0  0  0  0  0  0  0  0  0  0
  -13.6264  -10.7060    8.1532 C   0  0  0  0  0  0  0  0  0  0  0  0
  -14.3750   -9.5293    8.7604 C   0  0  0  0  0  0  0  0  0  0  0  0
  -15.2398   -9.1018    7.5966 C   0  0  0  0  0  0  0  0  0  0  0  0
  -15.6189   -7.6470    7.6766 C   0  0  0  0  0  0  0  0  0  0  0  0
  -16.2870   -7.1760    6.4270 C   0  0  0  0  0  0  0  0  0  0  0  0
  -16.1991   -8.1364    5.2742 C   0  0  0  0  0  0  0  0  0  0  0  0
  -17.1449   -9.1680    5.3999 O   0  0  0  0  0  0  0  0  0  0  0  0
  -14.8184   -8.6854    5.2281 C   0  0  0  0  0  0  0  0  0  0  0  0
  -14.0599   -8.6323    4.2424 O   0  0  0  0  0  0  0  0  0  0  0  0
  -14.3645   -9.3172    6.4339 N   0  0  0  0  0  0  0  0  0  0  0  0
  -17.9418   -8.7334    5.8272 H   0  0  0  0  0  0  0  0  0  0  0  0
  -12.1908   -7.8831    7.0282 N   0  0  0  0  0  0  0  0  0  0  0  0
  -12.0111   -9.2899    7.0570 C   0  0  0  0  0  0  0  0  0  0  0  0
  -10.8985   -9.7863    7.2772 O   0  0  0  0  0  0  0  0  0  0  0  0
  -13.1369   -7.4436    6.8396 H   0  0  0  0  0  0  0  0  0  0  0  0
  -11.1125   -6.9356    7.2510 C   0  0  0  0  0  0  0  0  0  0  0  0
  -11.1080   -5.8625   11.3823 C   0  0  0  0  0  0  0  0  0  0  0  0
   -9.9459   -6.0956   10.7015 C   0  0  0  0  0  0  0  0  0  0  0  0
   -9.9022   -6.4450    9.3562 C   0  0  0  0  0  0  0  0  0  0  0  0
  -11.0834   -6.5618    8.6795 C   0  0  0  0  0  0  0  0  0  0  0  0
  -12.2654   -6.3336    9.3369 C   0  0  0  0  0  0  0  0  0  0  0  0
  -12.3074   -5.9848   10.6800 C   0  0  0  0  0  0  0  0  0  0  0  0
  -10.1882   -5.7080   13.6285 N   0  0  0  0  0  0  0  0  0  0  0  0
  -11.1327   -5.4981   12.7913 C   0  0  0  0  0  0  0  0  0  0  0  0
  -12.2959   -4.8451   13.3303 N   0  0  0  0  0  0  0  0  0  0  0  0
   -9.3219   -6.1720   13.3160 H   0  0  0  0  0  0  0  0  0  0  0  0
  -12.5789   -3.9002   12.9953 H   0  0  0  0  0  0  0  0  0  0  0  0
  -12.8497   -5.3379   14.0637 H   0  0  0  0  0  0  0  0  0  0  0  0
  -16.5393   -7.4083    3.9951 C   0  0  0  0  0  0  0  0  0  0  0  0
  -16.0714   -6.0243    3.9714 C   0  0  0  0  0  0  0  0  0  0  0  0
  -14.7773   -5.6534    4.2799 C   0  0  0  0  0  0  0  0  0  0  0  0
  -14.3716   -4.3286    4.2490 C   0  0  0  0  0  0  0  0  0  0  0  0
  -15.2641   -3.3374    3.9048 C   0  0  0  0  0  0  0  0  0  0  0  0
  -16.5469   -3.6828    3.5967 C   0  0  0  0  0  0  0  0  0  0  0  0
  -16.9475   -5.0162    3.6299 C   0  0  0  0  0  0  0  0  0  0  0  0
 24 25  2  0  0  0
 25 26  1  0  0  0
 25 18  1  0  0  0
 18 19  2  0  0  0
 19 20  1  0  0  0
 20 21  2  0  0  0
 21 17  1  0  0  0
 17 13  1  0  0  0
 13 14  1  0  0  0
 14 15  2  0  0  0
 14  1  1  0  0  0
  1  2  1  0  0  0
  2  3  1  0  0  0
  3  4  1  0  0  0
  4  5  1  0  0  0
  5  6  1  0  0  0
  6  7  1  0  0  0
  7  8  1  0  0  0
  7 30  1  0  0  0
 30 31  1  0  0  0
 31 32  2  0  0  0
 32 33  1  0  0  0
 33 34  2  0  0  0
 34 35  1  0  0  0
 35 36  2  0  0  0
  7  9  1  0  0  0
  9 10  2  0  0  0
  9 11  1  0  0  0
 21 22  1  0  0  0
 22 23  2  0  0  0
 23 18  1  0  0  0
 11  1  1  0  0  0
 11  4  1  0  0  0
 36 31  1  0  0  0
 24 27  1  0  0  0
 26 28  1  0  0  0
 26 29  1  0  0  0
 13 16  1  0  0  0
  8 12  1  0  0  0
M  END
> <minimizedAffinity>
-0.37758

> <CNNscore>
0.4488415718

> <CNNaffinity>
6.6382551193

> <CNN_VS>
2.9795248508

> <CNNaffinity_variance>
0.2273762226

$$$$
[H]N=C(c1c([H])c([H])c(C([H])([H])N([H])C(=O)C2([H])N3C(=O)[C@](O[H])(C([H])([H])c4c([H])c([H])c([H])c([H])c4[H])C([H])([H])C([H])([H])[C@]3([H])C([H])([H])C2([H])[H])c([H])c1[H])N([H])[H]


 36 39  0  0  0  0  0  0  0  0999 V2000
  -13.9672   -9.7592    6.4972 C   0  0  0  0  0  0  0  0  0  0  0  0
  -12.8740  -10.6762    5.9911 C   0  0  0  0  0  0  0  0  0  0  0  0
  -11.6348   -9.8606    6.3269 C   0  0  0  0  0  0  0  0  0  0  0  0
  -11.9532   -9.4124    7.7349 C   0  0  0  0  0  0  0  0  0  0  0  0
  -11.2421   -8.1359    8.0979 C   0  0  0  0  0  0  0  0  0  0  0  0
  -11.7205   -7.5826    9.3997 C   0  0  0  0  0  0  0  0  0  0  0  0
  -12.9668   -8.2326    9.9320 C   0  0  0  0  0  0  0  0  0  0  0  0
  -12.6741   -9.4590   10.5522 O   0  0  0  0  0  0  0  0  0  0  0  0
  -13.9135   -8.4225    8.8017 C   0  0  0  0  0  0  0  0  0  0  0  0
  -15.0798   -7.9887    8.7649 O   0  0  0  0  0  0  0  0  0  0  0  0
  -13.4034   -9.1693    7.6876 N   0  0  0  0  0  0  0  0  0  0  0  0
  -11.7769   -9.3216   10.9796 H   0  0  0  0  0  0  0  0  0  0  0  0
  -14.8225   -9.1589    4.2368 N   0  0  0  0  0  0  0  0  0  0  0  0
  -14.1718   -8.7254    5.4204 C   0  0  0  0  0  0  0  0  0  0  0  0
  -13.7959   -7.5529    5.5486 O   0  0  0  0  0  0  0  0  0  0  0  0
  -15.1487  -10.1598    4.1121 H   0  0  0  0  0  0  0  0  0  0  0  0
  -15.0952   -8.2844    3.1094 C   0  0  0  0  0  0  0  0  0  0  0  0
  -17.9651   -5.3616    4.3095 C   0  0  0  0  0  0  0  0  0  0  0  0
  -16.6548   -5.0346    4.0989 C   0  0  0  0  0  0  0  0  0  0  0  0
  -15.6886   -5.9542    3.7058 C   0  0  0  0  0  0  0  0  0  0  0  0
  -16.0694   -7.2532    3.5205 C   0  0  0  0  0  0  0  0  0  0  0  0
  -17.3778   -7.6106    3.7244 C   0  0  0  0  0  0  0  0  0  0  0  0
  -18.3413   -6.6913    4.1168 C   0  0  0  0  0  0  0  0  0  0  0  0
  -20.0871   -4.1843    4.1465 N   0  0  0  0  0  0  0  0  0  0  0  0
  -18.9617   -4.3840    4.7215 C   0  0  0  0  0  0  0  0  0  0  0  0
  -18.7018   -3.5517    5.8660 N   0  0  0  0  0  0  0  0  0  0  0  0
  -20.3445   -4.7430    3.3189 H   0  0  0  0  0  0  0  0  0  0  0  0
  -18.5977   -3.9690    6.8148 H   0  0  0  0  0  0  0  0  0  0  0  0
  -18.6198   -2.5217    5.7255 H   0  0  0  0  0  0  0  0  0  0  0  0
  -13.5662   -7.3525   11.0034 C   0  0  0  0  0  0  0  0  0  0  0  0
  -13.0705   -5.9784   10.9722 C   0  0  0  0  0  0  0  0  0  0  0  0
  -13.4949   -5.0372   10.0550 C   0  0  0  0  0  0  0  0  0  0  0  0
  -12.9987   -3.7433   10.0554 C   0  0  0  0  0  0  0  0  0  0  0  0
  -12.0565   -3.3617   10.9849 C   0  0  0  0  0  0  0  0  0  0  0  0
  -11.6241   -4.2763   11.8995 C   0  0  0  0  0  0  0  0  0  0  0  0
  -12.1273   -5.5749   11.8930 C   0  0  0  0  0  0  0  0  0  0  0  0
 24 25  2  0  0  0
 25 26  1  0  0  0
 25 18  1  0  0  0
 18 19  2  0  0  0
 19 20  1  0  0  0
 20 21  2  0  0  0
 21 17  1  0  0  0
 17 13  1  0  0  0
 13 14  1  0  0  0
 14 15  2  0  0  0
 14  1  1  0  0  0
  1  2  1  0  0  0
  2  3  1  0  0  0
  3  4  1  0  0  0
  4  5  1  0  0  0
  5  6  1  0  0  0
  6  7  1  0  0  0
  7  8  1  0  0  0
  7 30  1  0  0  0
 30 31  1  0  0  0
 31 32  2  0  0  0
 32 33  1  0  0  0
 33 34  2  0  0  0
 34 35  1  0  0  0
 35 36  2  0  0  0
  7  9  1  0  0  0
  9 10  2  0  0  0
  9 11  1  0  0  0
 21 22  1  0  0  0
 22 23  2  0  0  0
 23 18  1  0  0  0
 11  1  1  0  0  0
 11  4  1  0  0  0
 36 31  1  0  0  0
 24 27  1  0  0  0
 26 28  1  0  0  0
 26 29  1  0  0  0
 13 16  1  0  0  0
  8 12  1  0  0  0
M  END
> <minimizedAffinity>
2.36222

> <CNNscore>
0.4192411900

> <CNNaffinity>
6.7227287292

> <CNN_VS>
2.8184447289

> <CNNaffinity_variance>
0.6102709770

$$$$
[H]c1c(OC([H])([H])[H])c(C([H])([H])N(C([H])([H])[H])C([H])([H])[H])c([H])c(OC([H])([H])[H])c1-c1c([H])n(C([H])([H])[H])c(=O)c2c([H])c([H])c([H])c([H])c12


 26 28  0  0  0  0  0  0  0  0999 V2000
  -14.1390   -7.2880    5.9335 C   0  0  0  0  0  0  0  0  0  0  0  0
  -12.7588   -7.6031    5.9700 C   0  0  0  0  0  0  0  0  0  0  0  0
  -12.0292   -7.7691    7.2382 C   0  0  0  0  0  0  0  0  0  0  0  0
  -12.6923   -7.5955    8.3556 C   0  0  0  0  0  0  0  0  0  0  0  0
  -14.0602   -7.2210    8.3763 C   0  0  0  0  0  0  0  0  0  0  0  0
  -14.6753   -7.0939    7.2322 C   0  0  0  0  0  0  0  0  0  0  0  0
  -10.7667   -8.4649    6.9816 C   0  0  0  0  0  0  0  0  0  0  0  0
  -10.8141   -9.8808    6.6809 C   0  0  0  0  0  0  0  0  0  0  0  0
   -9.7452  -10.7146    6.9296 N   0  0  0  0  0  0  0  0  0  0  0  0
   -9.7196  -12.1043    6.7237 C   0  0  0  0  0  0  0  0  0  0  0  0
   -8.7745  -10.0160    7.4462 C   0  0  0  0  0  0  0  0  0  0  0  0
   -7.7123  -10.9433    7.6717 O   0  0  0  0  0  0  0  0  0  0  0  0
   -8.4459   -8.8636    7.8135 C   0  0  0  0  0  0  0  0  0  0  0  0
   -7.2324   -8.4315    8.3835 C   0  0  0  0  0  0  0  0  0  0  0  0
   -7.3419   -6.9468    8.6166 C   0  0  0  0  0  0  0  0  0  0  0  0
   -8.2486   -6.2503    8.3875 C   0  0  0  0  0  0  0  0  0  0  0  0
   -9.5153   -6.6520    7.8139 C   0  0  0  0  0  0  0  0  0  0  0  0
   -9.5804   -7.9327    7.5477 C   0  0  0  0  0  0  0  0  0  0  0  0
  -15.7194   -7.1743    3.9256 C   0  0  0  0  0  0  0  0  0  0  0  0
  -14.9593   -7.1897    4.9412 O   0  0  0  0  0  0  0  0  0  0  0  0
  -12.1026   -7.7991    9.6317 O   0  0  0  0  0  0  0  0  0  0  0  0
  -12.1686   -6.5795   10.3774 C   0  0  0  0  0  0  0  0  0  0  0  0
  -16.1446   -6.8172    7.1521 C   0  0  0  0  0  0  0  0  0  0  0  0
  -17.1310   -7.7556    7.2234 N   0  0  0  0  0  0  0  0  0  0  0  0
  -16.9275   -8.6132    8.3715 C   0  0  0  0  0  0  0  0  0  0  0  0
  -18.0745   -8.1992    6.3593 C   0  0  0  0  0  0  0  0  0  0  0  0
 19 20  1  0  0  0
 20  1  1  0  0  0
  1  2  2  0  0  0
  2  3  1  0  0  0
  3  7  1  0  0  0
  7  8  2  0  0  0
  8  9  1  0  0  0
  9 10  1  0  0  0
  9 11  1  0  0  0
 11 12  2  0  0  0
 11 13  1  0  0  0
 13 14  2  0  0  0
 14 15  1  0  0  0
 15 16  2  0  0  0
 16 17  1  0  0  0
 17 18  2  0  0  0
  3  4  2  0  0  0
  4 21  1  0  0  0
 21 22  1  0  0  0
  4  5  1  0  0  0
  5  6  2  0  0  0
  6 23  1  0  0  0
 23 24  1  0  0  0
 24 25  1  0  0  0
 24 26  1  0  0  0
  6  1  1  0  0  0
 18  7  1  0  0  0
 18 13  1  0  0  0
M  END
> <minimizedAffinity>
-0.53573

> <CNNscore>
0.4099183977

> <CNNaffinity>
6.5139670372

> <CNN_VS>
2.6701948643

> <CNNaffinity_variance>
0.7513806820

$$$$
[H]c1c(OC([H])([H])[H])c(C([H])([H])N(C([H])([H])[H])C([H])([H])[H])c([H])c(OC([H])([H])[H])c1-c1c([H])n(C([H])([H])[H])c(=O)c2c([H])c([H])c([H])c([H])c12


 26 28  0  0  0  0  0  0  0  0999 V2000
  -15.1324   -5.7469    4.8277 C   0  0  0  0  0  0  0  0  0  0  0  0
  -14.3754   -6.1190    5.9653 C   0  0  0  0  0  0  0  0  0  0  0  0
  -14.9011   -7.0418    6.9851 C   0  0  0  0  0  0  0  0  0  0  0  0
  -16.1169   -7.5053    6.8259 C   0  0  0  0  0  0  0  0  0  0  0  0
  -16.9401   -7.1191    5.7372 C   0  0  0  0  0  0  0  0  0  0  0  0
  -16.4349   -6.3079    4.8482 C   0  0  0  0  0  0  0  0  0  0  0  0
  -13.7927   -7.5438    7.7997 C   0  0  0  0  0  0  0  0  0  0  0  0
  -13.5083   -8.9635    7.7682 C   0  0  0  0  0  0  0  0  0  0  0  0
  -12.8867   -9.6054    8.8176 N   0  0  0  0  0  0  0  0  0  0  0  0
  -12.6216  -10.9828    8.8995 C   0  0  0  0  0  0  0  0  0  0  0  0
  -12.6355   -8.7372    9.7559 C   0  0  0  0  0  0  0  0  0  0  0  0
  -11.9953   -9.4736   10.7984 O   0  0  0  0  0  0  0  0  0  0  0  0
  -12.7541   -7.5299   10.0708 C   0  0  0  0  0  0  0  0  0  0  0  0
  -12.3538   -6.8838   11.2568 C   0  0  0  0  0  0  0  0  0  0  0  0
  -12.7034   -5.4243   11.1205 C   0  0  0  0  0  0  0  0  0  0  0  0
  -13.2169   -4.8914   10.2193 C   0  0  0  0  0  0  0  0  0  0  0  0
  -13.6535   -5.5161    8.9889 C   0  0  0  0  0  0  0  0  0  0  0  0
  -13.4157   -6.8034    8.9489 C   0  0  0  0  0  0  0  0  0  0  0  0
  -14.5601   -4.4004    2.7296 C   0  0  0  0  0  0  0  0  0  0  0  0
  -14.8191   -5.0331    3.7983 O   0  0  0  0  0  0  0  0  0  0  0  0
  -16.6938   -8.4535    7.7124 O   0  0  0  0  0  0  0  0  0  0  0  0
  -18.1115   -8.2615    7.7447 C   0  0  0  0  0  0  0  0  0  0  0  0
  -17.1813   -5.9354    3.6049 C   0  0  0  0  0  0  0  0  0  0  0  0
  -18.0196   -4.8681    3.4756 N   0  0  0  0  0  0  0  0  0  0  0  0
  -19.3185   -5.1780    4.0342 C   0  0  0  0  0  0  0  0  0  0  0  0
  -17.9853   -3.7245    2.7512 C   0  0  0  0  0  0  0  0  0  0  0  0
 19 20  1  0  0  0
 20  1  1  0  0  0
  1  2  2  0  0  0
  2  3  1  0  0  0
  3  7  1  0  0  0
  7  8  2  0  0  0
  8  9  1  0  0  0
  9 10  1  0  0  0
  9 11  1  0  0  0
 11 12  2  0  0  0
 11 13  1  0  0  0
 13 14  2  0  0  0
 14 15  1  0  0  0
 15 16  2  0  0  0
 16 17  1  0  0  0
 17 18  2  0  0  0
  3  4  2  0  0  0
  4 21  1  0  0  0
 21 22  1  0  0  0
  4  5  1  0  0  0
  5  6  2  0  0  0
  6 23  1  0  0  0
 23 24  1  0  0  0
 24 25  1  0  0  0
 24 26  1  0  0  0
  6  1  1  0  0  0
 18  7  1  0  0  0
 18 13  1  0  0  0
M  END
> <minimizedAffinity>
7.01356

> <CNNscore>
0.3534522355

> <CNNaffinity>
6.4732270241

> <CNN_VS>
2.2879765034

> <CNNaffinity_variance>
1.5272686481

$$$$
[H]c1c(OC([H])([H])[H])c(C([H])([H])N(C([H])([H])[H])C([H])([H])[H])c([H])c(OC([H])([H])[H])c1-c1c([H])n(C([H])([H])[H])c(=O)c2c([H])c([H])c([H])c([H])c12


 26 28  0  0  0  0  0  0  0  0999 V2000
  -12.7351   -7.4322    6.6871 C   0  0  0  0  0  0  0  0  0  0  0  0
  -11.3407   -7.1875    6.6467 C   0  0  0  0  0  0  0  0  0  0  0  0
  -10.6078   -6.6541    7.8070 C   0  0  0  0  0  0  0  0  0  0  0  0
  -11.2898   -6.3855    8.8938 C   0  0  0  0  0  0  0  0  0  0  0  0
  -12.6960   -6.5552    8.9691 C   0  0  0  0  0  0  0  0  0  0  0  0
  -13.3087   -7.0404    7.9238 C   0  0  0  0  0  0  0  0  0  0  0  0
   -9.1734   -6.8794    7.6175 C   0  0  0  0  0  0  0  0  0  0  0  0
   -8.4244   -5.9102    6.8449 C   0  0  0  0  0  0  0  0  0  0  0  0
   -7.2640   -6.2471    6.1819 N   0  0  0  0  0  0  0  0  0  0  0  0
   -6.5040   -5.3920    5.3661 C   0  0  0  0  0  0  0  0  0  0  0  0
   -7.0126   -7.5094    6.3831 C   0  0  0  0  0  0  0  0  0  0  0  0
   -5.8043   -7.7781    5.6710 O   0  0  0  0  0  0  0  0  0  0  0  0
   -7.4357   -8.5441    6.9498 C   0  0  0  0  0  0  0  0  0  0  0  0
   -6.8826   -9.8396    6.9491 C   0  0  0  0  0  0  0  0  0  0  0  0
   -7.7651  -10.7119    7.8042 C   0  0  0  0  0  0  0  0  0  0  0  0
   -8.7376  -10.4096    8.3720 C   0  0  0  0  0  0  0  0  0  0  0  0
   -9.3463   -9.0966    8.3918 C   0  0  0  0  0  0  0  0  0  0  0  0
   -8.6886   -8.2102    7.6868 C   0  0  0  0  0  0  0  0  0  0  0  0
  -14.2876   -8.5851    5.0130 C   0  0  0  0  0  0  0  0  0  0  0  0
  -13.5263   -7.9687    5.8192 O   0  0  0  0  0  0  0  0  0  0  0  0
  -10.6712   -5.9336   10.0900 O   0  0  0  0  0  0  0  0  0  0  0  0
  -11.6699   -5.7776   11.1029 C   0  0  0  0  0  0  0  0  0  0  0  0
  -14.7701   -7.3653    7.9453 C   0  0  0  0  0  0  0  0  0  0  0  0
  -15.3250   -8.4759    8.5087 N   0  0  0  0  0  0  0  0  0  0  0  0
  -14.3881   -9.5787    8.4751 C   0  0  0  0  0  0  0  0  0  0  0  0
  -16.5866   -8.8295    8.8507 C   0  0  0  0  0  0  0  0  0  0  0  0
 19 20  1  0  0  0
 20  1  1  0  0  0
  1  2  2  0  0  0
  2  3  1  0  0  0
  3  7  1  0  0  0
  7  8  2  0  0  0
  8  9  1  0  0  0
  9 10  1  0  0  0
  9 11  1  0  0  0
 11 12  2  0  0  0
 11 13  1  0  0  0
 13 14  2  0  0  0
 14 15  1  0  0  0
 15 16  2  0  0  0
 16 17  1  0  0  0
 17 18  2  0  0  0
  3  4  2  0  0  0
  4 21  1  0  0  0
 21 22  1  0  0  0
  4  5  1  0  0  0
  5  6  2  0  0  0
  6 23  1  0  0  0
 23 24  1  0  0  0
 24 25  1  0  0  0
 24 26  1  0  0  0
  6  1  1  0  0  0
 18  7  1  0  0  0
 18 13  1  0  0  0
M  END
> <minimizedAffinity>
1.00115

> <CNNscore>
0.3144955337

> <CNNaffinity>
6.0533351898

> <CNN_VS>
1.9037468433

> <CNNaffinity_variance>
0.4317725301

$$$$
[H]c1c(OC([H])([H])[H])c(C([H])([H])N(C([H])([H])[H])C([H])([H])[H])c([H])c(OC([H])([H])[H])c1-c1c([H])n(C([H])([H])[H])c(=O)c2c([H])c([H])c([H])c([H])c12


 26 28  0  0  0  0  0  0  0  0999 V2000
  -14.4060   -7.9024    5.6753 C   0  0  0  0  0  0  0  0  0  0  0  0
  -13.1096   -7.7367    6.2209 C   0  0  0  0  0  0  0  0  0  0  0  0
  -12.8929   -7.4810    7.6547 C   0  0  0  0  0  0  0  0  0  0  0  0
  -13.9471   -7.3876    8.4282 C   0  0  0  0  0  0  0  0  0  0  0  0
  -15.2695   -7.4860    7.9245 C   0  0  0  0  0  0  0  0  0  0  0  0
  -15.4207   -7.7236    6.6501 C   0  0  0  0  0  0  0  0  0  0  0  0
  -11.4923   -7.7491    7.9869 C   0  0  0  0  0  0  0  0  0  0  0  0
  -10.6359   -6.6245    8.3016 C   0  0  0  0  0  0  0  0  0  0  0  0
   -9.2705   -6.6754    8.1207 N   0  0  0  0  0  0  0  0  0  0  0  0
   -8.3704   -5.6199    8.3443 C   0  0  0  0  0  0  0  0  0  0  0  0
   -8.9494   -7.8463    7.6485 C   0  0  0  0  0  0  0  0  0  0  0  0
   -7.5303   -7.8206    7.4914 O   0  0  0  0  0  0  0  0  0  0  0  0
   -9.4182   -8.9506    7.2855 C   0  0  0  0  0  0  0  0  0  0  0  0
   -8.7377  -10.0738    6.7763 C   0  0  0  0  0  0  0  0  0  0  0  0
   -9.7617  -11.1491    6.5199 C   0  0  0  0  0  0  0  0  0  0  0  0
  -10.9139  -11.0972    6.6916 C   0  0  0  0  0  0  0  0  0  0  0  0
  -11.6549   -9.9631    7.2012 C   0  0  0  0  0  0  0  0  0  0  0  0
  -10.8970   -8.9318    7.4789 C   0  0  0  0  0  0  0  0  0  0  0  0
  -15.0788   -8.5721    3.3002 C   0  0  0  0  0  0  0  0  0  0  0  0
  -14.7893   -8.2141    4.4823 O   0  0  0  0  0  0  0  0  0  0  0  0
  -13.8480   -7.2121    9.8343 O   0  0  0  0  0  0  0  0  0  0  0  0
  -13.5036   -5.8514   10.1127 C   0  0  0  0  0  0  0  0  0  0  0  0
  -16.7699   -7.9605    6.0457 C   0  0  0  0  0  0  0  0  0  0  0  0
  -17.4894   -7.0465    5.3347 N   0  0  0  0  0  0  0  0  0  0  0  0
  -18.3819   -7.7160    4.4126 C   0  0  0  0  0  0  0  0  0  0  0  0
  -17.3802   -5.7121    5.1317 C   0  0  0  0  0  0  0  0  0  0  0  0
 19 20  1  0  0  0
 20  1  1  0  0  0
  1  2  2  0  0  0
  2  3  1  0  0  0
  3  7  1  0  0  0
  7  8  2  0  0  0
  8  9  1  0  0  0
  9 10  1  0  0  0
  9 11  1  0  0  0
 11 12  2  0  0  0
 11 13  1  0  0  0
 13 14  2  0  0  0
 14 15  1  0  0  0
 15 16  2  0  0  0
 16 17  1  0  0  0
 17 18  2  0  0  0
  3  4  2  0  0  0
  4 21  1  0  0  0
 21 22  1  0  0  0
  4  5  1  0  0  0
  5  6  2  0  0  0
  6 23  1  0  0  0
 23 24  1  0  0  0
 24 25  1  0  0  0
 24 26  1  0  0  0
  6  1  1  0  0  0
 18  7  1  0  0  0
 18 13  1  0  0  0
M  END
> <minimizedAffinity>
-4.33416

> <CNNscore>
0.2989353538

> <CNNaffinity>
6.5216283798

> <CNN_VS>
1.9495452642

> <CNNaffinity_variance>
0.0917569250

$$$$
[H]c1c(OC([H])([H])[H])c(C([H])([H])N(C([H])([H])[H])C([H])([H])[H])c([H])c(OC([H])([H])[H])c1-c1c([H])n(C([H])([H])[H])c(=O)c2c([H])c([H])c([H])c([H])c12


 26 28  0  0  0  0  0  0  0  0999 V2000
  -13.0703   -7.6696    6.5478 C   0  0  0  0  0  0  0  0  0  0  0  0
  -11.6821   -7.8753    6.3578 C   0  0  0  0  0  0  0  0  0  0  0  0
  -10.6932   -7.5325    7.3934 C   0  0  0  0  0  0  0  0  0  0  0  0
  -11.1312   -7.0031    8.5098 C   0  0  0  0  0  0  0  0  0  0  0  0
  -12.5039   -6.7207    8.7288 C   0  0  0  0  0  0  0  0  0  0  0  0
  -13.3511   -7.0488    7.7918 C   0  0  0  0  0  0  0  0  0  0  0  0
   -9.4273   -8.2047    7.0940 C   0  0  0  0  0  0  0  0  0  0  0  0
   -9.0878   -9.3928    7.8493 C   0  0  0  0  0  0  0  0  0  0  0  0
   -7.7809   -9.7900    8.0340 N   0  0  0  0  0  0  0  0  0  0  0  0
   -7.3549  -10.8915    8.7951 C   0  0  0  0  0  0  0  0  0  0  0  0
   -6.9924   -8.9420    7.4371 C   0  0  0  0  0  0  0  0  0  0  0  0
   -5.6673   -9.4200    7.6714 O   0  0  0  0  0  0  0  0  0  0  0  0
   -6.9728   -7.8877    6.7596 C   0  0  0  0  0  0  0  0  0  0  0  0
   -5.8622   -7.1852    6.2524 C   0  0  0  0  0  0  0  0  0  0  0  0
   -6.3857   -5.9981    5.4859 C   0  0  0  0  0  0  0  0  0  0  0  0
   -7.4965   -5.6818    5.3253 C   0  0  0  0  0  0  0  0  0  0  0  0
   -8.6655   -6.3659    5.8356 C   0  0  0  0  0  0  0  0  0  0  0  0
   -8.3760   -7.4362    6.5327 C   0  0  0  0  0  0  0  0  0  0  0  0
  -15.0299   -8.3756    5.0632 C   0  0  0  0  0  0  0  0  0  0  0  0
  -14.0817   -7.9806    5.8078 O   0  0  0  0  0  0  0  0  0  0  0  0
  -10.2711   -6.6999    9.5989 O   0  0  0  0  0  0  0  0  0  0  0  0
  -10.9939   -5.9314   10.5657 C   0  0  0  0  0  0  0  0  0  0  0  0
  -14.8294   -6.8994    7.9764 C   0  0  0  0  0  0  0  0  0  0  0  0
  -15.6905   -7.9034    8.3066 N   0  0  0  0  0  0  0  0  0  0  0  0
  -14.9733   -8.9989    8.9235 C   0  0  0  0  0  0  0  0  0  0  0  0
  -16.9707   -8.1949    7.9749 C   0  0  0  0  0  0  0  0  0  0  0  0
 19 20  1  0  0  0
 20  1  1  0  0  0
  1  2  2  0  0  0
  2  3  1  0  0  0
  3  7  1  0  0  0
  7  8  2  0  0  0
  8  9  1  0  0  0
  9 10  1  0  0  0
  9 11  1  0  0  0
 11 12  2  0  0  0
 11 13  1  0  0  0
 13 14  2  0  0  0
 14 15  1  0  0  0
 15 16  2  0  0  0
 16 17  1  0  0  0
 17 18  2  0  0  0
  3  4  2  0  0  0
  4 21  1  0  0  0
 21 22  1  0  0  0
  4  5  1  0  0  0
  5  6  2  0  0  0
  6 23  1  0  0  0
 23 24  1  0  0  0
 24 25  1  0  0  0
 24 26  1  0  0  0
  6  1  1  0  0  0
 18  7  1  0  0  0
 18 13  1  0  0  0
M  END
> <minimizedAffinity>
0.59067

> <CNNscore>
0.2713992596

> <CNNaffinity>
6.0060720444

> <CNN_VS>
1.6300435066

> <CNNaffinity_variance>
0.3987612128

$$$$
[H]c1c(OC([H])([H])[H])c(C([H])([H])N(C([H])([H])[H])C([H])([H])[H])c([H])c(OC([H])([H])[H])c1-c1c([H])n(C([H])([H])[H])c(=O)c2c([H])c([H])c([H])c([H])c12


 26 28  0  0  0  0  0  0  0  0999 V2000
  -10.8717   -6.6328    9.2242 C   0  0  0  0  0  0  0  0  0  0  0  0
   -9.4627   -6.7754    9.2086 C   0  0  0  0  0  0  0  0  0  0  0  0
   -8.7967   -7.8678    8.4797 C   0  0  0  0  0  0  0  0  0  0  0  0
   -9.5510   -8.7352    7.8496 C   0  0  0  0  0  0  0  0  0  0  0  0
  -10.9677   -8.6741    7.8818 C   0  0  0  0  0  0  0  0  0  0  0  0
  -11.5210   -7.6851    8.5294 C   0  0  0  0  0  0  0  0  0  0  0  0
   -7.3797   -7.5409    8.3087 C   0  0  0  0  0  0  0  0  0  0  0  0
   -6.6018   -7.2288    9.4896 C   0  0  0  0  0  0  0  0  0  0  0  0
   -5.4744   -6.4381    9.4314 N   0  0  0  0  0  0  0  0  0  0  0  0
   -4.6920   -6.0376   10.5276 C   0  0  0  0  0  0  0  0  0  0  0  0
   -5.2805   -6.0673    8.1976 C   0  0  0  0  0  0  0  0  0  0  0  0
   -4.1032   -5.2596    8.2203 O   0  0  0  0  0  0  0  0  0  0  0  0
   -5.7409   -6.1520    7.0349 C   0  0  0  0  0  0  0  0  0  0  0  0
   -5.2520   -5.5725    5.8478 C   0  0  0  0  0  0  0  0  0  0  0  0
   -6.1566   -6.0060    4.7233 C   0  0  0  0  0  0  0  0  0  0  0  0
   -7.1002   -6.6883    4.7850 C   0  0  0  0  0  0  0  0  0  0  0  0
   -7.6433   -7.2949    5.9816 C   0  0  0  0  0  0  0  0  0  0  0  0
   -6.9591   -7.0121    7.0619 C   0  0  0  0  0  0  0  0  0  0  0  0
  -12.4129   -4.8008   10.1247 C   0  0  0  0  0  0  0  0  0  0  0  0
  -11.6240   -5.7097    9.7232 O   0  0  0  0  0  0  0  0  0  0  0  0
   -9.0097   -9.7849    7.0603 O   0  0  0  0  0  0  0  0  0  0  0  0
  -10.0819  -10.5412    6.4891 C   0  0  0  0  0  0  0  0  0  0  0  0
  -13.0024   -7.4678    8.5232 C   0  0  0  0  0  0  0  0  0  0  0  0
  -13.8722   -7.9755    7.6043 N   0  0  0  0  0  0  0  0  0  0  0  0
  -14.0210   -7.0601    6.4930 C   0  0  0  0  0  0  0  0  0  0  0  0
  -14.7764   -8.9835    7.6182 C   0  0  0  0  0  0  0  0  0  0  0  0
 19 20  1  0  0  0
 20  1  1  0  0  0
  1  2  2  0  0  0
  2  3  1  0  0  0
  3  7  1  0  0  0
  7  8  2  0  0  0
  8  9  1  0  0  0
  9 10  1  0  0  0
  9 11  1  0  0  0
 11 12  2  0  0  0
 11 13  1  0  0  0
 13 14  2  0  0  0
 14 15  1  0  0  0
 15 16  2  0  0  0
 16 17  1  0  0  0
 17 18  2  0  0  0
  3  4  2  0  0  0
  4 21  1  0  0  0
 21 22  1  0  0  0
  4  5  1  0  0  0
  5  6  2  0  0  0
  6 23  1  0  0  0
 23 24  1  0  0  0
 24 25  1  0  0  0
 24 26  1  0  0  0
  6  1  1  0  0  0
 18  7  1  0  0  0
 18 13  1  0  0  0
M  END
> <minimizedAffinity>
-3.91081

> <CNNscore>
0.2675448656

> <CNNaffinity>
6.0121126175

> <CNN_VS>
1.6085098982

> <CNNaffinity_variance>
0.1174158305

$$$$
[H]c1c(OC([H])([H])[H])c(C([H])([H])N(C([H])([H])[H])C([H])([H])[H])c([H])c(OC([H])([H])[H])c1-c1c([H])n(C([H])([H])[H])c(=O)c2c([H])c([H])c([H])c([H])c12


 26 28  0  0  0  0  0  0  0  0999 V2000
  -10.1453   -9.2828    7.3828 C   0  0  0  0  0  0  0  0  0  0  0  0
  -11.4225   -8.9831    7.9163 C   0  0  0  0  0  0  0  0  0  0  0  0
  -11.7020   -7.7125    8.6059 C   0  0  0  0  0  0  0  0  0  0  0  0
  -10.7188   -6.8554    8.7366 C   0  0  0  0  0  0  0  0  0  0  0  0
   -9.4062   -7.1294    8.2741 C   0  0  0  0  0  0  0  0  0  0  0  0
   -9.2003   -8.2616    7.6585 C   0  0  0  0  0  0  0  0  0  0  0  0
  -13.1506   -7.5153    8.6869 C   0  0  0  0  0  0  0  0  0  0  0  0
  -13.8344   -7.9488    9.8876 C   0  0  0  0  0  0  0  0  0  0  0  0
  -15.1695   -8.2913    9.8823 N   0  0  0  0  0  0  0  0  0  0  0  0
  -15.9000   -8.7742   10.9811 C   0  0  0  0  0  0  0  0  0  0  0  0
  -15.6371   -8.1534    8.6742 C   0  0  0  0  0  0  0  0  0  0  0  0
  -17.0143   -8.5227    8.7516 O   0  0  0  0  0  0  0  0  0  0  0  0
  -15.3267   -7.8321    7.5032 C   0  0  0  0  0  0  0  0  0  0  0  0
  -16.1368   -7.8060    6.3511 C   0  0  0  0  0  0  0  0  0  0  0  0
  -15.2849   -7.3215    5.2063 C   0  0  0  0  0  0  0  0  0  0  0  0
  -14.1585   -7.0208    5.2284 C   0  0  0  0  0  0  0  0  0  0  0  0
  -13.2874   -7.0424    6.3840 C   0  0  0  0  0  0  0  0  0  0  0  0
  -13.8867   -7.4450    7.4768 C   0  0  0  0  0  0  0  0  0  0  0  0
   -9.3698  -11.2248    5.9099 C   0  0  0  0  0  0  0  0  0  0  0  0
   -9.7346  -10.2859    6.6811 O   0  0  0  0  0  0  0  0  0  0  0  0
  -10.8973   -5.5738    9.3226 O   0  0  0  0  0  0  0  0  0  0  0  0
   -9.9139   -4.6776    8.7959 C   0  0  0  0  0  0  0  0  0  0  0  0
   -7.8809   -8.5912    7.0321 C   0  0  0  0  0  0  0  0  0  0  0  0
   -6.6769   -8.0713    7.4043 N   0  0  0  0  0  0  0  0  0  0  0  0
   -5.6235   -8.5818    6.5529 C   0  0  0  0  0  0  0  0  0  0  0  0
   -6.2338   -7.4090    8.4992 C   0  0  0  0  0  0  0  0  0  0  0  0
 19 20  1  0  0  0
 20  1  1  0  0  0
  1  2  2  0  0  0
  2  3  1  0  0  0
  3  7  1  0  0  0
  7  8  2  0  0  0
  8  9  1  0  0  0
  9 10  1  0  0  0
  9 11  1  0  0  0
 11 12  2  0  0  0
 11 13  1  0  0  0
 13 14  2  0  0  0
 14 15  1  0  0  0
 15 16  2  0  0  0
 16 17  1  0  0  0
 17 18  2  0  0  0
  3  4  2  0  0  0
  4 21  1  0  0  0
 21 22  1  0  0  0
  4  5  1  0  0  0
  5  6  2  0  0  0
  6 23  1  0  0  0
 23 24  1  0  0  0
 24 25  1  0  0  0
 24 26  1  0  0  0
  6  1  1  0  0  0
 18  7  1  0  0  0
 18 13  1  0  0  0
M  END
> <minimizedAffinity>
-1.62008

> <CNNscore>
0.2671076357

> <CNNaffinity>
6.1226472855

> <CNN_VS>
1.6354058981

> <CNNaffinity_variance>
0.3448036015

$$$$
[H]c1c(OC([H])([H])[H])c(C([H])([H])N(C([H])([H])[H])C([H])([H])[H])c([H])c(OC([H])([H])[H])c1-c1c([H])n(C([H])([H])[H])c(=O)c2c([H])c([H])c([H])c([H])c12


 26 28  0  0  0  0  0  0  0  0999 V2000
   -7.6285   -9.4789    7.9203 C   0  0  0  0  0  0  0  0  0  0  0  0
   -8.9637   -9.1723    8.2794 C   0  0  0  0  0  0  0  0  0  0  0  0
   -9.6051   -7.9050    7.8913 C   0  0  0  0  0  0  0  0  0  0  0  0
   -8.8937   -7.0399    7.2103 C   0  0  0  0  0  0  0  0  0  0  0  0
   -7.5347   -7.2703    6.8757 C   0  0  0  0  0  0  0  0  0  0  0  0
   -7.0046   -8.4098    7.2277 C   0  0  0  0  0  0  0  0  0  0  0  0
  -11.0560   -8.0319    8.0421 C   0  0  0  0  0  0  0  0  0  0  0  0
  -11.8029   -8.6620    6.9733 C   0  0  0  0  0  0  0  0  0  0  0  0
  -13.1357   -8.3868    6.7553 N   0  0  0  0  0  0  0  0  0  0  0  0
  -13.9237   -8.9048    5.7137 C   0  0  0  0  0  0  0  0  0  0  0  0
  -13.5382   -7.5171    7.6377 C   0  0  0  0  0  0  0  0  0  0  0  0
  -14.9176   -7.2874    7.3483 O   0  0  0  0  0  0  0  0  0  0  0  0
  -13.1659   -6.8239    8.6132 C   0  0  0  0  0  0  0  0  0  0  0  0
  -13.9133   -5.9130    9.3850 C   0  0  0  0  0  0  0  0  0  0  0  0
  -13.0017   -5.3653   10.4527 C   0  0  0  0  0  0  0  0  0  0  0  0
  -11.8781   -5.6185   10.6347 C   0  0  0  0  0  0  0  0  0  0  0  0
  -11.0698   -6.5376    9.8621 C   0  0  0  0  0  0  0  0  0  0  0  0
  -11.7265   -7.1069    8.8823 C   0  0  0  0  0  0  0  0  0  0  0  0
   -6.1740  -11.5647    8.1967 C   0  0  0  0  0  0  0  0  0  0  0  0
   -6.9316  -10.5528    8.0883 O   0  0  0  0  0  0  0  0  0  0  0  0
   -9.4359   -5.8189    6.7272 O   0  0  0  0  0  0  0  0  0  0  0  0
   -8.8422   -5.5117    5.4620 C   0  0  0  0  0  0  0  0  0  0  0  0
   -5.6163   -8.7944    6.8196 C   0  0  0  0  0  0  0  0  0  0  0  0
   -4.4930   -8.0551    7.0433 N   0  0  0  0  0  0  0  0  0  0  0  0
   -3.3250   -8.7524    6.5484 C   0  0  0  0  0  0  0  0  0  0  0  0
   -4.2113   -6.9772    7.8131 C   0  0  0  0  0  0  0  0  0  0  0  0
 19 20  1  0  0  0
 20  1  1  0  0  0
  1  2  2  0  0  0
  2  3  1  0  0  0
  3  7  1  0  0  0
  7  8  2  0  0  0
  8  9  1  0  0  0
  9 10  1  0  0  0
  9 11  1  0  0  0
 11 12  2  0  0  0
 11 13  1  0  0  0
 13 14  2  0  0  0
 14 15  1  0  0  0
 15 16  2  0  0  0
 16 17  1  0  0  0
 17 18  2  0  0  0
  3  4  2  0  0  0
  4 21  1  0  0  0
 21 22  1  0  0  0
  4  5  1  0  0  0
  5  6  2  0  0  0
  6 23  1  0  0  0
 23 24  1  0  0  0
 24 25  1  0  0  0
 24 26  1  0  0  0
  6  1  1  0  0  0
 18  7  1  0  0  0
 18 13  1  0  0  0
M  END
> <minimizedAffinity>
-2.12794

> <CNNscore>
0.2667610645

> <CNNaffinity>
5.9756278992

> <CNN_VS>
1.5940648317

> <CNNaffinity_variance>
0.1650089025

$$$$
[H]c1c(OC([H])([H])[H])c(C([H])([H])N(C([H])([H])[H])C([H])([H])[H])c([H])c(OC([H])([H])[H])c1-c1c([H])n(C([H])([H])[H])c(=O)c2c([H])c([H])c([H])c([H])c12


 26 28  0  0  0  0  0  0  0  0999 V2000
  -14.2232   -7.1332    8.2315 C   0  0  0  0  0  0  0  0  0  0  0  0
  -15.1579   -6.5950    7.3136 C   0  0  0  0  0  0  0  0  0  0  0  0
  -14.7527   -6.0967    5.9887 C   0  0  0  0  0  0  0  0  0  0  0  0
  -13.4801   -6.1434    5.6777 C   0  0  0  0  0  0  0  0  0  0  0  0
  -12.4946   -6.6169    6.5813 C   0  0  0  0  0  0  0  0  0  0  0  0
  -12.8939   -7.0601    7.7421 C   0  0  0  0  0  0  0  0  0  0  0  0
  -15.9355   -5.9818    5.1333 C   0  0  0  0  0  0  0  0  0  0  0  0
  -16.7944   -4.8283    5.3040 C   0  0  0  0  0  0  0  0  0  0  0  0
  -18.1302   -4.8582    4.9657 N   0  0  0  0  0  0  0  0  0  0  0  0
  -19.0491   -3.8109    5.1472 C   0  0  0  0  0  0  0  0  0  0  0  0
  -18.4234   -6.0402    4.5030 C   0  0  0  0  0  0  0  0  0  0  0  0
  -19.8125   -5.9904    4.1761 O   0  0  0  0  0  0  0  0  0  0  0  0
  -17.9473   -7.1728    4.2550 C   0  0  0  0  0  0  0  0  0  0  0  0
  -18.5969   -8.3079    3.7322 C   0  0  0  0  0  0  0  0  0  0  0  0
  -17.5686   -9.4018    3.6026 C   0  0  0  0  0  0  0  0  0  0  0  0
  -16.4368   -9.3579    3.8795 C   0  0  0  0  0  0  0  0  0  0  0  0
  -15.7315   -8.2193    4.4280 C   0  0  0  0  0  0  0  0  0  0  0  0
  -16.4966   -7.1706    4.6014 C   0  0  0  0  0  0  0  0  0  0  0  0
  -14.5429   -8.3275   10.4706 C   0  0  0  0  0  0  0  0  0  0  0  0
  -14.3924   -7.6904    9.3839 O   0  0  0  0  0  0  0  0  0  0  0  0
  -12.9921   -5.7534    4.4019 O   0  0  0  0  0  0  0  0  0  0  0  0
  -13.6589   -4.5554    3.9922 C   0  0  0  0  0  0  0  0  0  0  0  0
  -11.9458   -7.6873    8.7165 C   0  0  0  0  0  0  0  0  0  0  0  0
  -10.7306   -7.1831    9.0737 N   0  0  0  0  0  0  0  0  0  0  0  0
  -10.8972   -6.0239    9.9244 C   0  0  0  0  0  0  0  0  0  0  0  0
   -9.4654   -7.3671    8.6276 C   0  0  0  0  0  0  0  0  0  0  0  0
 19 20  1  0  0  0
 20  1  1  0  0  0
  1  2  2  0  0  0
  2  3  1  0  0  0
  3  7  1  0  0  0
  7  8  2  0  0  0
  8  9  1  0  0  0
  9 10  1  0  0  0
  9 11  1  0  0  0
 11 12  2  0  0  0
 11 13  1  0  0  0
 13 14  2  0  0  0
 14 15  1  0  0  0
 15 16  2  0  0  0
 16 17  1  0  0  0
 17 18  2  0  0  0
  3  4  2  0  0  0
  4 21  1  0  0  0
 21 22  1  0  0  0
  4  5  1  0  0  0
  5  6  2  0  0  0
  6 23  1  0  0  0
 23 24  1  0  0  0
 24 25  1  0  0  0
 24 26  1  0  0  0
  6  1  1  0  0  0
 18  7  1  0  0  0
 18 13  1  0  0  0
M  END
> <minimizedAffinity>
4.02534

> <CNNscore>
0.2654634714

> <CNNaffinity>
6.1626482010

> <CNN_VS>
1.6359579563

> <CNNaffinity_variance>
0.2231787741

$$$$
[H]c1nc([H])c(N([H])C(=O)c2nn(-c3c([H])c([H])c([H])c([H])c3Cl)c(-c3c([H])c([H])c(Cl)c([H])c3[H])c2C([H])([H])C(=O)N([H])[H])c(C([H])([H])[H])c1[H]


 36 39  0  0  0  0  0  0  0  0999 V2000
  -14.6009   -7.0189    8.2419 C   0  0  0  0  0  0  0  0  0  0  0  0
  -14.1996   -5.9818    7.4910 N   0  0  0  0  0  0  0  0  0  0  0  0
  -14.9053   -5.9033    6.3559 N   0  0  0  0  0  0  0  0  0  0  0  0
  -15.8234   -6.9190    6.3219 C   0  0  0  0  0  0  0  0  0  0  0  0
  -15.6274   -7.6054    7.5019 C   0  0  0  0  0  0  0  0  0  0  0  0
  -14.6175   -4.8989    5.4061 C   0  0  0  0  0  0  0  0  0  0  0  0
  -14.8435   -3.5767    5.7097 C   0  0  0  0  0  0  0  0  0  0  0  0
  -14.5905   -2.5675    4.7727 C   0  0  0  0  0  0  0  0  0  0  0  0
  -14.1052   -2.8826    3.5150 C   0  0  0  0  0  0  0  0  0  0  0  0
  -13.8810   -4.2040    3.2165 C   0  0  0  0  0  0  0  0  0  0  0  0
  -14.1296   -5.1955    4.1369 C   0  0  0  0  0  0  0  0  0  0  0  0
  -13.8487   -6.8826    3.7705 Cl  0  0  0  0  0  0  0  0  0  0  0  0
  -16.6661   -7.2443    5.1820 C   0  0  0  0  0  0  0  0  0  0  0  0
  -17.6021   -6.4067    4.6305 C   0  0  0  0  0  0  0  0  0  0  0  0
  -18.3255   -6.6794    3.4764 C   0  0  0  0  0  0  0  0  0  0  0  0
  -18.1121   -7.8646    2.8198 C   0  0  0  0  0  0  0  0  0  0  0  0
  -19.0349   -8.1838    1.3704 Cl  0  0  0  0  0  0  0  0  0  0  0  0
  -17.1967   -8.7356    3.3210 C   0  0  0  0  0  0  0  0  0  0  0  0
  -16.4763   -8.4429    4.4840 C   0  0  0  0  0  0  0  0  0  0  0  0
  -14.2308   -8.7520    9.9545 N   0  0  0  0  0  0  0  0  0  0  0  0
  -14.0515   -7.4156    9.5411 C   0  0  0  0  0  0  0  0  0  0  0  0
  -13.4540   -6.6008   10.2413 O   0  0  0  0  0  0  0  0  0  0  0  0
  -14.7694   -9.3634    9.2501 H   0  0  0  0  0  0  0  0  0  0  0  0
  -15.6664   -8.1844   12.2638 C   0  0  0  0  0  0  0  0  0  0  0  0
  -14.5168   -9.1052   12.3189 C   0  0  0  0  0  0  0  0  0  0  0  0
  -14.1613   -9.6831   13.5210 C   0  0  0  0  0  0  0  0  0  0  0  0
  -13.0949  -10.5422   13.6148 C   0  0  0  0  0  0  0  0  0  0  0  0
  -12.4214  -10.7898   12.4886 N   0  0  0  0  0  0  0  0  0  0  0  0
  -12.7485  -10.2324   11.2794 C   0  0  0  0  0  0  0  0  0  0  0  0
  -13.8031   -9.3705   11.1371 C   0  0  0  0  0  0  0  0  0  0  0  0
  -16.4144   -8.7585    8.0402 C   0  0  0  0  0  0  0  0  0  0  0  0
  -17.8698   -8.3458    7.9720 C   0  0  0  0  0  0  0  0  0  0  0  0
  -18.8318   -9.3697    7.9353 N   0  0  0  0  0  0  0  0  0  0  0  0
  -18.2023   -7.1551    7.9492 O   0  0  0  0  0  0  0  0  0  0  0  0
  -18.8299  -10.1516    7.2182 H   0  0  0  0  0  0  0  0  0  0  0  0
  -19.6375   -9.4387    8.6262 H   0  0  0  0  0  0  0  0  0  0  0  0
 24 25  1  0  0  0
 25 26  2  0  0  0
 26 27  1  0  0  0
 27 28  2  0  0  0
 28 29  1  0  0  0
 29 30  2  0  0  0
 30 20  1  0  0  0
 20 21  1  0  0  0
 21 22  2  0  0  0
 21  1  1  0  0  0
  1  2  2  0  0  0
  2  3  1  0  0  0
  3  6  1  0  0  0
  6  7  2  0  0  0
  7  8  1  0  0  0
  8  9  2  0  0  0
  9 10  1  0  0  0
 10 11  2  0  0  0
 11 12  1  0  0  0
  3  4  1  0  0  0
  4 13  1  0  0  0
 13 14  2  0  0  0
 14 15  1  0  0  0
 15 16  2  0  0  0
 16 17  1  0  0  0
 16 18  1  0  0  0
 18 19  2  0  0  0
  4  5  2  0  0  0
  5 31  1  0  0  0
 31 32  1  0  0  0
 32 33  1  0  0  0
 32 34  2  0  0  0
 30 25  1  0  0  0
  5  1  1  0  0  0
 11  6  1  0  0  0
 19 13  1  0  0  0
 20 23  1  0  0  0
 33 35  1  0  0  0
 33 36  1  0  0  0
M  END
> <minimizedAffinity>
24.30152

> <CNNscore>
0.3348275721

> <CNNaffinity>
6.9409270287

> <CNN_VS>
2.3240137100

> <CNNaffinity_variance>
1.6944433451

$$$$
[H]c1nc([H])c(N([H])C(=O)c2nn(-c3c([H])c([H])c([H])c([H])c3Cl)c(-c3c([H])c([H])c(Cl)c([H])c3[H])c2C([H])([H])C(=O)N([H])[H])c(C([H])([H])[H])c1[H]


 36 39  0  0  0  0  0  0  0  0999 V2000
  -12.1224   -7.2427    7.7858 C   0  0  0  0  0  0  0  0  0  0  0  0
  -11.6439   -8.4521    7.4556 N   0  0  0  0  0  0  0  0  0  0  0  0
  -10.3250   -8.5276    7.6733 N   0  0  0  0  0  0  0  0  0  0  0  0
   -9.8784   -7.3318    8.1698 C   0  0  0  0  0  0  0  0  0  0  0  0
  -11.0057   -6.5404    8.2386 C   0  0  0  0  0  0  0  0  0  0  0  0
   -9.6175   -9.7083    7.3587 C   0  0  0  0  0  0  0  0  0  0  0  0
   -8.3822   -9.9422    7.9162 C   0  0  0  0  0  0  0  0  0  0  0  0
   -7.6523  -11.0934    7.5966 C   0  0  0  0  0  0  0  0  0  0  0  0
   -8.1625  -12.0243    6.7080 C   0  0  0  0  0  0  0  0  0  0  0  0
   -9.3962  -11.7866    6.1538 C   0  0  0  0  0  0  0  0  0  0  0  0
  -10.1133  -10.6556    6.4677 C   0  0  0  0  0  0  0  0  0  0  0  0
  -11.6858  -10.3398    5.7697 Cl  0  0  0  0  0  0  0  0  0  0  0  0
   -8.4821   -6.9879    8.3876 C   0  0  0  0  0  0  0  0  0  0  0  0
   -7.7730   -7.2612    9.5297 C   0  0  0  0  0  0  0  0  0  0  0  0
   -6.4128   -7.0298    9.6907 C   0  0  0  0  0  0  0  0  0  0  0  0
   -5.7007   -6.4879    8.6513 C   0  0  0  0  0  0  0  0  0  0  0  0
   -3.9910   -6.2066    8.8791 Cl  0  0  0  0  0  0  0  0  0  0  0  0
   -6.3511   -6.1948    7.4941 C   0  0  0  0  0  0  0  0  0  0  0  0
   -7.7215   -6.4363    7.3498 C   0  0  0  0  0  0  0  0  0  0  0  0
  -14.1030   -6.7855    6.3923 N   0  0  0  0  0  0  0  0  0  0  0  0
  -13.5142   -6.7982    7.6738 C   0  0  0  0  0  0  0  0  0  0  0  0
  -14.1405   -6.4495    8.6725 O   0  0  0  0  0  0  0  0  0  0  0  0
  -13.4488   -7.1151    5.6028 H   0  0  0  0  0  0  0  0  0  0  0  0
  -14.3463   -4.7655    4.5012 C   0  0  0  0  0  0  0  0  0  0  0  0
  -15.5534   -5.3947    5.0662 C   0  0  0  0  0  0  0  0  0  0  0  0
  -16.8010   -4.9763    4.6489 C   0  0  0  0  0  0  0  0  0  0  0  0
  -17.9491   -5.5339    5.1539 C   0  0  0  0  0  0  0  0  0  0  0  0
  -17.7987   -6.4978    6.0658 N   0  0  0  0  0  0  0  0  0  0  0  0
  -16.5747   -6.9360    6.5012 C   0  0  0  0  0  0  0  0  0  0  0  0
  -15.4027   -6.4102    6.0266 C   0  0  0  0  0  0  0  0  0  0  0  0
  -11.1290   -5.1566    8.7943 C   0  0  0  0  0  0  0  0  0  0  0  0
  -11.7255   -5.3079   10.1779 C   0  0  0  0  0  0  0  0  0  0  0  0
  -12.8834   -4.5662   10.4682 N   0  0  0  0  0  0  0  0  0  0  0  0
  -11.2161   -6.0543   11.0218 O   0  0  0  0  0  0  0  0  0  0  0  0
  -12.9499   -3.5134   10.3549 H   0  0  0  0  0  0  0  0  0  0  0  0
  -13.7840   -5.0056   10.8247 H   0  0  0  0  0  0  0  0  0  0  0  0
 24 25  1  0  0  0
 25 26  2  0  0  0
 26 27  1  0  0  0
 27 28  2  0  0  0
 28 29  1  0  0  0
 29 30  2  0  0  0
 30 20  1  0  0  0
 20 21  1  0  0  0
 21 22  2  0  0  0
 21  1  1  0  0  0
  1  2  2  0  0  0
  2  3  1  0  0  0
  3  6  1  0  0  0
  6  7  2  0  0  0
  7  8  1  0  0  0
  8  9  2  0  0  0
  9 10  1  0  0  0
 10 11  2  0  0  0
 11 12  1  0  0  0
  3  4  1  0  0  0
  4 13  1  0  0  0
 13 14  2  0  0  0
 14 15  1  0  0  0
 15 16  2  0  0  0
 16 17  1  0  0  0
 16 18  1  0  0  0
 18 19  2  0  0  0
  4  5  2  0  0  0
  5 31  1  0  0  0
 31 32  1  0  0  0
 32 33  1  0  0  0
 32 34  2  0  0  0
 30 25  1  0  0  0
  5  1  1  0  0  0
 11  6  1  0  0  0
 19 13  1  0  0  0
 20 23  1  0  0  0
 33 35  1  0  0  0
 33 36  1  0  0  0
M  END
> <minimizedAffinity>
2.31131

> <CNNscore>
0.2785824239

> <CNNaffinity>
7.0492753983

> <CNN_VS>
1.9638042450

> <CNNaffinity_variance>
0.5434291959

$$$$
[H]c1nc([H])c(N([H])C(=O)c2nn(-c3c([H])c([H])c([H])c([H])c3Cl)c(-c3c([H])c([H])c(Cl)c([H])c3[H])c2C([H])([H])C(=O)N([H])[H])c(C([H])([H])[H])c1[H]


 36 39  0  0  0  0  0  0  0  0999 V2000
  -11.8575   -7.6953    7.8750 C   0  0  0  0  0  0  0  0  0  0  0  0
  -11.3454   -8.9049    7.6008 N   0  0  0  0  0  0  0  0  0  0  0  0
  -10.0069   -8.8735    7.5894 N   0  0  0  0  0  0  0  0  0  0  0  0
   -9.5811   -7.6013    7.8648 C   0  0  0  0  0  0  0  0  0  0  0  0
  -10.7409   -6.8768    8.0438 C   0  0  0  0  0  0  0  0  0  0  0  0
   -9.2696  -10.0390    7.2869 C   0  0  0  0  0  0  0  0  0  0  0  0
   -9.7067  -10.8969    6.3049 C   0  0  0  0  0  0  0  0  0  0  0  0
   -9.0051  -12.0716    6.0080 C   0  0  0  0  0  0  0  0  0  0  0  0
   -7.8510  -12.3945    6.7011 C   0  0  0  0  0  0  0  0  0  0  0  0
   -7.4184  -11.5350    7.6806 C   0  0  0  0  0  0  0  0  0  0  0  0
   -8.1076  -10.3810    7.9725 C   0  0  0  0  0  0  0  0  0  0  0  0
   -7.5683   -9.2769    9.2173 Cl  0  0  0  0  0  0  0  0  0  0  0  0
   -8.2003   -7.1497    7.7938 C   0  0  0  0  0  0  0  0  0  0  0  0
   -7.5551   -6.7679    6.6450 C   0  0  0  0  0  0  0  0  0  0  0  0
   -6.2736   -6.2339    6.5976 C   0  0  0  0  0  0  0  0  0  0  0  0
   -5.5771   -6.0664    7.7673 C   0  0  0  0  0  0  0  0  0  0  0  0
   -3.9669   -5.3927    7.6808 Cl  0  0  0  0  0  0  0  0  0  0  0  0
   -6.1657   -6.4288    8.9379 C   0  0  0  0  0  0  0  0  0  0  0  0
   -7.4581   -6.9635    8.9661 C   0  0  0  0  0  0  0  0  0  0  0  0
  -14.1499   -7.8914    6.9917 N   0  0  0  0  0  0  0  0  0  0  0  0
  -13.2796   -7.3526    7.9619 C   0  0  0  0  0  0  0  0  0  0  0  0
  -13.6909   -6.6173    8.8571 O   0  0  0  0  0  0  0  0  0  0  0  0
  -13.6647   -8.5201    6.2642 H   0  0  0  0  0  0  0  0  0  0  0  0
  -15.1159   -7.3385    4.4467 C   0  0  0  0  0  0  0  0  0  0  0  0
  -16.0498   -7.4444    5.5821 C   0  0  0  0  0  0  0  0  0  0  0  0
  -17.4029   -7.2698    5.3722 C   0  0  0  0  0  0  0  0  0  0  0  0
  -18.3044   -7.3562    6.4036 C   0  0  0  0  0  0  0  0  0  0  0  0
  -17.8082   -7.6168    7.6157 N   0  0  0  0  0  0  0  0  0  0  0  0
  -16.4705   -7.7954    7.8575 C   0  0  0  0  0  0  0  0  0  0  0  0
  -15.5344   -7.7185    6.8610 C   0  0  0  0  0  0  0  0  0  0  0  0
  -10.8801   -5.4454    8.4568 C   0  0  0  0  0  0  0  0  0  0  0  0
  -11.2767   -5.4634    9.9181 C   0  0  0  0  0  0  0  0  0  0  0  0
  -12.3996   -4.7061   10.2933 N   0  0  0  0  0  0  0  0  0  0  0  0
  -10.6395   -6.1179   10.7514 O   0  0  0  0  0  0  0  0  0  0  0  0
  -12.5043   -3.6704   10.0886 H   0  0  0  0  0  0  0  0  0  0  0  0
  -13.2326   -5.1153   10.8129 H   0  0  0  0  0  0  0  0  0  0  0  0
 24 25  1  0  0  0
 25 26  2  0  0  0
 26 27  1  0  0  0
 27 28  2  0  0  0
 28 29  1  0  0  0
 29 30  2  0  0  0
 30 20  1  0  0  0
 20 21  1  0  0  0
 21 22  2  0  0  0
 21  1  1  0  0  0
  1  2  2  0  0  0
  2  3  1  0  0  0
  3  6  1  0  0  0
  6  7  2  0  0  0
  7  8  1  0  0  0
  8  9  2  0  0  0
  9 10  1  0  0  0
 10 11  2  0  0  0
 11 12  1  0  0  0
  3  4  1  0  0  0
  4 13  1  0  0  0
 13 14  2  0  0  0
 14 15  1  0  0  0
 15 16  2  0  0  0
 16 17  1  0  0  0
 16 18  1  0  0  0
 18 19  2  0  0  0
  4  5  2  0  0  0
  5 31  1  0  0  0
 31 32  1  0  0  0
 32 33  1  0  0  0
 32 34  2  0  0  0
 30 25  1  0  0  0
  5  1  1  0  0  0
 11  6  1  0  0  0
 19 13  1  0  0  0
 20 23  1  0  0  0
 33 35  1  0  0  0
 33 36  1  0  0  0
M  END
> <minimizedAffinity>
5.94475

> <CNNscore>
0.2633589804

> <CNNaffinity>
7.1545515060

> <CNN_VS>
1.8842153549

> <CNNaffinity_variance>
0.5587565303

$$$$
[H]c1nc([H])c(N([H])C(=O)c2nn(-c3c([H])c([H])c([H])c([H])c3Cl)c(-c3c([H])c([H])c(Cl)c([H])c3[H])c2C([H])([H])C(=O)N([H])[H])c(C([H])([H])[H])c1[H]


 36 39  0  0  0  0  0  0  0  0999 V2000
  -14.1172   -7.2065    8.1552 C   0  0  0  0  0  0  0  0  0  0  0  0
  -13.8858   -6.6616    9.3594 N   0  0  0  0  0  0  0  0  0  0  0  0
  -12.5730   -6.5696    9.6057 N   0  0  0  0  0  0  0  0  0  0  0  0
  -11.8754   -7.0670    8.5373 C   0  0  0  0  0  0  0  0  0  0  0  0
  -12.8462   -7.4579    7.6390 C   0  0  0  0  0  0  0  0  0  0  0  0
  -12.1137   -6.0533   10.8371 C   0  0  0  0  0  0  0  0  0  0  0  0
  -11.5480   -6.8915   11.7691 C   0  0  0  0  0  0  0  0  0  0  0  0
  -11.1110   -6.4045   13.0069 C   0  0  0  0  0  0  0  0  0  0  0  0
  -11.2405   -5.0619   13.3187 C   0  0  0  0  0  0  0  0  0  0  0  0
  -11.8059   -4.2288   12.3850 C   0  0  0  0  0  0  0  0  0  0  0  0
  -12.2353   -4.7071   11.1690 C   0  0  0  0  0  0  0  0  0  0  0  0
  -12.9571   -3.6576    9.9702 Cl  0  0  0  0  0  0  0  0  0  0  0  0
  -10.4355   -7.2685    8.5015 C   0  0  0  0  0  0  0  0  0  0  0  0
   -9.8097   -8.4880    8.5575 C   0  0  0  0  0  0  0  0  0  0  0  0
   -8.4419   -8.6826    8.4125 C   0  0  0  0  0  0  0  0  0  0  0  0
   -7.6325   -7.5960    8.1990 C   0  0  0  0  0  0  0  0  0  0  0  0
   -5.9154   -7.8675    8.0200 Cl  0  0  0  0  0  0  0  0  0  0  0  0
   -8.1969   -6.3610    8.1356 C   0  0  0  0  0  0  0  0  0  0  0  0
   -9.5770   -6.1846    8.2824 C   0  0  0  0  0  0  0  0  0  0  0  0
  -15.6302   -7.0884    6.2134 N   0  0  0  0  0  0  0  0  0  0  0  0
  -15.4290   -7.4678    7.5567 C   0  0  0  0  0  0  0  0  0  0  0  0
  -16.3198   -8.0021    8.2141 O   0  0  0  0  0  0  0  0  0  0  0  0
  -14.7715   -6.6320    5.7504 H   0  0  0  0  0  0  0  0  0  0  0  0
  -16.4076   -4.8845    4.7118 C   0  0  0  0  0  0  0  0  0  0  0  0
  -17.1898   -6.1322    4.6482 C   0  0  0  0  0  0  0  0  0  0  0  0
  -18.3058   -6.1983    3.8385 C   0  0  0  0  0  0  0  0  0  0  0  0
  -19.0631   -7.3401    3.7548 C   0  0  0  0  0  0  0  0  0  0  0  0
  -18.6671   -8.3796    4.4935 N   0  0  0  0  0  0  0  0  0  0  0  0
  -17.5641   -8.3465    5.3073 C   0  0  0  0  0  0  0  0  0  0  0  0
  -16.7787   -7.2307    5.4231 C   0  0  0  0  0  0  0  0  0  0  0  0
  -12.6601   -7.9903    6.2531 C   0  0  0  0  0  0  0  0  0  0  0  0
  -12.5867   -9.4971    6.3851 C   0  0  0  0  0  0  0  0  0  0  0  0
  -13.7932  -10.1884    6.5885 N   0  0  0  0  0  0  0  0  0  0  0  0
  -11.5087  -10.0988    6.3171 O   0  0  0  0  0  0  0  0  0  0  0  0
  -14.4701   -9.9690    7.3755 H   0  0  0  0  0  0  0  0  0  0  0  0
  -14.1205  -10.9870    5.9668 H   0  0  0  0  0  0  0  0  0  0  0  0
 24 25  1  0  0  0
 25 26  2  0  0  0
 26 27  1  0  0  0
 27 28  2  0  0  0
 28 29  1  0  0  0
 29 30  2  0  0  0
 30 20  1  0  0  0
 20 21  1  0  0  0
 21 22  2  0  0  0
 21  1  1  0  0  0
  1  2  2  0  0  0
  2  3  1  0  0  0
  3  6  1  0  0  0
  6  7  2  0  0  0
  7  8  1  0  0  0
  8  9  2  0  0  0
  9 10  1  0  0  0
 10 11  2  0  0  0
 11 12  1  0  0  0
  3  4  1  0  0  0
  4 13  1  0  0  0
 13 14  2  0  0  0
 14 15  1  0  0  0
 15 16  2  0  0  0
 16 17  1  0  0  0
 16 18  1  0  0  0
 18 19  2  0  0  0
  4  5  2  0  0  0
  5 31  1  0  0  0
 31 32  1  0  0  0
 32 33  1  0  0  0
 32 34  2  0  0  0
 30 25  1  0  0  0
  5  1  1  0  0  0
 11  6  1  0  0  0
 19 13  1  0  0  0
 20 23  1  0  0  0
 33 35  1  0  0  0
 33 36  1  0  0  0
M  END
> <minimizedAffinity>
0.31009

> <CNNscore>
0.2573702633

> <CNNaffinity>
7.3234810829

> <CNN_VS>
1.8848462105

> <CNNaffinity_variance>
0.1655991375

$$$$
[H]c1nc([H])c(N([H])C(=O)c2nn(-c3c([H])c([H])c([H])c([H])c3Cl)c(-c3c([H])c([H])c(Cl)c([H])c3[H])c2C([H])([H])C(=O)N([H])[H])c(C([H])([H])[H])c1[H]


 36 39  0  0  0  0  0  0  0  0999 V2000
  -11.6040   -7.3320    8.4433 C   0  0  0  0  0  0  0  0  0  0  0  0
  -12.1164   -7.6264    9.6480 N   0  0  0  0  0  0  0  0  0  0  0  0
  -13.4252   -7.8965    9.5654 N   0  0  0  0  0  0  0  0  0  0  0  0
  -13.8295   -7.7850    8.2616 C   0  0  0  0  0  0  0  0  0  0  0  0
  -12.6875   -7.4363    7.5714 C   0  0  0  0  0  0  0  0  0  0  0  0
  -14.1651   -8.1985   10.7293 C   0  0  0  0  0  0  0  0  0  0  0  0
  -15.1520   -7.3435   11.1613 C   0  0  0  0  0  0  0  0  0  0  0  0
  -15.8788   -7.6106   12.3277 C   0  0  0  0  0  0  0  0  0  0  0  0
  -15.6170   -8.7472   13.0735 C   0  0  0  0  0  0  0  0  0  0  0  0
  -14.6309   -9.5979   12.6384 C   0  0  0  0  0  0  0  0  0  0  0  0
  -13.9167   -9.3355   11.4926 C   0  0  0  0  0  0  0  0  0  0  0  0
  -12.6581  -10.4102   10.9264 Cl  0  0  0  0  0  0  0  0  0  0  0  0
  -15.2088   -7.8601    7.8063 C   0  0  0  0  0  0  0  0  0  0  0  0
  -15.6778   -7.3392    6.6270 C   0  0  0  0  0  0  0  0  0  0  0  0
  -16.9699   -7.5087    6.1459 C   0  0  0  0  0  0  0  0  0  0  0  0
  -17.8647   -8.2430    6.8817 C   0  0  0  0  0  0  0  0  0  0  0  0
  -19.4838   -8.4414    6.2547 Cl  0  0  0  0  0  0  0  0  0  0  0  0
  -17.4565   -8.7828    8.0606 C   0  0  0  0  0  0  0  0  0  0  0  0
  -16.1504   -8.6027    8.5285 C   0  0  0  0  0  0  0  0  0  0  0  0
   -9.4748   -7.8343    7.3085 N   0  0  0  0  0  0  0  0  0  0  0  0
  -10.2117   -6.9788    8.1535 C   0  0  0  0  0  0  0  0  0  0  0  0
   -9.7112   -5.9653    8.6369 O   0  0  0  0  0  0  0  0  0  0  0  0
  -10.0287   -8.6859    6.9510 H   0  0  0  0  0  0  0  0  0  0  0  0
   -7.7021   -9.7989    8.1537 C   0  0  0  0  0  0  0  0  0  0  0  0
   -7.2287   -8.7013    7.2913 C   0  0  0  0  0  0  0  0  0  0  0  0
   -5.9039   -8.6580    6.9061 C   0  0  0  0  0  0  0  0  0  0  0  0
   -5.4231   -7.6505    6.1074 C   0  0  0  0  0  0  0  0  0  0  0  0
   -6.2984   -6.7181    5.7233 N   0  0  0  0  0  0  0  0  0  0  0  0
   -7.6200   -6.7323    6.0881 C   0  0  0  0  0  0  0  0  0  0  0  0
   -8.1448   -7.7162    6.8830 C   0  0  0  0  0  0  0  0  0  0  0  0
  -12.5169   -7.2699    6.0942 C   0  0  0  0  0  0  0  0  0  0  0  0
  -12.9203   -8.5895    5.4705 C   0  0  0  0  0  0  0  0  0  0  0  0
  -12.2667   -9.7472    5.9261 N   0  0  0  0  0  0  0  0  0  0  0  0
  -13.7904   -8.6495    4.5942 O   0  0  0  0  0  0  0  0  0  0  0  0
  -11.2121   -9.8626    5.9311 H   0  0  0  0  0  0  0  0  0  0  0  0
  -12.7817  -10.5987    6.3018 H   0  0  0  0  0  0  0  0  0  0  0  0
 24 25  1  0  0  0
 25 26  2  0  0  0
 26 27  1  0  0  0
 27 28  2  0  0  0
 28 29  1  0  0  0
 29 30  2  0  0  0
 30 20  1  0  0  0
 20 21  1  0  0  0
 21 22  2  0  0  0
 21  1  1  0  0  0
  1  2  2  0  0  0
  2  3  1  0  0  0
  3  6  1  0  0  0
  6  7  2  0  0  0
  7  8  1  0  0  0
  8  9  2  0  0  0
  9 10  1  0  0  0
 10 11  2  0  0  0
 11 12  1  0  0  0
  3  4  1  0  0  0
  4 13  1  0  0  0
 13 14  2  0  0  0
 14 15  1  0  0  0
 15 16  2  0  0  0
 16 17  1  0  0  0
 16 18  1  0  0  0
 18 19  2  0  0  0
  4  5  2  0  0  0
  5 31  1  0  0  0
 31 32  1  0  0  0
 32 33  1  0  0  0
 32 34  2  0  0  0
 30 25  1  0  0  0
  5  1  1  0  0  0
 11  6  1  0  0  0
 19 13  1  0  0  0
 20 23  1  0  0  0
 33 35  1  0  0  0
 33 36  1  0  0  0
M  END
> <minimizedAffinity>
12.00240

> <CNNscore>
0.2541108429

> <CNNaffinity>
6.8009781837

> <CNN_VS>
1.7282023430

> <CNNaffinity_variance>
0.6181046367

$$$$
[H]c1nc([H])c(N([H])C(=O)c2nn(-c3c([H])c([H])c([H])c([H])c3Cl)c(-c3c([H])c([H])c(Cl)c([H])c3[H])c2C([H])([H])C(=O)N([H])[H])c(C([H])([H])[H])c1[H]


 36 39  0  0  0  0  0  0  0  0999 V2000
   -9.0684   -7.9764    8.0765 C   0  0  0  0  0  0  0  0  0  0  0  0
   -9.6534   -7.1785    8.9831 N   0  0  0  0  0  0  0  0  0  0  0  0
  -10.9654   -7.0561    8.7465 N   0  0  0  0  0  0  0  0  0  0  0  0
  -11.2973   -7.7932    7.6409 C   0  0  0  0  0  0  0  0  0  0  0  0
  -10.1098   -8.3642    7.2337 C   0  0  0  0  0  0  0  0  0  0  0  0
  -11.7634   -6.2299    9.5676 C   0  0  0  0  0  0  0  0  0  0  0  0
  -11.4983   -4.8834    9.6575 C   0  0  0  0  0  0  0  0  0  0  0  0
  -12.2602   -4.0514   10.4867 C   0  0  0  0  0  0  0  0  0  0  0  0
  -13.3014   -4.5709   11.2369 C   0  0  0  0  0  0  0  0  0  0  0  0
  -13.5624   -5.9158   11.1440 C   0  0  0  0  0  0  0  0  0  0  0  0
  -12.8139   -6.7332   10.3294 C   0  0  0  0  0  0  0  0  0  0  0  0
  -13.1350   -8.4478   10.2011 Cl  0  0  0  0  0  0  0  0  0  0  0  0
  -12.5999   -7.7871    6.9940 C   0  0  0  0  0  0  0  0  0  0  0  0
  -13.1710   -6.6989    6.3844 C   0  0  0  0  0  0  0  0  0  0  0  0
  -14.3641   -6.7261    5.6735 C   0  0  0  0  0  0  0  0  0  0  0  0
  -15.0444   -7.9114    5.5572 C   0  0  0  0  0  0  0  0  0  0  0  0
  -16.5429   -7.9190    4.6580 Cl  0  0  0  0  0  0  0  0  0  0  0  0
  -14.5271   -9.0239    6.1425 C   0  0  0  0  0  0  0  0  0  0  0  0
  -13.3230   -8.9775    6.8533 C   0  0  0  0  0  0  0  0  0  0  0  0
   -6.7493   -7.3741    7.5000 N   0  0  0  0  0  0  0  0  0  0  0  0
   -7.6477   -8.3301    8.0177 C   0  0  0  0  0  0  0  0  0  0  0  0
   -7.2612   -9.4290    8.4105 O   0  0  0  0  0  0  0  0  0  0  0  0
   -7.2143   -6.4528    7.1922 H   0  0  0  0  0  0  0  0  0  0  0  0
   -5.1826   -5.7906    9.1596 C   0  0  0  0  0  0  0  0  0  0  0  0
   -4.5441   -6.6830    8.1755 C   0  0  0  0  0  0  0  0  0  0  0  0
   -3.1673   -6.7280    8.0863 C   0  0  0  0  0  0  0  0  0  0  0  0
   -2.5348   -7.5424    7.1804 C   0  0  0  0  0  0  0  0  0  0  0  0
   -3.3156   -8.2862    6.3928 N   0  0  0  0  0  0  0  0  0  0  0  0
   -4.6850   -8.2649    6.4562 C   0  0  0  0  0  0  0  0  0  0  0  0
   -5.3600   -7.4691    7.3431 C   0  0  0  0  0  0  0  0  0  0  0  0
   -9.8899   -9.3447    6.1250 C   0  0  0  0  0  0  0  0  0  0  0  0
  -10.1735  -10.7132    6.7082 C   0  0  0  0  0  0  0  0  0  0  0  0
   -9.1098  -11.6305    6.7531 N   0  0  0  0  0  0  0  0  0  0  0  0
  -11.2961  -11.0148    7.1293 O   0  0  0  0  0  0  0  0  0  0  0  0
   -8.5383  -11.9090    5.9037 H   0  0  0  0  0  0  0  0  0  0  0  0
   -8.7958  -12.1170    7.6453 H   0  0  0  0  0  0  0  0  0  0  0  0
 24 25  1  0  0  0
 25 26  2  0  0  0
 26 27  1  0  0  0
 27 28  2  0  0  0
 28 29  1  0  0  0
 29 30  2  0  0  0
 30 20  1  0  0  0
 20 21  1  0  0  0
 21 22  2  0  0  0
 21  1  1  0  0  0
  1  2  2  0  0  0
  2  3  1  0  0  0
  3  6  1  0  0  0
  6  7  2  0  0  0
  7  8  1  0  0  0
  8  9  2  0  0  0
  9 10  1  0  0  0
 10 11  2  0  0  0
 11 12  1  0  0  0
  3  4  1  0  0  0
  4 13  1  0  0  0
 13 14  2  0  0  0
 14 15  1  0  0  0
 15 16  2  0  0  0
 16 17  1  0  0  0
 16 18  1  0  0  0
 18 19  2  0  0  0
  4  5  2  0  0  0
  5 31  1  0  0  0
 31 32  1  0  0  0
 32 33  1  0  0  0
 32 34  2  0  0  0
 30 25  1  0  0  0
  5  1  1  0  0  0
 11  6  1  0  0  0
 19 13  1  0  0  0
 20 23  1  0  0  0
 33 35  1  0  0  0
 33 36  1  0  0  0
M  END
> <minimizedAffinity>
-2.17407

> <CNNscore>
0.2500897348

> <CNNaffinity>
6.9850959778

> <CNN_VS>
1.7469007969

> <CNNaffinity_variance>
0.3148710728

$$$$
[H]c1nc([H])c(N([H])C(=O)c2nn(-c3c([H])c([H])c([H])c([H])c3Cl)c(-c3c([H])c([H])c(Cl)c([H])c3[H])c2C([H])([H])C(=O)N([H])[H])c(C([H])([H])[H])c1[H]


 36 39  0  0  0  0  0  0  0  0999 V2000
  -13.3436   -7.4355    7.3270 C   0  0  0  0  0  0  0  0  0  0  0  0
  -12.0910   -7.5875    6.8704 N   0  0  0  0  0  0  0  0  0  0  0  0
  -11.1909   -7.3041    7.8201 N   0  0  0  0  0  0  0  0  0  0  0  0
  -11.8430   -6.9448    8.9697 C   0  0  0  0  0  0  0  0  0  0  0  0
  -13.1823   -7.0330    8.6526 C   0  0  0  0  0  0  0  0  0  0  0  0
   -9.8097   -7.3689    7.5347 C   0  0  0  0  0  0  0  0  0  0  0  0
   -9.0705   -6.2135    7.4344 C   0  0  0  0  0  0  0  0  0  0  0  0
   -7.7055   -6.2544    7.1253 C   0  0  0  0  0  0  0  0  0  0  0  0
   -7.0695   -7.4656    6.9134 C   0  0  0  0  0  0  0  0  0  0  0  0
   -7.8114   -8.6165    7.0146 C   0  0  0  0  0  0  0  0  0  0  0  0
   -9.1524   -8.5765    7.3181 C   0  0  0  0  0  0  0  0  0  0  0  0
  -10.1099  -10.0343    7.4504 Cl  0  0  0  0  0  0  0  0  0  0  0  0
  -11.1996   -6.4277   10.1672 C   0  0  0  0  0  0  0  0  0  0  0  0
  -11.8590   -5.9454   11.2692 C   0  0  0  0  0  0  0  0  0  0  0  0
  -11.2432   -5.5557   12.4518 C   0  0  0  0  0  0  0  0  0  0  0  0
   -9.8784   -5.6460   12.5545 C   0  0  0  0  0  0  0  0  0  0  0  0
   -9.1280   -5.1493   14.0526 Cl  0  0  0  0  0  0  0  0  0  0  0  0
   -9.1713   -6.1158   11.4928 C   0  0  0  0  0  0  0  0  0  0  0  0
   -9.8091   -6.5052   10.3102 C   0  0  0  0  0  0  0  0  0  0  0  0
  -15.0045   -6.6242    5.6970 N   0  0  0  0  0  0  0  0  0  0  0  0
  -14.5780   -7.6491    6.5669 C   0  0  0  0  0  0  0  0  0  0  0  0
  -15.2146   -8.6934    6.6909 O   0  0  0  0  0  0  0  0  0  0  0  0
  -14.3581   -5.7629    5.6795 H   0  0  0  0  0  0  0  0  0  0  0  0
  -14.9708   -8.2522    3.4466 C   0  0  0  0  0  0  0  0  0  0  0  0
  -16.1460   -7.4081    3.7275 C   0  0  0  0  0  0  0  0  0  0  0  0
  -17.2267   -7.4339    2.8690 C   0  0  0  0  0  0  0  0  0  0  0  0
  -18.3378   -6.6597    3.0931 C   0  0  0  0  0  0  0  0  0  0  0  0
  -18.3205   -5.8835    4.1795 N   0  0  0  0  0  0  0  0  0  0  0  0
  -17.2638   -5.8348    5.0517 C   0  0  0  0  0  0  0  0  0  0  0  0
  -16.1349   -6.5883    4.8696 C   0  0  0  0  0  0  0  0  0  0  0  0
  -14.3590   -6.8411    9.5567 C   0  0  0  0  0  0  0  0  0  0  0  0
  -14.5558   -8.1570   10.2799 C   0  0  0  0  0  0  0  0  0  0  0  0
  -13.7826   -9.2509    9.8550 N   0  0  0  0  0  0  0  0  0  0  0  0
  -15.3645   -8.2679   11.2086 O   0  0  0  0  0  0  0  0  0  0  0  0
  -13.7552   -9.5962    8.8522 H   0  0  0  0  0  0  0  0  0  0  0  0
  -13.1642   -9.8177   10.5089 H   0  0  0  0  0  0  0  0  0  0  0  0
 24 25  1  0  0  0
 25 26  2  0  0  0
 26 27  1  0  0  0
 27 28  2  0  0  0
 28 29  1  0  0  0
 29 30  2  0  0  0
 30 20  1  0  0  0
 20 21  1  0  0  0
 21 22  2  0  0  0
 21  1  1  0  0  0
  1  2  2  0  0  0
  2  3  1  0  0  0
  3  6  1  0  0  0
  6  7  2  0  0  0
  7  8  1  0  0  0
  8  9  2  0  0  0
  9 10  1  0  0  0
 10 11  2  0  0  0
 11 12  1  0  0  0
  3  4  1  0  0  0
  4 13  1  0  0  0
 13 14  2  0  0  0
 14 15  1  0  0  0
 15 16  2  0  0  0
 16 17  1  0  0  0
 16 18  1  0  0  0
 18 19  2  0  0  0
  4  5  2  0  0  0
  5 31  1  0  0  0
 31 32  1  0  0  0
 32 33  1  0  0  0
 32 34  2  0  0  0
 30 25  1  0  0  0
  5  1  1  0  0  0
 11  6  1  0  0  0
 19 13  1  0  0  0
 20 23  1  0  0  0
 33 35  1  0  0  0
 33 36  1  0  0  0
M  END
> <minimizedAffinity>
1.97009

> <CNNscore>
0.2008658051

> <CNNaffinity>
7.3746185303

> <CNN_VS>
1.4813086987

> <CNNaffinity_variance>
0.2493389398

$$$$
[H]c1nc([H])c(N([H])C(=O)c2nn(-c3c([H])c([H])c([H])c([H])c3Cl)c(-c3c([H])c([H])c(Cl)c([H])c3[H])c2C([H])([H])C(=O)N([H])[H])c(C([H])([H])[H])c1[H]


 36 39  0  0  0  0  0  0  0  0999 V2000
  -15.6705   -7.6458    7.3072 C   0  0  0  0  0  0  0  0  0  0  0  0
  -15.2564   -6.9511    8.3780 N   0  0  0  0  0  0  0  0  0  0  0  0
  -13.9244   -7.0015    8.5033 N   0  0  0  0  0  0  0  0  0  0  0  0
  -13.4017   -7.7554    7.4862 C   0  0  0  0  0  0  0  0  0  0  0  0
  -14.4969   -8.1488    6.7460 C   0  0  0  0  0  0  0  0  0  0  0  0
  -13.2861   -6.3617    9.5881 C   0  0  0  0  0  0  0  0  0  0  0  0
  -13.1493   -4.9933    9.5990 C   0  0  0  0  0  0  0  0  0  0  0  0
  -12.4958   -4.3416   10.6518 C   0  0  0  0  0  0  0  0  0  0  0  0
  -11.9716   -5.0660   11.7087 C   0  0  0  0  0  0  0  0  0  0  0  0
  -12.1106   -6.4320   11.6936 C   0  0  0  0  0  0  0  0  0  0  0  0
  -12.7524   -7.0723   10.6592 C   0  0  0  0  0  0  0  0  0  0  0  0
  -12.9370   -8.8114   10.6267 Cl  0  0  0  0  0  0  0  0  0  0  0  0
  -12.0078   -8.1555    7.3753 C   0  0  0  0  0  0  0  0  0  0  0  0
  -10.9332   -7.3529    7.6633 C   0  0  0  0  0  0  0  0  0  0  0  0
   -9.6092   -7.7731    7.6615 C   0  0  0  0  0  0  0  0  0  0  0  0
   -9.3239   -9.0783    7.3514 C   0  0  0  0  0  0  0  0  0  0  0  0
   -7.6504   -9.5818    7.3561 Cl  0  0  0  0  0  0  0  0  0  0  0  0
  -10.3492   -9.9205    7.0557 C   0  0  0  0  0  0  0  0  0  0  0  0
  -11.6769   -9.4796    7.0640 C   0  0  0  0  0  0  0  0  0  0  0  0
  -17.7264   -9.0027    7.2345 N   0  0  0  0  0  0  0  0  0  0  0  0
  -17.0569   -7.8176    6.8652 C   0  0  0  0  0  0  0  0  0  0  0  0
  -17.6103   -6.9491    6.1939 O   0  0  0  0  0  0  0  0  0  0  0  0
  -17.1314   -9.6807    7.8228 H   0  0  0  0  0  0  0  0  0  0  0  0
  -18.5655   -8.7346    4.6001 C   0  0  0  0  0  0  0  0  0  0  0  0
  -19.4861   -9.2784    5.6146 C   0  0  0  0  0  0  0  0  0  0  0  0
  -20.7626   -9.6542    5.2473 C   0  0  0  0  0  0  0  0  0  0  0  0
  -21.6511  -10.1608    6.1628 C   0  0  0  0  0  0  0  0  0  0  0  0
  -21.2198  -10.2712    7.4218 N   0  0  0  0  0  0  0  0  0  0  0  0
  -19.9590   -9.9072    7.8189 C   0  0  0  0  0  0  0  0  0  0  0  0
  -19.0388   -9.3975    6.9420 C   0  0  0  0  0  0  0  0  0  0  0  0
  -14.5150   -8.9179    5.4626 C   0  0  0  0  0  0  0  0  0  0  0  0
  -14.7648   -7.9043    4.3656 C   0  0  0  0  0  0  0  0  0  0  0  0
  -15.2502   -8.3859    3.1378 N   0  0  0  0  0  0  0  0  0  0  0  0
  -14.5511   -6.6990    4.5402 O   0  0  0  0  0  0  0  0  0  0  0  0
  -14.7724   -9.1486    2.5762 H   0  0  0  0  0  0  0  0  0  0  0  0
  -16.1366   -8.0209    2.6769 H   0  0  0  0  0  0  0  0  0  0  0  0
 24 25  1  0  0  0
 25 26  2  0  0  0
 26 27  1  0  0  0
 27 28  2  0  0  0
 28 29  1  0  0  0
 29 30  2  0  0  0
 30 20  1  0  0  0
 20 21  1  0  0  0
 21 22  2  0  0  0
 21  1  1  0  0  0
  1  2  2  0  0  0
  2  3  1  0  0  0
  3  6  1  0  0  0
  6  7  2  0  0  0
  7  8  1  0  0  0
  8  9  2  0  0  0
  9 10  1  0  0  0
 10 11  2  0  0  0
 11 12  1  0  0  0
  3  4  1  0  0  0
  4 13  1  0  0  0
 13 14  2  0  0  0
 14 15  1  0  0  0
 15 16  2  0  0  0
 16 17  1  0  0  0
 16 18  1  0  0  0
 18 19  2  0  0  0
  4  5  2  0  0  0
  5 31  1  0  0  0
 31 32  1  0  0  0
 32 33  1  0  0  0
 32 34  2  0  0  0
 30 25  1  0  0  0
  5  1  1  0  0  0
 11  6  1  0  0  0
 19 13  1  0  0  0
 20 23  1  0  0  0
 33 35  1  0  0  0
 33 36  1  0  0  0
M  END
> <minimizedAffinity>
-0.38243

> <CNNscore>
0.1977460682

> <CNNaffinity>
7.3252725601

> <CNN_VS>
1.4485439062

> <CNNaffinity_variance>
0.3421995640

$$$$
[H]c1nc([H])c(N([H])C(=O)c2nn(-c3c([H])c([H])c([H])c([H])c3Cl)c(-c3c([H])c([H])c(Cl)c([H])c3[H])c2C([H])([H])C(=O)N([H])[H])c(C([H])([H])[H])c1[H]


 36 39  0  0  0  0  0  0  0  0999 V2000
   -5.7996   -8.7622    7.5889 C   0  0  0  0  0  0  0  0  0  0  0  0
   -6.0435   -8.1329    6.4291 N   0  0  0  0  0  0  0  0  0  0  0  0
   -7.2372   -7.5268    6.4481 N   0  0  0  0  0  0  0  0  0  0  0  0
   -7.8368   -7.7444    7.6600 C   0  0  0  0  0  0  0  0  0  0  0  0
   -6.9322   -8.5118    8.3634 C   0  0  0  0  0  0  0  0  0  0  0  0
   -7.7024   -6.8338    5.3092 C   0  0  0  0  0  0  0  0  0  0  0  0
   -8.5147   -5.7336    5.4546 C   0  0  0  0  0  0  0  0  0  0  0  0
   -9.0089   -5.0486    4.3380 C   0  0  0  0  0  0  0  0  0  0  0  0
   -8.6878   -5.4678    3.0582 C   0  0  0  0  0  0  0  0  0  0  0  0
   -7.8766   -6.5667    2.9179 C   0  0  0  0  0  0  0  0  0  0  0  0
   -7.3911   -7.2398    4.0148 C   0  0  0  0  0  0  0  0  0  0  0  0
   -6.3567   -8.6408    3.8512 Cl  0  0  0  0  0  0  0  0  0  0  0  0
   -9.2007   -7.3672    7.9960 C   0  0  0  0  0  0  0  0  0  0  0  0
  -10.2967   -8.1824    7.8695 C   0  0  0  0  0  0  0  0  0  0  0  0
  -11.5785   -7.8560    8.2941 C   0  0  0  0  0  0  0  0  0  0  0  0
  -11.7956   -6.6370    8.8841 C   0  0  0  0  0  0  0  0  0  0  0  0
  -13.4170   -6.2506    9.4094 Cl  0  0  0  0  0  0  0  0  0  0  0  0
  -10.7464   -5.7860    9.0349 C   0  0  0  0  0  0  0  0  0  0  0  0
   -9.4619   -6.1327    8.6024 C   0  0  0  0  0  0  0  0  0  0  0  0
   -4.7190  -10.9374    8.0060 N   0  0  0  0  0  0  0  0  0  0  0  0
   -4.6001   -9.5346    7.9235 C   0  0  0  0  0  0  0  0  0  0  0  0
   -3.5281   -8.9673    8.1238 O   0  0  0  0  0  0  0  0  0  0  0  0
   -5.7102  -11.3088    7.8075 H   0  0  0  0  0  0  0  0  0  0  0  0
   -2.3872  -10.8441    6.4993 C   0  0  0  0  0  0  0  0  0  0  0  0
   -2.5389  -11.8566    7.5597 C   0  0  0  0  0  0  0  0  0  0  0  0
   -1.5171  -12.7531    7.7995 C   0  0  0  0  0  0  0  0  0  0  0  0
   -1.6212  -13.7134    8.7747 C   0  0  0  0  0  0  0  0  0  0  0  0
   -2.7567  -13.7363    9.4771 N   0  0  0  0  0  0  0  0  0  0  0  0
   -3.7899  -12.8605    9.2641 C   0  0  0  0  0  0  0  0  0  0  0  0
   -3.7316  -11.8865    8.3033 C   0  0  0  0  0  0  0  0  0  0  0  0
   -7.0208   -8.9718    9.7845 C   0  0  0  0  0  0  0  0  0  0  0  0
   -6.5696   -7.8037   10.6361 C   0  0  0  0  0  0  0  0  0  0  0  0
   -5.5039   -7.0248   10.1538 N   0  0  0  0  0  0  0  0  0  0  0  0
   -7.1155   -7.5428   11.7143 O   0  0  0  0  0  0  0  0  0  0  0  0
   -4.5607   -7.4258    9.8796 H   0  0  0  0  0  0  0  0  0  0  0  0
   -5.5622   -5.9704   10.0267 H   0  0  0  0  0  0  0  0  0  0  0  0
 24 25  1  0  0  0
 25 26  2  0  0  0
 26 27  1  0  0  0
 27 28  2  0  0  0
 28 29  1  0  0  0
 29 30  2  0  0  0
 30 20  1  0  0  0
 20 21  1  0  0  0
 21 22  2  0  0  0
 21  1  1  0  0  0
  1  2  2  0  0  0
  2  3  1  0  0  0
  3  6  1  0  0  0
  6  7  2  0  0  0
  7  8  1  0  0  0
  8  9  2  0  0  0
  9 10  1  0  0  0
 10 11  2  0  0  0
 11 12  1  0  0  0
  3  4  1  0  0  0
  4 13  1  0  0  0
 13 14  2  0  0  0
 14 15  1  0  0  0
 15 16  2  0  0  0
 16 17  1  0  0  0
 16 18  1  0  0  0
 18 19  2  0  0  0
  4  5  2  0  0  0
  5 31  1  0  0  0
 31 32  1  0  0  0
 32 33  1  0  0  0
 32 34  2  0  0  0
 30 25  1  0  0  0
  5  1  1  0  0  0
 11  6  1  0  0  0
 19 13  1  0  0  0
 20 23  1  0  0  0
 33 35  1  0  0  0
 33 36  1  0  0  0
M  END
> <minimizedAffinity>
29.61584

> <CNNscore>
0.1973554790

> <CNNaffinity>
5.9525732994

> <CNN_VS>
1.1747729778

> <CNNaffinity_variance>
0.5547745228

$$$$
[H]OC([H])([H])C([H])([H])n1c(C2([H])C([H])([H])C([H])([H])N(c3nc([H])nc(N([H])[H])c3C#N)C([H])([H])C2([H])[H])nc(-c2c([H])c([H])c(F)c(C([H])([H])[H])c2[H])c1[H]


 34 37  0  0  0  0  0  0  0  0999 V2000
  -11.5640   -7.1188    9.5015 C   0  0  0  0  0  0  0  0  0  0  0  0
  -12.5158   -7.0036    8.5160 C   0  0  0  0  0  0  0  0  0  0  0  0
  -12.1557   -7.8651    7.5124 N   0  0  0  0  0  0  0  0  0  0  0  0
  -11.0274   -8.4895    7.8590 C   0  0  0  0  0  0  0  0  0  0  0  0
  -10.6869   -8.0207    9.0704 N   0  0  0  0  0  0  0  0  0  0  0  0
   -9.3637   -5.6320   13.7391 C   0  0  0  0  0  0  0  0  0  0  0  0
  -10.5170   -5.6478   12.8061 C   0  0  0  0  0  0  0  0  0  0  0  0
  -10.4904   -6.3683   11.6116 C   0  0  0  0  0  0  0  0  0  0  0  0
  -11.5587   -6.3776   10.7561 C   0  0  0  0  0  0  0  0  0  0  0  0
  -12.6859   -5.6575   11.0848 C   0  0  0  0  0  0  0  0  0  0  0  0
  -12.7413   -4.9351   12.2599 C   0  0  0  0  0  0  0  0  0  0  0  0
  -11.6527   -4.9317   13.1213 C   0  0  0  0  0  0  0  0  0  0  0  0
  -11.7522   -4.2020   14.2742 F   0  0  0  0  0  0  0  0  0  0  0  0
  -10.2847   -9.4862    7.0912 C   0  0  0  0  0  0  0  0  0  0  0  0
   -9.3966   -8.8382    6.0465 C   0  0  0  0  0  0  0  0  0  0  0  0
   -8.3976   -9.9054    5.6750 C   0  0  0  0  0  0  0  0  0  0  0  0
   -9.1243  -11.0423    5.0647 N   0  0  0  0  0  0  0  0  0  0  0  0
  -10.3063  -11.5171    5.6962 C   0  0  0  0  0  0  0  0  0  0  0  0
  -11.1864  -10.4085    6.2983 C   0  0  0  0  0  0  0  0  0  0  0  0
   -8.5430  -11.5115    3.8602 C   0  0  0  0  0  0  0  0  0  0  0  0
   -8.1420  -10.6293    2.8906 N   0  0  0  0  0  0  0  0  0  0  0  0
   -7.6263  -11.0397    1.7293 C   0  0  0  0  0  0  0  0  0  0  0  0
   -7.4733  -12.3350    1.4500 N   0  0  0  0  0  0  0  0  0  0  0  0
   -7.8418  -13.2572    2.3491 C   0  0  0  0  0  0  0  0  0  0  0  0
   -7.6996  -14.6585    2.1001 N   0  0  0  0  0  0  0  0  0  0  0  0
   -8.3860  -12.8265    3.5763 C   0  0  0  0  0  0  0  0  0  0  0  0
   -8.3082  -15.1194    1.3680 H   0  0  0  0  0  0  0  0  0  0  0  0
   -7.0219  -15.2619    2.6046 H   0  0  0  0  0  0  0  0  0  0  0  0
   -8.7273  -13.8548    4.5297 C   0  0  0  0  0  0  0  0  0  0  0  0
   -8.9900  -14.7029    5.2771 N   0  0  0  0  0  0  0  0  0  0  0  0
  -12.9399   -8.0041    6.3214 C   0  0  0  0  0  0  0  0  0  0  0  0
  -14.1322   -8.8672    6.6090 C   0  0  0  0  0  0  0  0  0  0  0  0
  -14.2436   -9.3061    7.9029 O   0  0  0  0  0  0  0  0  0  0  0  0
  -15.1689   -9.2035    8.2768 H   0  0  0  0  0  0  0  0  0  0  0  0
  6  7  1  0  0  0
  7  8  2  0  0  0
  8  9  1  0  0  0
  9  1  1  0  0  0
  1  2  2  0  0  0
  2  3  1  0  0  0
  3 31  1  0  0  0
 31 32  1  0  0  0
 32 33  1  0  0  0
  3  4  1  0  0  0
  4 14  1  0  0  0
 14 15  1  0  0  0
 15 16  1  0  0  0
 16 17  1  0  0  0
 17 20  1  0  0  0
 20 21  2  0  0  0
 21 22  1  0  0  0
 22 23  2  0  0  0
 23 24  1  0  0  0
 24 25  1  0  0  0
 24 26  2  0  0  0
 26 29  1  0  0  0
 29 30  3  0  0  0
 17 18  1  0  0  0
 18 19  1  0  0  0
  4  5  2  0  0  0
  9 10  2  0  0  0
 10 11  1  0  0  0
 11 12  2  0  0  0
 12 13  1  0  0  0
 12  7  1  0  0  0
  5  1  1  0  0  0
 19 14  1  0  0  0
 26 20  1  0  0  0
 33 34  1  0  0  0
 25 27  1  0  0  0
 25 28  1  0  0  0
M  END
> <minimizedAffinity>
16.57499

> <CNNscore>
0.5980169773

> <CNNaffinity>
6.8532323837

> <CNN_VS>
4.0983490944

> <CNNaffinity_variance>
1.2484506369

$$$$
[H]OC([H])([H])C([H])([H])n1c(C2([H])C([H])([H])C([H])([H])N(c3nc([H])nc(N([H])[H])c3C#N)C([H])([H])C2([H])[H])nc(-c2c([H])c([H])c(F)c(C([H])([H])[H])c2[H])c1[H]


 34 37  0  0  0  0  0  0  0  0999 V2000
  -13.3309   -8.0532    8.5404 C   0  0  0  0  0  0  0  0  0  0  0  0
  -13.7945   -7.4872    7.3763 C   0  0  0  0  0  0  0  0  0  0  0  0
  -12.6981   -7.2301    6.5948 N   0  0  0  0  0  0  0  0  0  0  0  0
  -11.5990   -7.6195    7.2454 C   0  0  0  0  0  0  0  0  0  0  0  0
  -12.0076   -8.1161    8.4242 N   0  0  0  0  0  0  0  0  0  0  0  0
  -14.0231   -9.1184   13.3773 C   0  0  0  0  0  0  0  0  0  0  0  0
  -14.5208   -9.0037   11.9845 C   0  0  0  0  0  0  0  0  0  0  0  0
  -13.6969   -8.5876   10.9381 C   0  0  0  0  0  0  0  0  0  0  0  0
  -14.1638   -8.4842    9.6557 C   0  0  0  0  0  0  0  0  0  0  0  0
  -15.4790   -8.7992    9.3946 C   0  0  0  0  0  0  0  0  0  0  0  0
  -16.3179   -9.2138   10.4097 C   0  0  0  0  0  0  0  0  0  0  0  0
  -15.8352   -9.3155   11.7073 C   0  0  0  0  0  0  0  0  0  0  0  0
  -16.7021   -9.7303   12.6809 F   0  0  0  0  0  0  0  0  0  0  0  0
  -10.2129   -7.5308    6.7924 C   0  0  0  0  0  0  0  0  0  0  0  0
   -9.2382   -7.6743    7.9454 C   0  0  0  0  0  0  0  0  0  0  0  0
   -7.9205   -8.0149    7.2955 C   0  0  0  0  0  0  0  0  0  0  0  0
   -7.5062   -6.8784    6.4411 N   0  0  0  0  0  0  0  0  0  0  0  0
   -8.4679   -6.2848    5.5784 C   0  0  0  0  0  0  0  0  0  0  0  0
   -9.8788   -6.1856    6.1831 C   0  0  0  0  0  0  0  0  0  0  0  0
   -6.1556   -6.4892    6.6233 C   0  0  0  0  0  0  0  0  0  0  0  0
   -5.4333   -5.9711    5.5797 N   0  0  0  0  0  0  0  0  0  0  0  0
   -4.1486   -5.6305    5.7078 C   0  0  0  0  0  0  0  0  0  0  0  0
   -3.4973   -5.7767    6.8627 N   0  0  0  0  0  0  0  0  0  0  0  0
   -4.1373   -6.2761    7.9284 C   0  0  0  0  0  0  0  0  0  0  0  0
   -3.4861   -6.4537    9.1895 N   0  0  0  0  0  0  0  0  0  0  0  0
   -5.4939   -6.6360    7.7960 C   0  0  0  0  0  0  0  0  0  0  0  0
   -2.7352   -7.1923    9.2858 H   0  0  0  0  0  0  0  0  0  0  0  0
   -3.7108   -5.8903   10.0321 H   0  0  0  0  0  0  0  0  0  0  0  0
   -6.1521   -7.1282    8.9823 C   0  0  0  0  0  0  0  0  0  0  0  0
   -6.6555   -7.5181    9.9525 N   0  0  0  0  0  0  0  0  0  0  0  0
  -12.8212   -6.6397    5.2951 C   0  0  0  0  0  0  0  0  0  0  0  0
  -14.1318   -7.0429    4.6878 C   0  0  0  0  0  0  0  0  0  0  0  0
  -15.2152   -6.9741    5.5250 O   0  0  0  0  0  0  0  0  0  0  0  0
  -16.0122   -6.5332    5.1045 H   0  0  0  0  0  0  0  0  0  0  0  0
  6  7  1  0  0  0
  7  8  2  0  0  0
  8  9  1  0  0  0
  9  1  1  0  0  0
  1  2  2  0  0  0
  2  3  1  0  0  0
  3 31  1  0  0  0
 31 32  1  0  0  0
 32 33  1  0  0  0
  3  4  1  0  0  0
  4 14  1  0  0  0
 14 15  1  0  0  0
 15 16  1  0  0  0
 16 17  1  0  0  0
 17 20  1  0  0  0
 20 21  2  0  0  0
 21 22  1  0  0  0
 22 23  2  0  0  0
 23 24  1  0  0  0
 24 25  1  0  0  0
 24 26  2  0  0  0
 26 29  1  0  0  0
 29 30  3  0  0  0
 17 18  1  0  0  0
 18 19  1  0  0  0
  4  5  2  0  0  0
  9 10  2  0  0  0
 10 11  1  0  0  0
 11 12  2  0  0  0
 12 13  1  0  0  0
 12  7  1  0  0  0
  5  1  1  0  0  0
 19 14  1  0  0  0
 26 20  1  0  0  0
 33 34  1  0  0  0
 25 27  1  0  0  0
 25 28  1  0  0  0
M  END
> <minimizedAffinity>
13.58136

> <CNNscore>
0.3514296412

> <CNNaffinity>
6.7806496620

> <CNN_VS>
2.3829212189

> <CNNaffinity_variance>
1.9884999990

$$$$
[H]OC([H])([H])C([H])([H])n1c(C2([H])C([H])([H])C([H])([H])N(c3nc([H])nc(N([H])[H])c3C#N)C([H])([H])C2([H])[H])nc(-c2c([H])c([H])c(F)c(C([H])([H])[H])c2[H])c1[H]


 34 37  0  0  0  0  0  0  0  0999 V2000
  -11.0082   -7.6421    8.0948 C   0  0  0  0  0  0  0  0  0  0  0  0
  -11.3267   -7.0026    9.2696 C   0  0  0  0  0  0  0  0  0  0  0  0
  -12.6889   -6.8502    9.2830 N   0  0  0  0  0  0  0  0  0  0  0  0
  -13.1962   -7.3726    8.1637 C   0  0  0  0  0  0  0  0  0  0  0  0
  -12.1574   -7.8476    7.4577 N   0  0  0  0  0  0  0  0  0  0  0  0
   -7.5868   -8.5579    4.5643 C   0  0  0  0  0  0  0  0  0  0  0  0
   -7.9943   -8.4500    5.9867 C   0  0  0  0  0  0  0  0  0  0  0  0
   -9.2932   -8.1012    6.3580 C   0  0  0  0  0  0  0  0  0  0  0  0
   -9.6612   -8.0037    7.6727 C   0  0  0  0  0  0  0  0  0  0  0  0
   -8.7248   -8.2564    8.6506 C   0  0  0  0  0  0  0  0  0  0  0  0
   -7.4318   -8.6037    8.3135 C   0  0  0  0  0  0  0  0  0  0  0  0
   -7.0679   -8.7000    6.9773 C   0  0  0  0  0  0  0  0  0  0  0  0
   -5.7762   -9.0470    6.6901 F   0  0  0  0  0  0  0  0  0  0  0  0
  -14.5986   -7.4269    7.7577 C   0  0  0  0  0  0  0  0  0  0  0  0
  -15.4713   -8.0277    8.8428 C   0  0  0  0  0  0  0  0  0  0  0  0
  -16.8748   -7.6073    8.4849 C   0  0  0  0  0  0  0  0  0  0  0  0
  -17.2309   -8.2089    7.1793 N   0  0  0  0  0  0  0  0  0  0  0  0
  -16.2911   -8.1392    6.1147 C   0  0  0  0  0  0  0  0  0  0  0  0
  -14.8280   -8.3174    6.5548 C   0  0  0  0  0  0  0  0  0  0  0  0
  -18.5035   -8.8326    7.1657 C   0  0  0  0  0  0  0  0  0  0  0  0
  -19.0681   -9.2885    8.3287 N   0  0  0  0  0  0  0  0  0  0  0  0
  -20.2475   -9.9144    8.3454 C   0  0  0  0  0  0  0  0  0  0  0  0
  -20.9417  -10.1299    7.2270 N   0  0  0  0  0  0  0  0  0  0  0  0
  -20.4545   -9.7122    6.0510 C   0  0  0  0  0  0  0  0  0  0  0  0
  -21.1577   -9.9179    4.8227 N   0  0  0  0  0  0  0  0  0  0  0  0
  -19.2097   -9.0506    6.0307 C   0  0  0  0  0  0  0  0  0  0  0  0
  -21.2576  -10.8991    4.4404 H   0  0  0  0  0  0  0  0  0  0  0  0
  -21.5841   -9.1471    4.2732 H   0  0  0  0  0  0  0  0  0  0  0  0
  -18.7470   -8.5809    4.7469 C   0  0  0  0  0  0  0  0  0  0  0  0
  -18.4038   -8.1937    3.7081 N   0  0  0  0  0  0  0  0  0  0  0  0
  -13.3658   -6.2210   10.3778 C   0  0  0  0  0  0  0  0  0  0  0  0
  -12.9082   -4.7975   10.4935 C   0  0  0  0  0  0  0  0  0  0  0  0
  -13.9067   -3.8591   10.5353 O   0  0  0  0  0  0  0  0  0  0  0  0
  -13.7735   -3.1720   11.2541 H   0  0  0  0  0  0  0  0  0  0  0  0
  6  7  1  0  0  0
  7  8  2  0  0  0
  8  9  1  0  0  0
  9  1  1  0  0  0
  1  2  2  0  0  0
  2  3  1  0  0  0
  3 31  1  0  0  0
 31 32  1  0  0  0
 32 33  1  0  0  0
  3  4  1  0  0  0
  4 14  1  0  0  0
 14 15  1  0  0  0
 15 16  1  0  0  0
 16 17  1  0  0  0
 17 20  1  0  0  0
 20 21  2  0  0  0
 21 22  1  0  0  0
 22 23  2  0  0  0
 23 24  1  0  0  0
 24 25  1  0  0  0
 24 26  2  0  0  0
 26 29  1  0  0  0
 29 30  3  0  0  0
 17 18  1  0  0  0
 18 19  1  0  0  0
  4  5  2  0  0  0
  9 10  2  0  0  0
 10 11  1  0  0  0
 11 12  2  0  0  0
 12 13  1  0  0  0
 12  7  1  0  0  0
  5  1  1  0  0  0
 19 14  1  0  0  0
 26 20  1  0  0  0
 33 34  1  0  0  0
 25 27  1  0  0  0
 25 28  1  0  0  0
M  END
> <minimizedAffinity>
6.63251

> <CNNscore>
0.3368699253

> <CNNaffinity>
7.1694970131

> <CNN_VS>
2.4151878357

> <CNNaffinity_variance>
1.3454110622

$$$$
[H]OC([H])([H])C([H])([H])n1c(C2([H])C([H])([H])C([H])([H])N(c3nc([H])nc(N([H])[H])c3C#N)C([H])([H])C2([H])[H])nc(-c2c([H])c([H])c(F)c(C([H])([H])[H])c2[H])c1[H]


 34 37  0  0  0  0  0  0  0  0999 V2000
   -9.2250  -11.3734    5.1533 C   0  0  0  0  0  0  0  0  0  0  0  0
   -8.5054  -10.9035    6.2266 C   0  0  0  0  0  0  0  0  0  0  0  0
   -9.3554  -10.1199    6.9630 N   0  0  0  0  0  0  0  0  0  0  0  0
  -10.5529  -10.1029    6.3726 C   0  0  0  0  0  0  0  0  0  0  0  0
  -10.4501  -10.8709    5.2759 N   0  0  0  0  0  0  0  0  0  0  0  0
   -7.4461  -12.1786    0.5493 C   0  0  0  0  0  0  0  0  0  0  0  0
   -7.8447  -12.6605    1.8946 C   0  0  0  0  0  0  0  0  0  0  0  0
   -8.3395  -11.7960    2.8717 C   0  0  0  0  0  0  0  0  0  0  0  0
   -8.7050  -12.2485    4.1106 C   0  0  0  0  0  0  0  0  0  0  0  0
   -8.5804  -13.5900    4.3970 C   0  0  0  0  0  0  0  0  0  0  0  0
   -8.0940  -14.4692    3.4503 C   0  0  0  0  0  0  0  0  0  0  0  0
   -7.7258  -14.0008    2.1964 C   0  0  0  0  0  0  0  0  0  0  0  0
   -7.2491  -14.9079    1.2901 F   0  0  0  0  0  0  0  0  0  0  0  0
  -11.7544   -9.3944    6.8074 C   0  0  0  0  0  0  0  0  0  0  0  0
  -12.9818   -9.8570    6.0459 C   0  0  0  0  0  0  0  0  0  0  0  0
  -14.1496   -9.4008    6.8843 C   0  0  0  0  0  0  0  0  0  0  0  0
  -14.1388   -7.9211    6.9459 N   0  0  0  0  0  0  0  0  0  0  0  0
  -12.9104   -7.2562    7.2112 C   0  0  0  0  0  0  0  0  0  0  0  0
  -11.6868   -7.9053    6.5422 C   0  0  0  0  0  0  0  0  0  0  0  0
  -15.4009   -7.3293    6.6894 C   0  0  0  0  0  0  0  0  0  0  0  0
  -15.5618   -6.4580    5.6434 N   0  0  0  0  0  0  0  0  0  0  0  0
  -16.7272   -5.8542    5.3977 C   0  0  0  0  0  0  0  0  0  0  0  0
  -17.8008   -6.0678    6.1599 N   0  0  0  0  0  0  0  0  0  0  0  0
  -17.7210   -6.9075    7.2007 C   0  0  0  0  0  0  0  0  0  0  0  0
  -18.8414   -7.1717    8.0496 N   0  0  0  0  0  0  0  0  0  0  0  0
  -16.4919   -7.5468    7.4619 C   0  0  0  0  0  0  0  0  0  0  0  0
  -19.2019   -6.4072    8.6854 H   0  0  0  0  0  0  0  0  0  0  0  0
  -19.3314   -8.0866    8.0797 H   0  0  0  0  0  0  0  0  0  0  0  0
  -16.4668   -8.4750    8.5667 C   0  0  0  0  0  0  0  0  0  0  0  0
  -16.4680   -9.2387    9.4406 N   0  0  0  0  0  0  0  0  0  0  0  0
   -8.9286   -9.4705    8.1667 C   0  0  0  0  0  0  0  0  0  0  0  0
   -7.7897   -8.5456    7.8559 C   0  0  0  0  0  0  0  0  0  0  0  0
   -8.0340   -7.6187    6.8758 O   0  0  0  0  0  0  0  0  0  0  0  0
   -7.7323   -6.6941    7.1222 H   0  0  0  0  0  0  0  0  0  0  0  0
  6  7  1  0  0  0
  7  8  2  0  0  0
  8  9  1  0  0  0
  9  1  1  0  0  0
  1  2  2  0  0  0
  2  3  1  0  0  0
  3 31  1  0  0  0
 31 32  1  0  0  0
 32 33  1  0  0  0
  3  4  1  0  0  0
  4 14  1  0  0  0
 14 15  1  0  0  0
 15 16  1  0  0  0
 16 17  1  0  0  0
 17 20  1  0  0  0
 20 21  2  0  0  0
 21 22  1  0  0  0
 22 23  2  0  0  0
 23 24  1  0  0  0
 24 25  1  0  0  0
 24 26  2  0  0  0
 26 29  1  0  0  0
 29 30  3  0  0  0
 17 18  1  0  0  0
 18 19  1  0  0  0
  4  5  2  0  0  0
  9 10  2  0  0  0
 10 11  1  0  0  0
 11 12  2  0  0  0
 12 13  1  0  0  0
 12  7  1  0  0  0
  5  1  1  0  0  0
 19 14  1  0  0  0
 26 20  1  0  0  0
 33 34  1  0  0  0
 25 27  1  0  0  0
 25 28  1  0  0  0
M  END
> <minimizedAffinity>
10.20419

> <CNNscore>
0.2127986699

> <CNNaffinity>
6.5581116676

> <CNN_VS>
1.3955574036

> <CNNaffinity_variance>
0.4054136276

$$$$
[H]OC([H])([H])C([H])([H])n1c(C2([H])C([H])([H])C([H])([H])N(c3nc([H])nc(N([H])[H])c3C#N)C([H])([H])C2([H])[H])nc(-c2c([H])c([H])c(F)c(C([H])([H])[H])c2[H])c1[H]


 34 37  0  0  0  0  0  0  0  0999 V2000
  -17.3231   -8.3238    6.6034 C   0  0  0  0  0  0  0  0  0  0  0  0
  -17.3659   -7.1703    5.8562 C   0  0  0  0  0  0  0  0  0  0  0  0
  -16.0735   -6.7329    5.7253 N   0  0  0  0  0  0  0  0  0  0  0  0
  -15.2611   -7.5785    6.3641 C   0  0  0  0  0  0  0  0  0  0  0  0
  -16.0418   -8.5364    6.8894 N   0  0  0  0  0  0  0  0  0  0  0  0
  -21.6827  -10.5449    5.5690 C   0  0  0  0  0  0  0  0  0  0  0  0
  -20.5851  -10.2028    6.5066 C   0  0  0  0  0  0  0  0  0  0  0  0
  -19.4894   -9.4345    6.1116 C   0  0  0  0  0  0  0  0  0  0  0  0
  -18.4807   -9.1234    6.9828 C   0  0  0  0  0  0  0  0  0  0  0  0
  -18.5515   -9.5809    8.2800 C   0  0  0  0  0  0  0  0  0  0  0  0
  -19.6234  -10.3431    8.6996 C   0  0  0  0  0  0  0  0  0  0  0  0
  -20.6417  -10.6536    7.8087 C   0  0  0  0  0  0  0  0  0  0  0  0
  -21.6839  -11.4113    8.2682 F   0  0  0  0  0  0  0  0  0  0  0  0
  -13.8075   -7.5003    6.4884 C   0  0  0  0  0  0  0  0  0  0  0  0
  -13.1567   -8.8563    6.2944 C   0  0  0  0  0  0  0  0  0  0  0  0
  -11.7096   -8.5502    5.9997 C   0  0  0  0  0  0  0  0  0  0  0  0
  -11.1159   -7.8854    7.1824 N   0  0  0  0  0  0  0  0  0  0  0  0
  -11.8381   -6.8344    7.8110 C   0  0  0  0  0  0  0  0  0  0  0  0
  -13.3584   -7.0615    7.8662 C   0  0  0  0  0  0  0  0  0  0  0  0
   -9.8653   -8.4257    7.5738 C   0  0  0  0  0  0  0  0  0  0  0  0
   -9.6651   -9.7817    7.5838 N   0  0  0  0  0  0  0  0  0  0  0  0
   -8.5123  -10.3244    7.9834 C   0  0  0  0  0  0  0  0  0  0  0  0
   -7.4903   -9.5727    8.3956 N   0  0  0  0  0  0  0  0  0  0  0  0
   -7.6108   -8.2386    8.4131 C   0  0  0  0  0  0  0  0  0  0  0  0
   -6.5465   -7.3867    8.8459 N   0  0  0  0  0  0  0  0  0  0  0  0
   -8.8267   -7.6631    7.9911 C   0  0  0  0  0  0  0  0  0  0  0  0
   -6.2686   -7.3817    9.8664 H   0  0  0  0  0  0  0  0  0  0  0  0
   -6.0204   -6.7608    8.2061 H   0  0  0  0  0  0  0  0  0  0  0  0
   -8.8935   -6.2215    7.9864 C   0  0  0  0  0  0  0  0  0  0  0  0
   -8.9254   -5.0615    8.0046 N   0  0  0  0  0  0  0  0  0  0  0  0
  -15.7508   -5.5456    4.9912 C   0  0  0  0  0  0  0  0  0  0  0  0
  -16.6413   -5.4469    3.7886 C   0  0  0  0  0  0  0  0  0  0  0  0
  -16.8577   -4.1775    3.3182 O   0  0  0  0  0  0  0  0  0  0  0  0
  -16.7644   -4.1039    2.3220 H   0  0  0  0  0  0  0  0  0  0  0  0
  6  7  1  0  0  0
  7  8  2  0  0  0
  8  9  1  0  0  0
  9  1  1  0  0  0
  1  2  2  0  0  0
  2  3  1  0  0  0
  3 31  1  0  0  0
 31 32  1  0  0  0
 32 33  1  0  0  0
  3  4  1  0  0  0
  4 14  1  0  0  0
 14 15  1  0  0  0
 15 16  1  0  0  0
 16 17  1  0  0  0
 17 20  1  0  0  0
 20 21  2  0  0  0
 21 22  1  0  0  0
 22 23  2  0  0  0
 23 24  1  0  0  0
 24 25  1  0  0  0
 24 26  2  0  0  0
 26 29  1  0  0  0
 29 30  3  0  0  0
 17 18  1  0  0  0
 18 19  1  0  0  0
  4  5  2  0  0  0
  9 10  2  0  0  0
 10 11  1  0  0  0
 11 12  2  0  0  0
 12 13  1  0  0  0
 12  7  1  0  0  0
  5  1  1  0  0  0
 19 14  1  0  0  0
 26 20  1  0  0  0
 33 34  1  0  0  0
 25 27  1  0  0  0
 25 28  1  0  0  0
M  END
> <minimizedAffinity>
4.99708

> <CNNscore>
0.1791132092

> <CNNaffinity>
6.8918123245

> <CNN_VS>
1.2344145775

> <CNNaffinity_variance>
1.3477463722

$$$$
[H]OC([H])([H])C([H])([H])n1c(C2([H])C([H])([H])C([H])([H])N(c3nc([H])nc(N([H])[H])c3C#N)C([H])([H])C2([H])[H])nc(-c2c([H])c([H])c(F)c(C([H])([H])[H])c2[H])c1[H]


 34 37  0  0  0  0  0  0  0  0999 V2000
   -3.1901   -4.9273    5.1809 C   0  0  0  0  0  0  0  0  0  0  0  0
   -2.3904   -5.9548    5.6229 C   0  0  0  0  0  0  0  0  0  0  0  0
   -3.2165   -6.8769    6.2114 N   0  0  0  0  0  0  0  0  0  0  0  0
   -4.4767   -6.4413    6.1386 C   0  0  0  0  0  0  0  0  0  0  0  0
   -4.4363   -5.2559    5.5089 N   0  0  0  0  0  0  0  0  0  0  0  0
   -3.6126   -1.4185    1.6426 C   0  0  0  0  0  0  0  0  0  0  0  0
   -2.9031   -2.0292    2.7935 C   0  0  0  0  0  0  0  0  0  0  0  0
   -3.3802   -3.1749    3.4313 C   0  0  0  0  0  0  0  0  0  0  0  0
   -2.7197   -3.7321    4.4926 C   0  0  0  0  0  0  0  0  0  0  0  0
   -1.5564   -3.1459    4.9398 C   0  0  0  0  0  0  0  0  0  0  0  0
   -1.0600   -2.0118    4.3287 C   0  0  0  0  0  0  0  0  0  0  0  0
   -1.7370   -1.4538    3.2529 C   0  0  0  0  0  0  0  0  0  0  0  0
   -1.2085   -0.3303    2.6784 F   0  0  0  0  0  0  0  0  0  0  0  0
   -5.6808   -7.0993    6.6401 C   0  0  0  0  0  0  0  0  0  0  0  0
   -6.9371   -6.4967    6.0412 C   0  0  0  0  0  0  0  0  0  0  0  0
   -8.0103   -7.5296    6.2781 C   0  0  0  0  0  0  0  0  0  0  0  0
   -8.1934   -7.6957    7.7383 N   0  0  0  0  0  0  0  0  0  0  0  0
   -7.0418   -7.8235    8.5622 C   0  0  0  0  0  0  0  0  0  0  0  0
   -5.8609   -6.9355    8.1344 C   0  0  0  0  0  0  0  0  0  0  0  0
   -9.5493   -7.6726    8.1504 C   0  0  0  0  0  0  0  0  0  0  0  0
  -10.0520   -6.5939    8.8308 N   0  0  0  0  0  0  0  0  0  0  0  0
  -11.3137   -6.5568    9.2664 C   0  0  0  0  0  0  0  0  0  0  0  0
  -12.1553   -7.5712    9.0616 N   0  0  0  0  0  0  0  0  0  0  0  0
  -11.7364   -8.6601    8.4031 C   0  0  0  0  0  0  0  0  0  0  0  0
  -12.5973   -9.7754    8.1570 N   0  0  0  0  0  0  0  0  0  0  0  0
  -10.4049   -8.7016    7.9416 C   0  0  0  0  0  0  0  0  0  0  0  0
  -12.9101  -10.3780    8.9680 H   0  0  0  0  0  0  0  0  0  0  0  0
  -12.9402  -10.0341    7.2117 H   0  0  0  0  0  0  0  0  0  0  0  0
  -10.0129   -9.8760    7.2001 C   0  0  0  0  0  0  0  0  0  0  0  0
   -9.7146  -10.8378    6.6232 N   0  0  0  0  0  0  0  0  0  0  0  0
   -2.7078   -8.0897    6.7798 C   0  0  0  0  0  0  0  0  0  0  0  0
   -1.7689   -7.7579    7.9012 C   0  0  0  0  0  0  0  0  0  0  0  0
   -1.4404   -8.8042    8.7238 O   0  0  0  0  0  0  0  0  0  0  0  0
   -0.4579   -8.8605    8.9185 H   0  0  0  0  0  0  0  0  0  0  0  0
  6  7  1  0  0  0
  7  8  2  0  0  0
  8  9  1  0  0  0
  9  1  1  0  0  0
  1  2  2  0  0  0
  2  3  1  0  0  0
  3 31  1  0  0  0
 31 32  1  0  0  0
 32 33  1  0  0  0
  3  4  1  0  0  0
  4 14  1  0  0  0
 14 15  1  0  0  0
 15 16  1  0  0  0
 16 17  1  0  0  0
 17 20  1  0  0  0
 20 21  2  0  0  0
 21 22  1  0  0  0
 22 23  2  0  0  0
 23 24  1  0  0  0
 24 25  1  0  0  0
 24 26  2  0  0  0
 26 29  1  0  0  0
 29 30  3  0  0  0
 17 18  1  0  0  0
 18 19  1  0  0  0
  4  5  2  0  0  0
  9 10  2  0  0  0
 10 11  1  0  0  0
 11 12  2  0  0  0
 12 13  1  0  0  0
 12  7  1  0  0  0
  5  1  1  0  0  0
 19 14  1  0  0  0
 26 20  1  0  0  0
 33 34  1  0  0  0
 25 27  1  0  0  0
 25 28  1  0  0  0
M  END
> <minimizedAffinity>
-6.40959

> <CNNscore>
0.1732469201

> <CNNaffinity>
6.2373991013

> <CNN_VS>
1.0806101561

> <CNNaffinity_variance>
0.0145255625

$$$$
[H]OC([H])([H])C([H])([H])n1c(C2([H])C([H])([H])C([H])([H])N(c3nc([H])nc(N([H])[H])c3C#N)C([H])([H])C2([H])[H])nc(-c2c([H])c([H])c(F)c(C([H])([H])[H])c2[H])c1[H]


 34 37  0  0  0  0  0  0  0  0999 V2000
   -3.5314   -5.1672    5.5632 C   0  0  0  0  0  0  0  0  0  0  0  0
   -2.9006   -5.5400    6.7267 C   0  0  0  0  0  0  0  0  0  0  0  0
   -3.8636   -6.0597    7.5523 N   0  0  0  0  0  0  0  0  0  0  0  0
   -5.0434   -6.0120    6.9288 C   0  0  0  0  0  0  0  0  0  0  0  0
   -4.8173   -5.4665    5.7227 N   0  0  0  0  0  0  0  0  0  0  0  0
   -1.0601   -5.4892    1.2274 C   0  0  0  0  0  0  0  0  0  0  0  0
   -1.6851   -4.6970    2.3150 C   0  0  0  0  0  0  0  0  0  0  0  0
   -2.3035   -5.3039    3.4087 C   0  0  0  0  0  0  0  0  0  0  0  0
   -2.8779   -4.5658    4.4079 C   0  0  0  0  0  0  0  0  0  0  0  0
   -2.8431   -3.1912    4.3296 C   0  0  0  0  0  0  0  0  0  0  0  0
   -2.2383   -2.5626    3.2595 C   0  0  0  0  0  0  0  0  0  0  0  0
   -1.6584   -3.3197    2.2507 C   0  0  0  0  0  0  0  0  0  0  0  0
   -1.0704   -2.6544    1.2099 F   0  0  0  0  0  0  0  0  0  0  0  0
   -6.3409   -6.4534    7.4348 C   0  0  0  0  0  0  0  0  0  0  0  0
   -6.5266   -7.9491    7.2661 C   0  0  0  0  0  0  0  0  0  0  0  0
   -7.6492   -8.3063    8.2080 C   0  0  0  0  0  0  0  0  0  0  0  0
   -8.8777   -7.6062    7.7675 N   0  0  0  0  0  0  0  0  0  0  0  0
   -8.7946   -6.2291    7.4240 C   0  0  0  0  0  0  0  0  0  0  0  0
   -7.5039   -5.8429    6.6817 C   0  0  0  0  0  0  0  0  0  0  0  0
  -10.0218   -8.4409    7.7107 C   0  0  0  0  0  0  0  0  0  0  0  0
   -9.9990   -9.6054    6.9877 N   0  0  0  0  0  0  0  0  0  0  0  0
  -11.0710  -10.3946    6.8824 C   0  0  0  0  0  0  0  0  0  0  0  0
  -12.2254  -10.0906    7.4775 N   0  0  0  0  0  0  0  0  0  0  0  0
  -12.3244   -8.9684    8.2025 C   0  0  0  0  0  0  0  0  0  0  0  0
  -13.5383   -8.5955    8.8607 N   0  0  0  0  0  0  0  0  0  0  0  0
  -11.1939   -8.1337    8.3158 C   0  0  0  0  0  0  0  0  0  0  0  0
  -14.3735   -8.3030    8.2814 H   0  0  0  0  0  0  0  0  0  0  0  0
  -13.6508   -8.5946    9.8929 H   0  0  0  0  0  0  0  0  0  0  0  0
  -11.3363   -6.9594    9.1424 C   0  0  0  0  0  0  0  0  0  0  0  0
  -11.4795   -6.0242    9.8146 N   0  0  0  0  0  0  0  0  0  0  0  0
   -3.5478   -6.5563    8.8586 C   0  0  0  0  0  0  0  0  0  0  0  0
   -2.4087   -5.7654    9.4295 C   0  0  0  0  0  0  0  0  0  0  0  0
   -2.3784   -5.6790   10.7973 O   0  0  0  0  0  0  0  0  0  0  0  0
   -1.4686   -5.8497   11.1841 H   0  0  0  0  0  0  0  0  0  0  0  0
  6  7  1  0  0  0
  7  8  2  0  0  0
  8  9  1  0  0  0
  9  1  1  0  0  0
  1  2  2  0  0  0
  2  3  1  0  0  0
  3 31  1  0  0  0
 31 32  1  0  0  0
 32 33  1  0  0  0
  3  4  1  0  0  0
  4 14  1  0  0  0
 14 15  1  0  0  0
 15 16  1  0  0  0
 16 17  1  0  0  0
 17 20  1  0  0  0
 20 21  2  0  0  0
 21 22  1  0  0  0
 22 23  2  0  0  0
 23 24  1  0  0  0
 24 25  1  0  0  0
 24 26  2  0  0  0
 26 29  1  0  0  0
 29 30  3  0  0  0
 17 18  1  0  0  0
 18 19  1  0  0  0
  4  5  2  0  0  0
  9 10  2  0  0  0
 10 11  1  0  0  0
 11 12  2  0  0  0
 12 13  1  0  0  0
 12  7  1  0  0  0
  5  1  1  0  0  0
 19 14  1  0  0  0
 26 20  1  0  0  0
 33 34  1  0  0  0
 25 27  1  0  0  0
 25 28  1  0  0  0
M  END
> <minimizedAffinity>
-5.23659

> <CNNscore>
0.1564530283

> <CNNaffinity>
6.4033269882

> <CNN_VS>
1.0018198490

> <CNNaffinity_variance>
0.3233336806

$$$$
[H]OC([H])([H])C([H])([H])n1c(C2([H])C([H])([H])C([H])([H])N(c3nc([H])nc(N([H])[H])c3C#N)C([H])([H])C2([H])[H])nc(-c2c([H])c([H])c(F)c(C([H])([H])[H])c2[H])c1[H]


 34 37  0  0  0  0  0  0  0  0999 V2000
   -3.5170   -4.6175    5.3644 C   0  0  0  0  0  0  0  0  0  0  0  0
   -2.6987   -5.0438    6.3838 C   0  0  0  0  0  0  0  0  0  0  0  0
   -3.3674   -6.0456    7.0383 N   0  0  0  0  0  0  0  0  0  0  0  0
   -4.5516   -6.2342    6.4509 C   0  0  0  0  0  0  0  0  0  0  0  0
   -4.6205   -5.3562    5.4372 N   0  0  0  0  0  0  0  0  0  0  0  0
   -4.2331   -0.0663    3.4195 C   0  0  0  0  0  0  0  0  0  0  0  0
   -3.5236   -1.3685    3.4606 C   0  0  0  0  0  0  0  0  0  0  0  0
   -3.8555   -2.3612    4.3832 C   0  0  0  0  0  0  0  0  0  0  0  0
   -3.1959   -3.5600    4.4147 C   0  0  0  0  0  0  0  0  0  0  0  0
   -2.1806   -3.7894    3.5127 C   0  0  0  0  0  0  0  0  0  0  0  0
   -1.8300   -2.8260    2.5881 C   0  0  0  0  0  0  0  0  0  0  0  0
   -2.5047   -1.6130    2.5640 C   0  0  0  0  0  0  0  0  0  0  0  0
   -2.1235   -0.6882    1.6308 F   0  0  0  0  0  0  0  0  0  0  0  0
   -5.5896   -7.1942    6.8189 C   0  0  0  0  0  0  0  0  0  0  0  0
   -6.6549   -7.3039    5.7450 C   0  0  0  0  0  0  0  0  0  0  0  0
   -7.3647   -8.6020    6.0380 C   0  0  0  0  0  0  0  0  0  0  0  0
   -8.0141   -8.4976    7.3649 N   0  0  0  0  0  0  0  0  0  0  0  0
   -7.2701   -7.9593    8.4504 C   0  0  0  0  0  0  0  0  0  0  0  0
   -6.3508   -6.7885    8.0633 C   0  0  0  0  0  0  0  0  0  0  0  0
   -9.3621   -8.9355    7.3774 C   0  0  0  0  0  0  0  0  0  0  0  0
   -9.7005  -10.1622    6.8676 N   0  0  0  0  0  0  0  0  0  0  0  0
  -10.9653  -10.5886    6.8294 C   0  0  0  0  0  0  0  0  0  0  0  0
  -11.9705   -9.8407    7.2870 N   0  0  0  0  0  0  0  0  0  0  0  0
  -11.7177   -8.6297    7.8010 C   0  0  0  0  0  0  0  0  0  0  0  0
  -12.7582   -7.7876    8.3050 N   0  0  0  0  0  0  0  0  0  0  0  0
  -10.3831   -8.1773    7.8432 C   0  0  0  0  0  0  0  0  0  0  0  0
  -13.4544   -7.3636    7.6310 H   0  0  0  0  0  0  0  0  0  0  0  0
  -12.8733   -7.5631    9.3122 H   0  0  0  0  0  0  0  0  0  0  0  0
  -10.1560   -6.8856    8.4453 C   0  0  0  0  0  0  0  0  0  0  0  0
   -9.9735   -5.8340    8.9012 N   0  0  0  0  0  0  0  0  0  0  0  0
   -2.7939   -6.7251    8.1617 C   0  0  0  0  0  0  0  0  0  0  0  0
   -2.5696   -5.7450    9.2744 C   0  0  0  0  0  0  0  0  0  0  0  0
   -3.7050   -5.2574    9.8679 O   0  0  0  0  0  0  0  0  0  0  0  0
   -3.6597   -5.2606   10.8701 H   0  0  0  0  0  0  0  0  0  0  0  0
  6  7  1  0  0  0
  7  8  2  0  0  0
  8  9  1  0  0  0
  9  1  1  0  0  0
  1  2  2  0  0  0
  2  3  1  0  0  0
  3 31  1  0  0  0
 31 32  1  0  0  0
 32 33  1  0  0  0
  3  4  1  0  0  0
  4 14  1  0  0  0
 14 15  1  0  0  0
 15 16  1  0  0  0
 16 17  1  0  0  0
 17 20  1  0  0  0
 20 21  2  0  0  0
 21 22  1  0  0  0
 22 23  2  0  0  0
 23 24  1  0  0  0
 24 25  1  0  0  0
 24 26  2  0  0  0
 26 29  1  0  0  0
 29 30  3  0  0  0
 17 18  1  0  0  0
 18 19  1  0  0  0
  4  5  2  0  0  0
  9 10  2  0  0  0
 10 11  1  0  0  0
 11 12  2  0  0  0
 12 13  1  0  0  0
 12  7  1  0  0  0
  5  1  1  0  0  0
 19 14  1  0  0  0
 26 20  1  0  0  0
 33 34  1  0  0  0
 25 27  1  0  0  0
 25 28  1  0  0  0
M  END
> <minimizedAffinity>
-5.88535

> <CNNscore>
0.1042546406

> <CNNaffinity>
6.1030769348

> <CNN_VS>
0.6362740993

> <CNNaffinity_variance>
0.0169616155

$$$$
[H]OC([H])([H])C([H])([H])n1c(C2([H])C([H])([H])C([H])([H])N(c3nc([H])nc(N([H])[H])c3C#N)C([H])([H])C2([H])[H])nc(-c2c([H])c([H])c(F)c(C([H])([H])[H])c2[H])c1[H]


 34 37  0  0  0  0  0  0  0  0999 V2000
   -9.3971   -7.6481    7.9953 C   0  0  0  0  0  0  0  0  0  0  0  0
   -9.8500   -7.1545    9.1961 C   0  0  0  0  0  0  0  0  0  0  0  0
  -11.2175   -7.2460    9.1735 N   0  0  0  0  0  0  0  0  0  0  0  0
  -11.5990   -7.7739    8.0079 C   0  0  0  0  0  0  0  0  0  0  0  0
  -10.4771   -8.0101    7.3089 N   0  0  0  0  0  0  0  0  0  0  0  0
   -4.5965   -6.3092    8.4093 C   0  0  0  0  0  0  0  0  0  0  0  0
   -5.6768   -7.1069    7.7787 C   0  0  0  0  0  0  0  0  0  0  0  0
   -7.0075   -6.9979    8.1837 C   0  0  0  0  0  0  0  0  0  0  0  0
   -7.9983   -7.7376    7.5968 C   0  0  0  0  0  0  0  0  0  0  0  0
   -7.6711   -8.6097    6.5822 C   0  0  0  0  0  0  0  0  0  0  0  0
   -6.3630   -8.7389    6.1602 C   0  0  0  0  0  0  0  0  0  0  0  0
   -5.3649   -7.9845    6.7616 C   0  0  0  0  0  0  0  0  0  0  0  0
   -4.0832   -8.1452    6.3111 F   0  0  0  0  0  0  0  0  0  0  0  0
  -12.9601   -8.0474    7.5528 C   0  0  0  0  0  0  0  0  0  0  0  0
  -13.0995   -7.8464    6.0560 C   0  0  0  0  0  0  0  0  0  0  0  0
  -14.3643   -8.5796    5.6852 C   0  0  0  0  0  0  0  0  0  0  0  0
  -15.5050   -7.9348    6.3755 N   0  0  0  0  0  0  0  0  0  0  0  0
  -15.3772   -7.6133    7.7545 C   0  0  0  0  0  0  0  0  0  0  0  0
  -13.9815   -7.1059    8.1551 C   0  0  0  0  0  0  0  0  0  0  0  0
  -16.6140   -7.6797    5.5305 C   0  0  0  0  0  0  0  0  0  0  0  0
  -17.6049   -8.6149    5.3805 N   0  0  0  0  0  0  0  0  0  0  0  0
  -18.6430   -8.4218    4.5632 C   0  0  0  0  0  0  0  0  0  0  0  0
  -18.7716   -7.3040    3.8467 N   0  0  0  0  0  0  0  0  0  0  0  0
  -17.8428   -6.3432    3.9411 C   0  0  0  0  0  0  0  0  0  0  0  0
  -17.9322   -5.1261    3.1951 N   0  0  0  0  0  0  0  0  0  0  0  0
  -16.7460   -6.5444    4.8038 C   0  0  0  0  0  0  0  0  0  0  0  0
  -17.8090   -5.1514    2.1449 H   0  0  0  0  0  0  0  0  0  0  0  0
  -18.1142   -4.2016    3.6311 H   0  0  0  0  0  0  0  0  0  0  0  0
  -15.7949   -5.4636    4.9049 C   0  0  0  0  0  0  0  0  0  0  0  0
  -15.0303   -4.5920    4.9552 N   0  0  0  0  0  0  0  0  0  0  0  0
  -12.0193   -6.8203   10.2819 C   0  0  0  0  0  0  0  0  0  0  0  0
  -11.9689   -5.3252   10.3872 C   0  0  0  0  0  0  0  0  0  0  0  0
  -13.1786   -4.7060   10.5676 O   0  0  0  0  0  0  0  0  0  0  0  0
  -13.1613   -4.0067   11.2867 H   0  0  0  0  0  0  0  0  0  0  0  0
  6  7  1  0  0  0
  7  8  2  0  0  0
  8  9  1  0  0  0
  9  1  1  0  0  0
  1  2  2  0  0  0
  2  3  1  0  0  0
  3 31  1  0  0  0
 31 32  1  0  0  0
 32 33  1  0  0  0
  3  4  1  0  0  0
  4 14  1  0  0  0
 14 15  1  0  0  0
 15 16  1  0  0  0
 16 17  1  0  0  0
 17 20  1  0  0  0
 20 21  2  0  0  0
 21 22  1  0  0  0
 22 23  2  0  0  0
 23 24  1  0  0  0
 24 25  1  0  0  0
 24 26  2  0  0  0
 26 29  1  0  0  0
 29 30  3  0  0  0
 17 18  1  0  0  0
 18 19  1  0  0  0
  4  5  2  0  0  0
  9 10  2  0  0  0
 10 11  1  0  0  0
 11 12  2  0  0  0
 12 13  1  0  0  0
 12  7  1  0  0  0
  5  1  1  0  0  0
 19 14  1  0  0  0
 26 20  1  0  0  0
 33 34  1  0  0  0
 25 27  1  0  0  0
 25 28  1  0  0  0
M  END
> <minimizedAffinity>
-8.06431

> <CNNscore>
0.0954818577

> <CNNaffinity>
7.0452919006

> <CNN_VS>
0.6726975441

> <CNNaffinity_variance>
0.1560464799

$$$$
[H]Cl.[H]O[C@]([H])(C(=O)N([H])[C@]([H])(C(=O)OC([H])([H])n1c([H])c(F)c(=O)n([H])c1=O)C([H])([H])C([H])(C([H])([H])[H])C([H])([H])[H])[C@]([H])(N([H])[H])C([H])([H])c1c([H])c([H])c([H])c([H])c1[H]


 37 38  0  0  0  0  0  0  0  0999 V2000
  -11.2630   -7.4770    8.0162 C   0  0  0  0  0  0  0  0  0  0  0  0
  -12.4663   -8.3012    7.8476 N   0  0  0  0  0  0  0  0  0  0  0  0
  -13.5262   -7.9020    6.9882 C   0  0  0  0  0  0  0  0  0  0  0  0
  -13.4049   -6.8185    6.3737 O   0  0  0  0  0  0  0  0  0  0  0  0
  -12.5797   -9.2061    8.3543 H   0  0  0  0  0  0  0  0  0  0  0  0
  -14.7502   -8.7204    6.8033 C   0  0  0  0  0  0  0  0  0  0  0  0
  -14.6107   -9.9143    7.4974 O   0  0  0  0  0  0  0  0  0  0  0  0
  -14.8941   -9.7862    8.4328 H   0  0  0  0  0  0  0  0  0  0  0  0
  -15.9911   -8.0077    7.3226 C   0  0  0  0  0  0  0  0  0  0  0  0
  -16.3718   -8.4674    8.6206 N   0  0  0  0  0  0  0  0  0  0  0  0
  -16.6891   -7.7183    9.2643 H   0  0  0  0  0  0  0  0  0  0  0  0
  -16.9341   -9.3215    8.6546 H   0  0  0  0  0  0  0  0  0  0  0  0
  -17.0825   -8.2398    6.3136 C   0  0  0  0  0  0  0  0  0  0  0  0
  -17.1665   -7.1844    5.2834 C   0  0  0  0  0  0  0  0  0  0  0  0
  -16.6084   -5.9277    5.4499 C   0  0  0  0  0  0  0  0  0  0  0  0
  -16.6887   -4.9413    4.4822 C   0  0  0  0  0  0  0  0  0  0  0  0
  -17.3394   -5.1994    3.3118 C   0  0  0  0  0  0  0  0  0  0  0  0
  -17.9080   -6.4301    3.1022 C   0  0  0  0  0  0  0  0  0  0  0  0
  -17.8222   -7.3989    4.0676 C   0  0  0  0  0  0  0  0  0  0  0  0
  -10.0592   -8.3067    7.7641 C   0  0  0  0  0  0  0  0  0  0  0  0
  -10.2649   -9.5273    7.4334 O   0  0  0  0  0  0  0  0  0  0  0  0
   -8.7635   -7.9298    7.8392 O   0  0  0  0  0  0  0  0  0  0  0  0
   -7.6643   -8.2190    7.0683 C   0  0  0  0  0  0  0  0  0  0  0  0
   -6.5597   -7.3165    7.1093 N   0  0  0  0  0  0  0  0  0  0  0  0
   -5.7514   -7.0826    8.1533 C   0  0  0  0  0  0  0  0  0  0  0  0
   -4.7013   -6.1579    8.0916 C   0  0  0  0  0  0  0  0  0  0  0  0
   -3.9020   -5.9409    9.1552 F   0  0  0  0  0  0  0  0  0  0  0  0
   -4.4791   -5.4612    6.9353 C   0  0  0  0  0  0  0  0  0  0  0  0
   -3.5727   -4.6149    6.7719 O   0  0  0  0  0  0  0  0  0  0  0  0
   -5.3102   -5.7156    5.8948 N   0  0  0  0  0  0  0  0  0  0  0  0
   -6.2993   -6.6011    5.9857 C   0  0  0  0  0  0  0  0  0  0  0  0
   -7.0250   -6.7655    4.9452 O   0  0  0  0  0  0  0  0  0  0  0  0
   -5.1583   -5.1894    4.9911 H   0  0  0  0  0  0  0  0  0  0  0  0
  -11.2885   -6.7644    9.3202 C   0  0  0  0  0  0  0  0  0  0  0  0
  -13.4274   -7.2780   10.5133 C   0  0  0  0  0  0  0  0  0  0  0  0
  -12.6409   -6.2528    9.6891 C   0  0  0  0  0  0  0  0  0  0  0  0
  -12.5065   -4.9601   10.5146 C   0  0  0  0  0  0  0  0  0  0  0  0
 35 36  1  0  0  0
 36 37  1  0  0  0
 36 34  1  0  0  0
 34  1  1  0  0  0
  1  2  1  0  0  0
  2  3  1  0  0  0
  3  4  2  0  0  0
  3  6  1  0  0  0
  6  7  1  0  0  0
  6  9  1  0  0  0
  9 10  1  0  0  0
  9 13  1  0  0  0
 13 14  1  0  0  0
 14 15  2  0  0  0
 15 16  1  0  0  0
 16 17  2  0  0  0
 17 18  1  0  0  0
 18 19  2  0  0  0
  1 20  1  0  0  0
 20 21  2  0  0  0
 20 22  1  0  0  0
 22 23  1  0  0  0
 23 24  1  0  0  0
 24 25  1  0  0  0
 25 26  2  0  0  0
 26 27  1  0  0  0
 26 28  1  0  0  0
 28 29  2  0  0  0
 28 30  1  0  0  0
 30 31  1  0  0  0
 31 32  2  0  0  0
 19 14  1  0  0  0
 31 24  1  0  0  0
  2  5  1  0  0  0
  7  8  1  0  0  0
 10 11  1  0  0  0
 10 12  1  0  0  0
 30 33  1  0  0  0
M  END
> <minimizedAffinity>
-8.60293

> <CNNscore>
0.4445994198

> <CNNaffinity>
6.8764114380

> <CNN_VS>
3.0572485924

> <CNNaffinity_variance>
0.0606512353

$$$$
[H]Cl.[H]O[C@]([H])(C(=O)N([H])[C@]([H])(C(=O)OC([H])([H])n1c([H])c(F)c(=O)n([H])c1=O)C([H])([H])C([H])(C([H])([H])[H])C([H])([H])[H])[C@]([H])(N([H])[H])C([H])([H])c1c([H])c([H])c([H])c([H])c1[H]


 37 38  0  0  0  0  0  0  0  0999 V2000
  -10.7422   -7.0074    8.0558 C   0  0  0  0  0  0  0  0  0  0  0  0
  -11.7899   -7.5504    7.1820 N   0  0  0  0  0  0  0  0  0  0  0  0
  -12.4753   -8.7539    7.5027 C   0  0  0  0  0  0  0  0  0  0  0  0
  -12.1583   -9.3440    8.5599 O   0  0  0  0  0  0  0  0  0  0  0  0
  -12.0630   -7.0682    6.2980 H   0  0  0  0  0  0  0  0  0  0  0  0
  -13.5372   -9.3192    6.6339 C   0  0  0  0  0  0  0  0  0  0  0  0
  -14.0026  -10.5019    7.1920 O   0  0  0  0  0  0  0  0  0  0  0  0
  -14.7110  -10.3003    7.8471 H   0  0  0  0  0  0  0  0  0  0  0  0
  -14.7141   -8.3651    6.4854 C   0  0  0  0  0  0  0  0  0  0  0  0
  -15.7963   -8.7066    7.3534 N   0  0  0  0  0  0  0  0  0  0  0  0
  -16.2645   -7.8928    7.7946 H   0  0  0  0  0  0  0  0  0  0  0  0
  -16.4346   -9.4340    7.0212 H   0  0  0  0  0  0  0  0  0  0  0  0
  -15.1316   -8.4083    5.0407 C   0  0  0  0  0  0  0  0  0  0  0  0
  -16.1611   -7.4067    4.6950 C   0  0  0  0  0  0  0  0  0  0  0  0
  -15.9632   -6.0444    4.8475 C   0  0  0  0  0  0  0  0  0  0  0  0
  -16.9300   -5.1088    4.5221 C   0  0  0  0  0  0  0  0  0  0  0  0
  -18.1314   -5.5270    4.0303 C   0  0  0  0  0  0  0  0  0  0  0  0
  -18.3728   -6.8669    3.8622 C   0  0  0  0  0  0  0  0  0  0  0  0
  -17.4080   -7.7840    4.1879 C   0  0  0  0  0  0  0  0  0  0  0  0
   -9.4471   -7.6547    7.7317 C   0  0  0  0  0  0  0  0  0  0  0  0
   -9.2239   -8.7922    8.2775 O   0  0  0  0  0  0  0  0  0  0  0  0
   -8.4683   -7.1893    6.9244 O   0  0  0  0  0  0  0  0  0  0  0  0
   -7.2290   -7.6765    6.5888 C   0  0  0  0  0  0  0  0  0  0  0  0
   -6.1054   -6.8086    6.7318 N   0  0  0  0  0  0  0  0  0  0  0  0
   -5.4593   -6.1622    5.7506 C   0  0  0  0  0  0  0  0  0  0  0  0
   -4.3505   -5.3436    6.0001 C   0  0  0  0  0  0  0  0  0  0  0  0
   -3.7181   -4.7038    4.9962 F   0  0  0  0  0  0  0  0  0  0  0  0
   -3.8983   -5.1877    7.2819 C   0  0  0  0  0  0  0  0  0  0  0  0
   -2.9204   -4.4828    7.6157 O   0  0  0  0  0  0  0  0  0  0  0  0
   -4.5684   -5.8519    8.2554 N   0  0  0  0  0  0  0  0  0  0  0  0
   -5.6191   -6.6224    7.9851 C   0  0  0  0  0  0  0  0  0  0  0  0
   -6.1791   -7.2045    8.9771 O   0  0  0  0  0  0  0  0  0  0  0  0
   -4.2373   -5.7471    9.2535 H   0  0  0  0  0  0  0  0  0  0  0  0
  -11.1543   -7.0774    9.4820 C   0  0  0  0  0  0  0  0  0  0  0  0
  -13.4557   -6.1195    9.7007 C   0  0  0  0  0  0  0  0  0  0  0  0
  -11.9558   -5.8992    9.9253 C   0  0  0  0  0  0  0  0  0  0  0  0
  -11.7183   -5.6358   11.4236 C   0  0  0  0  0  0  0  0  0  0  0  0
 35 36  1  0  0  0
 36 37  1  0  0  0
 36 34  1  0  0  0
 34  1  1  0  0  0
  1  2  1  0  0  0
  2  3  1  0  0  0
  3  4  2  0  0  0
  3  6  1  0  0  0
  6  7  1  0  0  0
  6  9  1  0  0  0
  9 10  1  0  0  0
  9 13  1  0  0  0
 13 14  1  0  0  0
 14 15  2  0  0  0
 15 16  1  0  0  0
 16 17  2  0  0  0
 17 18  1  0  0  0
 18 19  2  0  0  0
  1 20  1  0  0  0
 20 21  2  0  0  0
 20 22  1  0  0  0
 22 23  1  0  0  0
 23 24  1  0  0  0
 24 25  1  0  0  0
 25 26  2  0  0  0
 26 27  1  0  0  0
 26 28  1  0  0  0
 28 29  2  0  0  0
 28 30  1  0  0  0
 30 31  1  0  0  0
 31 32  2  0  0  0
 19 14  1  0  0  0
 31 24  1  0  0  0
  2  5  1  0  0  0
  7  8  1  0  0  0
 10 11  1  0  0  0
 10 12  1  0  0  0
 30 33  1  0  0  0
M  END
> <minimizedAffinity>
-8.49873

> <CNNscore>
0.4330483973

> <CNNaffinity>
6.8159494400

> <CNN_VS>
2.9516360760

> <CNNaffinity_variance>
0.0357568823

$$$$
[H]Cl.[H]O[C@]([H])(C(=O)N([H])[C@]([H])(C(=O)OC([H])([H])n1c([H])c(F)c(=O)n([H])c1=O)C([H])([H])C([H])(C([H])([H])[H])C([H])([H])[H])[C@]([H])(N([H])[H])C([H])([H])c1c([H])c([H])c([H])c([H])c1[H]


 37 38  0  0  0  0  0  0  0  0999 V2000
  -10.9093   -7.7679    8.4237 C   0  0  0  0  0  0  0  0  0  0  0  0
   -9.7714   -7.2443    7.6577 N   0  0  0  0  0  0  0  0  0  0  0  0
   -8.6190   -8.0371    7.4029 C   0  0  0  0  0  0  0  0  0  0  0  0
   -8.6004   -9.2044    7.8539 O   0  0  0  0  0  0  0  0  0  0  0  0
   -9.7745   -6.2730    7.2767 H   0  0  0  0  0  0  0  0  0  0  0  0
   -7.4588   -7.5274    6.6308 C   0  0  0  0  0  0  0  0  0  0  0  0
   -7.7882   -6.3028    6.0663 O   0  0  0  0  0  0  0  0  0  0  0  0
   -7.6122   -5.5829    6.7163 H   0  0  0  0  0  0  0  0  0  0  0  0
   -6.2335   -7.3332    7.5129 C   0  0  0  0  0  0  0  0  0  0  0  0
   -6.5857   -7.0599    8.8703 N   0  0  0  0  0  0  0  0  0  0  0  0
   -5.9860   -7.5333    9.5720 H   0  0  0  0  0  0  0  0  0  0  0  0
   -6.8143   -6.0883    9.0948 H   0  0  0  0  0  0  0  0  0  0  0  0
   -5.4373   -6.2067    6.9126 C   0  0  0  0  0  0  0  0  0  0  0  0
   -4.1161   -6.6260    6.4018 C   0  0  0  0  0  0  0  0  0  0  0  0
   -3.3073   -5.7959    5.6435 C   0  0  0  0  0  0  0  0  0  0  0  0
   -2.0696   -6.1921    5.1667 C   0  0  0  0  0  0  0  0  0  0  0  0
   -1.6123   -7.4464    5.4451 C   0  0  0  0  0  0  0  0  0  0  0  0
   -2.3790   -8.3038    6.1927 C   0  0  0  0  0  0  0  0  0  0  0  0
   -3.6027   -7.9005    6.6593 C   0  0  0  0  0  0  0  0  0  0  0  0
  -11.9365   -8.2857    7.4867 C   0  0  0  0  0  0  0  0  0  0  0  0
  -11.9083   -9.5437    7.2454 O   0  0  0  0  0  0  0  0  0  0  0  0
  -12.9059   -7.5886    6.8536 O   0  0  0  0  0  0  0  0  0  0  0  0
  -14.1588   -7.9318    6.4083 C   0  0  0  0  0  0  0  0  0  0  0  0
  -14.8780   -6.9783    5.6273 N   0  0  0  0  0  0  0  0  0  0  0  0
  -14.4322   -5.7870    5.2030 C   0  0  0  0  0  0  0  0  0  0  0  0
  -15.2312   -4.9153    4.4524 C   0  0  0  0  0  0  0  0  0  0  0  0
  -14.7595   -3.7228    4.0370 F   0  0  0  0  0  0  0  0  0  0  0  0
  -16.5118   -5.2757    4.1330 C   0  0  0  0  0  0  0  0  0  0  0  0
  -17.3085   -4.5758    3.4697 O   0  0  0  0  0  0  0  0  0  0  0  0
  -16.9385   -6.4845    4.5741 N   0  0  0  0  0  0  0  0  0  0  0  0
  -16.1540   -7.2900    5.2856 C   0  0  0  0  0  0  0  0  0  0  0  0
  -16.6549   -8.4085    5.6523 O   0  0  0  0  0  0  0  0  0  0  0  0
  -17.9244   -6.7845    4.3399 H   0  0  0  0  0  0  0  0  0  0  0  0
  -11.3891   -6.7652    9.4101 C   0  0  0  0  0  0  0  0  0  0  0  0
  -13.3785   -7.9446   10.3657 C   0  0  0  0  0  0  0  0  0  0  0  0
  -12.8739   -6.7437    9.5583 C   0  0  0  0  0  0  0  0  0  0  0  0
  -13.3119   -5.4530   10.2745 C   0  0  0  0  0  0  0  0  0  0  0  0
 35 36  1  0  0  0
 36 37  1  0  0  0
 36 34  1  0  0  0
 34  1  1  0  0  0
  1  2  1  0  0  0
  2  3  1  0  0  0
  3  4  2  0  0  0
  3  6  1  0  0  0
  6  7  1  0  0  0
  6  9  1  0  0  0
  9 10  1  0  0  0
  9 13  1  0  0  0
 13 14  1  0  0  0
 14 15  2  0  0  0
 15 16  1  0  0  0
 16 17  2  0  0  0
 17 18  1  0  0  0
 18 19  2  0  0  0
  1 20  1  0  0  0
 20 21  2  0  0  0
 20 22  1  0  0  0
 22 23  1  0  0  0
 23 24  1  0  0  0
 24 25  1  0  0  0
 25 26  2  0  0  0
 26 27  1  0  0  0
 26 28  1  0  0  0
 28 29  2  0  0  0
 28 30  1  0  0  0
 30 31  1  0  0  0
 31 32  2  0  0  0
 19 14  1  0  0  0
 31 24  1  0  0  0
  2  5  1  0  0  0
  7  8  1  0  0  0
 10 11  1  0  0  0
 10 12  1  0  0  0
 30 33  1  0  0  0
M  END
> <minimizedAffinity>
-8.31261

> <CNNscore>
0.3686017096

> <CNNaffinity>
6.2889304161

> <CNN_VS>
2.3181104660

> <CNNaffinity_variance>
0.2664551139

$$$$
[H]Cl.[H]O[C@]([H])(C(=O)N([H])[C@]([H])(C(=O)OC([H])([H])n1c([H])c(F)c(=O)n([H])c1=O)C([H])([H])C([H])(C([H])([H])[H])C([H])([H])[H])[C@]([H])(N([H])[H])C([H])([H])c1c([H])c([H])c([H])c([H])c1[H]


 37 38  0  0  0  0  0  0  0  0999 V2000
  -14.3105   -8.1904    5.5184 C   0  0  0  0  0  0  0  0  0  0  0  0
  -15.0350   -7.7901    6.7311 N   0  0  0  0  0  0  0  0  0  0  0  0
  -15.0762   -8.6242    7.8817 C   0  0  0  0  0  0  0  0  0  0  0  0
  -14.4728   -9.7196    7.8323 O   0  0  0  0  0  0  0  0  0  0  0  0
  -15.5422   -6.8800    6.7848 H   0  0  0  0  0  0  0  0  0  0  0  0
  -15.8020   -8.2384    9.1172 C   0  0  0  0  0  0  0  0  0  0  0  0
  -16.7641   -9.1981    9.4004 O   0  0  0  0  0  0  0  0  0  0  0  0
  -16.3570   -9.9278    9.9234 H   0  0  0  0  0  0  0  0  0  0  0  0
  -14.8662   -8.1321   10.3132 C   0  0  0  0  0  0  0  0  0  0  0  0
  -15.3365   -8.8848   11.4327 N   0  0  0  0  0  0  0  0  0  0  0  0
  -14.5938   -9.3900   11.9516 H   0  0  0  0  0  0  0  0  0  0  0  0
  -16.0339   -8.4296   12.0270 H   0  0  0  0  0  0  0  0  0  0  0  0
  -14.7449   -6.6696   10.6441 C   0  0  0  0  0  0  0  0  0  0  0  0
  -13.3871   -6.1280   10.4306 C   0  0  0  0  0  0  0  0  0  0  0  0
  -13.1343   -4.7743   10.2821 C   0  0  0  0  0  0  0  0  0  0  0  0
  -11.8607   -4.2704   10.0827 C   0  0  0  0  0  0  0  0  0  0  0  0
  -10.8003   -5.1263   10.0274 C   0  0  0  0  0  0  0  0  0  0  0  0
  -11.0023   -6.4757   10.1693 C   0  0  0  0  0  0  0  0  0  0  0  0
  -12.2679   -6.9631   10.3663 C   0  0  0  0  0  0  0  0  0  0  0  0
  -12.9278   -8.5882    5.8803 C   0  0  0  0  0  0  0  0  0  0  0  0
  -12.5733   -9.7777    5.5627 O   0  0  0  0  0  0  0  0  0  0  0  0
  -11.9894   -7.8439    6.5064 O   0  0  0  0  0  0  0  0  0  0  0  0
  -11.2751   -8.0295    7.6646 C   0  0  0  0  0  0  0  0  0  0  0  0
   -9.8856   -8.3351    7.5544 N   0  0  0  0  0  0  0  0  0  0  0  0
   -9.3048   -9.5243    7.7705 C   0  0  0  0  0  0  0  0  0  0  0  0
   -7.9221   -9.7122    7.6508 C   0  0  0  0  0  0  0  0  0  0  0  0
   -7.3620  -10.9181    7.8728 F   0  0  0  0  0  0  0  0  0  0  0  0
   -7.1227   -8.6578    7.3029 C   0  0  0  0  0  0  0  0  0  0  0  0
   -5.8804   -8.7146    7.1684 O   0  0  0  0  0  0  0  0  0  0  0  0
   -7.7341   -7.4666    7.0904 N   0  0  0  0  0  0  0  0  0  0  0  0
   -9.0511   -7.3210    7.2123 C   0  0  0  0  0  0  0  0  0  0  0  0
   -9.5265   -6.1545    6.9895 O   0  0  0  0  0  0  0  0  0  0  0  0
   -7.1370   -6.6373    6.8208 H   0  0  0  0  0  0  0  0  0  0  0  0
  -14.4223   -7.1462    4.4667 C   0  0  0  0  0  0  0  0  0  0  0  0
  -14.8758   -4.6867    4.5520 C   0  0  0  0  0  0  0  0  0  0  0  0
  -15.4344   -6.0954    4.7807 C   0  0  0  0  0  0  0  0  0  0  0  0
  -16.6771   -6.2801    3.8906 C   0  0  0  0  0  0  0  0  0  0  0  0
 35 36  1  0  0  0
 36 37  1  0  0  0
 36 34  1  0  0  0
 34  1  1  0  0  0
  1  2  1  0  0  0
  2  3  1  0  0  0
  3  4  2  0  0  0
  3  6  1  0  0  0
  6  7  1  0  0  0
  6  9  1  0  0  0
  9 10  1  0  0  0
  9 13  1  0  0  0
 13 14  1  0  0  0
 14 15  2  0  0  0
 15 16  1  0  0  0
 16 17  2  0  0  0
 17 18  1  0  0  0
 18 19  2  0  0  0
  1 20  1  0  0  0
 20 21  2  0  0  0
 20 22  1  0  0  0
 22 23  1  0  0  0
 23 24  1  0  0  0
 24 25  1  0  0  0
 25 26  2  0  0  0
 26 27  1  0  0  0
 26 28  1  0  0  0
 28 29  2  0  0  0
 28 30  1  0  0  0
 30 31  1  0  0  0
 31 32  2  0  0  0
 19 14  1  0  0  0
 31 24  1  0  0  0
  2  5  1  0  0  0
  7  8  1  0  0  0
 10 11  1  0  0  0
 10 12  1  0  0  0
 30 33  1  0  0  0
M  END
> <minimizedAffinity>
-1.69975

> <CNNscore>
0.3665287495

> <CNNaffinity>
6.5258688927

> <CNN_VS>
2.3919186592

> <CNNaffinity_variance>
0.0439550094

$$$$
[H]Cl.[H]O[C@]([H])(C(=O)N([H])[C@]([H])(C(=O)OC([H])([H])n1c([H])c(F)c(=O)n([H])c1=O)C([H])([H])C([H])(C([H])([H])[H])C([H])([H])[H])[C@]([H])(N([H])[H])C([H])([H])c1c([H])c([H])c([H])c([H])c1[H]


 37 38  0  0  0  0  0  0  0  0999 V2000
   -6.4855   -7.2029    7.5954 C   0  0  0  0  0  0  0  0  0  0  0  0
   -5.1351   -7.5493    8.0561 N   0  0  0  0  0  0  0  0  0  0  0  0
   -4.2136   -6.5507    8.4746 C   0  0  0  0  0  0  0  0  0  0  0  0
   -4.5881   -5.3570    8.4390 O   0  0  0  0  0  0  0  0  0  0  0  0
   -4.8108   -8.5403    8.0902 H   0  0  0  0  0  0  0  0  0  0  0  0
   -2.8448   -6.8794    8.9441 C   0  0  0  0  0  0  0  0  0  0  0  0
   -2.2987   -7.8505    8.1161 O   0  0  0  0  0  0  0  0  0  0  0  0
   -1.8772   -7.4190    7.3365 H   0  0  0  0  0  0  0  0  0  0  0  0
   -1.9311   -5.6620    8.9205 C   0  0  0  0  0  0  0  0  0  0  0  0
   -1.1138   -5.6255    7.7492 N   0  0  0  0  0  0  0  0  0  0  0  0
   -1.0016   -4.6812    7.3346 H   0  0  0  0  0  0  0  0  0  0  0  0
   -0.2555   -6.1817    7.7752 H   0  0  0  0  0  0  0  0  0  0  0  0
   -1.0983   -5.7166   10.1722 C   0  0  0  0  0  0  0  0  0  0  0  0
   -1.8775   -5.4983   11.4081 C   0  0  0  0  0  0  0  0  0  0  0  0
   -1.7202   -6.2787   12.5416 C   0  0  0  0  0  0  0  0  0  0  0  0
   -2.4518   -6.0710   13.6981 C   0  0  0  0  0  0  0  0  0  0  0  0
   -3.3686   -5.0622   13.7414 C   0  0  0  0  0  0  0  0  0  0  0  0
   -3.5590   -4.2633   12.6426 C   0  0  0  0  0  0  0  0  0  0  0  0
   -2.8289   -4.4785   11.5030 C   0  0  0  0  0  0  0  0  0  0  0  0
   -7.4871   -7.8908    8.4468 C   0  0  0  0  0  0  0  0  0  0  0  0
   -7.0316   -8.7288    9.3022 O   0  0  0  0  0  0  0  0  0  0  0  0
   -8.8300   -7.7392    8.4318 O   0  0  0  0  0  0  0  0  0  0  0  0
   -9.8306   -8.3778    7.7411 C   0  0  0  0  0  0  0  0  0  0  0  0
  -11.1748   -8.1918    8.1823 N   0  0  0  0  0  0  0  0  0  0  0  0
  -11.6028   -7.3254    9.1120 C   0  0  0  0  0  0  0  0  0  0  0  0
  -12.9500   -7.2358    9.4847 C   0  0  0  0  0  0  0  0  0  0  0  0
  -13.3555   -6.3559   10.4220 F   0  0  0  0  0  0  0  0  0  0  0  0
  -13.8730   -8.0524    8.8905 C   0  0  0  0  0  0  0  0  0  0  0  0
  -15.0972   -8.0555    9.1473 O   0  0  0  0  0  0  0  0  0  0  0  0
  -13.4148   -8.9193    7.9544 N   0  0  0  0  0  0  0  0  0  0  0  0
  -12.1277   -8.9797    7.6225 C   0  0  0  0  0  0  0  0  0  0  0  0
  -11.8012   -9.8332    6.7273 O   0  0  0  0  0  0  0  0  0  0  0  0
  -14.1093   -9.5605    7.4817 H   0  0  0  0  0  0  0  0  0  0  0  0
   -6.6208   -7.4334    6.1334 C   0  0  0  0  0  0  0  0  0  0  0  0
   -5.3873   -5.5169    5.1001 C   0  0  0  0  0  0  0  0  0  0  0  0
   -6.7505   -6.1731    5.3448 C   0  0  0  0  0  0  0  0  0  0  0  0
   -7.4025   -6.4708    3.9821 C   0  0  0  0  0  0  0  0  0  0  0  0
 35 36  1  0  0  0
 36 37  1  0  0  0
 36 34  1  0  0  0
 34  1  1  0  0  0
  1  2  1  0  0  0
  2  3  1  0  0  0
  3  4  2  0  0  0
  3  6  1  0  0  0
  6  7  1  0  0  0
  6  9  1  0  0  0
  9 10  1  0  0  0
  9 13  1  0  0  0
 13 14  1  0  0  0
 14 15  2  0  0  0
 15 16  1  0  0  0
 16 17  2  0  0  0
 17 18  1  0  0  0
 18 19  2  0  0  0
  1 20  1  0  0  0
 20 21  2  0  0  0
 20 22  1  0  0  0
 22 23  1  0  0  0
 23 24  1  0  0  0
 24 25  1  0  0  0
 25 26  2  0  0  0
 26 27  1  0  0  0
 26 28  1  0  0  0
 28 29  2  0  0  0
 28 30  1  0  0  0
 30 31  1  0  0  0
 31 32  2  0  0  0
 19 14  1  0  0  0
 31 24  1  0  0  0
  2  5  1  0  0  0
  7  8  1  0  0  0
 10 11  1  0  0  0
 10 12  1  0  0  0
 30 33  1  0  0  0
M  END
> <minimizedAffinity>
-3.65992

> <CNNscore>
0.3092302978

> <CNNaffinity>
5.9527006149

> <CNN_VS>
1.8407553434

> <CNNaffinity_variance>
0.7693254948

$$$$
[H]Cl.[H]O[C@]([H])(C(=O)N([H])[C@]([H])(C(=O)OC([H])([H])n1c([H])c(F)c(=O)n([H])c1=O)C([H])([H])C([H])(C([H])([H])[H])C([H])([H])[H])[C@]([H])(N([H])[H])C([H])([H])c1c([H])c([H])c([H])c([H])c1[H]


 37 38  0  0  0  0  0  0  0  0999 V2000
  -11.1012   -6.9379    8.3224 C   0  0  0  0  0  0  0  0  0  0  0  0
  -12.2547   -7.4325    7.5603 N   0  0  0  0  0  0  0  0  0  0  0  0
  -13.0420   -8.5207    8.0262 C   0  0  0  0  0  0  0  0  0  0  0  0
  -12.7220   -9.0512    9.1137 O   0  0  0  0  0  0  0  0  0  0  0  0
  -12.5314   -6.9992    6.6525 H   0  0  0  0  0  0  0  0  0  0  0  0
  -14.2117   -9.0354    7.2719 C   0  0  0  0  0  0  0  0  0  0  0  0
  -14.5636  -10.2824    7.7697 O   0  0  0  0  0  0  0  0  0  0  0  0
  -15.1686  -10.1705    8.5399 H   0  0  0  0  0  0  0  0  0  0  0  0
  -15.4162   -8.1131    7.3976 C   0  0  0  0  0  0  0  0  0  0  0  0
  -16.2847   -8.5046    8.4623 N   0  0  0  0  0  0  0  0  0  0  0  0
  -16.6699   -7.7145    9.0133 H   0  0  0  0  0  0  0  0  0  0  0  0
  -16.9606   -9.2430    8.2507 H   0  0  0  0  0  0  0  0  0  0  0  0
  -16.1252   -8.1373    6.0709 C   0  0  0  0  0  0  0  0  0  0  0  0
  -16.1175   -6.8341    5.3751 C   0  0  0  0  0  0  0  0  0  0  0  0
  -17.2238   -6.3330    4.7093 C   0  0  0  0  0  0  0  0  0  0  0  0
  -17.2131   -5.1113    4.0587 C   0  0  0  0  0  0  0  0  0  0  0  0
  -16.0766   -4.3573    4.0631 C   0  0  0  0  0  0  0  0  0  0  0  0
  -14.9559   -4.8132    4.7097 C   0  0  0  0  0  0  0  0  0  0  0  0
  -14.9783   -6.0244    5.3504 C   0  0  0  0  0  0  0  0  0  0  0  0
   -9.8771   -7.6492    7.8787 C   0  0  0  0  0  0  0  0  0  0  0  0
  -10.0485   -8.7921    7.3257 O   0  0  0  0  0  0  0  0  0  0  0  0
   -8.5949   -7.2355    7.9854 O   0  0  0  0  0  0  0  0  0  0  0  0
   -7.7246   -6.6629    7.0905 C   0  0  0  0  0  0  0  0  0  0  0  0
   -6.3320   -6.9354    7.2407 N   0  0  0  0  0  0  0  0  0  0  0  0
   -5.4613   -6.2686    8.0123 C   0  0  0  0  0  0  0  0  0  0  0  0
   -4.1044   -6.6103    8.0734 C   0  0  0  0  0  0  0  0  0  0  0  0
   -3.2489   -5.9246    8.8576 F   0  0  0  0  0  0  0  0  0  0  0  0
   -3.6350   -7.6564    7.3270 C   0  0  0  0  0  0  0  0  0  0  0  0
   -2.4462   -8.0452    7.3067 O   0  0  0  0  0  0  0  0  0  0  0  0
   -4.5350   -8.3138    6.5552 N   0  0  0  0  0  0  0  0  0  0  0  0
   -5.8183   -7.9640    6.5195 C   0  0  0  0  0  0  0  0  0  0  0  0
   -6.5833   -8.6505    5.7578 O   0  0  0  0  0  0  0  0  0  0  0  0
   -4.1956   -9.1253    5.9695 H   0  0  0  0  0  0  0  0  0  0  0  0
  -11.3739   -6.9818    9.7827 C   0  0  0  0  0  0  0  0  0  0  0  0
  -13.4385   -5.6066   10.1123 C   0  0  0  0  0  0  0  0  0  0  0  0
  -11.9233   -5.7030   10.3212 C   0  0  0  0  0  0  0  0  0  0  0  0
  -11.6291   -5.5983   11.8289 C   0  0  0  0  0  0  0  0  0  0  0  0
 35 36  1  0  0  0
 36 37  1  0  0  0
 36 34  1  0  0  0
 34  1  1  0  0  0
  1  2  1  0  0  0
  2  3  1  0  0  0
  3  4  2  0  0  0
  3  6  1  0  0  0
  6  7  1  0  0  0
  6  9  1  0  0  0
  9 10  1  0  0  0
  9 13  1  0  0  0
 13 14  1  0  0  0
 14 15  2  0  0  0
 15 16  1  0  0  0
 16 17  2  0  0  0
 17 18  1  0  0  0
 18 19  2  0  0  0
  1 20  1  0  0  0
 20 21  2  0  0  0
 20 22  1  0  0  0
 22 23  1  0  0  0
 23 24  1  0  0  0
 24 25  1  0  0  0
 25 26  2  0  0  0
 26 27  1  0  0  0
 26 28  1  0  0  0
 28 29  2  0  0  0
 28 30  1  0  0  0
 30 31  1  0  0  0
 31 32  2  0  0  0
 19 14  1  0  0  0
 31 24  1  0  0  0
  2  5  1  0  0  0
  7  8  1  0  0  0
 10 11  1  0  0  0
 10 12  1  0  0  0
 30 33  1  0  0  0
M  END
> <minimizedAffinity>
-8.79249

> <CNNscore>
0.2710230649

> <CNNaffinity>
6.5741028786

> <CNN_VS>
1.7817335129

> <CNNaffinity_variance>
0.0593980774

$$$$
[H]Cl.[H]O[C@]([H])(C(=O)N([H])[C@]([H])(C(=O)OC([H])([H])n1c([H])c(F)c(=O)n([H])c1=O)C([H])([H])C([H])(C([H])([H])[H])C([H])([H])[H])[C@]([H])(N([H])[H])C([H])([H])c1c([H])c([H])c([H])c([H])c1[H]


 37 38  0  0  0  0  0  0  0  0999 V2000
   -6.0521   -6.7594    7.8097 C   0  0  0  0  0  0  0  0  0  0  0  0
   -4.9260   -6.5722    8.7331 N   0  0  0  0  0  0  0  0  0  0  0  0
   -3.9253   -5.5906    8.4956 C   0  0  0  0  0  0  0  0  0  0  0  0
   -4.0311   -4.8837    7.4682 O   0  0  0  0  0  0  0  0  0  0  0  0
   -4.8263   -7.1551    9.5926 H   0  0  0  0  0  0  0  0  0  0  0  0
   -2.7798   -5.3849    9.4162 C   0  0  0  0  0  0  0  0  0  0  0  0
   -1.7572   -4.7384    8.7357 O   0  0  0  0  0  0  0  0  0  0  0  0
   -1.9018   -3.7640    8.7730 H   0  0  0  0  0  0  0  0  0  0  0  0
   -3.1658   -4.5351   10.6187 C   0  0  0  0  0  0  0  0  0  0  0  0
   -4.1014   -5.2001   11.4693 N   0  0  0  0  0  0  0  0  0  0  0  0
   -3.9256   -5.0704   12.4835 H   0  0  0  0  0  0  0  0  0  0  0  0
   -5.0862   -5.1392   11.1988 H   0  0  0  0  0  0  0  0  0  0  0  0
   -3.7283   -3.2475   10.0811 C   0  0  0  0  0  0  0  0  0  0  0  0
   -2.8116   -2.0981   10.2265 C   0  0  0  0  0  0  0  0  0  0  0  0
   -2.7239   -1.0852    9.2860 C   0  0  0  0  0  0  0  0  0  0  0  0
   -1.8641   -0.0095    9.4257 C   0  0  0  0  0  0  0  0  0  0  0  0
   -1.0639    0.0727   10.5271 C   0  0  0  0  0  0  0  0  0  0  0  0
   -1.1163   -0.9075   11.4854 C   0  0  0  0  0  0  0  0  0  0  0  0
   -1.9715   -1.9679   11.3362 C   0  0  0  0  0  0  0  0  0  0  0  0
   -7.2137   -7.3040    8.5547 C   0  0  0  0  0  0  0  0  0  0  0  0
   -7.0015   -8.3551    9.2559 O   0  0  0  0  0  0  0  0  0  0  0  0
   -8.4763   -6.8230    8.5861 O   0  0  0  0  0  0  0  0  0  0  0  0
   -9.5933   -7.0919    7.8337 C   0  0  0  0  0  0  0  0  0  0  0  0
  -10.8526   -7.1570    8.5016 N   0  0  0  0  0  0  0  0  0  0  0  0
  -11.4261   -6.1893    9.2314 C   0  0  0  0  0  0  0  0  0  0  0  0
  -12.6642   -6.3647    9.8623 C   0  0  0  0  0  0  0  0  0  0  0  0
  -13.2204   -5.3759   10.5904 F   0  0  0  0  0  0  0  0  0  0  0  0
  -13.3237   -7.5572    9.7404 C   0  0  0  0  0  0  0  0  0  0  0  0
  -14.4307   -7.8199   10.2603 O   0  0  0  0  0  0  0  0  0  0  0  0
  -12.7227   -8.5191    8.9979 N   0  0  0  0  0  0  0  0  0  0  0  0
  -11.5452   -8.3207    8.4108 C   0  0  0  0  0  0  0  0  0  0  0  0
  -11.0662   -9.2941    7.7329 O   0  0  0  0  0  0  0  0  0  0  0  0
  -13.2132   -9.4489    8.8896 H   0  0  0  0  0  0  0  0  0  0  0  0
   -5.6333   -7.5397    6.6162 C   0  0  0  0  0  0  0  0  0  0  0  0
   -7.1552   -6.5698    4.8825 C   0  0  0  0  0  0  0  0  0  0  0  0
   -6.7526   -7.8213    5.6701 C   0  0  0  0  0  0  0  0  0  0  0  0
   -6.3334   -8.9151    4.6709 C   0  0  0  0  0  0  0  0  0  0  0  0
 35 36  1  0  0  0
 36 37  1  0  0  0
 36 34  1  0  0  0
 34  1  1  0  0  0
  1  2  1  0  0  0
  2  3  1  0  0  0
  3  4  2  0  0  0
  3  6  1  0  0  0
  6  7  1  0  0  0
  6  9  1  0  0  0
  9 10  1  0  0  0
  9 13  1  0  0  0
 13 14  1  0  0  0
 14 15  2  0  0  0
 15 16  1  0  0  0
 16 17  2  0  0  0
 17 18  1  0  0  0
 18 19  2  0  0  0
  1 20  1  0  0  0
 20 21  2  0  0  0
 20 22  1  0  0  0
 22 23  1  0  0  0
 23 24  1  0  0  0
 24 25  1  0  0  0
 25 26  2  0  0  0
 26 27  1  0  0  0
 26 28  1  0  0  0
 28 29  2  0  0  0
 28 30  1  0  0  0
 30 31  1  0  0  0
 31 32  2  0  0  0
 19 14  1  0  0  0
 31 24  1  0  0  0
  2  5  1  0  0  0
  7  8  1  0  0  0
 10 11  1  0  0  0
 10 12  1  0  0  0
 30 33  1  0  0  0
M  END
> <minimizedAffinity>
-4.89209

> <CNNscore>
0.2555313408

> <CNNaffinity>
5.6924629211

> <CNN_VS>
1.4546027184

> <CNNaffinity_variance>
0.2162159234

$$$$
[H]Cl.[H]O[C@]([H])(C(=O)N([H])[C@]([H])(C(=O)OC([H])([H])n1c([H])c(F)c(=O)n([H])c1=O)C([H])([H])C([H])(C([H])([H])[H])C([H])([H])[H])[C@]([H])(N([H])[H])C([H])([H])c1c([H])c([H])c([H])c([H])c1[H]


 37 38  0  0  0  0  0  0  0  0999 V2000
   -4.7843   -6.9411    7.0878 C   0  0  0  0  0  0  0  0  0  0  0  0
   -4.0542   -6.0764    8.0232 N   0  0  0  0  0  0  0  0  0  0  0  0
   -3.6887   -4.7471    7.6758 C   0  0  0  0  0  0  0  0  0  0  0  0
   -4.0089   -4.3300    6.5400 O   0  0  0  0  0  0  0  0  0  0  0  0
   -3.7812   -6.4122    8.9725 H   0  0  0  0  0  0  0  0  0  0  0  0
   -2.9515   -3.8568    8.6063 C   0  0  0  0  0  0  0  0  0  0  0  0
   -2.8150   -2.6028    8.0269 O   0  0  0  0  0  0  0  0  0  0  0  0
   -3.6167   -2.0624    8.2193 H   0  0  0  0  0  0  0  0  0  0  0  0
   -3.6822   -3.6941    9.9318 C   0  0  0  0  0  0  0  0  0  0  0  0
   -4.0243   -2.3319   10.1937 N   0  0  0  0  0  0  0  0  0  0  0  0
   -4.9647   -2.1991   10.6110 H   0  0  0  0  0  0  0  0  0  0  0  0
   -3.2914   -1.7495   10.6066 H   0  0  0  0  0  0  0  0  0  0  0  0
   -2.7799   -4.2508   10.9991 C   0  0  0  0  0  0  0  0  0  0  0  0
   -3.5011   -5.0009   12.0477 C   0  0  0  0  0  0  0  0  0  0  0  0
   -2.8535   -5.6445   13.0893 C   0  0  0  0  0  0  0  0  0  0  0  0
   -3.5326   -6.3462   14.0703 C   0  0  0  0  0  0  0  0  0  0  0  0
   -4.8938   -6.4172   14.0256 C   0  0  0  0  0  0  0  0  0  0  0  0
   -5.5783   -5.7953   13.0124 C   0  0  0  0  0  0  0  0  0  0  0  0
   -4.8952   -5.1035   12.0466 C   0  0  0  0  0  0  0  0  0  0  0  0
   -6.1186   -7.2604    7.6524 C   0  0  0  0  0  0  0  0  0  0  0  0
   -6.2305   -7.1957    8.9271 O   0  0  0  0  0  0  0  0  0  0  0  0
   -7.2385   -7.6115    6.9824 O   0  0  0  0  0  0  0  0  0  0  0  0
   -8.0521   -8.7161    7.0447 C   0  0  0  0  0  0  0  0  0  0  0  0
   -9.3607   -8.5558    7.5909 N   0  0  0  0  0  0  0  0  0  0  0  0
   -9.8018   -7.5290    8.3319 C   0  0  0  0  0  0  0  0  0  0  0  0
  -11.1078   -7.4789    8.8355 C   0  0  0  0  0  0  0  0  0  0  0  0
  -11.5277   -6.4350    9.5779 F   0  0  0  0  0  0  0  0  0  0  0  0
  -11.9751   -8.5038    8.5723 C   0  0  0  0  0  0  0  0  0  0  0  0
  -13.1592   -8.5603    8.9714 O   0  0  0  0  0  0  0  0  0  0  0  0
  -11.5047   -9.5299    7.8215 N   0  0  0  0  0  0  0  0  0  0  0  0
  -10.2576   -9.5472    7.3577 C   0  0  0  0  0  0  0  0  0  0  0  0
   -9.9150  -10.5628    6.6594 O   0  0  0  0  0  0  0  0  0  0  0  0
  -12.1564  -10.3332    7.6053 H   0  0  0  0  0  0  0  0  0  0  0  0
   -3.9578   -8.1123    6.6952 C   0  0  0  0  0  0  0  0  0  0  0  0
   -1.8632   -9.2057    7.5193 C   0  0  0  0  0  0  0  0  0  0  0  0
   -2.5020   -7.9272    6.9661 C   0  0  0  0  0  0  0  0  0  0  0  0
   -1.7715   -7.5367    5.6682 C   0  0  0  0  0  0  0  0  0  0  0  0
 35 36  1  0  0  0
 36 37  1  0  0  0
 36 34  1  0  0  0
 34  1  1  0  0  0
  1  2  1  0  0  0
  2  3  1  0  0  0
  3  4  2  0  0  0
  3  6  1  0  0  0
  6  7  1  0  0  0
  6  9  1  0  0  0
  9 10  1  0  0  0
  9 13  1  0  0  0
 13 14  1  0  0  0
 14 15  2  0  0  0
 15 16  1  0  0  0
 16 17  2  0  0  0
 17 18  1  0  0  0
 18 19  2  0  0  0
  1 20  1  0  0  0
 20 21  2  0  0  0
 20 22  1  0  0  0
 22 23  1  0  0  0
 23 24  1  0  0  0
 24 25  1  0  0  0
 25 26  2  0  0  0
 26 27  1  0  0  0
 26 28  1  0  0  0
 28 29  2  0  0  0
 28 30  1  0  0  0
 30 31  1  0  0  0
 31 32  2  0  0  0
 19 14  1  0  0  0
 31 24  1  0  0  0
  2  5  1  0  0  0
  7  8  1  0  0  0
 10 11  1  0  0  0
 10 12  1  0  0  0
 30 33  1  0  0  0
M  END
> <minimizedAffinity>
-6.34005

> <CNNscore>
0.2270811945

> <CNNaffinity>
5.3369426727

> <CNN_VS>
1.2119193077

> <CNNaffinity_variance>
0.1877421141

$$$$
[H]Cl.[H]O[C@]([H])(C(=O)N([H])[C@]([H])(C(=O)OC([H])([H])n1c([H])c(F)c(=O)n([H])c1=O)C([H])([H])C([H])(C([H])([H])[H])C([H])([H])[H])[C@]([H])(N([H])[H])C([H])([H])c1c([H])c([H])c([H])c([H])c1[H]


 37 38  0  0  0  0  0  0  0  0999 V2000
  -12.5989   -8.0958    8.0376 C   0  0  0  0  0  0  0  0  0  0  0  0
  -11.3643   -7.8080    7.2968 N   0  0  0  0  0  0  0  0  0  0  0  0
  -10.1934   -7.3430    7.9556 C   0  0  0  0  0  0  0  0  0  0  0  0
  -10.2441   -7.1837    9.1959 O   0  0  0  0  0  0  0  0  0  0  0  0
  -11.3093   -7.9364    6.2628 H   0  0  0  0  0  0  0  0  0  0  0  0
   -8.9357   -7.0470    7.2259 C   0  0  0  0  0  0  0  0  0  0  0  0
   -8.5735   -5.7270    7.4568 O   0  0  0  0  0  0  0  0  0  0  0  0
   -8.0488   -5.6705    8.2894 H   0  0  0  0  0  0  0  0  0  0  0  0
   -7.7927   -7.9431    7.6819 C   0  0  0  0  0  0  0  0  0  0  0  0
   -6.9696   -7.3083    8.6621 N   0  0  0  0  0  0  0  0  0  0  0  0
   -6.6617   -7.9321    9.4317 H   0  0  0  0  0  0  0  0  0  0  0  0
   -6.2432   -6.6802    8.3093 H   0  0  0  0  0  0  0  0  0  0  0  0
   -7.0053   -8.3062    6.4526 C   0  0  0  0  0  0  0  0  0  0  0  0
   -5.7063   -7.6090    6.3579 C   0  0  0  0  0  0  0  0  0  0  0  0
   -4.5188   -8.1731    6.7940 C   0  0  0  0  0  0  0  0  0  0  0  0
   -3.3034   -7.5170    6.7033 C   0  0  0  0  0  0  0  0  0  0  0  0
   -3.2542   -6.2645    6.1657 C   0  0  0  0  0  0  0  0  0  0  0  0
   -4.4052   -5.6656    5.7204 C   0  0  0  0  0  0  0  0  0  0  0  0
   -5.6028   -6.3249    5.8154 C   0  0  0  0  0  0  0  0  0  0  0  0
  -13.3085   -9.2267    7.3904 C   0  0  0  0  0  0  0  0  0  0  0  0
  -12.9710  -10.4040    7.7666 O   0  0  0  0  0  0  0  0  0  0  0  0
  -14.2752   -9.1667    6.4479 O   0  0  0  0  0  0  0  0  0  0  0  0
  -14.3626   -8.5089    5.2455 C   0  0  0  0  0  0  0  0  0  0  0  0
  -15.5603   -7.7871    4.9610 N   0  0  0  0  0  0  0  0  0  0  0  0
  -16.7846   -8.3024    4.7772 C   0  0  0  0  0  0  0  0  0  0  0  0
  -17.8952   -7.5010    4.4839 C   0  0  0  0  0  0  0  0  0  0  0  0
  -19.1162   -8.0432    4.3039 F   0  0  0  0  0  0  0  0  0  0  0  0
  -17.7433   -6.1455    4.3773 C   0  0  0  0  0  0  0  0  0  0  0  0
  -18.6647   -5.3396    4.1199 O   0  0  0  0  0  0  0  0  0  0  0  0
  -16.4959   -5.6498    4.5671 N   0  0  0  0  0  0  0  0  0  0  0  0
  -15.4609   -6.4386    4.8448 C   0  0  0  0  0  0  0  0  0  0  0  0
  -14.3269   -5.8688    5.0054 O   0  0  0  0  0  0  0  0  0  0  0  0
  -16.3540   -4.6054    4.4895 H   0  0  0  0  0  0  0  0  0  0  0  0
  -13.4021   -6.8598    8.2273 C   0  0  0  0  0  0  0  0  0  0  0  0
  -13.5162   -7.8528   10.5215 C   0  0  0  0  0  0  0  0  0  0  0  0
  -13.8120   -6.6316    9.6440 C   0  0  0  0  0  0  0  0  0  0  0  0
  -13.0574   -5.4198   10.2207 C   0  0  0  0  0  0  0  0  0  0  0  0
 35 36  1  0  0  0
 36 37  1  0  0  0
 36 34  1  0  0  0
 34  1  1  0  0  0
  1  2  1  0  0  0
  2  3  1  0  0  0
  3  4  2  0  0  0
  3  6  1  0  0  0
  6  7  1  0  0  0
  6  9  1  0  0  0
  9 10  1  0  0  0
  9 13  1  0  0  0
 13 14  1  0  0  0
 14 15  2  0  0  0
 15 16  1  0  0  0
 16 17  2  0  0  0
 17 18  1  0  0  0
 18 19  2  0  0  0
  1 20  1  0  0  0
 20 21  2  0  0  0
 20 22  1  0  0  0
 22 23  1  0  0  0
 23 24  1  0  0  0
 24 25  1  0  0  0
 25 26  2  0  0  0
 26 27  1  0  0  0
 26 28  1  0  0  0
 28 29  2  0  0  0
 28 30  1  0  0  0
 30 31  1  0  0  0
 31 32  2  0  0  0
 19 14  1  0  0  0
 31 24  1  0  0  0
  2  5  1  0  0  0
  7  8  1  0  0  0
 10 11  1  0  0  0
 10 12  1  0  0  0
 30 33  1  0  0  0
M  END
> <minimizedAffinity>
-8.68867

> <CNNscore>
0.2181120515

> <CNNaffinity>
6.3271460533

> <CNN_VS>
1.3800268173

> <CNNaffinity_variance>
0.2010134161

$$$$
