[H]OC(=O)C([H])([H])C([H])([H])[C@@]([H])(C([H])([H])[H])[C@@]1([H])C([H])([H])C([H])([H])[C@]2([H])[C@]1(C([H])([H])[H])C([H])([H])C([H])([H])[C@]1([H])[C@@]3(C([H])([H])[H])C([H])([H])C([H])([H])[C@@]([H])(O[H])C([H])([H])[C@@]3([H])C([H])([H])[C@@]([H])(O[H])[C@]12[H]


 31 34  0  0  0  0  0  0  0  0999 V2000
   -9.6026   -7.0952    8.3055 C   0  0  0  0  0  0  0  0  0  0  0  0
   -9.0440   -7.0559    6.9295 C   0  0  0  0  0  0  0  0  0  0  0  0
  -10.2101   -7.5115    6.0118 C   0  0  0  0  0  0  0  0  0  0  0  0
  -11.3476   -7.5398    6.9517 C   0  0  0  0  0  0  0  0  0  0  0  0
  -12.5412   -8.3181    6.6862 C   0  0  0  0  0  0  0  0  0  0  0  0
  -13.2294   -7.9509    5.3573 C   0  0  0  0  0  0  0  0  0  0  0  0
  -13.5161   -6.5858    5.3331 O   0  0  0  0  0  0  0  0  0  0  0  0
  -14.5021   -8.6996    5.1882 C   0  0  0  0  0  0  0  0  0  0  0  0
  -15.4337   -8.6194    6.3627 C   0  0  0  0  0  0  0  0  0  0  0  0
  -16.2956   -7.4031    6.3823 C   0  0  0  0  0  0  0  0  0  0  0  0
  -17.4914   -7.7159    7.2923 C   0  0  0  0  0  0  0  0  0  0  0  0
  -17.8894   -6.5784    7.9856 O   0  0  0  0  0  0  0  0  0  0  0  0
  -17.0702   -8.7608    8.3217 C   0  0  0  0  0  0  0  0  0  0  0  0
  -15.6731   -8.5441    8.8028 C   0  0  0  0  0  0  0  0  0  0  0  0
  -14.6989   -8.8460    7.6832 C   0  0  0  0  0  0  0  0  0  0  0  0
  -14.2941  -10.3053    7.6816 C   0  0  0  0  0  0  0  0  0  0  0  0
  -13.5660   -7.8907    7.7557 C   0  0  0  0  0  0  0  0  0  0  0  0
  -12.9527   -7.7097    9.0939 C   0  0  0  0  0  0  0  0  0  0  0  0
  -11.5996   -8.2969    9.2828 C   0  0  0  0  0  0  0  0  0  0  0  0
  -10.6340   -8.1602    8.1888 C   0  0  0  0  0  0  0  0  0  0  0  0
  -10.0159   -9.4638    7.8094 C   0  0  0  0  0  0  0  0  0  0  0  0
  -13.1101   -6.1215    4.5668 H   0  0  0  0  0  0  0  0  0  0  0  0
  -18.5901   -6.0833    7.4806 H   0  0  0  0  0  0  0  0  0  0  0  0
   -9.3573   -6.1206   10.5055 C   0  0  0  0  0  0  0  0  0  0  0  0
   -8.7229   -7.0238    9.4665 C   0  0  0  0  0  0  0  0  0  0  0  0
   -7.2829   -6.8891    9.3480 C   0  0  0  0  0  0  0  0  0  0  0  0
   -6.3531   -6.9796   10.4781 C   0  0  0  0  0  0  0  0  0  0  0  0
   -5.4166   -5.8851   10.7062 C   0  0  0  0  0  0  0  0  0  0  0  0
   -5.4078   -5.3055   11.9914 O   0  0  0  0  0  0  0  0  0  0  0  0
   -4.6482   -5.4541    9.8401 O   0  0  0  0  0  0  0  0  0  0  0  0
   -4.5005   -5.3716   12.4785 H   0  0  0  0  0  0  0  0  0  0  0  0
 24 25  1  0  0  0
 25 26  1  0  0  0
 26 27  1  0  0  0
 27 28  1  0  0  0
 28 29  1  0  0  0
 28 30  2  0  0  0
 25  1  1  0  0  0
  1  2  1  0  0  0
  2  3  1  0  0  0
  3  4  1  0  0  0
  4  5  1  0  0  0
  5  6  1  0  0  0
  6  7  1  0  0  0
  6  8  1  0  0  0
  8  9  1  0  0  0
  9 10  1  0  0  0
 10 11  1  0  0  0
 11 12  1  0  0  0
 11 13  1  0  0  0
 13 14  1  0  0  0
 14 15  1  0  0  0
 15 16  1  0  0  0
 15 17  1  0  0  0
 17 18  1  0  0  0
 18 19  1  0  0  0
 19 20  1  0  0  0
 20 21  1  0  0  0
 20  1  1  0  0  0
 20  4  1  0  0  0
 17  5  1  0  0  0
 15  9  1  0  0  0
 29 31  1  0  0  0
  7 22  1  0  0  0
 12 23  1  0  0  0
M  END
> <minimizedAffinity>
8.42557

> <CNNscore>
0.4658554792

> <CNNaffinity>
6.6792707443

> <CNN_VS>
3.1115748882

> <CNNaffinity_variance>
1.8082700968

$$$$
[H]OC(=O)C([H])([H])C([H])([H])[C@@]([H])(C([H])([H])[H])[C@@]1([H])C([H])([H])C([H])([H])[C@]2([H])[C@]1(C([H])([H])[H])C([H])([H])C([H])([H])[C@]1([H])[C@@]3(C([H])([H])[H])C([H])([H])C([H])([H])[C@@]([H])(O[H])C([H])([H])[C@@]3([H])C([H])([H])[C@@]([H])(O[H])[C@]12[H]


 31 34  0  0  0  0  0  0  0  0999 V2000
  -15.9425   -7.1854    5.3524 C   0  0  0  0  0  0  0  0  0  0  0  0
  -16.2358   -6.0066    6.2076 C   0  0  0  0  0  0  0  0  0  0  0  0
  -15.1140   -6.0027    7.2806 C   0  0  0  0  0  0  0  0  0  0  0  0
  -14.1998   -7.0442    6.7731 C   0  0  0  0  0  0  0  0  0  0  0  0
  -13.2497   -7.7164    7.6370 C   0  0  0  0  0  0  0  0  0  0  0  0
  -12.2792   -6.7532    8.3475 C   0  0  0  0  0  0  0  0  0  0  0  0
  -11.6169   -5.9664    7.4049 O   0  0  0  0  0  0  0  0  0  0  0  0
  -11.2616   -7.4999    9.1321 C   0  0  0  0  0  0  0  0  0  0  0  0
  -10.5492   -8.5762    8.3652 C   0  0  0  0  0  0  0  0  0  0  0  0
   -9.3926   -8.0934    7.5579 C   0  0  0  0  0  0  0  0  0  0  0  0
   -8.4992   -9.3107    7.2824 C   0  0  0  0  0  0  0  0  0  0  0  0
   -7.9129   -9.2129    6.0256 O   0  0  0  0  0  0  0  0  0  0  0  0
   -9.3611  -10.5700    7.2936 C   0  0  0  0  0  0  0  0  0  0  0  0
  -10.6981  -10.3414    6.6684 C   0  0  0  0  0  0  0  0  0  0  0  0
  -11.5225   -9.4305    7.5541 C   0  0  0  0  0  0  0  0  0  0  0  0
  -12.3190  -10.2212    8.5707 C   0  0  0  0  0  0  0  0  0  0  0  0
  -12.3337   -8.5284    6.7000 C   0  0  0  0  0  0  0  0  0  0  0  0
  -13.0793   -9.1767    5.5938 C   0  0  0  0  0  0  0  0  0  0  0  0
  -14.5553   -9.2592    5.7544 C   0  0  0  0  0  0  0  0  0  0  0  0
  -15.2513   -8.0934    6.3060 C   0  0  0  0  0  0  0  0  0  0  0  0
  -16.1438   -8.4507    7.4466 C   0  0  0  0  0  0  0  0  0  0  0  0
  -11.7443   -5.0021    7.5515 H   0  0  0  0  0  0  0  0  0  0  0  0
   -7.0281   -8.7600    6.0822 H   0  0  0  0  0  0  0  0  0  0  0  0
  -16.7821   -6.9771    3.0937 C   0  0  0  0  0  0  0  0  0  0  0  0
  -16.9423   -7.6935    4.4200 C   0  0  0  0  0  0  0  0  0  0  0  0
  -18.3178   -7.9427    4.8092 C   0  0  0  0  0  0  0  0  0  0  0  0
  -18.8669   -9.2750    5.0798 C   0  0  0  0  0  0  0  0  0  0  0  0
  -19.8448   -9.4270    6.1512 C   0  0  0  0  0  0  0  0  0  0  0  0
  -19.4848   -8.9366    7.4230 O   0  0  0  0  0  0  0  0  0  0  0  0
  -20.9503   -9.9558    5.9946 O   0  0  0  0  0  0  0  0  0  0  0  0
  -20.1112   -8.2008    7.7849 H   0  0  0  0  0  0  0  0  0  0  0  0
 24 25  1  0  0  0
 25 26  1  0  0  0
 26 27  1  0  0  0
 27 28  1  0  0  0
 28 29  1  0  0  0
 28 30  2  0  0  0
 25  1  1  0  0  0
  1  2  1  0  0  0
  2  3  1  0  0  0
  3  4  1  0  0  0
  4  5  1  0  0  0
  5  6  1  0  0  0
  6  7  1  0  0  0
  6  8  1  0  0  0
  8  9  1  0  0  0
  9 10  1  0  0  0
 10 11  1  0  0  0
 11 12  1  0  0  0
 11 13  1  0  0  0
 13 14  1  0  0  0
 14 15  1  0  0  0
 15 16  1  0  0  0
 15 17  1  0  0  0
 17 18  1  0  0  0
 18 19  1  0  0  0
 19 20  1  0  0  0
 20 21  1  0  0  0
 20  1  1  0  0  0
 20  4  1  0  0  0
 17  5  1  0  0  0
 15  9  1  0  0  0
 29 31  1  0  0  0
  7 22  1  0  0  0
 12 23  1  0  0  0
M  END
> <minimizedAffinity>
-2.69355

> <CNNscore>
0.3545429111

> <CNNaffinity>
6.6653022766

> <CNN_VS>
2.3631355762

> <CNNaffinity_variance>
0.3000314534

$$$$
[H]OC(=O)C([H])([H])C([H])([H])[C@@]([H])(C([H])([H])[H])[C@@]1([H])C([H])([H])C([H])([H])[C@]2([H])[C@]1(C([H])([H])[H])C([H])([H])C([H])([H])[C@]1([H])[C@@]3(C([H])([H])[H])C([H])([H])C([H])([H])[C@@]([H])(O[H])C([H])([H])[C@@]3([H])C([H])([H])[C@@]([H])(O[H])[C@]12[H]


 31 34  0  0  0  0  0  0  0  0999 V2000
  -12.6030   -8.5625    7.8954 C   0  0  0  0  0  0  0  0  0  0  0  0
  -11.7224   -9.2996    6.9530 C   0  0  0  0  0  0  0  0  0  0  0  0
  -12.5595   -9.4434    5.6537 C   0  0  0  0  0  0  0  0  0  0  0  0
  -13.7223   -8.5809    5.9404 C   0  0  0  0  0  0  0  0  0  0  0  0
  -14.9798   -8.7317    5.2356 C   0  0  0  0  0  0  0  0  0  0  0  0
  -14.8457   -8.5953    3.7066 C   0  0  0  0  0  0  0  0  0  0  0  0
  -14.2468   -7.3757    3.3900 O   0  0  0  0  0  0  0  0  0  0  0  0
  -16.1754   -8.6494    3.0451 C   0  0  0  0  0  0  0  0  0  0  0  0
  -17.1974   -7.7126    3.6212 C   0  0  0  0  0  0  0  0  0  0  0  0
  -17.1266   -6.3220    3.0885 C   0  0  0  0  0  0  0  0  0  0  0  0
  -18.4904   -5.6702    3.3548 C   0  0  0  0  0  0  0  0  0  0  0  0
  -18.3392   -4.3176    3.6390 O   0  0  0  0  0  0  0  0  0  0  0  0
  -19.1249   -6.3307    4.5754 C   0  0  0  0  0  0  0  0  0  0  0  0
  -18.1166   -6.6474    5.6306 C   0  0  0  0  0  0  0  0  0  0  0  0
  -17.2114   -7.7619    5.1484 C   0  0  0  0  0  0  0  0  0  0  0  0
  -17.7699   -9.1224    5.5093 C   0  0  0  0  0  0  0  0  0  0  0  0
  -15.8325   -7.5111    5.6352 C   0  0  0  0  0  0  0  0  0  0  0  0
  -15.7024   -7.1700    7.0728 C   0  0  0  0  0  0  0  0  0  0  0  0
  -15.1058   -8.2154    7.9461 C   0  0  0  0  0  0  0  0  0  0  0  0
  -13.9570   -8.9655    7.4308 C   0  0  0  0  0  0  0  0  0  0  0  0
  -14.1440  -10.4412    7.5443 C   0  0  0  0  0  0  0  0  0  0  0  0
  -13.4255   -7.4776    2.8581 H   0  0  0  0  0  0  0  0  0  0  0  0
  -18.4045   -3.7721    2.8088 H   0  0  0  0  0  0  0  0  0  0  0  0
  -12.8920   -9.7047   10.0077 C   0  0  0  0  0  0  0  0  0  0  0  0
  -12.2828   -8.5007    9.3170 C   0  0  0  0  0  0  0  0  0  0  0  0
  -12.3512   -7.2683   10.0799 C   0  0  0  0  0  0  0  0  0  0  0  0
  -13.3744   -6.9830   11.0906 C   0  0  0  0  0  0  0  0  0  0  0  0
  -14.4297   -7.9639   11.3177 C   0  0  0  0  0  0  0  0  0  0  0  0
  -15.5724   -7.8789   10.4964 O   0  0  0  0  0  0  0  0  0  0  0  0
  -14.3657   -8.8460   12.1803 O   0  0  0  0  0  0  0  0  0  0  0  0
  -15.7504   -8.7239    9.9315 H   0  0  0  0  0  0  0  0  0  0  0  0
 24 25  1  0  0  0
 25 26  1  0  0  0
 26 27  1  0  0  0
 27 28  1  0  0  0
 28 29  1  0  0  0
 28 30  2  0  0  0
 25  1  1  0  0  0
  1  2  1  0  0  0
  2  3  1  0  0  0
  3  4  1  0  0  0
  4  5  1  0  0  0
  5  6  1  0  0  0
  6  7  1  0  0  0
  6  8  1  0  0  0
  8  9  1  0  0  0
  9 10  1  0  0  0
 10 11  1  0  0  0
 11 12  1  0  0  0
 11 13  1  0  0  0
 13 14  1  0  0  0
 14 15  1  0  0  0
 15 16  1  0  0  0
 15 17  1  0  0  0
 17 18  1  0  0  0
 18 19  1  0  0  0
 19 20  1  0  0  0
 20 21  1  0  0  0
 20  1  1  0  0  0
 20  4  1  0  0  0
 17  5  1  0  0  0
 15  9  1  0  0  0
 29 31  1  0  0  0
  7 22  1  0  0  0
 12 23  1  0  0  0
M  END
> <minimizedAffinity>
0.76747

> <CNNscore>
0.2947211862

> <CNNaffinity>
6.3029246330

> <CNN_VS>
1.8576054573

> <CNNaffinity_variance>
0.2044703513

$$$$
[H]OC(=O)C([H])([H])C([H])([H])[C@@]([H])(C([H])([H])[H])[C@@]1([H])C([H])([H])C([H])([H])[C@]2([H])[C@]1(C([H])([H])[H])C([H])([H])C([H])([H])[C@]1([H])[C@@]3(C([H])([H])[H])C([H])([H])C([H])([H])[C@@]([H])(O[H])C([H])([H])[C@@]3([H])C([H])([H])[C@@]([H])(O[H])[C@]12[H]


 31 34  0  0  0  0  0  0  0  0999 V2000
  -11.7814   -9.0397    7.7783 C   0  0  0  0  0  0  0  0  0  0  0  0
  -12.2548   -9.2927    9.1634 C   0  0  0  0  0  0  0  0  0  0  0  0
  -13.6939   -8.7123    9.2059 C   0  0  0  0  0  0  0  0  0  0  0  0
  -13.9421   -8.4020    7.7846 C   0  0  0  0  0  0  0  0  0  0  0  0
  -14.9517   -7.4463    7.3744 C   0  0  0  0  0  0  0  0  0  0  0  0
  -16.3652   -7.7925    7.8809 C   0  0  0  0  0  0  0  0  0  0  0  0
  -16.7124   -9.0809    7.4740 O   0  0  0  0  0  0  0  0  0  0  0  0
  -17.3746   -6.8437    7.3427 C   0  0  0  0  0  0  0  0  0  0  0  0
  -17.3240   -6.6572    5.8539 C   0  0  0  0  0  0  0  0  0  0  0  0
  -18.0653   -7.6927    5.0788 C   0  0  0  0  0  0  0  0  0  0  0  0
  -18.3531   -7.0956    3.6944 C   0  0  0  0  0  0  0  0  0  0  0  0
  -18.2998   -8.0814    2.7155 O   0  0  0  0  0  0  0  0  0  0  0  0
  -17.2789   -6.0619    3.3681 C   0  0  0  0  0  0  0  0  0  0  0  0
  -15.9282   -6.4859    3.8440 C   0  0  0  0  0  0  0  0  0  0  0  0
  -15.8925   -6.4579    5.3579 C   0  0  0  0  0  0  0  0  0  0  0  0
  -15.4647   -5.1006    5.8755 C   0  0  0  0  0  0  0  0  0  0  0  0
  -15.0689   -7.5922    5.8442 C   0  0  0  0  0  0  0  0  0  0  0  0
  -13.7520   -7.7691    5.1852 C   0  0  0  0  0  0  0  0  0  0  0  0
  -12.5567   -7.4214    5.9986 C   0  0  0  0  0  0  0  0  0  0  0  0
  -12.5477   -7.8198    7.4090 C   0  0  0  0  0  0  0  0  0  0  0  0
  -12.2168   -6.6847    8.3186 C   0  0  0  0  0  0  0  0  0  0  0  0
  -16.9415   -9.6726    8.2258 H   0  0  0  0  0  0  0  0  0  0  0  0
  -19.1990   -8.4825    2.5680 H   0  0  0  0  0  0  0  0  0  0  0  0
  -10.1567  -10.4971    6.7360 C   0  0  0  0  0  0  0  0  0  0  0  0
  -10.3687   -9.1717    7.4405 C   0  0  0  0  0  0  0  0  0  0  0  0
   -9.3083   -8.7996    8.3585 C   0  0  0  0  0  0  0  0  0  0  0  0
   -8.0601   -8.1470    7.9514 C   0  0  0  0  0  0  0  0  0  0  0  0
   -8.1331   -6.9038    7.1922 C   0  0  0  0  0  0  0  0  0  0  0  0
   -8.8992   -5.8577    7.7458 O   0  0  0  0  0  0  0  0  0  0  0  0
   -7.5647   -6.7328    6.1086 O   0  0  0  0  0  0  0  0  0  0  0  0
   -8.3637   -4.9962    7.9349 H   0  0  0  0  0  0  0  0  0  0  0  0
 24 25  1  0  0  0
 25 26  1  0  0  0
 26 27  1  0  0  0
 27 28  1  0  0  0
 28 29  1  0  0  0
 28 30  2  0  0  0
 25  1  1  0  0  0
  1  2  1  0  0  0
  2  3  1  0  0  0
  3  4  1  0  0  0
  4  5  1  0  0  0
  5  6  1  0  0  0
  6  7  1  0  0  0
  6  8  1  0  0  0
  8  9  1  0  0  0
  9 10  1  0  0  0
 10 11  1  0  0  0
 11 12  1  0  0  0
 11 13  1  0  0  0
 13 14  1  0  0  0
 14 15  1  0  0  0
 15 16  1  0  0  0
 15 17  1  0  0  0
 17 18  1  0  0  0
 18 19  1  0  0  0
 19 20  1  0  0  0
 20 21  1  0  0  0
 20  1  1  0  0  0
 20  4  1  0  0  0
 17  5  1  0  0  0
 15  9  1  0  0  0
 29 31  1  0  0  0
  7 22  1  0  0  0
 12 23  1  0  0  0
M  END
> <minimizedAffinity>
-4.86250

> <CNNscore>
0.2828562558

> <CNNaffinity>
6.6268286705

> <CNN_VS>
1.8744399548

> <CNNaffinity_variance>
0.1670475006

$$$$
[H]OC(=O)C([H])([H])C([H])([H])[C@@]([H])(C([H])([H])[H])[C@@]1([H])C([H])([H])C([H])([H])[C@]2([H])[C@]1(C([H])([H])[H])C([H])([H])C([H])([H])[C@]1([H])[C@@]3(C([H])([H])[H])C([H])([H])C([H])([H])[C@@]([H])(O[H])C([H])([H])[C@@]3([H])C([H])([H])[C@@]([H])(O[H])[C@]12[H]


 31 34  0  0  0  0  0  0  0  0999 V2000
  -13.7989   -7.4323    9.8815 C   0  0  0  0  0  0  0  0  0  0  0  0
  -12.4811   -6.8270    9.5591 C   0  0  0  0  0  0  0  0  0  0  0  0
  -12.5348   -6.5422    8.0341 C   0  0  0  0  0  0  0  0  0  0  0  0
  -13.9510   -6.8141    7.7204 C   0  0  0  0  0  0  0  0  0  0  0  0
  -14.3922   -7.1194    6.3739 C   0  0  0  0  0  0  0  0  0  0  0  0
  -14.0395   -6.0232    5.3500 C   0  0  0  0  0  0  0  0  0  0  0  0
  -14.5551   -4.7972    5.7712 O   0  0  0  0  0  0  0  0  0  0  0  0
  -14.6083   -6.3357    4.0130 C   0  0  0  0  0  0  0  0  0  0  0  0
  -16.0719   -6.6699    4.0204 C   0  0  0  0  0  0  0  0  0  0  0  0
  -16.9739   -5.4833    3.9899 C   0  0  0  0  0  0  0  0  0  0  0  0
  -18.3393   -5.9713    3.4865 C   0  0  0  0  0  0  0  0  0  0  0  0
  -19.3681   -5.2710    4.1063 O   0  0  0  0  0  0  0  0  0  0  0  0
  -18.5016   -7.4455    3.8462 C   0  0  0  0  0  0  0  0  0  0  0  0
  -17.9312   -7.7620    5.1897 C   0  0  0  0  0  0  0  0  0  0  0  0
  -16.4216   -7.6513    5.1382 C   0  0  0  0  0  0  0  0  0  0  0  0
  -15.7843   -8.9669    4.7427 C   0  0  0  0  0  0  0  0  0  0  0  0
  -15.9328   -7.0892    6.4213 C   0  0  0  0  0  0  0  0  0  0  0  0
  -16.4782   -7.7101    7.6529 C   0  0  0  0  0  0  0  0  0  0  0  0
  -15.5389   -8.5575    8.4346 C   0  0  0  0  0  0  0  0  0  0  0  0
  -14.1609   -8.0851    8.5951 C   0  0  0  0  0  0  0  0  0  0  0  0
  -13.1566   -9.1227    8.2209 C   0  0  0  0  0  0  0  0  0  0  0  0
  -13.8654   -4.1021    5.8648 H   0  0  0  0  0  0  0  0  0  0  0  0
  -19.6218   -4.4694    3.5732 H   0  0  0  0  0  0  0  0  0  0  0  0
  -13.1444   -9.3505   11.2013 C   0  0  0  0  0  0  0  0  0  0  0  0
  -14.0135   -8.1094   11.1552 C   0  0  0  0  0  0  0  0  0  0  0  0
  -15.3313   -8.2732   11.7402 C   0  0  0  0  0  0  0  0  0  0  0  0
  -15.6764   -9.3182   12.7090 C   0  0  0  0  0  0  0  0  0  0  0  0
  -16.7415  -10.2582   12.3784 C   0  0  0  0  0  0  0  0  0  0  0  0
  -17.0631  -11.2304   13.3474 O   0  0  0  0  0  0  0  0  0  0  0  0
  -17.3597  -10.2387   11.3089 O   0  0  0  0  0  0  0  0  0  0  0  0
  -18.0385  -11.1877   13.6813 H   0  0  0  0  0  0  0  0  0  0  0  0
 24 25  1  0  0  0
 25 26  1  0  0  0
 26 27  1  0  0  0
 27 28  1  0  0  0
 28 29  1  0  0  0
 28 30  2  0  0  0
 25  1  1  0  0  0
  1  2  1  0  0  0
  2  3  1  0  0  0
  3  4  1  0  0  0
  4  5  1  0  0  0
  5  6  1  0  0  0
  6  7  1  0  0  0
  6  8  1  0  0  0
  8  9  1  0  0  0
  9 10  1  0  0  0
 10 11  1  0  0  0
 11 12  1  0  0  0
 11 13  1  0  0  0
 13 14  1  0  0  0
 14 15  1  0  0  0
 15 16  1  0  0  0
 15 17  1  0  0  0
 17 18  1  0  0  0
 18 19  1  0  0  0
 19 20  1  0  0  0
 20 21  1  0  0  0
 20  1  1  0  0  0
 20  4  1  0  0  0
 17  5  1  0  0  0
 15  9  1  0  0  0
 29 31  1  0  0  0
  7 22  1  0  0  0
 12 23  1  0  0  0
M  END
> <minimizedAffinity>
9.06264

> <CNNscore>
0.2675766349

> <CNNaffinity>
6.4786820412

> <CNN_VS>
1.7335439920

> <CNNaffinity_variance>
0.3646361530

$$$$
[H]OC(=O)C([H])([H])C([H])([H])[C@@]([H])(C([H])([H])[H])[C@@]1([H])C([H])([H])C([H])([H])[C@]2([H])[C@]1(C([H])([H])[H])C([H])([H])C([H])([H])[C@]1([H])[C@@]3(C([H])([H])[H])C([H])([H])C([H])([H])[C@@]([H])(O[H])C([H])([H])[C@@]3([H])C([H])([H])[C@@]([H])(O[H])[C@]12[H]


 31 34  0  0  0  0  0  0  0  0999 V2000
   -9.1155   -7.6411    7.2183 C   0  0  0  0  0  0  0  0  0  0  0  0
   -9.4321   -6.1911    7.2838 C   0  0  0  0  0  0  0  0  0  0  0  0
   -8.0542   -5.4785    7.2275 C   0  0  0  0  0  0  0  0  0  0  0  0
   -7.1428   -6.5962    6.9145 C   0  0  0  0  0  0  0  0  0  0  0  0
   -5.7224   -6.5278    7.1952 C   0  0  0  0  0  0  0  0  0  0  0  0
   -5.0197   -5.3377    6.5138 C   0  0  0  0  0  0  0  0  0  0  0  0
   -5.2487   -5.3760    5.1382 O   0  0  0  0  0  0  0  0  0  0  0  0
   -3.5522   -5.3778    6.7454 C   0  0  0  0  0  0  0  0  0  0  0  0
   -2.9053   -6.6933    6.4213 C   0  0  0  0  0  0  0  0  0  0  0  0
   -2.5584   -6.8702    4.9822 C   0  0  0  0  0  0  0  0  0  0  0  0
   -1.4855   -7.9654    4.9114 C   0  0  0  0  0  0  0  0  0  0  0  0
   -1.6395   -8.7275    3.7587 O   0  0  0  0  0  0  0  0  0  0  0  0
   -1.6506   -8.8984    6.1077 C   0  0  0  0  0  0  0  0  0  0  0  0
   -3.0870   -9.1395    6.4381 C   0  0  0  0  0  0  0  0  0  0  0  0
   -3.7007   -7.8686    6.9878 C   0  0  0  0  0  0  0  0  0  0  0  0
   -3.5421   -7.7840    8.4914 C   0  0  0  0  0  0  0  0  0  0  0  0
   -5.1000   -7.7589    6.5070 C   0  0  0  0  0  0  0  0  0  0  0  0
   -5.9347   -8.9764    6.6516 C   0  0  0  0  0  0  0  0  0  0  0  0
   -6.9936   -8.9286    7.6945 C   0  0  0  0  0  0  0  0  0  0  0  0
   -7.7628   -7.6890    7.8344 C   0  0  0  0  0  0  0  0  0  0  0  0
   -7.7988   -7.1976    9.2424 C   0  0  0  0  0  0  0  0  0  0  0  0
   -5.6730   -4.5570    4.7964 H   0  0  0  0  0  0  0  0  0  0  0  0
   -1.0981   -8.3528    3.0120 H   0  0  0  0  0  0  0  0  0  0  0  0
  -10.0510   -8.9408    9.0309 C   0  0  0  0  0  0  0  0  0  0  0  0
  -10.1279   -8.6379    7.5476 C   0  0  0  0  0  0  0  0  0  0  0  0
  -10.3887   -9.7926    6.7084 C   0  0  0  0  0  0  0  0  0  0  0  0
  -11.6683  -10.0514    6.0410 C   0  0  0  0  0  0  0  0  0  0  0  0
  -12.8894  -10.0484    6.8385 C   0  0  0  0  0  0  0  0  0  0  0  0
  -13.9522   -9.2424    6.3818 O   0  0  0  0  0  0  0  0  0  0  0  0
  -13.0284  -10.7075    7.8742 O   0  0  0  0  0  0  0  0  0  0  0  0
  -14.8178   -9.7635    6.1723 H   0  0  0  0  0  0  0  0  0  0  0  0
 24 25  1  0  0  0
 25 26  1  0  0  0
 26 27  1  0  0  0
 27 28  1  0  0  0
 28 29  1  0  0  0
 28 30  2  0  0  0
 25  1  1  0  0  0
  1  2  1  0  0  0
  2  3  1  0  0  0
  3  4  1  0  0  0
  4  5  1  0  0  0
  5  6  1  0  0  0
  6  7  1  0  0  0
  6  8  1  0  0  0
  8  9  1  0  0  0
  9 10  1  0  0  0
 10 11  1  0  0  0
 11 12  1  0  0  0
 11 13  1  0  0  0
 13 14  1  0  0  0
 14 15  1  0  0  0
 15 16  1  0  0  0
 15 17  1  0  0  0
 17 18  1  0  0  0
 18 19  1  0  0  0
 19 20  1  0  0  0
 20 21  1  0  0  0
 20  1  1  0  0  0
 20  4  1  0  0  0
 17  5  1  0  0  0
 15  9  1  0  0  0
 29 31  1  0  0  0
  7 22  1  0  0  0
 12 23  1  0  0  0
M  END
> <minimizedAffinity>
-0.91848

> <CNNscore>
0.2593813539

> <CNNaffinity>
5.7853493690

> <CNN_VS>
1.5006117821

> <CNNaffinity_variance>
0.5866854787

$$$$
[H]OC(=O)C([H])([H])C([H])([H])[C@@]([H])(C([H])([H])[H])[C@@]1([H])C([H])([H])C([H])([H])[C@]2([H])[C@]1(C([H])([H])[H])C([H])([H])C([H])([H])[C@]1([H])[C@@]3(C([H])([H])[H])C([H])([H])C([H])([H])[C@@]([H])(O[H])C([H])([H])[C@@]3([H])C([H])([H])[C@@]([H])(O[H])[C@]12[H]


 31 34  0  0  0  0  0  0  0  0999 V2000
  -13.6471   -7.8634    7.4182 C   0  0  0  0  0  0  0  0  0  0  0  0
  -13.9549   -6.9966    8.5848 C   0  0  0  0  0  0  0  0  0  0  0  0
  -12.5811   -6.7266    9.2553 C   0  0  0  0  0  0  0  0  0  0  0  0
  -11.6407   -7.2868    8.2653 C   0  0  0  0  0  0  0  0  0  0  0  0
  -10.2914   -7.6749    8.6252 C   0  0  0  0  0  0  0  0  0  0  0  0
   -9.4670   -6.5276    9.2404 C   0  0  0  0  0  0  0  0  0  0  0  0
   -9.4505   -5.4364    8.3713 O   0  0  0  0  0  0  0  0  0  0  0  0
   -8.0638   -6.9494    9.4889 C   0  0  0  0  0  0  0  0  0  0  0  0
   -7.3839   -7.5808    8.3086 C   0  0  0  0  0  0  0  0  0  0  0  0
   -6.7908   -6.6078    7.3473 C   0  0  0  0  0  0  0  0  0  0  0  0
   -5.7338   -7.3684    6.5348 C   0  0  0  0  0  0  0  0  0  0  0  0
   -5.6905   -6.8985    5.2270 O   0  0  0  0  0  0  0  0  0  0  0  0
   -6.1170   -8.8447    6.4830 C   0  0  0  0  0  0  0  0  0  0  0  0
   -7.5916   -9.0379    6.3462 C   0  0  0  0  0  0  0  0  0  0  0  0
   -8.2790   -8.6154    7.6279 C   0  0  0  0  0  0  0  0  0  0  0  0
   -8.3869   -9.7689    8.6032 C   0  0  0  0  0  0  0  0  0  0  0  0
   -9.5706   -7.9660    7.2939 C   0  0  0  0  0  0  0  0  0  0  0  0
  -10.4305   -8.6888    6.3254 C   0  0  0  0  0  0  0  0  0  0  0  0
  -11.6560   -9.3235    6.8790 C   0  0  0  0  0  0  0  0  0  0  0  0
  -12.4246   -8.5751    7.8775 C   0  0  0  0  0  0  0  0  0  0  0  0
  -12.7029   -9.3803    9.1019 C   0  0  0  0  0  0  0  0  0  0  0  0
   -9.7993   -4.6132    8.7815 H   0  0  0  0  0  0  0  0  0  0  0  0
   -5.0221   -6.1663    5.1361 H   0  0  0  0  0  0  0  0  0  0  0  0
  -14.2340   -8.9170    5.3217 C   0  0  0  0  0  0  0  0  0  0  0  0
  -14.7121   -8.5725    6.7183 C   0  0  0  0  0  0  0  0  0  0  0  0
  -16.1032   -8.1669    6.7972 C   0  0  0  0  0  0  0  0  0  0  0  0
  -16.7527   -7.2674    5.8388 C   0  0  0  0  0  0  0  0  0  0  0  0
  -17.7220   -7.8222    4.9008 C   0  0  0  0  0  0  0  0  0  0  0  0
  -17.9222   -9.2174    4.9351 O   0  0  0  0  0  0  0  0  0  0  0  0
  -18.3606   -7.1365    4.0956 O   0  0  0  0  0  0  0  0  0  0  0  0
  -18.8899   -9.5001    5.1552 H   0  0  0  0  0  0  0  0  0  0  0  0
 24 25  1  0  0  0
 25 26  1  0  0  0
 26 27  1  0  0  0
 27 28  1  0  0  0
 28 29  1  0  0  0
 28 30  2  0  0  0
 25  1  1  0  0  0
  1  2  1  0  0  0
  2  3  1  0  0  0
  3  4  1  0  0  0
  4  5  1  0  0  0
  5  6  1  0  0  0
  6  7  1  0  0  0
  6  8  1  0  0  0
  8  9  1  0  0  0
  9 10  1  0  0  0
 10 11  1  0  0  0
 11 12  1  0  0  0
 11 13  1  0  0  0
 13 14  1  0  0  0
 14 15  1  0  0  0
 15 16  1  0  0  0
 15 17  1  0  0  0
 17 18  1  0  0  0
 18 19  1  0  0  0
 19 20  1  0  0  0
 20 21  1  0  0  0
 20  1  1  0  0  0
 20  4  1  0  0  0
 17  5  1  0  0  0
 15  9  1  0  0  0
 29 31  1  0  0  0
  7 22  1  0  0  0
 12 23  1  0  0  0
M  END
> <minimizedAffinity>
-5.69312

> <CNNscore>
0.2346389741

> <CNNaffinity>
6.3865504265

> <CNN_VS>
1.4985336065

> <CNNaffinity_variance>
0.2152094096

$$$$
[H]OC(=O)C([H])([H])C([H])([H])[C@@]([H])(C([H])([H])[H])[C@@]1([H])C([H])([H])C([H])([H])[C@]2([H])[C@]1(C([H])([H])[H])C([H])([H])C([H])([H])[C@]1([H])[C@@]3(C([H])([H])[H])C([H])([H])C([H])([H])[C@@]([H])(O[H])C([H])([H])[C@@]3([H])C([H])([H])[C@@]([H])(O[H])[C@]12[H]


 31 34  0  0  0  0  0  0  0  0999 V2000
   -6.5902   -7.8475    7.0641 C   0  0  0  0  0  0  0  0  0  0  0  0
   -6.2436   -9.2915    7.1042 C   0  0  0  0  0  0  0  0  0  0  0  0
   -7.5871  -10.0172    7.3836 C   0  0  0  0  0  0  0  0  0  0  0  0
   -8.5635   -8.9189    7.2477 C   0  0  0  0  0  0  0  0  0  0  0  0
   -9.8829   -8.9891    7.8435 C   0  0  0  0  0  0  0  0  0  0  0  0
  -10.7017  -10.2085    7.3777 C   0  0  0  0  0  0  0  0  0  0  0  0
  -10.7890  -10.2174    5.9854 O   0  0  0  0  0  0  0  0  0  0  0  0
  -12.0799  -10.1723    7.9328 C   0  0  0  0  0  0  0  0  0  0  0  0
  -12.8042   -8.8746    7.7199 C   0  0  0  0  0  0  0  0  0  0  0  0
  -13.4690   -8.7521    6.3912 C   0  0  0  0  0  0  0  0  0  0  0  0
  -14.5479   -7.6690    6.5281 C   0  0  0  0  0  0  0  0  0  0  0  0
  -14.6696   -6.9473    5.3460 O   0  0  0  0  0  0  0  0  0  0  0  0
  -14.1328   -6.6926    7.6250 C   0  0  0  0  0  0  0  0  0  0  0  0
  -12.6629   -6.4280    7.6148 C   0  0  0  0  0  0  0  0  0  0  0  0
  -11.9208   -7.6733    8.0534 C   0  0  0  0  0  0  0  0  0  0  0  0
  -11.7355   -7.7055    9.5560 C   0  0  0  0  0  0  0  0  0  0  0  0
  -10.6640   -7.7885    7.2733 C   0  0  0  0  0  0  0  0  0  0  0  0
   -9.8380   -6.5597    7.1858 C   0  0  0  0  0  0  0  0  0  0  0  0
   -8.5709   -6.5615    7.9640 C   0  0  0  0  0  0  0  0  0  0  0  0
   -7.7701   -7.7889    7.9675 C   0  0  0  0  0  0  0  0  0  0  0  0
   -7.4101   -8.2293    9.3465 C   0  0  0  0  0  0  0  0  0  0  0  0
  -10.4393  -11.0445    5.5838 H   0  0  0  0  0  0  0  0  0  0  0  0
  -15.3591   -7.3528    4.7533 H   0  0  0  0  0  0  0  0  0  0  0  0
   -5.5048   -6.2543    8.5248 C   0  0  0  0  0  0  0  0  0  0  0  0
   -5.5458   -6.8312    7.1236 C   0  0  0  0  0  0  0  0  0  0  0  0
   -5.3397   -5.8606    6.0648 C   0  0  0  0  0  0  0  0  0  0  0  0
   -4.2496   -4.8801    6.0494 C   0  0  0  0  0  0  0  0  0  0  0  0
   -3.8817   -4.2591    4.7821 C   0  0  0  0  0  0  0  0  0  0  0  0
   -2.6666   -4.6684    4.1958 O   0  0  0  0  0  0  0  0  0  0  0  0
   -4.5744   -3.4086    4.2136 O   0  0  0  0  0  0  0  0  0  0  0  0
   -2.7698   -5.0884    3.2590 H   0  0  0  0  0  0  0  0  0  0  0  0
 24 25  1  0  0  0
 25 26  1  0  0  0
 26 27  1  0  0  0
 27 28  1  0  0  0
 28 29  1  0  0  0
 28 30  2  0  0  0
 25  1  1  0  0  0
  1  2  1  0  0  0
  2  3  1  0  0  0
  3  4  1  0  0  0
  4  5  1  0  0  0
  5  6  1  0  0  0
  6  7  1  0  0  0
  6  8  1  0  0  0
  8  9  1  0  0  0
  9 10  1  0  0  0
 10 11  1  0  0  0
 11 12  1  0  0  0
 11 13  1  0  0  0
 13 14  1  0  0  0
 14 15  1  0  0  0
 15 16  1  0  0  0
 15 17  1  0  0  0
 17 18  1  0  0  0
 18 19  1  0  0  0
 19 20  1  0  0  0
 20 21  1  0  0  0
 20  1  1  0  0  0
 20  4  1  0  0  0
 17  5  1  0  0  0
 15  9  1  0  0  0
 29 31  1  0  0  0
  7 22  1  0  0  0
 12 23  1  0  0  0
M  END
> <minimizedAffinity>
-5.67955

> <CNNscore>
0.1861212552

> <CNNaffinity>
6.0134849548

> <CNN_VS>
1.1192374229

> <CNNaffinity_variance>
0.1120807379

$$$$
[H]OC(=O)C([H])([H])C([H])([H])[C@@]([H])(C([H])([H])[H])[C@@]1([H])C([H])([H])C([H])([H])[C@]2([H])[C@]1(C([H])([H])[H])C([H])([H])C([H])([H])[C@]1([H])[C@@]3(C([H])([H])[H])C([H])([H])C([H])([H])[C@@]([H])(O[H])C([H])([H])[C@@]3([H])C([H])([H])[C@@]([H])(O[H])[C@]12[H]


 31 34  0  0  0  0  0  0  0  0999 V2000
   -6.4392   -6.6777    7.6535 C   0  0  0  0  0  0  0  0  0  0  0  0
   -5.8969   -6.8203    9.0292 C   0  0  0  0  0  0  0  0  0  0  0  0
   -4.4637   -6.2283    8.9569 C   0  0  0  0  0  0  0  0  0  0  0  0
   -4.4489   -5.6229    7.6110 C   0  0  0  0  0  0  0  0  0  0  0  0
   -3.2111   -5.3433    6.9106 C   0  0  0  0  0  0  0  0  0  0  0  0
   -2.2606   -4.4159    7.6922 C   0  0  0  0  0  0  0  0  0  0  0  0
   -2.9188   -3.2308    8.0215 O   0  0  0  0  0  0  0  0  0  0  0  0
   -1.0599   -4.0759    6.8851 C   0  0  0  0  0  0  0  0  0  0  0  0
   -1.3598   -3.5655    5.5054 C   0  0  0  0  0  0  0  0  0  0  0  0
   -1.6634   -2.1073    5.4415 C   0  0  0  0  0  0  0  0  0  0  0  0
   -1.4299   -1.6643    3.9906 C   0  0  0  0  0  0  0  0  0  0  0  0
   -2.3382   -0.6759    3.6286 O   0  0  0  0  0  0  0  0  0  0  0  0
   -1.6530   -2.8579    3.0664 C   0  0  0  0  0  0  0  0  0  0  0  0
   -2.7907   -3.7135    3.5185 C   0  0  0  0  0  0  0  0  0  0  0  0
   -2.4132   -4.4212    4.8031 C   0  0  0  0  0  0  0  0  0  0  0  0
   -1.7426   -5.7503    4.5253 C   0  0  0  0  0  0  0  0  0  0  0  0
   -3.6071   -4.5031    5.6802 C   0  0  0  0  0  0  0  0  0  0  0  0
   -4.8542   -4.9844    5.0377 C   0  0  0  0  0  0  0  0  0  0  0  0
   -5.3066   -6.3489    5.4183 C   0  0  0  0  0  0  0  0  0  0  0  0
   -5.2037   -6.7371    6.8278 C   0  0  0  0  0  0  0  0  0  0  0  0
   -4.5017   -8.0407    7.0090 C   0  0  0  0  0  0  0  0  0  0  0  0
   -2.9304   -3.0537    8.9890 H   0  0  0  0  0  0  0  0  0  0  0  0
   -1.9670    0.2297    3.8109 H   0  0  0  0  0  0  0  0  0  0  0  0
   -8.7177   -6.3791    6.8992 C   0  0  0  0  0  0  0  0  0  0  0  0
   -7.6465   -7.3914    7.2535 C   0  0  0  0  0  0  0  0  0  0  0  0
   -8.1322   -8.5618    7.9607 C   0  0  0  0  0  0  0  0  0  0  0  0
   -8.9778   -9.5955    7.3556 C   0  0  0  0  0  0  0  0  0  0  0  0
  -10.4260   -9.4843    7.4883 C   0  0  0  0  0  0  0  0  0  0  0  0
  -11.2091  -10.4141    6.7743 O   0  0  0  0  0  0  0  0  0  0  0  0
  -10.9828   -8.6287    8.1843 O   0  0  0  0  0  0  0  0  0  0  0  0
  -11.8133  -11.0025    7.3689 H   0  0  0  0  0  0  0  0  0  0  0  0
 24 25  1  0  0  0
 25 26  1  0  0  0
 26 27  1  0  0  0
 27 28  1  0  0  0
 28 29  1  0  0  0
 28 30  2  0  0  0
 25  1  1  0  0  0
  1  2  1  0  0  0
  2  3  1  0  0  0
  3  4  1  0  0  0
  4  5  1  0  0  0
  5  6  1  0  0  0
  6  7  1  0  0  0
  6  8  1  0  0  0
  8  9  1  0  0  0
  9 10  1  0  0  0
 10 11  1  0  0  0
 11 12  1  0  0  0
 11 13  1  0  0  0
 13 14  1  0  0  0
 14 15  1  0  0  0
 15 16  1  0  0  0
 15 17  1  0  0  0
 17 18  1  0  0  0
 18 19  1  0  0  0
 19 20  1  0  0  0
 20 21  1  0  0  0
 20  1  1  0  0  0
 20  4  1  0  0  0
 17  5  1  0  0  0
 15  9  1  0  0  0
 29 31  1  0  0  0
  7 22  1  0  0  0
 12 23  1  0  0  0
M  END
> <minimizedAffinity>
-5.65611

> <CNNscore>
0.1683580726

> <CNNaffinity>
5.1506690979

> <CNN_VS>
0.8671567440

> <CNNaffinity_variance>
0.1911786795

$$$$
[H]OC(=O)C([H])([H])C([H])([H])[C@@]([H])(C([H])([H])[H])[C@@]1([H])C([H])([H])C([H])([H])[C@]2([H])[C@]1(C([H])([H])[H])C([H])([H])C([H])([H])[C@]1([H])[C@@]3(C([H])([H])[H])C([H])([H])C([H])([H])[C@@]([H])(O[H])C([H])([H])C([H])([H])[C@@]3([H])C([H])([H])[C@@]([H])(O[H])[C@]12[H]


 32 35  0  0  0  0  0  0  0  0999 V2000
  -12.5411   -8.3516    8.1262 C   0  0  0  0  0  0  0  0  0  0  0  0
  -11.5853   -7.1842    7.9312 C   0  0  0  0  0  0  0  0  0  0  0  0
  -12.0381   -6.5191    6.6353 C   0  0  0  0  0  0  0  0  0  0  0  0
  -13.4539   -6.9609    6.5550 C   0  0  0  0  0  0  0  0  0  0  0  0
  -14.1721   -6.6954    5.2989 C   0  0  0  0  0  0  0  0  0  0  0  0
  -14.3470   -5.1705    5.2092 C   0  0  0  0  0  0  0  0  0  0  0  0
  -15.1847   -4.7597    6.2503 O   0  0  0  0  0  0  0  0  0  0  0  0
  -15.0236   -4.8928    3.9080 C   0  0  0  0  0  0  0  0  0  0  0  0
  -16.3672   -5.5789    3.7873 C   0  0  0  0  0  0  0  0  0  0  0  0
  -17.4031   -4.8943    4.6257 C   0  0  0  0  0  0  0  0  0  0  0  0
  -18.6718   -4.6895    3.8198 C   0  0  0  0  0  0  0  0  0  0  0  0
  -19.4288   -5.9510    3.5782 C   0  0  0  0  0  0  0  0  0  0  0  0
  -20.0706   -6.3723    4.7245 O   0  0  0  0  0  0  0  0  0  0  0  0
  -18.5515   -7.0871    3.0729 C   0  0  0  0  0  0  0  0  0  0  0  0
  -17.6579   -7.6321    4.1333 C   0  0  0  0  0  0  0  0  0  0  0  0
  -16.2545   -7.0676    4.1032 C   0  0  0  0  0  0  0  0  0  0  0  0
  -15.5247   -7.6938    2.9388 C   0  0  0  0  0  0  0  0  0  0  0  0
  -15.5771   -7.2471    5.4198 C   0  0  0  0  0  0  0  0  0  0  0  0
  -15.5953   -8.6803    5.8772 C   0  0  0  0  0  0  0  0  0  0  0  0
  -14.7569   -8.9231    7.0941 C   0  0  0  0  0  0  0  0  0  0  0  0
  -13.3262   -8.4598    6.8862 C   0  0  0  0  0  0  0  0  0  0  0  0
  -12.7650   -9.2303    5.7556 C   0  0  0  0  0  0  0  0  0  0  0  0
  -14.7060   -4.6131    7.0890 H   0  0  0  0  0  0  0  0  0  0  0  0
  -20.2402   -7.3478    4.7389 H   0  0  0  0  0  0  0  0  0  0  0  0
  -12.4646   -9.5311   10.2123 C   0  0  0  0  0  0  0  0  0  0  0  0
  -11.9547   -9.5427    8.7498 C   0  0  0  0  0  0  0  0  0  0  0  0
  -10.4604   -9.5961    8.8716 C   0  0  0  0  0  0  0  0  0  0  0  0
   -9.8256   -9.8879    7.4998 C   0  0  0  0  0  0  0  0  0  0  0  0
   -8.3492   -9.6928    7.5752 C   0  0  0  0  0  0  0  0  0  0  0  0
   -7.7873   -8.5965    6.9381 O   0  0  0  0  0  0  0  0  0  0  0  0
   -7.6074  -10.4968    8.2009 O   0  0  0  0  0  0  0  0  0  0  0  0
   -7.9155   -7.6414    7.2830 H   0  0  0  0  0  0  0  0  0  0  0  0
 25 26  1  0  0  0
 26 27  1  0  0  0
 27 28  1  0  0  0
 28 29  1  0  0  0
 29 30  1  0  0  0
 29 31  2  0  0  0
 26  1  1  0  0  0
  1  2  1  0  0  0
  2  3  1  0  0  0
  3  4  1  0  0  0
  4  5  1  0  0  0
  5  6  1  0  0  0
  6  7  1  0  0  0
  6  8  1  0  0  0
  8  9  1  0  0  0
  9 10  1  0  0  0
 10 11  1  0  0  0
 11 12  1  0  0  0
 12 13  1  0  0  0
 12 14  1  0  0  0
 14 15  1  0  0  0
 15 16  1  0  0  0
 16 17  1  0  0  0
 16 18  1  0  0  0
 18 19  1  0  0  0
 19 20  1  0  0  0
 20 21  1  0  0  0
 21 22  1  0  0  0
 21  1  1  0  0  0
 21  4  1  0  0  0
 18  5  1  0  0  0
 16  9  1  0  0  0
 30 32  1  0  0  0
  7 23  1  0  0  0
 13 24  1  0  0  0
M  END
> <minimizedAffinity>
3.66419

> <CNNscore>
0.4440819919

> <CNNaffinity>
6.6382851601

> <CNN_VS>
2.9479429722

> <CNNaffinity_variance>
0.9758173823

$$$$
[H]OC(=O)C([H])([H])C([H])([H])[C@@]([H])(C([H])([H])[H])[C@@]1([H])C([H])([H])C([H])([H])[C@]2([H])[C@]1(C([H])([H])[H])C([H])([H])C([H])([H])[C@]1([H])[C@@]3(C([H])([H])[H])C([H])([H])C([H])([H])[C@@]([H])(O[H])C([H])([H])C([H])([H])[C@@]3([H])C([H])([H])[C@@]([H])(O[H])[C@]12[H]


 32 35  0  0  0  0  0  0  0  0999 V2000
  -12.5203   -7.6019    8.7736 C   0  0  0  0  0  0  0  0  0  0  0  0
  -11.3169   -7.2991    7.8935 C   0  0  0  0  0  0  0  0  0  0  0  0
  -11.8514   -7.3541    6.4659 C   0  0  0  0  0  0  0  0  0  0  0  0
  -13.2983   -7.0971    6.6817 C   0  0  0  0  0  0  0  0  0  0  0  0
  -14.1964   -7.2975    5.5340 C   0  0  0  0  0  0  0  0  0  0  0  0
  -13.8621   -6.1922    4.5190 C   0  0  0  0  0  0  0  0  0  0  0  0
  -14.1949   -4.9577    5.0840 O   0  0  0  0  0  0  0  0  0  0  0  0
  -14.7308   -6.4272    3.3281 C   0  0  0  0  0  0  0  0  0  0  0  0
  -16.2064   -6.3971    3.6634 C   0  0  0  0  0  0  0  0  0  0  0  0
  -16.6802   -4.9956    3.9004 C   0  0  0  0  0  0  0  0  0  0  0  0
  -17.9727   -4.7491    3.1455 C   0  0  0  0  0  0  0  0  0  0  0  0
  -19.1474   -5.4482    3.7407 C   0  0  0  0  0  0  0  0  0  0  0  0
  -19.5570   -4.8291    4.9035 O   0  0  0  0  0  0  0  0  0  0  0  0
  -18.8789   -6.9147    4.0454 C   0  0  0  0  0  0  0  0  0  0  0  0
  -17.9705   -7.0973    5.2122 C   0  0  0  0  0  0  0  0  0  0  0  0
  -16.5232   -7.3236    4.8338 C   0  0  0  0  0  0  0  0  0  0  0  0
  -16.3938   -8.7325    4.3059 C   0  0  0  0  0  0  0  0  0  0  0  0
  -15.6162   -7.0109    5.9757 C   0  0  0  0  0  0  0  0  0  0  0  0
  -15.9937   -7.7625    7.2232 C   0  0  0  0  0  0  0  0  0  0  0  0
  -14.9902   -7.6200    8.3257 C   0  0  0  0  0  0  0  0  0  0  0  0
  -13.6009   -8.0289    7.8704 C   0  0  0  0  0  0  0  0  0  0  0  0
  -13.6632   -9.4479    7.4590 C   0  0  0  0  0  0  0  0  0  0  0  0
  -13.4864   -4.5943    5.6496 H   0  0  0  0  0  0  0  0  0  0  0  0
  -20.0362   -5.4379    5.5201 H   0  0  0  0  0  0  0  0  0  0  0  0
  -12.8613   -9.7484    9.7860 C   0  0  0  0  0  0  0  0  0  0  0  0
  -12.2260   -8.3520    9.9992 C   0  0  0  0  0  0  0  0  0  0  0  0
  -12.8310   -7.8535   11.2784 C   0  0  0  0  0  0  0  0  0  0  0  0
  -14.3623   -7.7697   11.1446 C   0  0  0  0  0  0  0  0  0  0  0  0
  -15.0059   -8.6823   12.1329 C   0  0  0  0  0  0  0  0  0  0  0  0
  -16.3902   -8.7581   12.1687 O   0  0  0  0  0  0  0  0  0  0  0  0
  -14.3235   -9.3805   12.9298 O   0  0  0  0  0  0  0  0  0  0  0  0
  -16.9303   -9.2081   11.4248 H   0  0  0  0  0  0  0  0  0  0  0  0
 25 26  1  0  0  0
 26 27  1  0  0  0
 27 28  1  0  0  0
 28 29  1  0  0  0
 29 30  1  0  0  0
 29 31  2  0  0  0
 26  1  1  0  0  0
  1  2  1  0  0  0
  2  3  1  0  0  0
  3  4  1  0  0  0
  4  5  1  0  0  0
  5  6  1  0  0  0
  6  7  1  0  0  0
  6  8  1  0  0  0
  8  9  1  0  0  0
  9 10  1  0  0  0
 10 11  1  0  0  0
 11 12  1  0  0  0
 12 13  1  0  0  0
 12 14  1  0  0  0
 14 15  1  0  0  0
 15 16  1  0  0  0
 16 17  1  0  0  0
 16 18  1  0  0  0
 18 19  1  0  0  0
 19 20  1  0  0  0
 20 21  1  0  0  0
 21 22  1  0  0  0
 21  1  1  0  0  0
 21  4  1  0  0  0
 18  5  1  0  0  0
 16  9  1  0  0  0
 30 32  1  0  0  0
  7 23  1  0  0  0
 13 24  1  0  0  0
M  END
> <minimizedAffinity>
4.90644

> <CNNscore>
0.4381133318

> <CNNaffinity>
6.5601644516

> <CNN_VS>
2.8740954399

> <CNNaffinity_variance>
0.7145786285

$$$$
[H]OC(=O)C([H])([H])C([H])([H])[C@@]([H])(C([H])([H])[H])[C@@]1([H])C([H])([H])C([H])([H])[C@]2([H])[C@]1(C([H])([H])[H])C([H])([H])C([H])([H])[C@]1([H])[C@@]3(C([H])([H])[H])C([H])([H])C([H])([H])[C@@]([H])(O[H])C([H])([H])C([H])([H])[C@@]3([H])C([H])([H])[C@@]([H])(O[H])[C@]12[H]


 32 35  0  0  0  0  0  0  0  0999 V2000
  -11.6501   -8.3571    7.4084 C   0  0  0  0  0  0  0  0  0  0  0  0
  -12.1572   -9.7077    7.8913 C   0  0  0  0  0  0  0  0  0  0  0  0
  -13.6739   -9.6311    7.7478 C   0  0  0  0  0  0  0  0  0  0  0  0
  -13.8203   -8.5728    6.7160 C   0  0  0  0  0  0  0  0  0  0  0  0
  -15.1750   -8.0546    6.4703 C   0  0  0  0  0  0  0  0  0  0  0  0
  -15.9684   -9.1977    5.8164 C   0  0  0  0  0  0  0  0  0  0  0  0
  -15.4045   -9.4684    4.5662 O   0  0  0  0  0  0  0  0  0  0  0  0
  -17.3600   -8.6950    5.6189 C   0  0  0  0  0  0  0  0  0  0  0  0
  -17.4186   -7.4570    4.7501 C   0  0  0  0  0  0  0  0  0  0  0  0
  -17.1924   -7.7952    3.3081 C   0  0  0  0  0  0  0  0  0  0  0  0
  -18.2332   -7.1089    2.4438 C   0  0  0  0  0  0  0  0  0  0  0  0
  -18.0269   -5.6369    2.3267 C   0  0  0  0  0  0  0  0  0  0  0  0
  -16.9615   -5.3491    1.4989 O   0  0  0  0  0  0  0  0  0  0  0  0
  -17.7912   -4.9579    3.6679 C   0  0  0  0  0  0  0  0  0  0  0  0
  -16.4486   -5.2673    4.2352 C   0  0  0  0  0  0  0  0  0  0  0  0
  -16.4558   -6.3857    5.2540 C   0  0  0  0  0  0  0  0  0  0  0  0
  -17.0520   -5.8479    6.5331 C   0  0  0  0  0  0  0  0  0  0  0  0
  -15.0946   -6.9745    5.4120 C   0  0  0  0  0  0  0  0  0  0  0  0
  -14.0583   -5.9316    5.7315 C   0  0  0  0  0  0  0  0  0  0  0  0
  -12.7247   -6.5130    6.0871 C   0  0  0  0  0  0  0  0  0  0  0  0
  -12.8367   -7.5049    7.2308 C   0  0  0  0  0  0  0  0  0  0  0  0
  -13.3716   -6.7794    8.4031 C   0  0  0  0  0  0  0  0  0  0  0  0
  -14.6449  -10.0803    4.6155 H   0  0  0  0  0  0  0  0  0  0  0  0
  -16.5459   -4.4712    1.6911 H   0  0  0  0  0  0  0  0  0  0  0  0
  -10.9692   -7.3490    9.4745 C   0  0  0  0  0  0  0  0  0  0  0  0
  -10.4599   -7.8518    8.1009 C   0  0  0  0  0  0  0  0  0  0  0  0
   -9.7602   -6.6678    7.5014 C   0  0  0  0  0  0  0  0  0  0  0  0
   -9.0206   -7.0822    6.2165 C   0  0  0  0  0  0  0  0  0  0  0  0
   -7.5712   -6.7542    6.3404 C   0  0  0  0  0  0  0  0  0  0  0  0
   -6.7057   -7.1653    5.3377 O   0  0  0  0  0  0  0  0  0  0  0  0
   -7.1201   -6.1163    7.3292 O   0  0  0  0  0  0  0  0  0  0  0  0
   -6.7071   -6.7375    4.4079 H   0  0  0  0  0  0  0  0  0  0  0  0
 25 26  1  0  0  0
 26 27  1  0  0  0
 27 28  1  0  0  0
 28 29  1  0  0  0
 29 30  1  0  0  0
 29 31  2  0  0  0
 26  1  1  0  0  0
  1  2  1  0  0  0
  2  3  1  0  0  0
  3  4  1  0  0  0
  4  5  1  0  0  0
  5  6  1  0  0  0
  6  7  1  0  0  0
  6  8  1  0  0  0
  8  9  1  0  0  0
  9 10  1  0  0  0
 10 11  1  0  0  0
 11 12  1  0  0  0
 12 13  1  0  0  0
 12 14  1  0  0  0
 14 15  1  0  0  0
 15 16  1  0  0  0
 16 17  1  0  0  0
 16 18  1  0  0  0
 18 19  1  0  0  0
 19 20  1  0  0  0
 20 21  1  0  0  0
 21 22  1  0  0  0
 21  1  1  0  0  0
 21  4  1  0  0  0
 18  5  1  0  0  0
 16  9  1  0  0  0
 30 32  1  0  0  0
  7 23  1  0  0  0
 13 24  1  0  0  0
M  END
> <minimizedAffinity>
2.42753

> <CNNscore>
0.4239512682

> <CNNaffinity>
6.8104352951

> <CNN_VS>
2.8872926235

> <CNNaffinity_variance>
1.0279830694

$$$$
[H]OC(=O)C([H])([H])C([H])([H])[C@@]([H])(C([H])([H])[H])[C@@]1([H])C([H])([H])C([H])([H])[C@]2([H])[C@]1(C([H])([H])[H])C([H])([H])C([H])([H])[C@]1([H])[C@@]3(C([H])([H])[H])C([H])([H])C([H])([H])[C@@]([H])(O[H])C([H])([H])C([H])([H])[C@@]3([H])C([H])([H])[C@@]([H])(O[H])[C@]12[H]


 32 35  0  0  0  0  0  0  0  0999 V2000
  -11.5316   -7.6641    8.4996 C   0  0  0  0  0  0  0  0  0  0  0  0
  -11.4641   -9.1396    8.8641 C   0  0  0  0  0  0  0  0  0  0  0  0
  -10.1297   -9.6213    8.3036 C   0  0  0  0  0  0  0  0  0  0  0  0
   -9.3660   -8.3499    8.2242 C   0  0  0  0  0  0  0  0  0  0  0  0
   -8.0820   -8.3792    7.5069 C   0  0  0  0  0  0  0  0  0  0  0  0
   -7.1252   -9.2302    8.3579 C   0  0  0  0  0  0  0  0  0  0  0  0
   -6.8995   -8.5660    9.5671 O   0  0  0  0  0  0  0  0  0  0  0  0
   -5.8389   -9.3109    7.6048 C   0  0  0  0  0  0  0  0  0  0  0  0
   -5.2291   -7.9516    7.3380 C   0  0  0  0  0  0  0  0  0  0  0  0
   -4.6210   -7.3766    8.5808 C   0  0  0  0  0  0  0  0  0  0  0  0
   -3.2367   -6.8344    8.2793 C   0  0  0  0  0  0  0  0  0  0  0  0
   -3.2559   -5.5763    7.4795 C   0  0  0  0  0  0  0  0  0  0  0  0
   -3.6495   -4.5029    8.2516 O   0  0  0  0  0  0  0  0  0  0  0  0
   -4.1680   -5.6546    6.2639 C   0  0  0  0  0  0  0  0  0  0  0  0
   -5.6115   -5.6371    6.6325 C   0  0  0  0  0  0  0  0  0  0  0  0
   -6.2449   -7.0094    6.6983 C   0  0  0  0  0  0  0  0  0  0  0  0
   -6.4449   -7.4993    5.2838 C   0  0  0  0  0  0  0  0  0  0  0  0
   -7.4888   -6.9860    7.5208 C   0  0  0  0  0  0  0  0  0  0  0  0
   -8.4627   -5.9411    7.0480 C   0  0  0  0  0  0  0  0  0  0  0  0
   -9.7950   -6.0245    7.7269 C   0  0  0  0  0  0  0  0  0  0  0  0
  -10.4052   -7.4075    7.5879 C   0  0  0  0  0  0  0  0  0  0  0  0
  -10.5847   -7.6757    6.1447 C   0  0  0  0  0  0  0  0  0  0  0  0
   -7.5881   -8.7475   10.2355 H   0  0  0  0  0  0  0  0  0  0  0  0
   -4.0498   -3.7687    7.7215 H   0  0  0  0  0  0  0  0  0  0  0  0
  -13.1399   -6.0523    9.2507 C   0  0  0  0  0  0  0  0  0  0  0  0
  -12.8735   -7.1554    8.1965 C   0  0  0  0  0  0  0  0  0  0  0  0
  -14.0246   -8.1059    8.3459 C   0  0  0  0  0  0  0  0  0  0  0  0
  -15.3560   -7.3685    8.1146 C   0  0  0  0  0  0  0  0  0  0  0  0
  -15.6558   -7.3141    6.6549 C   0  0  0  0  0  0  0  0  0  0  0  0
  -16.5848   -6.3912    6.1981 O   0  0  0  0  0  0  0  0  0  0  0  0
  -15.0871   -8.0832    5.8343 O   0  0  0  0  0  0  0  0  0  0  0  0
  -16.3906   -5.3865    6.1798 H   0  0  0  0  0  0  0  0  0  0  0  0
 25 26  1  0  0  0
 26 27  1  0  0  0
 27 28  1  0  0  0
 28 29  1  0  0  0
 29 30  1  0  0  0
 29 31  2  0  0  0
 26  1  1  0  0  0
  1  2  1  0  0  0
  2  3  1  0  0  0
  3  4  1  0  0  0
  4  5  1  0  0  0
  5  6  1  0  0  0
  6  7  1  0  0  0
  6  8  1  0  0  0
  8  9  1  0  0  0
  9 10  1  0  0  0
 10 11  1  0  0  0
 11 12  1  0  0  0
 12 13  1  0  0  0
 12 14  1  0  0  0
 14 15  1  0  0  0
 15 16  1  0  0  0
 16 17  1  0  0  0
 16 18  1  0  0  0
 18 19  1  0  0  0
 19 20  1  0  0  0
 20 21  1  0  0  0
 21 22  1  0  0  0
 21  1  1  0  0  0
 21  4  1  0  0  0
 18  5  1  0  0  0
 16  9  1  0  0  0
 30 32  1  0  0  0
  7 23  1  0  0  0
 13 24  1  0  0  0
M  END
> <minimizedAffinity>
-0.90942

> <CNNscore>
0.3872250021

> <CNNaffinity>
6.4360175133

> <CNN_VS>
2.4921867847

> <CNNaffinity_variance>
0.6668723822

$$$$
[H]OC(=O)C([H])([H])C([H])([H])[C@@]([H])(C([H])([H])[H])[C@@]1([H])C([H])([H])C([H])([H])[C@]2([H])[C@]1(C([H])([H])[H])C([H])([H])C([H])([H])[C@]1([H])[C@@]3(C([H])([H])[H])C([H])([H])C([H])([H])[C@@]([H])(O[H])C([H])([H])C([H])([H])[C@@]3([H])C([H])([H])[C@@]([H])(O[H])[C@]12[H]


 32 35  0  0  0  0  0  0  0  0999 V2000
  -11.6313   -8.9308    8.4911 C   0  0  0  0  0  0  0  0  0  0  0  0
  -12.3290   -8.9888    9.8418 C   0  0  0  0  0  0  0  0  0  0  0  0
  -13.6091   -8.1801    9.6569 C   0  0  0  0  0  0  0  0  0  0  0  0
  -13.7956   -8.2539    8.1852 C   0  0  0  0  0  0  0  0  0  0  0  0
  -14.8263   -7.3875    7.5927 C   0  0  0  0  0  0  0  0  0  0  0  0
  -16.1822   -7.9274    8.0762 C   0  0  0  0  0  0  0  0  0  0  0  0
  -16.3669   -9.2043    7.5380 O   0  0  0  0  0  0  0  0  0  0  0  0
  -17.2276   -7.0159    7.5245 C   0  0  0  0  0  0  0  0  0  0  0  0
  -17.2049   -6.9442    6.0129 C   0  0  0  0  0  0  0  0  0  0  0  0
  -17.7756   -8.1877    5.4023 C   0  0  0  0  0  0  0  0  0  0  0  0
  -18.7587   -7.8244    4.3057 C   0  0  0  0  0  0  0  0  0  0  0  0
  -18.1032   -7.2945    3.0758 C   0  0  0  0  0  0  0  0  0  0  0  0
  -17.4867   -8.3050    2.3671 O   0  0  0  0  0  0  0  0  0  0  0  0
  -17.0729   -6.2130    3.3664 C   0  0  0  0  0  0  0  0  0  0  0  0
  -15.8348   -6.7583    3.9907 C   0  0  0  0  0  0  0  0  0  0  0  0
  -15.8020   -6.6349    5.4982 C   0  0  0  0  0  0  0  0  0  0  0  0
  -15.5336   -5.1892    5.8424 C   0  0  0  0  0  0  0  0  0  0  0  0
  -14.8303   -7.5975    6.0930 C   0  0  0  0  0  0  0  0  0  0  0  0
  -13.4583   -7.4654    5.4897 C   0  0  0  0  0  0  0  0  0  0  0  0
  -12.4198   -8.2786    6.1989 C   0  0  0  0  0  0  0  0  0  0  0  0
  -12.3722   -7.9510    7.6805 C   0  0  0  0  0  0  0  0  0  0  0  0
  -12.0317   -6.5181    7.8124 C   0  0  0  0  0  0  0  0  0  0  0  0
  -15.9451   -9.9065    8.0700 H   0  0  0  0  0  0  0  0  0  0  0  0
  -16.7405   -7.9835    1.8012 H   0  0  0  0  0  0  0  0  0  0  0  0
   -9.7845   -7.4056    8.6008 C   0  0  0  0  0  0  0  0  0  0  0  0
  -10.1657   -8.9058    8.5447 C   0  0  0  0  0  0  0  0  0  0  0  0
   -9.4201   -9.4405    7.3577 C   0  0  0  0  0  0  0  0  0  0  0  0
   -7.9695   -9.7765    7.7488 C   0  0  0  0  0  0  0  0  0  0  0  0
   -7.0314   -8.8516    7.0502 C   0  0  0  0  0  0  0  0  0  0  0  0
   -6.2004   -8.0432    7.8113 O   0  0  0  0  0  0  0  0  0  0  0  0
   -6.9784   -8.7897    5.7926 O   0  0  0  0  0  0  0  0  0  0  0  0
   -5.4097   -8.4203    8.3407 H   0  0  0  0  0  0  0  0  0  0  0  0
 25 26  1  0  0  0
 26 27  1  0  0  0
 27 28  1  0  0  0
 28 29  1  0  0  0
 29 30  1  0  0  0
 29 31  2  0  0  0
 26  1  1  0  0  0
  1  2  1  0  0  0
  2  3  1  0  0  0
  3  4  1  0  0  0
  4  5  1  0  0  0
  5  6  1  0  0  0
  6  7  1  0  0  0
  6  8  1  0  0  0
  8  9  1  0  0  0
  9 10  1  0  0  0
 10 11  1  0  0  0
 11 12  1  0  0  0
 12 13  1  0  0  0
 12 14  1  0  0  0
 14 15  1  0  0  0
 15 16  1  0  0  0
 16 17  1  0  0  0
 16 18  1  0  0  0
 18 19  1  0  0  0
 19 20  1  0  0  0
 20 21  1  0  0  0
 21 22  1  0  0  0
 21  1  1  0  0  0
 21  4  1  0  0  0
 18  5  1  0  0  0
 16  9  1  0  0  0
 30 32  1  0  0  0
  7 23  1  0  0  0
 13 24  1  0  0  0
M  END
> <minimizedAffinity>
-3.94276

> <CNNscore>
0.3584022522

> <CNNaffinity>
6.7543005943

> <CNN_VS>
2.4207565784

> <CNNaffinity_variance>
0.2831798494

$$$$
[H]OC(=O)C([H])([H])C([H])([H])[C@@]([H])(C([H])([H])[H])[C@@]1([H])C([H])([H])C([H])([H])[C@]2([H])[C@]1(C([H])([H])[H])C([H])([H])C([H])([H])[C@]1([H])[C@@]3(C([H])([H])[H])C([H])([H])C([H])([H])[C@@]([H])(O[H])C([H])([H])C([H])([H])[C@@]3([H])C([H])([H])[C@@]([H])(O[H])[C@]12[H]


 32 35  0  0  0  0  0  0  0  0999 V2000
  -13.1967   -7.7122    7.0135 C   0  0  0  0  0  0  0  0  0  0  0  0
  -13.4060   -6.6126    8.0438 C   0  0  0  0  0  0  0  0  0  0  0  0
  -12.1233   -6.5994    8.8692 C   0  0  0  0  0  0  0  0  0  0  0  0
  -11.1571   -7.2155    7.9243 C   0  0  0  0  0  0  0  0  0  0  0  0
   -9.8353   -7.5817    8.4560 C   0  0  0  0  0  0  0  0  0  0  0  0
   -9.1130   -6.2632    8.7780 C   0  0  0  0  0  0  0  0  0  0  0  0
   -8.8927   -5.5760    7.5808 O   0  0  0  0  0  0  0  0  0  0  0  0
   -7.7941   -6.6313    9.3722 C   0  0  0  0  0  0  0  0  0  0  0  0
   -6.9476   -7.4754    8.4439 C   0  0  0  0  0  0  0  0  0  0  0  0
   -6.3694   -6.6492    7.3358 C   0  0  0  0  0  0  0  0  0  0  0  0
   -4.8932   -6.9581    7.1730 C   0  0  0  0  0  0  0  0  0  0  0  0
   -4.6323   -8.2951    6.5669 C   0  0  0  0  0  0  0  0  0  0  0  0
   -4.9132   -8.2914    5.2162 O   0  0  0  0  0  0  0  0  0  0  0  0
   -5.4300   -9.4138    7.2211 C   0  0  0  0  0  0  0  0  0  0  0  0
   -6.8786   -9.3572    6.8771 C   0  0  0  0  0  0  0  0  0  0  0  0
   -7.7321   -8.6769    7.9248 C   0  0  0  0  0  0  0  0  0  0  0  0
   -7.8798   -9.6231    9.0925 C   0  0  0  0  0  0  0  0  0  0  0  0
   -9.0251   -8.2136    7.3436 C   0  0  0  0  0  0  0  0  0  0  0  0
   -9.7668   -9.3243    6.6508 C   0  0  0  0  0  0  0  0  0  0  0  0
  -11.1511   -8.9380    6.2296 C   0  0  0  0  0  0  0  0  0  0  0  0
  -11.9649   -8.4182    7.4010 C   0  0  0  0  0  0  0  0  0  0  0  0
  -12.0534   -9.5028    8.4022 C   0  0  0  0  0  0  0  0  0  0  0  0
   -9.6598   -5.0390    7.3032 H   0  0  0  0  0  0  0  0  0  0  0  0
   -5.1373   -9.1889    4.8633 H   0  0  0  0  0  0  0  0  0  0  0  0
  -14.1520   -8.9429    5.1910 C   0  0  0  0  0  0  0  0  0  0  0  0
  -14.4034   -8.4576    6.6403 C   0  0  0  0  0  0  0  0  0  0  0  0
  -15.6931   -7.6948    6.5643 C   0  0  0  0  0  0  0  0  0  0  0  0
  -16.6103   -8.0837    7.7379 C   0  0  0  0  0  0  0  0  0  0  0  0
  -15.7981   -8.6812    8.8365 C   0  0  0  0  0  0  0  0  0  0  0  0
  -15.5362   -7.9177    9.9643 O   0  0  0  0  0  0  0  0  0  0  0  0
  -15.3483   -9.8561    8.7621 O   0  0  0  0  0  0  0  0  0  0  0  0
  -16.2631   -7.6883   10.6474 H   0  0  0  0  0  0  0  0  0  0  0  0
 25 26  1  0  0  0
 26 27  1  0  0  0
 27 28  1  0  0  0
 28 29  1  0  0  0
 29 30  1  0  0  0
 29 31  2  0  0  0
 26  1  1  0  0  0
  1  2  1  0  0  0
  2  3  1  0  0  0
  3  4  1  0  0  0
  4  5  1  0  0  0
  5  6  1  0  0  0
  6  7  1  0  0  0
  6  8  1  0  0  0
  8  9  1  0  0  0
  9 10  1  0  0  0
 10 11  1  0  0  0
 11 12  1  0  0  0
 12 13  1  0  0  0
 12 14  1  0  0  0
 14 15  1  0  0  0
 15 16  1  0  0  0
 16 17  1  0  0  0
 16 18  1  0  0  0
 18 19  1  0  0  0
 19 20  1  0  0  0
 20 21  1  0  0  0
 21 22  1  0  0  0
 21  1  1  0  0  0
 21  4  1  0  0  0
 18  5  1  0  0  0
 16  9  1  0  0  0
 30 32  1  0  0  0
  7 23  1  0  0  0
 13 24  1  0  0  0
M  END
> <minimizedAffinity>
-0.78392

> <CNNscore>
0.3538571000

> <CNNaffinity>
6.4790449142

> <CNN_VS>
2.2926559448

> <CNNaffinity_variance>
0.9075021744

$$$$
[H]OC(=O)C([H])([H])C([H])([H])[C@@]([H])(C([H])([H])[H])[C@@]1([H])C([H])([H])C([H])([H])[C@]2([H])[C@]1(C([H])([H])[H])C([H])([H])C([H])([H])[C@]1([H])[C@@]3(C([H])([H])[H])C([H])([H])C([H])([H])[C@@]([H])(O[H])C([H])([H])C([H])([H])[C@@]3([H])C([H])([H])[C@@]([H])(O[H])[C@]12[H]


 32 35  0  0  0  0  0  0  0  0999 V2000
   -7.7057   -7.4155    8.0027 C   0  0  0  0  0  0  0  0  0  0  0  0
   -7.4960   -6.3303    9.0481 C   0  0  0  0  0  0  0  0  0  0  0  0
   -8.8561   -5.6544    9.1898 C   0  0  0  0  0  0  0  0  0  0  0  0
   -9.7690   -6.7230    8.7094 C   0  0  0  0  0  0  0  0  0  0  0  0
  -11.1759   -6.3565    8.4854 C   0  0  0  0  0  0  0  0  0  0  0  0
  -11.7794   -6.0717    9.8705 C   0  0  0  0  0  0  0  0  0  0  0  0
  -11.7819   -7.2613   10.6047 O   0  0  0  0  0  0  0  0  0  0  0  0
  -13.1909   -5.6428    9.6428 C   0  0  0  0  0  0  0  0  0  0  0  0
  -14.0129   -6.6894    8.9220 C   0  0  0  0  0  0  0  0  0  0  0  0
  -14.3635   -7.8259    9.8332 C   0  0  0  0  0  0  0  0  0  0  0  0
  -15.8361   -8.1644    9.6990 C   0  0  0  0  0  0  0  0  0  0  0  0
  -16.1723   -8.8424    8.4144 C   0  0  0  0  0  0  0  0  0  0  0  0
  -15.7383  -10.1520    8.4157 O   0  0  0  0  0  0  0  0  0  0  0  0
  -15.5850   -8.1423    7.1976 C   0  0  0  0  0  0  0  0  0  0  0  0
  -14.1091   -8.3190    7.0955 C   0  0  0  0  0  0  0  0  0  0  0  0
  -13.3122   -7.1588    7.6502 C   0  0  0  0  0  0  0  0  0  0  0  0
  -13.4068   -6.0157    6.6678 C   0  0  0  0  0  0  0  0  0  0  0  0
  -11.9171   -7.5743    7.9751 C   0  0  0  0  0  0  0  0  0  0  0  0
  -11.2285   -8.2178    6.8023 C   0  0  0  0  0  0  0  0  0  0  0  0
   -9.7704   -8.4668    7.0368 C   0  0  0  0  0  0  0  0  0  0  0  0
   -9.0449   -7.1939    7.4340 C   0  0  0  0  0  0  0  0  0  0  0  0
   -9.1940   -6.2277    6.3245 C   0  0  0  0  0  0  0  0  0  0  0  0
  -10.9328   -7.4319   11.0563 H   0  0  0  0  0  0  0  0  0  0  0  0
  -15.5761  -10.5087    7.5064 H   0  0  0  0  0  0  0  0  0  0  0  0
   -6.8953   -6.9891    5.7869 C   0  0  0  0  0  0  0  0  0  0  0  0
   -6.5543   -7.6765    7.1324 C   0  0  0  0  0  0  0  0  0  0  0  0
   -6.2724   -9.1038    6.7661 C   0  0  0  0  0  0  0  0  0  0  0  0
   -7.5394   -9.7660    6.1953 C   0  0  0  0  0  0  0  0  0  0  0  0
   -8.1449  -10.6640    7.2202 C   0  0  0  0  0  0  0  0  0  0  0  0
   -7.5035  -10.8117    8.4409 O   0  0  0  0  0  0  0  0  0  0  0  0
   -9.2188  -11.2865    7.0020 O   0  0  0  0  0  0  0  0  0  0  0  0
   -7.4771  -10.0613    9.1365 H   0  0  0  0  0  0  0  0  0  0  0  0
 25 26  1  0  0  0
 26 27  1  0  0  0
 27 28  1  0  0  0
 28 29  1  0  0  0
 29 30  1  0  0  0
 29 31  2  0  0  0
 26  1  1  0  0  0
  1  2  1  0  0  0
  2  3  1  0  0  0
  3  4  1  0  0  0
  4  5  1  0  0  0
  5  6  1  0  0  0
  6  7  1  0  0  0
  6  8  1  0  0  0
  8  9  1  0  0  0
  9 10  1  0  0  0
 10 11  1  0  0  0
 11 12  1  0  0  0
 12 13  1  0  0  0
 12 14  1  0  0  0
 14 15  1  0  0  0
 15 16  1  0  0  0
 16 17  1  0  0  0
 16 18  1  0  0  0
 18 19  1  0  0  0
 19 20  1  0  0  0
 20 21  1  0  0  0
 21 22  1  0  0  0
 21  1  1  0  0  0
 21  4  1  0  0  0
 18  5  1  0  0  0
 16  9  1  0  0  0
 30 32  1  0  0  0
  7 23  1  0  0  0
 13 24  1  0  0  0
M  END
> <minimizedAffinity>
3.44957

> <CNNscore>
0.3010697067

> <CNNaffinity>
6.2187700272

> <CNN_VS>
1.8722832203

> <CNNaffinity_variance>
0.4159808159

$$$$
[H]OC(=O)C([H])([H])C([H])([H])[C@@]([H])(C([H])([H])[H])[C@@]1([H])C([H])([H])C([H])([H])[C@]2([H])[C@]1(C([H])([H])[H])C([H])([H])C([H])([H])[C@]1([H])[C@@]3(C([H])([H])[H])C([H])([H])C([H])([H])[C@@]([H])(O[H])C([H])([H])C([H])([H])[C@@]3([H])C([H])([H])[C@@]([H])(O[H])[C@]12[H]


 32 35  0  0  0  0  0  0  0  0999 V2000
  -13.9927   -8.6706    8.6489 C   0  0  0  0  0  0  0  0  0  0  0  0
  -14.1211   -8.7544   10.1625 C   0  0  0  0  0  0  0  0  0  0  0  0
  -15.6216   -8.7026   10.4321 C   0  0  0  0  0  0  0  0  0  0  0  0
  -16.1717   -9.1726    9.1350 C   0  0  0  0  0  0  0  0  0  0  0  0
  -17.6229   -9.0428    8.9322 C   0  0  0  0  0  0  0  0  0  0  0  0
  -18.2898  -10.0361    9.8977 C   0  0  0  0  0  0  0  0  0  0  0  0
  -17.9401  -11.3327    9.5093 O   0  0  0  0  0  0  0  0  0  0  0  0
  -19.7640   -9.8658    9.7368 C   0  0  0  0  0  0  0  0  0  0  0  0
  -20.2329  -10.1217    8.3207 C   0  0  0  0  0  0  0  0  0  0  0  0
  -20.2321  -11.5864    8.0055 C   0  0  0  0  0  0  0  0  0  0  0  0
  -21.5358  -11.9744    7.3340 C   0  0  0  0  0  0  0  0  0  0  0  0
  -21.6486  -11.4801    5.9319 C   0  0  0  0  0  0  0  0  0  0  0  0
  -20.8434  -12.2097    5.0818 O   0  0  0  0  0  0  0  0  0  0  0  0
  -21.2920  -10.0078    5.7867 C   0  0  0  0  0  0  0  0  0  0  0  0
  -19.8302   -9.7586    5.9318 C   0  0  0  0  0  0  0  0  0  0  0  0
  -19.4185   -9.3105    7.3169 C   0  0  0  0  0  0  0  0  0  0  0  0
  -19.8458   -7.8723    7.4884 C   0  0  0  0  0  0  0  0  0  0  0  0
  -17.9644   -9.5498    7.5468 C   0  0  0  0  0  0  0  0  0  0  0  0
  -17.1100   -8.9241    6.4780 C   0  0  0  0  0  0  0  0  0  0  0  0
  -15.6451   -8.9794    6.7846 C   0  0  0  0  0  0  0  0  0  0  0  0
  -15.3345   -8.3552    8.1331 C   0  0  0  0  0  0  0  0  0  0  0  0
  -15.7605   -6.9400    8.0812 C   0  0  0  0  0  0  0  0  0  0  0  0
  -17.0808  -11.6206    9.8735 H   0  0  0  0  0  0  0  0  0  0  0  0
  -20.5782  -11.7073    4.2709 H   0  0  0  0  0  0  0  0  0  0  0  0
  -11.6439   -8.4220    9.0611 C   0  0  0  0  0  0  0  0  0  0  0  0
  -12.8122   -7.9502    8.1602 C   0  0  0  0  0  0  0  0  0  0  0  0
  -12.8096   -6.4556    8.2908 C   0  0  0  0  0  0  0  0  0  0  0  0
  -11.5648   -5.9925    9.0692 C   0  0  0  0  0  0  0  0  0  0  0  0
  -11.9397   -4.9082   10.0217 C   0  0  0  0  0  0  0  0  0  0  0  0
  -13.2103   -4.9178   10.5775 O   0  0  0  0  0  0  0  0  0  0  0  0
  -11.1326   -3.9907   10.3297 O   0  0  0  0  0  0  0  0  0  0  0  0
  -13.4934   -5.6091   11.2772 H   0  0  0  0  0  0  0  0  0  0  0  0
 25 26  1  0  0  0
 26 27  1  0  0  0
 27 28  1  0  0  0
 28 29  1  0  0  0
 29 30  1  0  0  0
 29 31  2  0  0  0
 26  1  1  0  0  0
  1  2  1  0  0  0
  2  3  1  0  0  0
  3  4  1  0  0  0
  4  5  1  0  0  0
  5  6  1  0  0  0
  6  7  1  0  0  0
  6  8  1  0  0  0
  8  9  1  0  0  0
  9 10  1  0  0  0
 10 11  1  0  0  0
 11 12  1  0  0  0
 12 13  1  0  0  0
 12 14  1  0  0  0
 14 15  1  0  0  0
 15 16  1  0  0  0
 16 17  1  0  0  0
 16 18  1  0  0  0
 18 19  1  0  0  0
 19 20  1  0  0  0
 20 21  1  0  0  0
 21 22  1  0  0  0
 21  1  1  0  0  0
 21  4  1  0  0  0
 18  5  1  0  0  0
 16  9  1  0  0  0
 30 32  1  0  0  0
  7 23  1  0  0  0
 13 24  1  0  0  0
M  END
> <minimizedAffinity>
28.50572

> <CNNscore>
0.2948304415

> <CNNaffinity>
6.1785459518

> <CNN_VS>
1.8216234446

> <CNNaffinity_variance>
1.1296527386

$$$$
[H]OC(=O)C([H])([H])C([H])([H])[C@@]([H])(C([H])([H])[H])[C@@]1([H])C([H])([H])C([H])([H])[C@]2([H])[C@]1(C([H])([H])[H])C([H])([H])C([H])([H])[C@]1([H])[C@@]3(C([H])([H])[H])C([H])([H])C([H])([H])[C@@]([H])(O[H])C([H])([H])C([H])([H])[C@@]3([H])C([H])([H])[C@@]([H])(O[H])[C@]12[H]


 32 35  0  0  0  0  0  0  0  0999 V2000
   -9.1983   -8.4853    7.6478 C   0  0  0  0  0  0  0  0  0  0  0  0
   -8.9645   -9.6284    6.6716 C   0  0  0  0  0  0  0  0  0  0  0  0
   -7.6388   -9.2992    5.9926 C   0  0  0  0  0  0  0  0  0  0  0  0
   -7.0062   -8.4059    6.9965 C   0  0  0  0  0  0  0  0  0  0  0  0
   -5.7851   -7.6936    6.5896 C   0  0  0  0  0  0  0  0  0  0  0  0
   -4.6891   -8.7601    6.4309 C   0  0  0  0  0  0  0  0  0  0  0  0
   -4.4328   -9.3207    7.6855 O   0  0  0  0  0  0  0  0  0  0  0  0
   -3.4638   -8.0486    5.9614 C   0  0  0  0  0  0  0  0  0  0  0  0
   -3.0069   -6.9714    6.9215 C   0  0  0  0  0  0  0  0  0  0  0  0
   -2.3600   -7.5657    8.1353 C   0  0  0  0  0  0  0  0  0  0  0  0
   -1.0605   -6.8440    8.4378 C   0  0  0  0  0  0  0  0  0  0  0  0
   -1.2600   -5.4710    8.9838 C   0  0  0  0  0  0  0  0  0  0  0  0
   -1.6909   -5.5154   10.2936 O   0  0  0  0  0  0  0  0  0  0  0  0
   -2.2530   -4.6459    8.1783 C   0  0  0  0  0  0  0  0  0  0  0  0
   -3.6586   -5.1033    8.3659 C   0  0  0  0  0  0  0  0  0  0  0  0
   -4.1534   -6.0290    7.2763 C   0  0  0  0  0  0  0  0  0  0  0  0
   -4.4166   -5.1987    6.0427 C   0  0  0  0  0  0  0  0  0  0  0  0
   -5.3259   -6.8247    7.7416 C   0  0  0  0  0  0  0  0  0  0  0  0
   -6.4274   -5.9520    8.2790 C   0  0  0  0  0  0  0  0  0  0  0  0
   -7.6888   -6.7046    8.5708 C   0  0  0  0  0  0  0  0  0  0  0  0
   -8.1757   -7.4689    7.3528 C   0  0  0  0  0  0  0  0  0  0  0  0
   -8.4416   -6.4842    6.2821 C   0  0  0  0  0  0  0  0  0  0  0  0
   -5.0470  -10.0459    7.9112 H   0  0  0  0  0  0  0  0  0  0  0  0
   -2.1985   -4.7091   10.5633 H   0  0  0  0  0  0  0  0  0  0  0  0
  -10.5915   -7.0831    9.0049 C   0  0  0  0  0  0  0  0  0  0  0  0
  -10.6016   -8.1044    7.8405 C   0  0  0  0  0  0  0  0  0  0  0  0
  -11.5549   -9.1742    8.2851 C   0  0  0  0  0  0  0  0  0  0  0  0
  -12.9611   -8.5817    8.4883 C   0  0  0  0  0  0  0  0  0  0  0  0
  -13.9521   -9.3443    7.6759 C   0  0  0  0  0  0  0  0  0  0  0  0
  -13.8757  -10.7290    7.6572 O   0  0  0  0  0  0  0  0  0  0  0  0
  -14.8504   -8.7615    7.0114 O   0  0  0  0  0  0  0  0  0  0  0  0
  -14.1261  -11.2991    8.4695 H   0  0  0  0  0  0  0  0  0  0  0  0
 25 26  1  0  0  0
 26 27  1  0  0  0
 27 28  1  0  0  0
 28 29  1  0  0  0
 29 30  1  0  0  0
 29 31  2  0  0  0
 26  1  1  0  0  0
  1  2  1  0  0  0
  2  3  1  0  0  0
  3  4  1  0  0  0
  4  5  1  0  0  0
  5  6  1  0  0  0
  6  7  1  0  0  0
  6  8  1  0  0  0
  8  9  1  0  0  0
  9 10  1  0  0  0
 10 11  1  0  0  0
 11 12  1  0  0  0
 12 13  1  0  0  0
 12 14  1  0  0  0
 14 15  1  0  0  0
 15 16  1  0  0  0
 16 17  1  0  0  0
 16 18  1  0  0  0
 18 19  1  0  0  0
 19 20  1  0  0  0
 20 21  1  0  0  0
 21 22  1  0  0  0
 21  1  1  0  0  0
 21  4  1  0  0  0
 18  5  1  0  0  0
 16  9  1  0  0  0
 30 32  1  0  0  0
  7 23  1  0  0  0
 13 24  1  0  0  0
M  END
> <minimizedAffinity>
-4.58125

> <CNNscore>
0.2201126516

> <CNNaffinity>
5.9279336929

> <CNN_VS>
1.3048131466

> <CNNaffinity_variance>
0.2673041821

$$$$
[H]OC(=O)C([H])([H])C([H])([H])[C@@]([H])(C([H])([H])[H])[C@@]1([H])C([H])([H])C([H])([H])[C@@]2([H])[C@@]3([H])[C@]([H])(C([H])([H])C([H])([H])[C@@]21C([H])([H])[H])[C@@]1(C([H])([H])[H])C([H])([H])C([H])([H])[C@]([H])(O[H])[C@@]1([H])C([H])([H])[C@@]3([H])O[H]


 30 33  0  0  0  0  0  0  0  0999 V2000
  -15.8066   -8.2769    4.8977 C   0  0  0  0  0  0  0  0  0  0  0  0
  -16.2281   -6.8038    4.7743 C   0  0  0  0  0  0  0  0  0  0  0  0
  -16.0913   -6.3259    6.2453 C   0  0  0  0  0  0  0  0  0  0  0  0
  -14.8013   -6.9717    6.5351 C   0  0  0  0  0  0  0  0  0  0  0  0
  -14.2160   -6.9320    7.8731 C   0  0  0  0  0  0  0  0  0  0  0  0
  -14.2783   -5.5722    8.5387 C   0  0  0  0  0  0  0  0  0  0  0  0
  -13.7246   -4.5697    7.7506 O   0  0  0  0  0  0  0  0  0  0  0  0
  -13.7045   -5.6751    9.8988 C   0  0  0  0  0  0  0  0  0  0  0  0
  -12.5980   -6.6349   10.0848 C   0  0  0  0  0  0  0  0  0  0  0  0
  -11.5174   -5.9476   10.9136 C   0  0  0  0  0  0  0  0  0  0  0  0
  -11.0635   -6.7307   11.9489 O   0  0  0  0  0  0  0  0  0  0  0  0
  -10.4595   -5.5283    9.9429 C   0  0  0  0  0  0  0  0  0  0  0  0
  -10.7620   -6.1689    8.6200 C   0  0  0  0  0  0  0  0  0  0  0  0
  -11.9209   -7.1379    8.8691 C   0  0  0  0  0  0  0  0  0  0  0  0
  -11.2427   -8.4676    9.2375 C   0  0  0  0  0  0  0  0  0  0  0  0
  -12.7457   -7.3305    7.6730 C   0  0  0  0  0  0  0  0  0  0  0  0
  -12.7081   -8.6884    7.0674 C   0  0  0  0  0  0  0  0  0  0  0  0
  -13.5998   -8.9265    5.9071 C   0  0  0  0  0  0  0  0  0  0  0  0
  -15.0461   -8.4404    6.1454 C   0  0  0  0  0  0  0  0  0  0  0  0
  -15.6742   -9.1837    7.2630 C   0  0  0  0  0  0  0  0  0  0  0  0
  -14.1051   -3.6900    7.9762 H   0  0  0  0  0  0  0  0  0  0  0  0
  -10.0676   -6.6474   11.9702 H   0  0  0  0  0  0  0  0  0  0  0  0
  -16.7646   -9.5291    3.0491 C   0  0  0  0  0  0  0  0  0  0  0  0
  -16.9012   -9.2106    4.5617 C   0  0  0  0  0  0  0  0  0  0  0  0
  -18.2978   -8.6182    4.6608 C   0  0  0  0  0  0  0  0  0  0  0  0
  -18.8707   -8.8540    6.0626 C   0  0  0  0  0  0  0  0  0  0  0  0
  -20.1204   -9.6567    5.9550 C   0  0  0  0  0  0  0  0  0  0  0  0
  -21.3719   -9.0553    5.8698 O   0  0  0  0  0  0  0  0  0  0  0  0
  -20.0230  -10.9094    5.9424 O   0  0  0  0  0  0  0  0  0  0  0  0
  -21.4107   -8.0712    5.6787 H   0  0  0  0  0  0  0  0  0  0  0  0
 23 24  1  0  0  0
 24 25  1  0  0  0
 25 26  1  0  0  0
 26 27  1  0  0  0
 27 28  1  0  0  0
 27 29  2  0  0  0
 24  1  1  0  0  0
  1  2  1  0  0  0
  2  3  1  0  0  0
  3  4  1  0  0  0
  4  5  1  0  0  0
  5  6  1  0  0  0
  6  7  1  0  0  0
  6  8  1  0  0  0
  8  9  1  0  0  0
  9 10  1  0  0  0
 10 11  1  0  0  0
 10 12  1  0  0  0
 12 13  1  0  0  0
 13 14  1  0  0  0
 14 15  1  0  0  0
 14 16  1  0  0  0
 16 17  1  0  0  0
 17 18  1  0  0  0
 18 19  1  0  0  0
 19 20  1  0  0  0
 19  1  1  0  0  0
 19  4  1  0  0  0
 16  5  1  0  0  0
 14  9  1  0  0  0
 28 30  1  0  0  0
  7 21  1  0  0  0
 11 22  1  0  0  0
M  END
> <minimizedAffinity>
5.93114

> <CNNscore>
0.4914022982

> <CNNaffinity>
6.6494140625

> <CNN_VS>
3.2675373554

> <CNNaffinity_variance>
1.0744873285

$$$$
[H]OC(=O)C([H])([H])C([H])([H])[C@@]([H])(C([H])([H])[H])[C@@]1([H])C([H])([H])C([H])([H])[C@@]2([H])[C@@]3([H])[C@]([H])(C([H])([H])C([H])([H])[C@@]21C([H])([H])[H])[C@@]1(C([H])([H])[H])C([H])([H])C([H])([H])[C@]([H])(O[H])[C@@]1([H])C([H])([H])[C@@]3([H])O[H]


 30 33  0  0  0  0  0  0  0  0999 V2000
  -16.8686   -7.1243    3.8169 C   0  0  0  0  0  0  0  0  0  0  0  0
  -16.5452   -5.6344    4.0129 C   0  0  0  0  0  0  0  0  0  0  0  0
  -16.2135   -5.5938    5.5293 C   0  0  0  0  0  0  0  0  0  0  0  0
  -15.3828   -6.8074    5.5739 C   0  0  0  0  0  0  0  0  0  0  0  0
  -14.8607   -7.3240    6.8370 C   0  0  0  0  0  0  0  0  0  0  0  0
  -14.2814   -6.2629    7.7505 C   0  0  0  0  0  0  0  0  0  0  0  0
  -13.3132   -5.4902    7.1194 O   0  0  0  0  0  0  0  0  0  0  0  0
  -13.8368   -6.9016    9.0091 C   0  0  0  0  0  0  0  0  0  0  0  0
  -13.3148   -8.2791    8.9095 C   0  0  0  0  0  0  0  0  0  0  0  0
  -12.0459   -8.3602    9.7523 C   0  0  0  0  0  0  0  0  0  0  0  0
  -12.0244   -9.4615   10.5756 O   0  0  0  0  0  0  0  0  0  0  0  0
  -10.9059   -8.2849    8.7869 C   0  0  0  0  0  0  0  0  0  0  0  0
  -11.4617   -8.4201    7.3996 C   0  0  0  0  0  0  0  0  0  0  0  0
  -12.9428   -8.7712    7.5645 C   0  0  0  0  0  0  0  0  0  0  0  0
  -12.9746  -10.3076    7.6121 C   0  0  0  0  0  0  0  0  0  0  0  0
  -13.7495   -8.3053    6.4331 C   0  0  0  0  0  0  0  0  0  0  0  0
  -14.3503   -9.3659    5.5808 C   0  0  0  0  0  0  0  0  0  0  0  0
  -15.2378   -8.9158    4.4818 C   0  0  0  0  0  0  0  0  0  0  0  0
  -16.2868   -7.8781    4.9373 C   0  0  0  0  0  0  0  0  0  0  0  0
  -17.2017   -8.4620    5.9463 C   0  0  0  0  0  0  0  0  0  0  0  0
  -13.2365   -4.6035    7.5407 H   0  0  0  0  0  0  0  0  0  0  0  0
  -11.1069   -9.8548   10.5221 H   0  0  0  0  0  0  0  0  0  0  0  0
  -19.0974   -6.1724    3.9872 C   0  0  0  0  0  0  0  0  0  0  0  0
  -18.2706   -7.3523    3.4107 C   0  0  0  0  0  0  0  0  0  0  0  0
  -18.9276   -8.5695    4.0416 C   0  0  0  0  0  0  0  0  0  0  0  0
  -19.8542   -8.1348    5.1824 C   0  0  0  0  0  0  0  0  0  0  0  0
  -20.5226   -9.3345    5.7579 C   0  0  0  0  0  0  0  0  0  0  0  0
  -19.9101  -10.5835    5.7606 O   0  0  0  0  0  0  0  0  0  0  0  0
  -21.6705   -9.1966    6.2501 O   0  0  0  0  0  0  0  0  0  0  0  0
  -18.9298  -10.6289    5.5520 H   0  0  0  0  0  0  0  0  0  0  0  0
 23 24  1  0  0  0
 24 25  1  0  0  0
 25 26  1  0  0  0
 26 27  1  0  0  0
 27 28  1  0  0  0
 27 29  2  0  0  0
 24  1  1  0  0  0
  1  2  1  0  0  0
  2  3  1  0  0  0
  3  4  1  0  0  0
  4  5  1  0  0  0
  5  6  1  0  0  0
  6  7  1  0  0  0
  6  8  1  0  0  0
  8  9  1  0  0  0
  9 10  1  0  0  0
 10 11  1  0  0  0
 10 12  1  0  0  0
 12 13  1  0  0  0
 13 14  1  0  0  0
 14 15  1  0  0  0
 14 16  1  0  0  0
 16 17  1  0  0  0
 17 18  1  0  0  0
 18 19  1  0  0  0
 19 20  1  0  0  0
 19  1  1  0  0  0
 19  4  1  0  0  0
 16  5  1  0  0  0
 14  9  1  0  0  0
 28 30  1  0  0  0
  7 21  1  0  0  0
 11 22  1  0  0  0
M  END
> <minimizedAffinity>
1.75282

> <CNNscore>
0.4849936664

> <CNNaffinity>
6.8688430786

> <CNN_VS>
3.3313453197

> <CNNaffinity_variance>
1.2903051376

$$$$
[H]OC(=O)C([H])([H])C([H])([H])[C@@]([H])(C([H])([H])[H])[C@@]1([H])C([H])([H])C([H])([H])[C@@]2([H])[C@@]3([H])[C@]([H])(C([H])([H])C([H])([H])[C@@]21C([H])([H])[H])[C@@]1(C([H])([H])[H])C([H])([H])C([H])([H])[C@]([H])(O[H])[C@@]1([H])C([H])([H])[C@@]3([H])O[H]


 30 33  0  0  0  0  0  0  0  0999 V2000
   -9.3058   -8.2216    7.4347 C   0  0  0  0  0  0  0  0  0  0  0  0
   -9.4377   -9.7507    7.3493 C   0  0  0  0  0  0  0  0  0  0  0  0
  -10.8205   -9.9729    8.0199 C   0  0  0  0  0  0  0  0  0  0  0  0
  -11.5338   -8.8729    7.3519 C   0  0  0  0  0  0  0  0  0  0  0  0
  -12.9141   -8.5421    7.6984 C   0  0  0  0  0  0  0  0  0  0  0  0
  -13.8253   -9.7447    7.8375 C   0  0  0  0  0  0  0  0  0  0  0  0
  -13.8030  -10.5605    6.7120 O   0  0  0  0  0  0  0  0  0  0  0  0
  -15.1732   -9.2836    8.2383 C   0  0  0  0  0  0  0  0  0  0  0  0
  -15.6108   -7.9723    7.7199 C   0  0  0  0  0  0  0  0  0  0  0  0
  -17.0494   -8.1183    7.2337 C   0  0  0  0  0  0  0  0  0  0  0  0
  -17.8678   -7.1099    7.6857 O   0  0  0  0  0  0  0  0  0  0  0  0
  -16.9702   -8.2327    5.7444 C   0  0  0  0  0  0  0  0  0  0  0  0
  -15.5670   -7.9034    5.3267 C   0  0  0  0  0  0  0  0  0  0  0  0
  -14.8531   -7.4012    6.5845 C   0  0  0  0  0  0  0  0  0  0  0  0
  -15.0947   -5.8828    6.5879 C   0  0  0  0  0  0  0  0  0  0  0  0
  -13.4114   -7.6615    6.5416 C   0  0  0  0  0  0  0  0  0  0  0  0
  -12.5351   -6.4628    6.4571 C   0  0  0  0  0  0  0  0  0  0  0  0
  -11.0724   -6.7013    6.4974 C   0  0  0  0  0  0  0  0  0  0  0  0
  -10.6449   -7.6496    7.6387 C   0  0  0  0  0  0  0  0  0  0  0  0
  -10.9681   -7.0625    8.9604 C   0  0  0  0  0  0  0  0  0  0  0  0
  -14.0504  -11.4860    6.9395 H   0  0  0  0  0  0  0  0  0  0  0  0
  -18.4372   -6.8218    6.9162 H   0  0  0  0  0  0  0  0  0  0  0  0
   -7.6845   -6.4350    7.7216 C   0  0  0  0  0  0  0  0  0  0  0  0
   -8.1740   -7.7961    8.2836 C   0  0  0  0  0  0  0  0  0  0  0  0
   -6.9357   -8.6723    8.1820 C   0  0  0  0  0  0  0  0  0  0  0  0
   -6.2401   -8.4452    6.8354 C   0  0  0  0  0  0  0  0  0  0  0  0
   -4.8380   -8.0039    7.0738 C   0  0  0  0  0  0  0  0  0  0  0  0
   -3.7967   -8.3881    6.2352 O   0  0  0  0  0  0  0  0  0  0  0  0
   -4.6076   -7.2651    8.0638 O   0  0  0  0  0  0  0  0  0  0  0  0
   -4.0304   -8.8017    5.3515 H   0  0  0  0  0  0  0  0  0  0  0  0
 23 24  1  0  0  0
 24 25  1  0  0  0
 25 26  1  0  0  0
 26 27  1  0  0  0
 27 28  1  0  0  0
 27 29  2  0  0  0
 24  1  1  0  0  0
  1  2  1  0  0  0
  2  3  1  0  0  0
  3  4  1  0  0  0
  4  5  1  0  0  0
  5  6  1  0  0  0
  6  7  1  0  0  0
  6  8  1  0  0  0
  8  9  1  0  0  0
  9 10  1  0  0  0
 10 11  1  0  0  0
 10 12  1  0  0  0
 12 13  1  0  0  0
 13 14  1  0  0  0
 14 15  1  0  0  0
 14 16  1  0  0  0
 16 17  1  0  0  0
 17 18  1  0  0  0
 18 19  1  0  0  0
 19 20  1  0  0  0
 19  1  1  0  0  0
 19  4  1  0  0  0
 16  5  1  0  0  0
 14  9  1  0  0  0
 28 30  1  0  0  0
  7 21  1  0  0  0
 11 22  1  0  0  0
M  END
> <minimizedAffinity>
-2.77238

> <CNNscore>
0.4842760861

> <CNNaffinity>
6.5319571495

> <CNN_VS>
3.1632707119

> <CNNaffinity_variance>
0.3904061317

$$$$
[H]OC(=O)C([H])([H])C([H])([H])[C@@]([H])(C([H])([H])[H])[C@@]1([H])C([H])([H])C([H])([H])[C@@]2([H])[C@@]3([H])[C@]([H])(C([H])([H])C([H])([H])[C@@]21C([H])([H])[H])[C@@]1(C([H])([H])[H])C([H])([H])C([H])([H])[C@]([H])(O[H])[C@@]1([H])C([H])([H])[C@@]3([H])O[H]


 30 33  0  0  0  0  0  0  0  0999 V2000
  -13.3335   -7.8339    9.2001 C   0  0  0  0  0  0  0  0  0  0  0  0
  -12.5789   -8.9976    8.5372 C   0  0  0  0  0  0  0  0  0  0  0  0
  -13.6703   -9.5650    7.5896 C   0  0  0  0  0  0  0  0  0  0  0  0
  -14.1639   -8.2773    7.0767 C   0  0  0  0  0  0  0  0  0  0  0  0
  -15.3145   -8.2084    6.1790 C   0  0  0  0  0  0  0  0  0  0  0  0
  -15.2993   -9.2395    5.0687 C   0  0  0  0  0  0  0  0  0  0  0  0
  -14.1215   -9.2076    4.3308 O   0  0  0  0  0  0  0  0  0  0  0  0
  -16.5342   -9.1004    4.2654 C   0  0  0  0  0  0  0  0  0  0  0  0
  -17.0843   -7.7381    4.1188 C   0  0  0  0  0  0  0  0  0  0  0  0
  -17.4681   -7.5439    2.6553 C   0  0  0  0  0  0  0  0  0  0  0  0
  -18.7244   -7.0060    2.5024 O   0  0  0  0  0  0  0  0  0  0  0  0
  -16.3680   -6.7341    2.0459 C   0  0  0  0  0  0  0  0  0  0  0  0
  -15.4891   -6.2347    3.1549 C   0  0  0  0  0  0  0  0  0  0  0  0
  -16.1969   -6.6045    4.4612 C   0  0  0  0  0  0  0  0  0  0  0  0
  -17.0945   -5.3957    4.7720 C   0  0  0  0  0  0  0  0  0  0  0  0
  -15.2520   -6.8018    5.5640 C   0  0  0  0  0  0  0  0  0  0  0  0
  -15.3209   -5.8065    6.6669 C   0  0  0  0  0  0  0  0  0  0  0  0
  -14.4313   -6.0369    7.8303 C   0  0  0  0  0  0  0  0  0  0  0  0
  -14.4874   -7.4873    8.3573 C   0  0  0  0  0  0  0  0  0  0  0  0
  -15.8458   -7.8167    8.8497 C   0  0  0  0  0  0  0  0  0  0  0  0
  -13.9434  -10.0791    3.9086 H   0  0  0  0  0  0  0  0  0  0  0  0
  -18.6631   -6.3045    1.7928 H   0  0  0  0  0  0  0  0  0  0  0  0
  -12.1806   -7.5477   11.3195 C   0  0  0  0  0  0  0  0  0  0  0  0
  -13.5008   -8.0218   10.6559 C   0  0  0  0  0  0  0  0  0  0  0  0
  -13.6066   -9.4708   11.1040 C   0  0  0  0  0  0  0  0  0  0  0  0
  -12.3767   -9.8557   11.9335 C   0  0  0  0  0  0  0  0  0  0  0  0
  -12.8142  -10.6046   13.1440 C   0  0  0  0  0  0  0  0  0  0  0  0
  -13.0807  -11.9694   13.1042 O   0  0  0  0  0  0  0  0  0  0  0  0
  -12.9408   -9.9708   14.2216 O   0  0  0  0  0  0  0  0  0  0  0  0
  -12.7815  -12.4854   12.2976 H   0  0  0  0  0  0  0  0  0  0  0  0
 23 24  1  0  0  0
 24 25  1  0  0  0
 25 26  1  0  0  0
 26 27  1  0  0  0
 27 28  1  0  0  0
 27 29  2  0  0  0
 24  1  1  0  0  0
  1  2  1  0  0  0
  2  3  1  0  0  0
  3  4  1  0  0  0
  4  5  1  0  0  0
  5  6  1  0  0  0
  6  7  1  0  0  0
  6  8  1  0  0  0
  8  9  1  0  0  0
  9 10  1  0  0  0
 10 11  1  0  0  0
 10 12  1  0  0  0
 12 13  1  0  0  0
 13 14  1  0  0  0
 14 15  1  0  0  0
 14 16  1  0  0  0
 16 17  1  0  0  0
 17 18  1  0  0  0
 18 19  1  0  0  0
 19 20  1  0  0  0
 19  1  1  0  0  0
 19  4  1  0  0  0
 16  5  1  0  0  0
 14  9  1  0  0  0
 28 30  1  0  0  0
  7 21  1  0  0  0
 11 22  1  0  0  0
M  END
> <minimizedAffinity>
10.36501

> <CNNscore>
0.4830457270

> <CNNaffinity>
6.4001441002

> <CNN_VS>
3.0915622711

> <CNNaffinity_variance>
0.5539953113

$$$$
[H]OC(=O)C([H])([H])C([H])([H])[C@@]([H])(C([H])([H])[H])[C@@]1([H])C([H])([H])C([H])([H])[C@@]2([H])[C@@]3([H])[C@]([H])(C([H])([H])C([H])([H])[C@@]21C([H])([H])[H])[C@@]1(C([H])([H])[H])C([H])([H])C([H])([H])[C@]([H])(O[H])[C@@]1([H])C([H])([H])[C@@]3([H])O[H]


 30 33  0  0  0  0  0  0  0  0999 V2000
  -11.7126   -7.2432    8.0086 C   0  0  0  0  0  0  0  0  0  0  0  0
  -11.1256   -7.1822    6.5892 C   0  0  0  0  0  0  0  0  0  0  0  0
  -12.1162   -8.0917    5.8129 C   0  0  0  0  0  0  0  0  0  0  0  0
  -13.3578   -7.5643    6.4007 C   0  0  0  0  0  0  0  0  0  0  0  0
  -14.6568   -8.1549    6.0870 C   0  0  0  0  0  0  0  0  0  0  0  0
  -14.8640   -8.4558    4.6164 C   0  0  0  0  0  0  0  0  0  0  0  0
  -14.6431   -7.3445    3.8110 O   0  0  0  0  0  0  0  0  0  0  0  0
  -16.1870   -9.0940    4.4373 C   0  0  0  0  0  0  0  0  0  0  0  0
  -17.2639   -8.6640    5.3513 C   0  0  0  0  0  0  0  0  0  0  0  0
  -18.5238   -8.4460    4.5193 C   0  0  0  0  0  0  0  0  0  0  0  0
  -19.6346   -9.0390    5.0719 O   0  0  0  0  0  0  0  0  0  0  0  0
  -18.6399   -6.9668    4.3293 C   0  0  0  0  0  0  0  0  0  0  0  0
  -17.6412   -6.3024    5.2309 C   0  0  0  0  0  0  0  0  0  0  0  0
  -17.0542   -7.4106    6.1092 C   0  0  0  0  0  0  0  0  0  0  0  0
  -17.9741   -7.4585    7.3402 C   0  0  0  0  0  0  0  0  0  0  0  0
  -15.6862   -7.1076    6.5390 C   0  0  0  0  0  0  0  0  0  0  0  0
  -15.4988   -6.8666    7.9946 C   0  0  0  0  0  0  0  0  0  0  0  0
  -14.1094   -6.6415    8.4603 C   0  0  0  0  0  0  0  0  0  0  0  0
  -13.1115   -7.6862    7.9150 C   0  0  0  0  0  0  0  0  0  0  0  0
  -13.4556   -9.0449    8.3964 C   0  0  0  0  0  0  0  0  0  0  0  0
  -14.3887   -7.6125    2.8983 H   0  0  0  0  0  0  0  0  0  0  0  0
  -20.3875   -8.3853    4.9997 H   0  0  0  0  0  0  0  0  0  0  0  0
  -10.1296   -6.7199    9.7758 C   0  0  0  0  0  0  0  0  0  0  0  0
  -10.7921   -7.8736    8.9770 C   0  0  0  0  0  0  0  0  0  0  0  0
   -9.6014   -8.5854    8.3548 C   0  0  0  0  0  0  0  0  0  0  0  0
   -8.3192   -7.7848    8.6081 C   0  0  0  0  0  0  0  0  0  0  0  0
   -7.4978   -7.7651    7.3662 C   0  0  0  0  0  0  0  0  0  0  0  0
   -7.6709   -6.7902    6.3891 O   0  0  0  0  0  0  0  0  0  0  0  0
   -6.6299   -8.6608    7.2134 O   0  0  0  0  0  0  0  0  0  0  0  0
   -8.2174   -5.9814    6.6209 H   0  0  0  0  0  0  0  0  0  0  0  0
 23 24  1  0  0  0
 24 25  1  0  0  0
 25 26  1  0  0  0
 26 27  1  0  0  0
 27 28  1  0  0  0
 27 29  2  0  0  0
 24  1  1  0  0  0
  1  2  1  0  0  0
  2  3  1  0  0  0
  3  4  1  0  0  0
  4  5  1  0  0  0
  5  6  1  0  0  0
  6  7  1  0  0  0
  6  8  1  0  0  0
  8  9  1  0  0  0
  9 10  1  0  0  0
 10 11  1  0  0  0
 10 12  1  0  0  0
 12 13  1  0  0  0
 13 14  1  0  0  0
 14 15  1  0  0  0
 14 16  1  0  0  0
 16 17  1  0  0  0
 17 18  1  0  0  0
 18 19  1  0  0  0
 19 20  1  0  0  0
 19  1  1  0  0  0
 19  4  1  0  0  0
 16  5  1  0  0  0
 14  9  1  0  0  0
 28 30  1  0  0  0
  7 21  1  0  0  0
 11 22  1  0  0  0
M  END
> <minimizedAffinity>
-2.29044

> <CNNscore>
0.4642470777

> <CNNaffinity>
6.8281464577

> <CNN_VS>
3.1699471474

> <CNNaffinity_variance>
1.3488130569

$$$$
[H]OC(=O)C([H])([H])C([H])([H])[C@@]([H])(C([H])([H])[H])[C@@]1([H])C([H])([H])C([H])([H])[C@@]2([H])[C@@]3([H])[C@]([H])(C([H])([H])C([H])([H])[C@@]21C([H])([H])[H])[C@@]1(C([H])([H])[H])C([H])([H])C([H])([H])[C@]([H])(O[H])[C@@]1([H])C([H])([H])[C@@]3([H])O[H]


 30 33  0  0  0  0  0  0  0  0999 V2000
  -15.6559   -5.2202    5.8447 C   0  0  0  0  0  0  0  0  0  0  0  0
  -16.1875   -4.9780    4.4229 C   0  0  0  0  0  0  0  0  0  0  0  0
  -16.6013   -6.4154    4.0057 C   0  0  0  0  0  0  0  0  0  0  0  0
  -17.2615   -6.7952    5.2646 C   0  0  0  0  0  0  0  0  0  0  0  0
  -17.7750   -8.1468    5.4748 C   0  0  0  0  0  0  0  0  0  0  0  0
  -18.5397   -8.7117    4.2949 C   0  0  0  0  0  0  0  0  0  0  0  0
  -19.5688   -7.8744    3.8795 O   0  0  0  0  0  0  0  0  0  0  0  0
  -18.9597  -10.0950    4.6111 C   0  0  0  0  0  0  0  0  0  0  0  0
  -19.2847  -10.3872    6.0214 C   0  0  0  0  0  0  0  0  0  0  0  0
  -20.5737  -11.2026    6.0447 C   0  0  0  0  0  0  0  0  0  0  0  0
  -20.4896  -12.3062    6.8609 O   0  0  0  0  0  0  0  0  0  0  0  0
  -21.6609  -10.2423    6.4097 C   0  0  0  0  0  0  0  0  0  0  0  0
  -21.0194   -8.9584    6.8479 C   0  0  0  0  0  0  0  0  0  0  0  0
  -19.5153   -9.2347    6.9203 C   0  0  0  0  0  0  0  0  0  0  0  0
  -19.2787   -9.7200    8.3599 C   0  0  0  0  0  0  0  0  0  0  0  0
  -18.7204   -8.0271    6.6801 C   0  0  0  0  0  0  0  0  0  0  0  0
  -17.9376   -7.5211    7.8390 C   0  0  0  0  0  0  0  0  0  0  0  0
  -17.0623   -6.3500    7.5929 C   0  0  0  0  0  0  0  0  0  0  0  0
  -16.1888   -6.5023    6.3287 C   0  0  0  0  0  0  0  0  0  0  0  0
  -15.2579   -7.6471    6.4664 C   0  0  0  0  0  0  0  0  0  0  0  0
  -19.7868   -8.0235    2.9309 H   0  0  0  0  0  0  0  0  0  0  0  0
  -21.3414  -12.3563    7.3817 H   0  0  0  0  0  0  0  0  0  0  0  0
  -13.6122   -5.0155    4.5468 C   0  0  0  0  0  0  0  0  0  0  0  0
  -14.2164   -4.9131    5.9725 C   0  0  0  0  0  0  0  0  0  0  0  0
  -13.4130   -5.9373    6.7579 C   0  0  0  0  0  0  0  0  0  0  0  0
  -14.3156   -7.1016    7.1807 C   0  0  0  0  0  0  0  0  0  0  0  0
  -13.4859   -8.1613    7.8179 C   0  0  0  0  0  0  0  0  0  0  0  0
  -13.7963   -8.6798    9.0709 O   0  0  0  0  0  0  0  0  0  0  0  0
  -12.4824   -8.5868    7.1928 O   0  0  0  0  0  0  0  0  0  0  0  0
  -14.7003   -8.4762    9.4553 H   0  0  0  0  0  0  0  0  0  0  0  0
 23 24  1  0  0  0
 24 25  1  0  0  0
 25 26  1  0  0  0
 26 27  1  0  0  0
 27 28  1  0  0  0
 27 29  2  0  0  0
 24  1  1  0  0  0
  1  2  1  0  0  0
  2  3  1  0  0  0
  3  4  1  0  0  0
  4  5  1  0  0  0
  5  6  1  0  0  0
  6  7  1  0  0  0
  6  8  1  0  0  0
  8  9  1  0  0  0
  9 10  1  0  0  0
 10 11  1  0  0  0
 10 12  1  0  0  0
 12 13  1  0  0  0
 13 14  1  0  0  0
 14 15  1  0  0  0
 14 16  1  0  0  0
 16 17  1  0  0  0
 17 18  1  0  0  0
 18 19  1  0  0  0
 19 20  1  0  0  0
 19  1  1  0  0  0
 19  4  1  0  0  0
 16  5  1  0  0  0
 14  9  1  0  0  0
 28 30  1  0  0  0
  7 21  1  0  0  0
 11 22  1  0  0  0
M  END
> <minimizedAffinity>
15.45071

> <CNNscore>
0.4478622675

> <CNNaffinity>
6.3220624924

> <CNN_VS>
2.8314132690

> <CNNaffinity_variance>
0.7798439264

$$$$
[H]OC(=O)C([H])([H])C([H])([H])[C@@]([H])(C([H])([H])[H])[C@@]1([H])C([H])([H])C([H])([H])[C@@]2([H])[C@@]3([H])[C@]([H])(C([H])([H])C([H])([H])[C@@]21C([H])([H])[H])[C@@]1(C([H])([H])[H])C([H])([H])C([H])([H])[C@]([H])(O[H])[C@@]1([H])C([H])([H])[C@@]3([H])O[H]


 30 33  0  0  0  0  0  0  0  0999 V2000
  -11.1323   -6.5504    8.3261 C   0  0  0  0  0  0  0  0  0  0  0  0
  -10.6849   -6.2696    9.7696 C   0  0  0  0  0  0  0  0  0  0  0  0
   -9.4052   -7.1440    9.8651 C   0  0  0  0  0  0  0  0  0  0  0  0
   -8.8332   -6.7859    8.5576 C   0  0  0  0  0  0  0  0  0  0  0  0
   -7.6171   -7.4250    8.0603 C   0  0  0  0  0  0  0  0  0  0  0  0
   -6.5156   -7.5535    9.0928 C   0  0  0  0  0  0  0  0  0  0  0  0
   -6.2009   -6.3368    9.6874 O   0  0  0  0  0  0  0  0  0  0  0  0
   -5.3654   -8.2584    8.4846 C   0  0  0  0  0  0  0  0  0  0  0  0
   -5.1253   -8.0255    7.0465 C   0  0  0  0  0  0  0  0  0  0  0  0
   -3.6295   -7.7968    6.8534 C   0  0  0  0  0  0  0  0  0  0  0  0
   -3.1092   -8.5334    5.8152 O   0  0  0  0  0  0  0  0  0  0  0  0
   -3.4547   -6.3179    6.7135 C   0  0  0  0  0  0  0  0  0  0  0  0
   -4.8143   -5.7011    6.5626 C   0  0  0  0  0  0  0  0  0  0  0  0
   -5.7989   -6.8652    6.4225 C   0  0  0  0  0  0  0  0  0  0  0  0
   -5.8700   -7.1335    4.9103 C   0  0  0  0  0  0  0  0  0  0  0  0
   -7.1350   -6.5201    6.9160 C   0  0  0  0  0  0  0  0  0  0  0  0
   -8.2104   -6.4505    5.8910 C   0  0  0  0  0  0  0  0  0  0  0  0
   -9.5840   -6.1855    6.3817 C   0  0  0  0  0  0  0  0  0  0  0  0
   -9.9826   -7.0785    7.5769 C   0  0  0  0  0  0  0  0  0  0  0  0
   -9.9904   -8.5081    7.1867 C   0  0  0  0  0  0  0  0  0  0  0  0
   -5.8108   -6.4691   10.5817 H   0  0  0  0  0  0  0  0  0  0  0  0
   -2.4979   -7.9322    5.3012 H   0  0  0  0  0  0  0  0  0  0  0  0
  -13.5173   -6.1497    8.5587 C   0  0  0  0  0  0  0  0  0  0  0  0
  -12.4430   -7.2289    8.2598 C   0  0  0  0  0  0  0  0  0  0  0  0
  -12.6831   -8.2605    9.3505 C   0  0  0  0  0  0  0  0  0  0  0  0
  -14.0959   -8.8408    9.2234 C   0  0  0  0  0  0  0  0  0  0  0  0
  -14.1970   -9.6171    7.9567 C   0  0  0  0  0  0  0  0  0  0  0  0
  -14.9737   -9.1787    6.8891 O   0  0  0  0  0  0  0  0  0  0  0  0
  -13.5570  -10.6948    7.8673 O   0  0  0  0  0  0  0  0  0  0  0  0
  -15.3065   -8.2324    6.9049 H   0  0  0  0  0  0  0  0  0  0  0  0
 23 24  1  0  0  0
 24 25  1  0  0  0
 25 26  1  0  0  0
 26 27  1  0  0  0
 27 28  1  0  0  0
 27 29  2  0  0  0
 24  1  1  0  0  0
  1  2  1  0  0  0
  2  3  1  0  0  0
  3  4  1  0  0  0
  4  5  1  0  0  0
  5  6  1  0  0  0
  6  7  1  0  0  0
  6  8  1  0  0  0
  8  9  1  0  0  0
  9 10  1  0  0  0
 10 11  1  0  0  0
 10 12  1  0  0  0
 12 13  1  0  0  0
 13 14  1  0  0  0
 14 15  1  0  0  0
 14 16  1  0  0  0
 16 17  1  0  0  0
 17 18  1  0  0  0
 18 19  1  0  0  0
 19 20  1  0  0  0
 19  1  1  0  0  0
 19  4  1  0  0  0
 16  5  1  0  0  0
 14  9  1  0  0  0
 28 30  1  0  0  0
  7 21  1  0  0  0
 11 22  1  0  0  0
M  END
> <minimizedAffinity>
-1.48941

> <CNNscore>
0.3909217417

> <CNNaffinity>
6.0864458084

> <CNN_VS>
2.3793239594

> <CNNaffinity_variance>
0.4875059128

$$$$
[H]OC(=O)C([H])([H])C([H])([H])[C@@]([H])(C([H])([H])[H])[C@@]1([H])C([H])([H])C([H])([H])[C@@]2([H])[C@@]3([H])[C@]([H])(C([H])([H])C([H])([H])[C@@]21C([H])([H])[H])[C@@]1(C([H])([H])[H])C([H])([H])C([H])([H])[C@]([H])(O[H])[C@@]1([H])C([H])([H])[C@@]3([H])O[H]


 30 33  0  0  0  0  0  0  0  0999 V2000
  -14.9255   -7.9597    5.6487 C   0  0  0  0  0  0  0  0  0  0  0  0
  -14.7212   -6.4793    6.0085 C   0  0  0  0  0  0  0  0  0  0  0  0
  -13.7686   -6.5936    7.2295 C   0  0  0  0  0  0  0  0  0  0  0  0
  -12.8692   -7.6165    6.6729 C   0  0  0  0  0  0  0  0  0  0  0  0
  -11.7937   -8.1980    7.4727 C   0  0  0  0  0  0  0  0  0  0  0  0
  -10.9993   -7.1872    8.2747 C   0  0  0  0  0  0  0  0  0  0  0  0
  -10.4980   -6.1588    7.4849 O   0  0  0  0  0  0  0  0  0  0  0  0
   -9.9809   -7.9018    9.0761 C   0  0  0  0  0  0  0  0  0  0  0  0
   -9.4013   -9.1229    8.4821 C   0  0  0  0  0  0  0  0  0  0  0  0
   -7.8919   -9.0765    8.6976 C   0  0  0  0  0  0  0  0  0  0  0  0
   -7.3883  -10.2594    9.1857 O   0  0  0  0  0  0  0  0  0  0  0  0
   -7.3036   -8.6434    7.3923 C   0  0  0  0  0  0  0  0  0  0  0  0
   -8.3892   -8.6830    6.3570 C   0  0  0  0  0  0  0  0  0  0  0  0
   -9.5995   -9.3348    7.0311 C   0  0  0  0  0  0  0  0  0  0  0  0
   -9.4321  -10.8387    6.7591 C   0  0  0  0  0  0  0  0  0  0  0  0
  -10.8660   -8.8766    6.4531 C   0  0  0  0  0  0  0  0  0  0  0  0
  -11.6530   -9.8998    5.7144 C   0  0  0  0  0  0  0  0  0  0  0  0
  -12.9757   -9.4773    5.1948 C   0  0  0  0  0  0  0  0  0  0  0  0
  -13.8318   -8.7393    6.2470 C   0  0  0  0  0  0  0  0  0  0  0  0
  -14.1422   -9.6286    7.3911 C   0  0  0  0  0  0  0  0  0  0  0  0
  -10.3469   -5.3441    8.0168 H   0  0  0  0  0  0  0  0  0  0  0  0
   -6.5477  -10.4553    8.6814 H   0  0  0  0  0  0  0  0  0  0  0  0
  -16.8779   -8.6576    4.3822 C   0  0  0  0  0  0  0  0  0  0  0  0
  -16.3282   -8.3946    5.8094 C   0  0  0  0  0  0  0  0  0  0  0  0
  -17.2692   -7.3279    6.3462 C   0  0  0  0  0  0  0  0  0  0  0  0
  -17.9600   -7.8286    7.6193 C   0  0  0  0  0  0  0  0  0  0  0  0
  -19.0413   -8.7834    7.2496 C   0  0  0  0  0  0  0  0  0  0  0  0
  -19.6884   -9.5621    8.2037 O   0  0  0  0  0  0  0  0  0  0  0  0
  -19.3649   -8.8752    6.0390 O   0  0  0  0  0  0  0  0  0  0  0  0
  -19.5586   -9.3285    9.1706 H   0  0  0  0  0  0  0  0  0  0  0  0
 23 24  1  0  0  0
 24 25  1  0  0  0
 25 26  1  0  0  0
 26 27  1  0  0  0
 27 28  1  0  0  0
 27 29  2  0  0  0
 24  1  1  0  0  0
  1  2  1  0  0  0
  2  3  1  0  0  0
  3  4  1  0  0  0
  4  5  1  0  0  0
  5  6  1  0  0  0
  6  7  1  0  0  0
  6  8  1  0  0  0
  8  9  1  0  0  0
  9 10  1  0  0  0
 10 11  1  0  0  0
 10 12  1  0  0  0
 12 13  1  0  0  0
 13 14  1  0  0  0
 14 15  1  0  0  0
 14 16  1  0  0  0
 16 17  1  0  0  0
 17 18  1  0  0  0
 18 19  1  0  0  0
 19 20  1  0  0  0
 19  1  1  0  0  0
 19  4  1  0  0  0
 16  5  1  0  0  0
 14  9  1  0  0  0
 28 30  1  0  0  0
  7 21  1  0  0  0
 11 22  1  0  0  0
M  END
> <minimizedAffinity>
-0.76367

> <CNNscore>
0.3779624403

> <CNNaffinity>
6.4846458435

> <CNN_VS>
2.4509525299

> <CNNaffinity_variance>
0.5073029995

$$$$
[H]OC(=O)C([H])([H])C([H])([H])[C@@]([H])(C([H])([H])[H])[C@@]1([H])C([H])([H])C([H])([H])[C@@]2([H])[C@@]3([H])[C@]([H])(C([H])([H])C([H])([H])[C@@]21C([H])([H])[H])[C@@]1(C([H])([H])[H])C([H])([H])C([H])([H])[C@]([H])(O[H])[C@@]1([H])C([H])([H])[C@@]3([H])O[H]


 30 33  0  0  0  0  0  0  0  0999 V2000
  -16.8331   -7.4999    6.0037 C   0  0  0  0  0  0  0  0  0  0  0  0
  -17.3638   -7.7921    7.4164 C   0  0  0  0  0  0  0  0  0  0  0  0
  -16.2030   -8.6380    8.0066 C   0  0  0  0  0  0  0  0  0  0  0  0
  -15.0933   -7.8082    7.5115 C   0  0  0  0  0  0  0  0  0  0  0  0
  -13.7015   -8.2102    7.7011 C   0  0  0  0  0  0  0  0  0  0  0  0
  -13.3869   -8.7243    9.0913 C   0  0  0  0  0  0  0  0  0  0  0  0
  -13.7595   -7.8273   10.0859 O   0  0  0  0  0  0  0  0  0  0  0  0
  -11.9689   -9.1447    9.1397 C   0  0  0  0  0  0  0  0  0  0  0  0
  -11.0181   -8.3805    8.3078 C   0  0  0  0  0  0  0  0  0  0  0  0
   -9.7805   -8.0969    9.1532 C   0  0  0  0  0  0  0  0  0  0  0  0
   -8.6088   -8.3817    8.4921 O   0  0  0  0  0  0  0  0  0  0  0  0
   -9.9084   -6.6768    9.6054 C   0  0  0  0  0  0  0  0  0  0  0  0
  -11.0408   -6.0478    8.8479 C   0  0  0  0  0  0  0  0  0  0  0  0
  -11.4672   -7.0691    7.7901 C   0  0  0  0  0  0  0  0  0  0  0  0
  -10.6033   -6.7395    6.5618 C   0  0  0  0  0  0  0  0  0  0  0  0
  -12.8831   -6.9373    7.4352 C   0  0  0  0  0  0  0  0  0  0  0  0
  -13.1675   -6.4805    6.0486 C   0  0  0  0  0  0  0  0  0  0  0  0
  -14.5927   -6.4216    5.6445 C   0  0  0  0  0  0  0  0  0  0  0  0
  -15.3768   -7.7029    6.0024 C   0  0  0  0  0  0  0  0  0  0  0  0
  -14.8279   -8.8752    5.2808 C   0  0  0  0  0  0  0  0  0  0  0  0
  -13.9277   -8.2915   10.9378 H   0  0  0  0  0  0  0  0  0  0  0  0
   -7.9749   -7.6303    8.6735 H   0  0  0  0  0  0  0  0  0  0  0  0
  -17.8211   -7.0278    3.8349 C   0  0  0  0  0  0  0  0  0  0  0  0
  -17.6724   -8.1003    4.9466 C   0  0  0  0  0  0  0  0  0  0  0  0
  -19.1120   -8.3724    5.3527 C   0  0  0  0  0  0  0  0  0  0  0  0
  -19.2429   -9.7973    5.9019 C   0  0  0  0  0  0  0  0  0  0  0  0
  -20.5661   -9.9484    6.5681 C   0  0  0  0  0  0  0  0  0  0  0  0
  -21.6763   -9.2123    6.1669 O   0  0  0  0  0  0  0  0  0  0  0  0
  -20.6641  -10.7670    7.5163 O   0  0  0  0  0  0  0  0  0  0  0  0
  -21.6279   -8.7242    5.2918 H   0  0  0  0  0  0  0  0  0  0  0  0
 23 24  1  0  0  0
 24 25  1  0  0  0
 25 26  1  0  0  0
 26 27  1  0  0  0
 27 28  1  0  0  0
 27 29  2  0  0  0
 24  1  1  0  0  0
  1  2  1  0  0  0
  2  3  1  0  0  0
  3  4  1  0  0  0
  4  5  1  0  0  0
  5  6  1  0  0  0
  6  7  1  0  0  0
  6  8  1  0  0  0
  8  9  1  0  0  0
  9 10  1  0  0  0
 10 11  1  0  0  0
 10 12  1  0  0  0
 12 13  1  0  0  0
 13 14  1  0  0  0
 14 15  1  0  0  0
 14 16  1  0  0  0
 16 17  1  0  0  0
 17 18  1  0  0  0
 18 19  1  0  0  0
 19 20  1  0  0  0
 19  1  1  0  0  0
 19  4  1  0  0  0
 16  5  1  0  0  0
 14  9  1  0  0  0
 28 30  1  0  0  0
  7 21  1  0  0  0
 11 22  1  0  0  0
M  END
> <minimizedAffinity>
-2.27589

> <CNNscore>
0.3741231561

> <CNNaffinity>
6.5445313454

> <CNN_VS>
2.4484608173

> <CNNaffinity_variance>
0.3005541861

$$$$
[H]OC(=O)C([H])([H])C([H])([H])[C@@]([H])(C([H])([H])[H])[C@@]1([H])C([H])([H])C([H])([H])[C@]2([H])[C@]1(C([H])([H])[H])C([H])([H])C([H])([H])[C@]1([H])[C@@]3(C([H])([H])[H])C([H])([H])C([H])([H])C([H])(OC(=O)C([H])([H])[H])C([H])([H])[C@@]3([H])C([H])([H])[C@@]([H])(O[H])[C@]12[H]


 33 36  0  0  0  0  0  0  0  0999 V2000
  -16.6107   -8.9135    4.8403 C   0  0  0  0  0  0  0  0  0  0  0  0
  -15.6612   -9.2482    3.7539 C   0  0  0  0  0  0  0  0  0  0  0  0
  -14.2779   -8.7760    4.2565 C   0  0  0  0  0  0  0  0  0  0  0  0
  -14.5671   -8.4248    5.6932 C   0  0  0  0  0  0  0  0  0  0  0  0
  -13.5818   -7.5697    6.3756 C   0  0  0  0  0  0  0  0  0  0  0  0
  -12.3409   -8.4345    6.6152 C   0  0  0  0  0  0  0  0  0  0  0  0
  -12.6520   -9.7958    6.5043 O   0  0  0  0  0  0  0  0  0  0  0  0
  -11.7344   -8.2134    7.9564 C   0  0  0  0  0  0  0  0  0  0  0  0
  -11.8101   -6.7504    8.4157 C   0  0  0  0  0  0  0  0  0  0  0  0
  -10.9411   -6.6320    9.6178 C   0  0  0  0  0  0  0  0  0  0  0  0
  -11.4588   -5.7924   10.7330 C   0  0  0  0  0  0  0  0  0  0  0  0
  -12.9360   -5.8341   10.9456 C   0  0  0  0  0  0  0  0  0  0  0  0
  -13.5942   -6.8448   10.0601 C   0  0  0  0  0  0  0  0  0  0  0  0
  -13.2561   -6.4541    8.6190 C   0  0  0  0  0  0  0  0  0  0  0  0
  -13.4744   -4.9656    8.4119 C   0  0  0  0  0  0  0  0  0  0  0  0
  -14.1808   -7.2068    7.7330 C   0  0  0  0  0  0  0  0  0  0  0  0
  -15.4881   -6.4752    7.5129 C   0  0  0  0  0  0  0  0  0  0  0  0
  -16.4701   -7.4170    6.8482 C   0  0  0  0  0  0  0  0  0  0  0  0
  -15.9525   -7.7522    5.4955 C   0  0  0  0  0  0  0  0  0  0  0  0
  -15.7650   -6.5753    4.6002 C   0  0  0  0  0  0  0  0  0  0  0  0
  -11.9950  -10.2534    5.8999 H   0  0  0  0  0  0  0  0  0  0  0  0
  -18.5689   -7.4783    4.5530 C   0  0  0  0  0  0  0  0  0  0  0  0
  -18.0527   -8.8977    4.5814 C   0  0  0  0  0  0  0  0  0  0  0  0
  -18.9489   -9.8339    5.2464 C   0  0  0  0  0  0  0  0  0  0  0  0
  -20.2103   -9.4664    5.8763 C   0  0  0  0  0  0  0  0  0  0  0  0
  -20.6912  -10.1297    7.0865 C   0  0  0  0  0  0  0  0  0  0  0  0
  -19.9710   -9.9345    8.3099 O   0  0  0  0  0  0  0  0  0  0  0  0
  -21.6847  -10.8742    7.2056 O   0  0  0  0  0  0  0  0  0  0  0  0
  -20.4697   -9.6639    9.1526 H   0  0  0  0  0  0  0  0  0  0  0  0
  -10.8682   -6.2954   11.9421 O   0  0  0  0  0  0  0  0  0  0  0  0
  -11.3273   -5.9211   13.1938 C   0  0  0  0  0  0  0  0  0  0  0  0
  -10.6000   -4.8144   13.8722 C   0  0  0  0  0  0  0  0  0  0  0  0
  -12.3073   -6.5300   13.6616 O   0  0  0  0  0  0  0  0  0  0  0  0
 22 23  1  0  0  0
 23 24  1  0  0  0
 24 25  1  0  0  0
 25 26  1  0  0  0
 26 27  1  0  0  0
 26 28  2  0  0  0
 23  1  1  0  0  0
  1  2  1  0  0  0
  2  3  1  0  0  0
  3  4  1  0  0  0
  4  5  1  0  0  0
  5  6  1  0  0  0
  6  7  1  0  0  0
  6  8  1  0  0  0
  8  9  1  0  0  0
  9 10  1  0  0  0
 10 11  1  0  0  0
 11 12  1  0  0  0
 12 13  1  0  0  0
 13 14  1  0  0  0
 14 15  1  0  0  0
 14 16  1  0  0  0
 16 17  1  0  0  0
 17 18  1  0  0  0
 18 19  1  0  0  0
 19 20  1  0  0  0
 11 30  1  0  0  0
 30 31  1  0  0  0
 31 32  1  0  0  0
 31 33  2  0  0  0
 19  1  1  0  0  0
 19  4  1  0  0  0
 16  5  1  0  0  0
 14  9  1  0  0  0
 27 29  1  0  0  0
  7 21  1  0  0  0
M  END
> <minimizedAffinity>
-0.37449

> <CNNscore>
0.5458959937

> <CNNaffinity>
6.9827156067

> <CNN_VS>
3.8118364811

> <CNNaffinity_variance>
0.5179104805

$$$$
[H]OC(=O)C([H])([H])C([H])([H])[C@@]([H])(C([H])([H])[H])[C@@]1([H])C([H])([H])C([H])([H])[C@]2([H])[C@]1(C([H])([H])[H])C([H])([H])C([H])([H])[C@]1([H])[C@@]3(C([H])([H])[H])C([H])([H])C([H])([H])C([H])(OC(=O)C([H])([H])[H])C([H])([H])[C@@]3([H])C([H])([H])[C@@]([H])(O[H])[C@]12[H]


 33 36  0  0  0  0  0  0  0  0999 V2000
   -7.6796   -7.6895    6.0650 C   0  0  0  0  0  0  0  0  0  0  0  0
   -8.0258   -6.6576    5.0603 C   0  0  0  0  0  0  0  0  0  0  0  0
   -9.1777   -5.8412    5.6893 C   0  0  0  0  0  0  0  0  0  0  0  0
   -9.2045   -6.3685    7.1007 C   0  0  0  0  0  0  0  0  0  0  0  0
  -10.4262   -6.1087    7.8801 C   0  0  0  0  0  0  0  0  0  0  0  0
  -10.4251   -4.6140    8.2132 C   0  0  0  0  0  0  0  0  0  0  0  0
   -9.1451   -4.0678    8.0536 O   0  0  0  0  0  0  0  0  0  0  0  0
  -10.8701   -4.3332    9.6055 C   0  0  0  0  0  0  0  0  0  0  0  0
  -11.9869   -5.2738   10.0800 C   0  0  0  0  0  0  0  0  0  0  0  0
  -12.5091   -4.7118   11.3550 C   0  0  0  0  0  0  0  0  0  0  0  0
  -12.8215   -5.6888   12.4342 C   0  0  0  0  0  0  0  0  0  0  0  0
  -11.9198   -6.8759   12.5164 C   0  0  0  0  0  0  0  0  0  0  0  0
  -10.7736   -6.7674   11.5607 C   0  0  0  0  0  0  0  0  0  0  0  0
  -11.3788   -6.6316   10.1611 C   0  0  0  0  0  0  0  0  0  0  0  0
  -12.4765   -7.6615    9.9597 C   0  0  0  0  0  0  0  0  0  0  0  0
  -10.2884   -6.8894    9.1858 C   0  0  0  0  0  0  0  0  0  0  0  0
  -10.1415   -8.3616    8.8642 C   0  0  0  0  0  0  0  0  0  0  0  0
   -8.8501   -8.5695    8.1013 C   0  0  0  0  0  0  0  0  0  0  0  0
   -8.9630   -7.8713    6.7938 C   0  0  0  0  0  0  0  0  0  0  0  0
  -10.0857   -8.3485    5.9373 C   0  0  0  0  0  0  0  0  0  0  0  0
   -9.1913   -3.2315    7.5015 H   0  0  0  0  0  0  0  0  0  0  0  0
   -6.0804   -9.3577    6.8627 C   0  0  0  0  0  0  0  0  0  0  0  0
   -6.8751   -8.8524    5.6815 C   0  0  0  0  0  0  0  0  0  0  0  0
   -6.1384   -8.8790    4.4252 C   0  0  0  0  0  0  0  0  0  0  0  0
   -6.3889   -9.8169    3.3388 C   0  0  0  0  0  0  0  0  0  0  0  0
   -7.6366  -10.5717    3.2425 C   0  0  0  0  0  0  0  0  0  0  0  0
   -8.5054  -10.6120    4.3814 O   0  0  0  0  0  0  0  0  0  0  0  0
   -8.0673  -11.2132    2.2634 O   0  0  0  0  0  0  0  0  0  0  0  0
   -9.4924  -10.3976    4.2723 H   0  0  0  0  0  0  0  0  0  0  0  0
  -12.6768   -4.9918   13.6819 O   0  0  0  0  0  0  0  0  0  0  0  0
  -11.5470   -4.2488   13.9806 C   0  0  0  0  0  0  0  0  0  0  0  0
  -10.9871   -4.3999   15.3508 C   0  0  0  0  0  0  0  0  0  0  0  0
  -11.0814   -3.5123   13.0913 O   0  0  0  0  0  0  0  0  0  0  0  0
 22 23  1  0  0  0
 23 24  1  0  0  0
 24 25  1  0  0  0
 25 26  1  0  0  0
 26 27  1  0  0  0
 26 28  2  0  0  0
 23  1  1  0  0  0
  1  2  1  0  0  0
  2  3  1  0  0  0
  3  4  1  0  0  0
  4  5  1  0  0  0
  5  6  1  0  0  0
  6  7  1  0  0  0
  6  8  1  0  0  0
  8  9  1  0  0  0
  9 10  1  0  0  0
 10 11  1  0  0  0
 11 12  1  0  0  0
 12 13  1  0  0  0
 13 14  1  0  0  0
 14 15  1  0  0  0
 14 16  1  0  0  0
 16 17  1  0  0  0
 17 18  1  0  0  0
 18 19  1  0  0  0
 19 20  1  0  0  0
 11 30  1  0  0  0
 30 31  1  0  0  0
 31 32  1  0  0  0
 31 33  2  0  0  0
 19  1  1  0  0  0
 19  4  1  0  0  0
 16  5  1  0  0  0
 14  9  1  0  0  0
 27 29  1  0  0  0
  7 21  1  0  0  0
M  END
> <minimizedAffinity>
30.20810

> <CNNscore>
0.4238612354

> <CNNaffinity>
5.8480010033

> <CNN_VS>
2.4787409306

> <CNNaffinity_variance>
0.7475832701

$$$$
[H]OC(=O)C([H])([H])C([H])([H])[C@@]([H])(C([H])([H])[H])[C@@]1([H])C([H])([H])C([H])([H])[C@]2([H])[C@]1(C([H])([H])[H])C([H])([H])C([H])([H])[C@]1([H])[C@@]3(C([H])([H])[H])C([H])([H])C([H])([H])C([H])(OC(=O)C([H])([H])[H])C([H])([H])[C@@]3([H])C([H])([H])[C@@]([H])(O[H])[C@]12[H]


 33 36  0  0  0  0  0  0  0  0999 V2000
  -11.4672   -7.1112    9.3847 C   0  0  0  0  0  0  0  0  0  0  0  0
  -10.7388   -8.3675    9.0933 C   0  0  0  0  0  0  0  0  0  0  0  0
  -11.6644   -9.1708    8.1515 C   0  0  0  0  0  0  0  0  0  0  0  0
  -12.7362   -8.1624    7.8266 C   0  0  0  0  0  0  0  0  0  0  0  0
  -13.9942   -8.6903    7.2734 C   0  0  0  0  0  0  0  0  0  0  0  0
  -13.6892   -9.1426    5.8425 C   0  0  0  0  0  0  0  0  0  0  0  0
  -12.4980   -8.5682    5.3805 O   0  0  0  0  0  0  0  0  0  0  0  0
  -14.7694   -8.7860    4.8825 C   0  0  0  0  0  0  0  0  0  0  0  0
  -16.1744   -8.8976    5.4912 C   0  0  0  0  0  0  0  0  0  0  0  0
  -17.1407   -8.7826    4.3654 C   0  0  0  0  0  0  0  0  0  0  0  0
  -18.3626   -7.9703    4.6179 C   0  0  0  0  0  0  0  0  0  0  0  0
  -18.1804   -6.7803    5.5007 C   0  0  0  0  0  0  0  0  0  0  0  0
  -16.7410   -6.5636    5.8474 C   0  0  0  0  0  0  0  0  0  0  0  0
  -16.2576   -7.8412    6.5386 C   0  0  0  0  0  0  0  0  0  0  0  0
  -17.2616   -8.2844    7.5882 C   0  0  0  0  0  0  0  0  0  0  0  0
  -14.9706   -7.5176    7.2061 C   0  0  0  0  0  0  0  0  0  0  0  0
  -15.1703   -6.9645    8.6013 C   0  0  0  0  0  0  0  0  0  0  0  0
  -13.8554   -6.4005    9.0972 C   0  0  0  0  0  0  0  0  0  0  0  0
  -12.8884   -7.5215    9.2327 C   0  0  0  0  0  0  0  0  0  0  0  0
  -13.3164   -8.5913   10.1782 C   0  0  0  0  0  0  0  0  0  0  0  0
  -11.9038   -9.2731    4.9849 H   0  0  0  0  0  0  0  0  0  0  0  0
  -11.4793   -6.8844   11.8189 C   0  0  0  0  0  0  0  0  0  0  0  0
  -11.0576   -6.2640   10.5077 C   0  0  0  0  0  0  0  0  0  0  0  0
  -11.2266   -4.8178   10.4626 C   0  0  0  0  0  0  0  0  0  0  0  0
  -12.4540   -4.1168   10.8159 C   0  0  0  0  0  0  0  0  0  0  0  0
  -12.7068   -2.7411   10.3924 C   0  0  0  0  0  0  0  0  0  0  0  0
  -12.4984   -1.6823   11.3352 O   0  0  0  0  0  0  0  0  0  0  0  0
  -13.0958   -2.3453    9.2755 O   0  0  0  0  0  0  0  0  0  0  0  0
  -11.9399   -0.8749   11.0737 H   0  0  0  0  0  0  0  0  0  0  0  0
  -18.7938   -7.4602    3.3461 O   0  0  0  0  0  0  0  0  0  0  0  0
  -18.0274   -6.5678    2.6153 C   0  0  0  0  0  0  0  0  0  0  0  0
  -17.8960   -5.1906    3.1630 C   0  0  0  0  0  0  0  0  0  0  0  0
  -17.5058   -6.9745    1.5605 O   0  0  0  0  0  0  0  0  0  0  0  0
 22 23  1  0  0  0
 23 24  1  0  0  0
 24 25  1  0  0  0
 25 26  1  0  0  0
 26 27  1  0  0  0
 26 28  2  0  0  0
 23  1  1  0  0  0
  1  2  1  0  0  0
  2  3  1  0  0  0
  3  4  1  0  0  0
  4  5  1  0  0  0
  5  6  1  0  0  0
  6  7  1  0  0  0
  6  8  1  0  0  0
  8  9  1  0  0  0
  9 10  1  0  0  0
 10 11  1  0  0  0
 11 12  1  0  0  0
 12 13  1  0  0  0
 13 14  1  0  0  0
 14 15  1  0  0  0
 14 16  1  0  0  0
 16 17  1  0  0  0
 17 18  1  0  0  0
 18 19  1  0  0  0
 19 20  1  0  0  0
 11 30  1  0  0  0
 30 31  1  0  0  0
 31 32  1  0  0  0
 31 33  2  0  0  0
 19  1  1  0  0  0
 19  4  1  0  0  0
 16  5  1  0  0  0
 14  9  1  0  0  0
 27 29  1  0  0  0
  7 21  1  0  0  0
M  END
> <minimizedAffinity>
7.36405

> <CNNscore>
0.4157961011

> <CNNaffinity>
6.7895293236

> <CNN_VS>
2.8230597973

> <CNNaffinity_variance>
1.2432285547

$$$$
[H]OC(=O)C([H])([H])C([H])([H])[C@@]([H])(C([H])([H])[H])[C@@]1([H])C([H])([H])C([H])([H])[C@]2([H])[C@]1(C([H])([H])[H])C([H])([H])C([H])([H])[C@]1([H])[C@@]3(C([H])([H])[H])C([H])([H])C([H])([H])C([H])(OC(=O)C([H])([H])[H])C([H])([H])[C@@]3([H])C([H])([H])[C@@]([H])(O[H])[C@]12[H]


 33 36  0  0  0  0  0  0  0  0999 V2000
  -11.9775   -7.8183    7.7913 C   0  0  0  0  0  0  0  0  0  0  0  0
  -11.9975   -8.5510    9.0784 C   0  0  0  0  0  0  0  0  0  0  0  0
  -10.5133   -8.7692    9.4507 C   0  0  0  0  0  0  0  0  0  0  0  0
   -9.8031   -7.9213    8.4271 C   0  0  0  0  0  0  0  0  0  0  0  0
   -8.3705   -8.1929    8.2232 C   0  0  0  0  0  0  0  0  0  0  0  0
   -7.6438   -7.6746    9.4676 C   0  0  0  0  0  0  0  0  0  0  0  0
   -8.4522   -6.7810   10.1819 O   0  0  0  0  0  0  0  0  0  0  0  0
   -6.3699   -6.9769    9.1425 C   0  0  0  0  0  0  0  0  0  0  0  0
   -5.6185   -7.6162    7.9662 C   0  0  0  0  0  0  0  0  0  0  0  0
   -4.2650   -6.9987    7.9344 C   0  0  0  0  0  0  0  0  0  0  0  0
   -3.7168   -6.6661    6.5907 C   0  0  0  0  0  0  0  0  0  0  0  0
   -4.7134   -6.2068    5.5783 C   0  0  0  0  0  0  0  0  0  0  0  0
   -6.0739   -6.0381    6.1780 C   0  0  0  0  0  0  0  0  0  0  0  0
   -6.4689   -7.3966    6.7626 C   0  0  0  0  0  0  0  0  0  0  0  0
   -6.1811   -8.5037    5.7636 C   0  0  0  0  0  0  0  0  0  0  0  0
   -7.9299   -7.3512    7.0272 C   0  0  0  0  0  0  0  0  0  0  0  0
   -8.7457   -7.7535    5.8167 C   0  0  0  0  0  0  0  0  0  0  0  0
  -10.1989   -7.4117    6.0702 C   0  0  0  0  0  0  0  0  0  0  0  0
  -10.6869   -8.2532    7.1944 C   0  0  0  0  0  0  0  0  0  0  0  0
  -10.5950   -9.7205    6.9485 C   0  0  0  0  0  0  0  0  0  0  0  0
   -8.4705   -7.0306   11.1533 H   0  0  0  0  0  0  0  0  0  0  0  0
  -13.3213   -8.9804    6.1120 C   0  0  0  0  0  0  0  0  0  0  0  0
  -13.1861   -7.7421    6.9665 C   0  0  0  0  0  0  0  0  0  0  0  0
  -13.5533   -6.5121    6.2780 C   0  0  0  0  0  0  0  0  0  0  0  0
  -14.5653   -6.4187    5.2340 C   0  0  0  0  0  0  0  0  0  0  0  0
  -15.9893   -6.5757    5.5227 C   0  0  0  0  0  0  0  0  0  0  0  0
  -16.9397   -5.9335    4.6637 O   0  0  0  0  0  0  0  0  0  0  0  0
  -16.5132   -7.2190    6.4539 O   0  0  0  0  0  0  0  0  0  0  0  0
  -17.7170   -6.4653    4.2826 H   0  0  0  0  0  0  0  0  0  0  0  0
   -2.8020   -5.5735    6.7728 O   0  0  0  0  0  0  0  0  0  0  0  0
   -2.6766   -4.9156    7.9849 C   0  0  0  0  0  0  0  0  0  0  0  0
   -1.5917   -5.3796    8.8913 C   0  0  0  0  0  0  0  0  0  0  0  0
   -3.4722   -3.9902    8.2311 O   0  0  0  0  0  0  0  0  0  0  0  0
 22 23  1  0  0  0
 23 24  1  0  0  0
 24 25  1  0  0  0
 25 26  1  0  0  0
 26 27  1  0  0  0
 26 28  2  0  0  0
 23  1  1  0  0  0
  1  2  1  0  0  0
  2  3  1  0  0  0
  3  4  1  0  0  0
  4  5  1  0  0  0
  5  6  1  0  0  0
  6  7  1  0  0  0
  6  8  1  0  0  0
  8  9  1  0  0  0
  9 10  1  0  0  0
 10 11  1  0  0  0
 11 12  1  0  0  0
 12 13  1  0  0  0
 13 14  1  0  0  0
 14 15  1  0  0  0
 14 16  1  0  0  0
 16 17  1  0  0  0
 17 18  1  0  0  0
 18 19  1  0  0  0
 19 20  1  0  0  0
 11 30  1  0  0  0
 30 31  1  0  0  0
 31 32  1  0  0  0
 31 33  2  0  0  0
 19  1  1  0  0  0
 19  4  1  0  0  0
 16  5  1  0  0  0
 14  9  1  0  0  0
 27 29  1  0  0  0
  7 21  1  0  0  0
M  END
> <minimizedAffinity>
1.98304

> <CNNscore>
0.4107351005

> <CNNaffinity>
6.5614104271

> <CNN_VS>
2.6950016022

> <CNNaffinity_variance>
0.5793037415

$$$$
[H]OC(=O)C([H])([H])C([H])([H])[C@@]([H])(C([H])([H])[H])[C@@]1([H])C([H])([H])C([H])([H])[C@]2([H])[C@]1(C([H])([H])[H])C([H])([H])C([H])([H])[C@]1([H])[C@@]3(C([H])([H])[H])C([H])([H])C([H])([H])C([H])(OC(=O)C([H])([H])[H])C([H])([H])[C@@]3([H])C([H])([H])[C@@]([H])(O[H])[C@]12[H]


 33 36  0  0  0  0  0  0  0  0999 V2000
  -14.0038   -6.7266    7.1875 C   0  0  0  0  0  0  0  0  0  0  0  0
  -14.3485   -6.4185    8.5947 C   0  0  0  0  0  0  0  0  0  0  0  0
  -13.0577   -6.6846    9.4021 C   0  0  0  0  0  0  0  0  0  0  0  0
  -12.0414   -6.9010    8.3106 C   0  0  0  0  0  0  0  0  0  0  0  0
  -10.7870   -7.5669    8.6982 C   0  0  0  0  0  0  0  0  0  0  0  0
   -9.9918   -6.5561    9.5296 C   0  0  0  0  0  0  0  0  0  0  0  0
  -10.4715   -5.2557    9.3269 O   0  0  0  0  0  0  0  0  0  0  0  0
   -8.5386   -6.5613    9.2080 C   0  0  0  0  0  0  0  0  0  0  0  0
   -7.9982   -7.9635    8.8936 C   0  0  0  0  0  0  0  0  0  0  0  0
   -6.5144   -7.8554    8.8636 C   0  0  0  0  0  0  0  0  0  0  0  0
   -5.8136   -8.6142    7.7914 C   0  0  0  0  0  0  0  0  0  0  0  0
   -6.5299   -8.7032    6.4844 C   0  0  0  0  0  0  0  0  0  0  0  0
   -7.7742   -7.8722    6.4776 C   0  0  0  0  0  0  0  0  0  0  0  0
   -8.6519   -8.3843    7.6226 C   0  0  0  0  0  0  0  0  0  0  0  0
   -8.7187   -9.9013    7.5970 C   0  0  0  0  0  0  0  0  0  0  0  0
  -10.0157   -7.8361    7.4076 C   0  0  0  0  0  0  0  0  0  0  0  0
  -10.8551   -8.7200    6.5094 C   0  0  0  0  0  0  0  0  0  0  0  0
  -12.1069   -7.9661    6.1123 C   0  0  0  0  0  0  0  0  0  0  0  0
  -12.9185   -7.7323    7.3356 C   0  0  0  0  0  0  0  0  0  0  0  0
  -13.3351   -8.9760    8.0437 C   0  0  0  0  0  0  0  0  0  0  0  0
  -10.6280   -4.8026   10.2081 H   0  0  0  0  0  0  0  0  0  0  0  0
  -14.8729   -5.9804    5.0277 C   0  0  0  0  0  0  0  0  0  0  0  0
  -15.0629   -6.9216    6.1939 C   0  0  0  0  0  0  0  0  0  0  0  0
  -16.4537   -7.0835    6.5956 C   0  0  0  0  0  0  0  0  0  0  0  0
  -17.2509   -8.2788    6.3541 C   0  0  0  0  0  0  0  0  0  0  0  0
  -17.8757   -8.5417    5.0594 C   0  0  0  0  0  0  0  0  0  0  0  0
  -19.0244   -9.3973    5.0115 O   0  0  0  0  0  0  0  0  0  0  0  0
  -17.5317   -8.1052    3.9429 O   0  0  0  0  0  0  0  0  0  0  0  0
  -19.8599   -9.0949    4.5190 H   0  0  0  0  0  0  0  0  0  0  0  0
   -4.5843   -7.9202    7.5251 O   0  0  0  0  0  0  0  0  0  0  0  0
   -4.4058   -7.1551    6.3848 C   0  0  0  0  0  0  0  0  0  0  0  0
   -3.5328   -7.7256    5.3236 C   0  0  0  0  0  0  0  0  0  0  0  0
   -4.9820   -6.0530    6.3259 O   0  0  0  0  0  0  0  0  0  0  0  0
 22 23  1  0  0  0
 23 24  1  0  0  0
 24 25  1  0  0  0
 25 26  1  0  0  0
 26 27  1  0  0  0
 26 28  2  0  0  0
 23  1  1  0  0  0
  1  2  1  0  0  0
  2  3  1  0  0  0
  3  4  1  0  0  0
  4  5  1  0  0  0
  5  6  1  0  0  0
  6  7  1  0  0  0
  6  8  1  0  0  0
  8  9  1  0  0  0
  9 10  1  0  0  0
 10 11  1  0  0  0
 11 12  1  0  0  0
 12 13  1  0  0  0
 13 14  1  0  0  0
 14 15  1  0  0  0
 14 16  1  0  0  0
 16 17  1  0  0  0
 17 18  1  0  0  0
 18 19  1  0  0  0
 19 20  1  0  0  0
 11 30  1  0  0  0
 30 31  1  0  0  0
 31 32  1  0  0  0
 31 33  2  0  0  0
 19  1  1  0  0  0
 19  4  1  0  0  0
 16  5  1  0  0  0
 14  9  1  0  0  0
 27 29  1  0  0  0
  7 21  1  0  0  0
M  END
> <minimizedAffinity>
-3.92995

> <CNNscore>
0.3080609143

> <CNNaffinity>
6.7557783127

> <CNN_VS>
2.0811913013

> <CNNaffinity_variance>
0.5915281177

$$$$
[H]OC(=O)C([H])([H])C([H])([H])[C@@]([H])(C([H])([H])[H])[C@@]1([H])C([H])([H])C([H])([H])[C@]2([H])[C@]1(C([H])([H])[H])C([H])([H])C([H])([H])[C@]1([H])[C@@]3(C([H])([H])[H])C([H])([H])C([H])([H])C([H])(OC(=O)C([H])([H])[H])C([H])([H])[C@@]3([H])C([H])([H])[C@@]([H])(O[H])[C@]12[H]


 33 36  0  0  0  0  0  0  0  0999 V2000
   -9.0330   -7.2641    8.2288 C   0  0  0  0  0  0  0  0  0  0  0  0
   -8.5613   -8.1283    9.3354 C   0  0  0  0  0  0  0  0  0  0  0  0
   -7.0181   -8.0586    9.2826 C   0  0  0  0  0  0  0  0  0  0  0  0
   -6.7859   -6.9626    8.2747 C   0  0  0  0  0  0  0  0  0  0  0  0
   -5.4427   -6.8887    7.6766 C   0  0  0  0  0  0  0  0  0  0  0  0
   -4.5028   -6.3726    8.7700 C   0  0  0  0  0  0  0  0  0  0  0  0
   -5.2263   -5.7668    9.8053 O   0  0  0  0  0  0  0  0  0  0  0  0
   -3.5168   -5.3802    8.2616 C   0  0  0  0  0  0  0  0  0  0  0  0
   -3.0216   -5.6983    6.8436 C   0  0  0  0  0  0  0  0  0  0  0  0
   -1.8644   -4.8004    6.5812 C   0  0  0  0  0  0  0  0  0  0  0  0
   -1.7819   -4.2017    5.2205 C   0  0  0  0  0  0  0  0  0  0  0  0
   -3.0869   -3.8568    4.5826 C   0  0  0  0  0  0  0  0  0  0  0  0
   -4.2333   -4.0606    5.5225 C   0  0  0  0  0  0  0  0  0  0  0  0
   -4.1991   -5.5313    5.9460 C   0  0  0  0  0  0  0  0  0  0  0  0
   -4.0079   -6.4246    4.7329 C   0  0  0  0  0  0  0  0  0  0  0  0
   -5.5117   -5.8376    6.5705 C   0  0  0  0  0  0  0  0  0  0  0  0
   -6.5469   -6.2647    5.5514 C   0  0  0  0  0  0  0  0  0  0  0  0
   -7.9084   -6.2808    6.2140 C   0  0  0  0  0  0  0  0  0  0  0  0
   -7.9041   -7.3338    7.2635 C   0  0  0  0  0  0  0  0  0  0  0  0
   -7.6229   -8.7066    6.7554 C   0  0  0  0  0  0  0  0  0  0  0  0
   -4.9278   -6.1258   10.6931 H   0  0  0  0  0  0  0  0  0  0  0  0
  -11.2769   -6.3147    8.4301 C   0  0  0  0  0  0  0  0  0  0  0  0
  -10.4170   -7.3586    7.7571 C   0  0  0  0  0  0  0  0  0  0  0  0
  -11.0751   -8.6490    7.6028 C   0  0  0  0  0  0  0  0  0  0  0  0
  -12.4528   -8.9264    7.9869 C   0  0  0  0  0  0  0  0  0  0  0  0
  -13.2137  -10.0242    7.3939 C   0  0  0  0  0  0  0  0  0  0  0  0
  -13.5826   -9.9372    6.0120 O   0  0  0  0  0  0  0  0  0  0  0  0
  -13.6028  -11.0710    7.9493 O   0  0  0  0  0  0  0  0  0  0  0  0
  -13.3924  -10.7159    5.3878 H   0  0  0  0  0  0  0  0  0  0  0  0
   -1.0640   -2.9644    5.3526 O   0  0  0  0  0  0  0  0  0  0  0  0
   -1.6826   -1.7982    5.7707 C   0  0  0  0  0  0  0  0  0  0  0  0
   -1.8879   -1.6352    7.2354 C   0  0  0  0  0  0  0  0  0  0  0  0
   -2.0215   -0.9738    4.9014 O   0  0  0  0  0  0  0  0  0  0  0  0
 22 23  1  0  0  0
 23 24  1  0  0  0
 24 25  1  0  0  0
 25 26  1  0  0  0
 26 27  1  0  0  0
 26 28  2  0  0  0
 23  1  1  0  0  0
  1  2  1  0  0  0
  2  3  1  0  0  0
  3  4  1  0  0  0
  4  5  1  0  0  0
  5  6  1  0  0  0
  6  7  1  0  0  0
  6  8  1  0  0  0
  8  9  1  0  0  0
  9 10  1  0  0  0
 10 11  1  0  0  0
 11 12  1  0  0  0
 12 13  1  0  0  0
 13 14  1  0  0  0
 14 15  1  0  0  0
 14 16  1  0  0  0
 16 17  1  0  0  0
 17 18  1  0  0  0
 18 19  1  0  0  0
 19 20  1  0  0  0
 11 30  1  0  0  0
 30 31  1  0  0  0
 31 32  1  0  0  0
 31 33  2  0  0  0
 19  1  1  0  0  0
 19  4  1  0  0  0
 16  5  1  0  0  0
 14  9  1  0  0  0
 27 29  1  0  0  0
  7 21  1  0  0  0
M  END
> <minimizedAffinity>
-3.76881

> <CNNscore>
0.2852033973

> <CNNaffinity>
5.9564199448

> <CNN_VS>
1.6987911463

> <CNNaffinity_variance>
0.5011665821

$$$$
[H]OC(=O)C([H])([H])C([H])([H])[C@@]([H])(C([H])([H])[H])[C@@]1([H])C([H])([H])C([H])([H])[C@]2([H])[C@]1(C([H])([H])[H])C([H])([H])C([H])([H])[C@]1([H])[C@@]3(C([H])([H])[H])C([H])([H])C([H])([H])C([H])(OC(=O)C([H])([H])[H])C([H])([H])[C@@]3([H])C([H])([H])[C@@]([H])(O[H])[C@]12[H]


 33 36  0  0  0  0  0  0  0  0999 V2000
   -7.2204   -8.9631    7.2634 C   0  0  0  0  0  0  0  0  0  0  0  0
   -6.6547   -8.7866    5.9059 C   0  0  0  0  0  0  0  0  0  0  0  0
   -5.5201   -7.7491    6.0647 C   0  0  0  0  0  0  0  0  0  0  0  0
   -5.4181   -7.6196    7.5627 C   0  0  0  0  0  0  0  0  0  0  0  0
   -4.7173   -6.4313    8.0769 C   0  0  0  0  0  0  0  0  0  0  0  0
   -3.2290   -6.6368    7.7810 C   0  0  0  0  0  0  0  0  0  0  0  0
   -2.9545   -7.9842    7.5134 O   0  0  0  0  0  0  0  0  0  0  0  0
   -2.3530   -6.2079    8.9054 C   0  0  0  0  0  0  0  0  0  0  0  0
   -2.8756   -4.9600    9.6312 C   0  0  0  0  0  0  0  0  0  0  0  0
   -1.7837   -4.4968   10.5298 C   0  0  0  0  0  0  0  0  0  0  0  0
   -2.1898   -4.0277   11.8832 C   0  0  0  0  0  0  0  0  0  0  0  0
   -3.3394   -4.7508   12.5032 C   0  0  0  0  0  0  0  0  0  0  0  0
   -3.7698   -5.9199   11.6744 C   0  0  0  0  0  0  0  0  0  0  0  0
   -4.1448   -5.3684   10.2964 C   0  0  0  0  0  0  0  0  0  0  0  0
   -5.0263   -4.1405   10.4426 C   0  0  0  0  0  0  0  0  0  0  0  0
   -4.9077   -6.4309    9.5925 C   0  0  0  0  0  0  0  0  0  0  0  0
   -6.3890   -6.3748    9.9011 C   0  0  0  0  0  0  0  0  0  0  0  0
   -7.0445   -7.6391    9.3864 C   0  0  0  0  0  0  0  0  0  0  0  0
   -6.9325   -7.6524    7.9040 C   0  0  0  0  0  0  0  0  0  0  0  0
   -7.5781   -6.4911    7.2285 C   0  0  0  0  0  0  0  0  0  0  0  0
   -2.4174   -8.0678    6.6703 H   0  0  0  0  0  0  0  0  0  0  0  0
   -8.4034  -11.1021    7.3042 C   0  0  0  0  0  0  0  0  0  0  0  0
   -8.5265   -9.6028    7.4413 C   0  0  0  0  0  0  0  0  0  0  0  0
   -9.7257   -9.0543    6.8224 C   0  0  0  0  0  0  0  0  0  0  0  0
  -11.0808   -9.5182    7.0895 C   0  0  0  0  0  0  0  0  0  0  0  0
  -11.8872   -8.9633    8.1746 C   0  0  0  0  0  0  0  0  0  0  0  0
  -12.4891   -9.8632    9.1134 O   0  0  0  0  0  0  0  0  0  0  0  0
  -12.1341   -7.7628    8.4054 O   0  0  0  0  0  0  0  0  0  0  0  0
  -12.3770   -9.7034   10.1105 H   0  0  0  0  0  0  0  0  0  0  0  0
   -1.0674   -4.2442   12.7533 O   0  0  0  0  0  0  0  0  0  0  0  0
   -1.1654   -4.1002   14.1271 C   0  0  0  0  0  0  0  0  0  0  0  0
   -1.2630   -2.7111   14.6511 C   0  0  0  0  0  0  0  0  0  0  0  0
   -1.1653   -5.1325   14.8231 O   0  0  0  0  0  0  0  0  0  0  0  0
 22 23  1  0  0  0
 23 24  1  0  0  0
 24 25  1  0  0  0
 25 26  1  0  0  0
 26 27  1  0  0  0
 26 28  2  0  0  0
 23  1  1  0  0  0
  1  2  1  0  0  0
  2  3  1  0  0  0
  3  4  1  0  0  0
  4  5  1  0  0  0
  5  6  1  0  0  0
  6  7  1  0  0  0
  6  8  1  0  0  0
  8  9  1  0  0  0
  9 10  1  0  0  0
 10 11  1  0  0  0
 11 12  1  0  0  0
 12 13  1  0  0  0
 13 14  1  0  0  0
 14 15  1  0  0  0
 14 16  1  0  0  0
 16 17  1  0  0  0
 17 18  1  0  0  0
 18 19  1  0  0  0
 19 20  1  0  0  0
 11 30  1  0  0  0
 30 31  1  0  0  0
 31 32  1  0  0  0
 31 33  2  0  0  0
 19  1  1  0  0  0
 19  4  1  0  0  0
 16  5  1  0  0  0
 14  9  1  0  0  0
 27 29  1  0  0  0
  7 21  1  0  0  0
M  END
> <minimizedAffinity>
-1.60956

> <CNNscore>
0.2805620730

> <CNNaffinity>
5.6400609016

> <CNN_VS>
1.5823872089

> <CNNaffinity_variance>
0.5414881706

$$$$
[H]OC(=O)C([H])([H])C([H])([H])[C@@]([H])(C([H])([H])[H])[C@@]1([H])C([H])([H])C([H])([H])[C@]2([H])[C@]1(C([H])([H])[H])C([H])([H])C([H])([H])[C@]1([H])[C@@]3(C([H])([H])[H])C([H])([H])C([H])([H])C([H])(OC(=O)C([H])([H])[H])C([H])([H])[C@@]3([H])C([H])([H])[C@@]([H])(O[H])[C@]12[H]


 33 36  0  0  0  0  0  0  0  0999 V2000
   -6.2932   -2.3492   13.7172 C   0  0  0  0  0  0  0  0  0  0  0  0
   -5.1800   -1.5983   14.3424 C   0  0  0  0  0  0  0  0  0  0  0  0
   -3.8954   -2.1268   13.6647 C   0  0  0  0  0  0  0  0  0  0  0  0
   -4.4523   -2.9729   12.5489 C   0  0  0  0  0  0  0  0  0  0  0  0
   -3.5339   -3.9475   11.9371 C   0  0  0  0  0  0  0  0  0  0  0  0
   -2.5273   -3.1429   11.1097 C   0  0  0  0  0  0  0  0  0  0  0  0
   -3.0063   -1.8506   10.8595 O   0  0  0  0  0  0  0  0  0  0  0  0
   -2.2209   -3.7773    9.7985 C   0  0  0  0  0  0  0  0  0  0  0  0
   -2.1788   -5.3104    9.8686 C   0  0  0  0  0  0  0  0  0  0  0  0
   -1.6035   -5.7837    8.5805 C   0  0  0  0  0  0  0  0  0  0  0  0
   -2.2320   -6.9896    7.9743 C   0  0  0  0  0  0  0  0  0  0  0  0
   -3.7072   -7.1183    8.1647 C   0  0  0  0  0  0  0  0  0  0  0  0
   -4.2878   -5.9068    8.8237 C   0  0  0  0  0  0  0  0  0  0  0  0
   -3.5708   -5.7501   10.1671 C   0  0  0  0  0  0  0  0  0  0  0  0
   -3.5078   -7.0845   10.8893 C   0  0  0  0  0  0  0  0  0  0  0  0
   -4.3685   -4.7968   10.9804 C   0  0  0  0  0  0  0  0  0  0  0  0
   -5.4635   -5.4877   11.7654 C   0  0  0  0  0  0  0  0  0  0  0  0
   -6.3960   -4.4381   12.3326 C   0  0  0  0  0  0  0  0  0  0  0  0
   -5.6365   -3.6215   13.3157 C   0  0  0  0  0  0  0  0  0  0  0  0
   -5.0716   -4.3995   14.4547 C   0  0  0  0  0  0  0  0  0  0  0  0
   -2.3044   -1.1707   11.0861 H   0  0  0  0  0  0  0  0  0  0  0  0
   -7.7239   -1.2711   15.3808 C   0  0  0  0  0  0  0  0  0  0  0  0
   -7.6169   -2.3656   14.3451 C   0  0  0  0  0  0  0  0  0  0  0  0
   -8.2456   -3.6165   14.7475 C   0  0  0  0  0  0  0  0  0  0  0  0
   -8.1862   -4.8556   13.9834 C   0  0  0  0  0  0  0  0  0  0  0  0
   -9.2358   -5.8686   14.0722 C   0  0  0  0  0  0  0  0  0  0  0  0
   -9.0123   -7.1455   13.4613 O   0  0  0  0  0  0  0  0  0  0  0  0
  -10.3467   -5.7701   14.6304 O   0  0  0  0  0  0  0  0  0  0  0  0
   -9.1757   -7.9959   13.9926 H   0  0  0  0  0  0  0  0  0  0  0  0
   -2.0199   -6.9017    6.5562 O   0  0  0  0  0  0  0  0  0  0  0  0
   -1.6084   -7.9911    5.8069 C   0  0  0  0  0  0  0  0  0  0  0  0
   -1.1920   -7.7221    4.4040 C   0  0  0  0  0  0  0  0  0  0  0  0
   -1.6150   -9.1102    6.3526 O   0  0  0  0  0  0  0  0  0  0  0  0
 22 23  1  0  0  0
 23 24  1  0  0  0
 24 25  1  0  0  0
 25 26  1  0  0  0
 26 27  1  0  0  0
 26 28  2  0  0  0
 23  1  1  0  0  0
  1  2  1  0  0  0
  2  3  1  0  0  0
  3  4  1  0  0  0
  4  5  1  0  0  0
  5  6  1  0  0  0
  6  7  1  0  0  0
  6  8  1  0  0  0
  8  9  1  0  0  0
  9 10  1  0  0  0
 10 11  1  0  0  0
 11 12  1  0  0  0
 12 13  1  0  0  0
 13 14  1  0  0  0
 14 15  1  0  0  0
 14 16  1  0  0  0
 16 17  1  0  0  0
 17 18  1  0  0  0
 18 19  1  0  0  0
 19 20  1  0  0  0
 11 30  1  0  0  0
 30 31  1  0  0  0
 31 32  1  0  0  0
 31 33  2  0  0  0
 19  1  1  0  0  0
 19  4  1  0  0  0
 16  5  1  0  0  0
 14  9  1  0  0  0
 27 29  1  0  0  0
  7 21  1  0  0  0
M  END
> <minimizedAffinity>
22.49444

> <CNNscore>
0.2707282901

> <CNNaffinity>
4.7506585121

> <CNN_VS>
1.2861377001

> <CNNaffinity_variance>
0.9567314982

$$$$
[H]OC(=O)C([H])([H])C([H])([H])[C@@]([H])(C([H])([H])[H])[C@@]1([H])C([H])([H])C([H])([H])[C@]2([H])[C@]1(C([H])([H])[H])C([H])([H])C([H])([H])[C@]1([H])[C@@]3(C([H])([H])[H])C([H])([H])C([H])([H])C([H])(OC(=O)C([H])([H])[H])C([H])([H])[C@@]3([H])C([H])([H])[C@@]([H])(O[H])[C@]12[H]


 33 36  0  0  0  0  0  0  0  0999 V2000
   -5.8326   -7.5778    7.4297 C   0  0  0  0  0  0  0  0  0  0  0  0
   -5.8378   -6.2753    6.7244 C   0  0  0  0  0  0  0  0  0  0  0  0
   -7.3255   -5.9674    6.4400 C   0  0  0  0  0  0  0  0  0  0  0  0
   -8.0270   -7.0412    7.2313 C   0  0  0  0  0  0  0  0  0  0  0  0
   -9.4334   -7.3050    6.8849 C   0  0  0  0  0  0  0  0  0  0  0  0
  -10.2425   -6.1073    7.3908 C   0  0  0  0  0  0  0  0  0  0  0  0
   -9.5133   -5.3762    8.3375 O   0  0  0  0  0  0  0  0  0  0  0  0
  -11.5322   -6.5062    8.0178 C   0  0  0  0  0  0  0  0  0  0  0  0
  -12.1951   -7.7017    7.3188 C   0  0  0  0  0  0  0  0  0  0  0  0
  -13.5740   -7.8096    7.8675 C   0  0  0  0  0  0  0  0  0  0  0  0
  -14.0736   -9.1842    8.1459 C   0  0  0  0  0  0  0  0  0  0  0  0
  -13.0539  -10.1593    8.6341 C   0  0  0  0  0  0  0  0  0  0  0  0
  -11.7331   -9.5012    8.8820 C   0  0  0  0  0  0  0  0  0  0  0  0
  -11.3004   -8.8692    7.5566 C   0  0  0  0  0  0  0  0  0  0  0  0
  -11.4864   -9.8557    6.4171 C   0  0  0  0  0  0  0  0  0  0  0  0
   -9.8575   -8.5384    7.6798 C   0  0  0  0  0  0  0  0  0  0  0  0
   -8.9668   -9.7007    7.2947 C   0  0  0  0  0  0  0  0  0  0  0  0
   -7.5456   -9.3879    7.7133 C   0  0  0  0  0  0  0  0  0  0  0  0
   -7.0708   -8.2241    6.9194 C   0  0  0  0  0  0  0  0  0  0  0  0
   -7.0793   -8.4416    5.4448 C   0  0  0  0  0  0  0  0  0  0  0  0
   -9.5288   -4.3997    8.1083 H   0  0  0  0  0  0  0  0  0  0  0  0
   -3.4592   -7.4563    8.0032 C   0  0  0  0  0  0  0  0  0  0  0  0
   -4.5915   -8.3473    7.5495 C   0  0  0  0  0  0  0  0  0  0  0  0
   -4.2036   -9.3163    6.5333 C   0  0  0  0  0  0  0  0  0  0  0  0
   -3.3270   -9.0270    5.4061 C   0  0  0  0  0  0  0  0  0  0  0  0
   -1.8832   -8.8714    5.5707 C   0  0  0  0  0  0  0  0  0  0  0  0
   -1.2788   -7.6271    5.1967 O   0  0  0  0  0  0  0  0  0  0  0  0
   -1.0702   -9.7088    6.0106 O   0  0  0  0  0  0  0  0  0  0  0  0
   -0.6554   -7.1530    5.8439 H   0  0  0  0  0  0  0  0  0  0  0  0
  -15.0482   -9.0687    9.1950 O   0  0  0  0  0  0  0  0  0  0  0  0
  -14.8216   -8.3025   10.3260 C   0  0  0  0  0  0  0  0  0  0  0  0
  -15.3453   -8.8345   11.6131 C   0  0  0  0  0  0  0  0  0  0  0  0
  -14.2013   -7.2315   10.1903 O   0  0  0  0  0  0  0  0  0  0  0  0
 22 23  1  0  0  0
 23 24  1  0  0  0
 24 25  1  0  0  0
 25 26  1  0  0  0
 26 27  1  0  0  0
 26 28  2  0  0  0
 23  1  1  0  0  0
  1  2  1  0  0  0
  2  3  1  0  0  0
  3  4  1  0  0  0
  4  5  1  0  0  0
  5  6  1  0  0  0
  6  7  1  0  0  0
  6  8  1  0  0  0
  8  9  1  0  0  0
  9 10  1  0  0  0
 10 11  1  0  0  0
 11 12  1  0  0  0
 12 13  1  0  0  0
 13 14  1  0  0  0
 14 15  1  0  0  0
 14 16  1  0  0  0
 16 17  1  0  0  0
 17 18  1  0  0  0
 18 19  1  0  0  0
 19 20  1  0  0  0
 11 30  1  0  0  0
 30 31  1  0  0  0
 31 32  1  0  0  0
 31 33  2  0  0  0
 19  1  1  0  0  0
 19  4  1  0  0  0
 16  5  1  0  0  0
 14  9  1  0  0  0
 27 29  1  0  0  0
  7 21  1  0  0  0
M  END
> <minimizedAffinity>
-0.85765

> <CNNscore>
0.2683723867

> <CNNaffinity>
6.3546547890

> <CNN_VS>
1.7054138184

> <CNNaffinity_variance>
0.3988739252

$$$$
[H]OC(=O)C([H])([H])C([H])([H])[C@@]([H])(C([H])([H])[H])[C@@]1([H])C([H])([H])C([H])([H])[C@@]2([H])[C@@]3([H])[C@]([H])(C([H])([H])C([H])([H])[C@@]21C([H])([H])[H])[C@@]1(C([H])([H])[H])C([H])([H])C([H])([H])[C@@]([H])(O[H])[C@@]1([H])C([H])([H])[C@@]3([H])O[H]


 30 33  0  0  0  0  0  0  0  0999 V2000
  -12.8902   -6.5186    8.8879 C   0  0  0  0  0  0  0  0  0  0  0  0
  -12.3126   -5.1797    9.2150 C   0  0  0  0  0  0  0  0  0  0  0  0
  -10.7909   -5.4275    9.3548 C   0  0  0  0  0  0  0  0  0  0  0  0
  -10.6357   -6.4915    8.3239 C   0  0  0  0  0  0  0  0  0  0  0  0
   -9.3793   -7.2558    8.2854 C   0  0  0  0  0  0  0  0  0  0  0  0
   -8.1427   -6.3633    8.3025 C   0  0  0  0  0  0  0  0  0  0  0  0
   -8.2504   -5.3131    7.3980 O   0  0  0  0  0  0  0  0  0  0  0  0
   -6.9167   -7.1830    8.1064 C   0  0  0  0  0  0  0  0  0  0  0  0
   -7.1648   -8.6389    7.8740 C   0  0  0  0  0  0  0  0  0  0  0  0
   -5.8807   -9.2135    7.2631 C   0  0  0  0  0  0  0  0  0  0  0  0
   -4.7624   -8.5968    7.8605 O   0  0  0  0  0  0  0  0  0  0  0  0
   -6.0033   -8.8256    5.8225 C   0  0  0  0  0  0  0  0  0  0  0  0
   -7.4501   -8.5843    5.5412 C   0  0  0  0  0  0  0  0  0  0  0  0
   -8.2036   -8.9028    6.8181 C   0  0  0  0  0  0  0  0  0  0  0  0
   -8.4964  -10.3877    6.7955 C   0  0  0  0  0  0  0  0  0  0  0  0
   -9.4250   -8.0561    6.9881 C   0  0  0  0  0  0  0  0  0  0  0  0
  -10.6666   -8.8568    6.8989 C   0  0  0  0  0  0  0  0  0  0  0  0
  -11.9330   -8.2285    7.3319 C   0  0  0  0  0  0  0  0  0  0  0  0
  -11.7708   -7.4483    8.6529 C   0  0  0  0  0  0  0  0  0  0  0  0
  -11.4447   -8.4060    9.7597 C   0  0  0  0  0  0  0  0  0  0  0  0
   -9.0551   -5.3706    6.8331 H   0  0  0  0  0  0  0  0  0  0  0  0
   -3.9861   -9.2159    7.8906 H   0  0  0  0  0  0  0  0  0  0  0  0
  -13.8263   -6.2462   11.1216 C   0  0  0  0  0  0  0  0  0  0  0  0
  -14.0300   -6.9302    9.7331 C   0  0  0  0  0  0  0  0  0  0  0  0
  -14.1412   -8.3817   10.0718 C   0  0  0  0  0  0  0  0  0  0  0  0
  -15.5336   -8.5808   10.6942 C   0  0  0  0  0  0  0  0  0  0  0  0
  -15.3074   -8.9293   12.1206 C   0  0  0  0  0  0  0  0  0  0  0  0
  -14.0621   -9.3977   12.5695 O   0  0  0  0  0  0  0  0  0  0  0  0
  -16.1972   -8.8292   12.9973 O   0  0  0  0  0  0  0  0  0  0  0  0
  -13.2389   -8.8444   12.3168 H   0  0  0  0  0  0  0  0  0  0  0  0
 23 24  1  0  0  0
 24 25  1  0  0  0
 25 26  1  0  0  0
 26 27  1  0  0  0
 27 28  1  0  0  0
 27 29  2  0  0  0
 24  1  1  0  0  0
  1  2  1  0  0  0
  2  3  1  0  0  0
  3  4  1  0  0  0
  4  5  1  0  0  0
  5  6  1  0  0  0
  6  7  1  0  0  0
  6  8  1  0  0  0
  8  9  1  0  0  0
  9 10  1  0  0  0
 10 11  1  0  0  0
 10 12  1  0  0  0
 12 13  1  0  0  0
 13 14  1  0  0  0
 14 15  1  0  0  0
 14 16  1  0  0  0
 16 17  1  0  0  0
 17 18  1  0  0  0
 18 19  1  0  0  0
 19 20  1  0  0  0
 19  1  1  0  0  0
 19  4  1  0  0  0
 16  5  1  0  0  0
 14  9  1  0  0  0
 28 30  1  0  0  0
  7 21  1  0  0  0
 11 22  1  0  0  0
M  END
> <minimizedAffinity>
5.17806

> <CNNscore>
0.5113250017

> <CNNaffinity>
6.3483767509

> <CNN_VS>
3.2460837364

> <CNNaffinity_variance>
1.0359208584

$$$$
[H]OC(=O)C([H])([H])C([H])([H])[C@@]([H])(C([H])([H])[H])[C@@]1([H])C([H])([H])C([H])([H])[C@@]2([H])[C@@]3([H])[C@]([H])(C([H])([H])C([H])([H])[C@@]21C([H])([H])[H])[C@@]1(C([H])([H])[H])C([H])([H])C([H])([H])[C@@]([H])(O[H])[C@@]1([H])C([H])([H])[C@@]3([H])O[H]


 30 33  0  0  0  0  0  0  0  0999 V2000
  -12.6128   -8.2087    6.0546 C   0  0  0  0  0  0  0  0  0  0  0  0
  -13.1383   -9.4984    5.5126 C   0  0  0  0  0  0  0  0  0  0  0  0
  -14.6646   -9.2789    5.3761 C   0  0  0  0  0  0  0  0  0  0  0  0
  -14.6576   -7.8336    5.0154 C   0  0  0  0  0  0  0  0  0  0  0  0
  -15.9277   -7.0924    5.0554 C   0  0  0  0  0  0  0  0  0  0  0  0
  -17.0540   -7.8077    4.3167 C   0  0  0  0  0  0  0  0  0  0  0  0
  -16.6468   -8.2611    3.0672 O   0  0  0  0  0  0  0  0  0  0  0  0
  -18.2618   -6.9407    4.2612 C   0  0  0  0  0  0  0  0  0  0  0  0
  -18.0875   -5.5815    4.8588 C   0  0  0  0  0  0  0  0  0  0  0  0
  -19.2322   -4.7132    4.3221 C   0  0  0  0  0  0  0  0  0  0  0  0
  -20.4053   -5.4899    4.2321 O   0  0  0  0  0  0  0  0  0  0  0  0
  -18.7379   -4.3259    2.9632 C   0  0  0  0  0  0  0  0  0  0  0  0
  -17.2507   -4.4645    2.9670 C   0  0  0  0  0  0  0  0  0  0  0  0
  -16.8526   -4.8730    4.3721 C   0  0  0  0  0  0  0  0  0  0  0  0
  -16.6875   -3.5970    5.1694 C   0  0  0  0  0  0  0  0  0  0  0  0
  -15.6408   -5.7499    4.3913 C   0  0  0  0  0  0  0  0  0  0  0  0
  -14.4848   -5.0775    5.0255 C   0  0  0  0  0  0  0  0  0  0  0  0
  -13.3104   -5.9013    5.3833 C   0  0  0  0  0  0  0  0  0  0  0  0
  -13.7173   -7.2326    6.0483 C   0  0  0  0  0  0  0  0  0  0  0  0
  -14.3763   -6.9501    7.3652 C   0  0  0  0  0  0  0  0  0  0  0  0
  -15.7384   -7.9668    2.8265 H   0  0  0  0  0  0  0  0  0  0  0  0
  -21.2152   -4.9327    4.3750 H   0  0  0  0  0  0  0  0  0  0  0  0
  -10.5249   -7.3932    7.0115 C   0  0  0  0  0  0  0  0  0  0  0  0
  -11.7457   -8.3383    7.2438 C   0  0  0  0  0  0  0  0  0  0  0  0
  -11.1142   -9.6708    7.4879 C   0  0  0  0  0  0  0  0  0  0  0  0
  -11.5734  -10.1239    8.8842 C   0  0  0  0  0  0  0  0  0  0  0  0
  -12.9506   -9.5961    9.0625 C   0  0  0  0  0  0  0  0  0  0  0  0
  -13.2201   -8.5439    9.9525 O   0  0  0  0  0  0  0  0  0  0  0  0
  -13.9408  -10.0482    8.4416 O   0  0  0  0  0  0  0  0  0  0  0  0
  -12.6425   -7.7033    9.8667 H   0  0  0  0  0  0  0  0  0  0  0  0
 23 24  1  0  0  0
 24 25  1  0  0  0
 25 26  1  0  0  0
 26 27  1  0  0  0
 27 28  1  0  0  0
 27 29  2  0  0  0
 24  1  1  0  0  0
  1  2  1  0  0  0
  2  3  1  0  0  0
  3  4  1  0  0  0
  4  5  1  0  0  0
  5  6  1  0  0  0
  6  7  1  0  0  0
  6  8  1  0  0  0
  8  9  1  0  0  0
  9 10  1  0  0  0
 10 11  1  0  0  0
 10 12  1  0  0  0
 12 13  1  0  0  0
 13 14  1  0  0  0
 14 15  1  0  0  0
 14 16  1  0  0  0
 16 17  1  0  0  0
 17 18  1  0  0  0
 18 19  1  0  0  0
 19 20  1  0  0  0
 19  1  1  0  0  0
 19  4  1  0  0  0
 16  5  1  0  0  0
 14  9  1  0  0  0
 28 30  1  0  0  0
  7 21  1  0  0  0
 11 22  1  0  0  0
M  END
> <minimizedAffinity>
4.50712

> <CNNscore>
0.4916954935

> <CNNaffinity>
6.6937246323

> <CNN_VS>
3.2912743092

> <CNNaffinity_variance>
1.6027078629

$$$$
[H]OC(=O)C([H])([H])C([H])([H])[C@@]([H])(C([H])([H])[H])[C@@]1([H])C([H])([H])C([H])([H])[C@@]2([H])[C@@]3([H])[C@]([H])(C([H])([H])C([H])([H])[C@@]21C([H])([H])[H])[C@@]1(C([H])([H])[H])C([H])([H])C([H])([H])[C@@]([H])(O[H])[C@@]1([H])C([H])([H])[C@@]3([H])O[H]


 30 33  0  0  0  0  0  0  0  0999 V2000
  -16.7312   -7.5590    4.1962 C   0  0  0  0  0  0  0  0  0  0  0  0
  -16.9694   -6.0908    4.3406 C   0  0  0  0  0  0  0  0  0  0  0  0
  -16.3984   -5.7313    5.7338 C   0  0  0  0  0  0  0  0  0  0  0  0
  -15.2576   -6.6885    5.7686 C   0  0  0  0  0  0  0  0  0  0  0  0
  -14.5669   -6.9135    7.0478 C   0  0  0  0  0  0  0  0  0  0  0  0
  -14.1782   -5.6151    7.7471 C   0  0  0  0  0  0  0  0  0  0  0  0
  -13.5752   -4.7176    6.8733 O   0  0  0  0  0  0  0  0  0  0  0  0
  -13.3522   -5.9081    8.9494 C   0  0  0  0  0  0  0  0  0  0  0  0
  -13.0384   -7.3547    9.1587 C   0  0  0  0  0  0  0  0  0  0  0  0
  -11.8545   -7.4133   10.1319 C   0  0  0  0  0  0  0  0  0  0  0  0
  -11.9925   -6.3952   11.0974 O   0  0  0  0  0  0  0  0  0  0  0  0
  -10.6836   -7.1509    9.2369 C   0  0  0  0  0  0  0  0  0  0  0  0
  -11.0954   -7.4924    7.8425 C   0  0  0  0  0  0  0  0  0  0  0  0
  -12.5102   -8.0322    7.9235 C   0  0  0  0  0  0  0  0  0  0  0  0
  -12.3980   -9.5158    8.2023 C   0  0  0  0  0  0  0  0  0  0  0  0
  -13.3149   -7.7134    6.7034 C   0  0  0  0  0  0  0  0  0  0  0  0
  -13.6552   -8.9315    5.9346 C   0  0  0  0  0  0  0  0  0  0  0  0
  -14.6811   -8.8226    4.8755 C   0  0  0  0  0  0  0  0  0  0  0  0
  -15.9007   -7.9958    5.3329 C   0  0  0  0  0  0  0  0  0  0  0  0
  -16.6026   -8.7173    6.4443 C   0  0  0  0  0  0  0  0  0  0  0  0
  -13.4128   -5.0982    5.9796 H   0  0  0  0  0  0  0  0  0  0  0  0
  -11.5920   -6.6678   11.9646 H   0  0  0  0  0  0  0  0  0  0  0  0
  -18.4705   -7.6926    2.4942 C   0  0  0  0  0  0  0  0  0  0  0  0
  -17.9157   -8.3475    3.7982 C   0  0  0  0  0  0  0  0  0  0  0  0
  -19.0896   -8.3327    4.7233 C   0  0  0  0  0  0  0  0  0  0  0  0
  -19.2102   -9.7532    5.3006 C   0  0  0  0  0  0  0  0  0  0  0  0
  -20.3626   -9.7265    6.2379 C   0  0  0  0  0  0  0  0  0  0  0  0
  -21.6845   -9.8185    5.7731 O   0  0  0  0  0  0  0  0  0  0  0  0
  -20.2305   -9.6222    7.4796 O   0  0  0  0  0  0  0  0  0  0  0  0
  -21.9009  -10.5909    5.1373 H   0  0  0  0  0  0  0  0  0  0  0  0
 23 24  1  0  0  0
 24 25  1  0  0  0
 25 26  1  0  0  0
 26 27  1  0  0  0
 27 28  1  0  0  0
 27 29  2  0  0  0
 24  1  1  0  0  0
  1  2  1  0  0  0
  2  3  1  0  0  0
  3  4  1  0  0  0
  4  5  1  0  0  0
  5  6  1  0  0  0
  6  7  1  0  0  0
  6  8  1  0  0  0
  8  9  1  0  0  0
  9 10  1  0  0  0
 10 11  1  0  0  0
 10 12  1  0  0  0
 12 13  1  0  0  0
 13 14  1  0  0  0
 14 15  1  0  0  0
 14 16  1  0  0  0
 16 17  1  0  0  0
 17 18  1  0  0  0
 18 19  1  0  0  0
 19 20  1  0  0  0
 19  1  1  0  0  0
 19  4  1  0  0  0
 16  5  1  0  0  0
 14  9  1  0  0  0
 28 30  1  0  0  0
  7 21  1  0  0  0
 11 22  1  0  0  0
M  END
> <minimizedAffinity>
0.84883

> <CNNscore>
0.4706199467

> <CNNaffinity>
6.6678237915

> <CNN_VS>
3.1380109787

> <CNNaffinity_variance>
0.5710148215

$$$$
[H]OC(=O)C([H])([H])C([H])([H])[C@@]([H])(C([H])([H])[H])[C@@]1([H])C([H])([H])C([H])([H])[C@@]2([H])[C@@]3([H])[C@]([H])(C([H])([H])C([H])([H])[C@@]21C([H])([H])[H])[C@@]1(C([H])([H])[H])C([H])([H])C([H])([H])[C@@]([H])(O[H])[C@@]1([H])C([H])([H])[C@@]3([H])O[H]


 30 33  0  0  0  0  0  0  0  0999 V2000
  -15.2856   -9.9310    3.9346 C   0  0  0  0  0  0  0  0  0  0  0  0
  -14.3324  -10.0698    5.0771 C   0  0  0  0  0  0  0  0  0  0  0  0
  -13.8245   -8.6326    5.3469 C   0  0  0  0  0  0  0  0  0  0  0  0
  -15.0671   -7.8828    5.0112 C   0  0  0  0  0  0  0  0  0  0  0  0
  -14.9858   -6.4229    4.8493 C   0  0  0  0  0  0  0  0  0  0  0  0
  -14.2610   -5.7387    6.0036 C   0  0  0  0  0  0  0  0  0  0  0  0
  -14.7079   -6.1956    7.2382 O   0  0  0  0  0  0  0  0  0  0  0  0
  -14.3477   -4.2605    5.8587 C   0  0  0  0  0  0  0  0  0  0  0  0
  -15.1572   -3.7899    4.6933 C   0  0  0  0  0  0  0  0  0  0  0  0
  -15.5011   -2.3192    4.9598 C   0  0  0  0  0  0  0  0  0  0  0  0
  -14.4038   -1.6878    5.5801 O   0  0  0  0  0  0  0  0  0  0  0  0
  -16.6636   -2.4211    5.8974 C   0  0  0  0  0  0  0  0  0  0  0  0
  -17.2749   -3.7715    5.7140 C   0  0  0  0  0  0  0  0  0  0  0  0
  -16.5044   -4.4533    4.5998 C   0  0  0  0  0  0  0  0  0  0  0  0
  -17.1543   -4.0354    3.2982 C   0  0  0  0  0  0  0  0  0  0  0  0
  -16.4295   -5.9363    4.7804 C   0  0  0  0  0  0  0  0  0  0  0  0
  -17.1858   -6.6574    3.7323 C   0  0  0  0  0  0  0  0  0  0  0  0
  -16.9732   -8.1143    3.5979 C   0  0  0  0  0  0  0  0  0  0  0  0
  -15.4796   -8.4921    3.6804 C   0  0  0  0  0  0  0  0  0  0  0  0
  -14.7533   -7.9101    2.5048 C   0  0  0  0  0  0  0  0  0  0  0  0
  -15.4760   -6.8081    7.1687 H   0  0  0  0  0  0  0  0  0  0  0  0
  -14.3595   -0.7259    5.3357 H   0  0  0  0  0  0  0  0  0  0  0  0
  -14.2465  -10.0568    1.7337 C   0  0  0  0  0  0  0  0  0  0  0  0
  -15.0487  -10.8568    2.8078 C   0  0  0  0  0  0  0  0  0  0  0  0
  -16.2470  -11.3428    2.0583 C   0  0  0  0  0  0  0  0  0  0  0  0
  -17.0232  -12.2587    3.0199 C   0  0  0  0  0  0  0  0  0  0  0  0
  -16.8839  -13.6382    2.4864 C   0  0  0  0  0  0  0  0  0  0  0  0
  -17.9741  -14.3139    1.9148 O   0  0  0  0  0  0  0  0  0  0  0  0
  -15.8047  -14.2746    2.5123 O   0  0  0  0  0  0  0  0  0  0  0  0
  -18.4978  -13.8194    1.1875 H   0  0  0  0  0  0  0  0  0  0  0  0
 23 24  1  0  0  0
 24 25  1  0  0  0
 25 26  1  0  0  0
 26 27  1  0  0  0
 27 28  1  0  0  0
 27 29  2  0  0  0
 24  1  1  0  0  0
  1  2  1  0  0  0
  2  3  1  0  0  0
  3  4  1  0  0  0
  4  5  1  0  0  0
  5  6  1  0  0  0
  6  7  1  0  0  0
  6  8  1  0  0  0
  8  9  1  0  0  0
  9 10  1  0  0  0
 10 11  1  0  0  0
 10 12  1  0  0  0
 12 13  1  0  0  0
 13 14  1  0  0  0
 14 15  1  0  0  0
 14 16  1  0  0  0
 16 17  1  0  0  0
 17 18  1  0  0  0
 18 19  1  0  0  0
 19 20  1  0  0  0
 19  1  1  0  0  0
 19  4  1  0  0  0
 16  5  1  0  0  0
 14  9  1  0  0  0
 28 30  1  0  0  0
  7 21  1  0  0  0
 11 22  1  0  0  0
M  END
> <minimizedAffinity>
32.63019

> <CNNscore>
0.4684247077

> <CNNaffinity>
6.5088181496

> <CNN_VS>
3.0488913059

> <CNNaffinity_variance>
0.9337928891

$$$$
[H]OC(=O)C([H])([H])C([H])([H])[C@@]([H])(C([H])([H])[H])[C@@]1([H])C([H])([H])C([H])([H])[C@@]2([H])[C@@]3([H])[C@]([H])(C([H])([H])C([H])([H])[C@@]21C([H])([H])[H])[C@@]1(C([H])([H])[H])C([H])([H])C([H])([H])[C@@]([H])(O[H])[C@@]1([H])C([H])([H])[C@@]3([H])O[H]


 30 33  0  0  0  0  0  0  0  0999 V2000
   -9.6353   -9.1792    6.2724 C   0  0  0  0  0  0  0  0  0  0  0  0
  -10.8718   -9.7372    5.6457 C   0  0  0  0  0  0  0  0  0  0  0  0
  -11.9721   -9.5704    6.7217 C   0  0  0  0  0  0  0  0  0  0  0  0
  -11.5050   -8.2943    7.3322 C   0  0  0  0  0  0  0  0  0  0  0  0
  -12.0943   -7.8693    8.6113 C   0  0  0  0  0  0  0  0  0  0  0  0
  -13.6187   -7.9159    8.6053 C   0  0  0  0  0  0  0  0  0  0  0  0
  -14.1494   -7.3321    7.4606 O   0  0  0  0  0  0  0  0  0  0  0  0
  -14.1541   -7.3311    9.8642 C   0  0  0  0  0  0  0  0  0  0  0  0
  -13.1183   -6.7827   10.7924 C   0  0  0  0  0  0  0  0  0  0  0  0
  -13.8490   -5.8541   11.7701 C   0  0  0  0  0  0  0  0  0  0  0  0
  -15.1083   -6.4044   12.0847 O   0  0  0  0  0  0  0  0  0  0  0  0
  -13.9959   -4.5943   10.9749 C   0  0  0  0  0  0  0  0  0  0  0  0
  -12.9555   -4.6125    9.9034 C   0  0  0  0  0  0  0  0  0  0  0  0
  -12.1345   -5.8704   10.1116 C   0  0  0  0  0  0  0  0  0  0  0  0
  -11.0419   -5.5222   11.0997 C   0  0  0  0  0  0  0  0  0  0  0  0
  -11.6188   -6.4363    8.8265 C   0  0  0  0  0  0  0  0  0  0  0  0
  -10.1444   -6.3447    8.7370 C   0  0  0  0  0  0  0  0  0  0  0  0
   -9.4620   -7.1141    7.6747 C   0  0  0  0  0  0  0  0  0  0  0  0
  -10.0208   -8.5464    7.5466 C   0  0  0  0  0  0  0  0  0  0  0  0
   -9.7186   -9.3125    8.7997 C   0  0  0  0  0  0  0  0  0  0  0  0
  -13.4675   -6.9040    6.8935 H   0  0  0  0  0  0  0  0  0  0  0  0
  -15.3872   -6.1563   13.0053 H   0  0  0  0  0  0  0  0  0  0  0  0
   -8.0229  -10.3351    7.6880 C   0  0  0  0  0  0  0  0  0  0  0  0
   -8.4519  -10.0618    6.2120 C   0  0  0  0  0  0  0  0  0  0  0  0
   -7.2143   -9.5045    5.5861 C   0  0  0  0  0  0  0  0  0  0  0  0
   -6.7126   -8.3922    6.5225 C   0  0  0  0  0  0  0  0  0  0  0  0
   -5.2363   -8.3461    6.3629 C   0  0  0  0  0  0  0  0  0  0  0  0
   -4.6368   -8.4006    5.0942 O   0  0  0  0  0  0  0  0  0  0  0  0
   -4.4471   -8.2575    7.3322 O   0  0  0  0  0  0  0  0  0  0  0  0
   -4.9822   -7.7448    4.3884 H   0  0  0  0  0  0  0  0  0  0  0  0
 23 24  1  0  0  0
 24 25  1  0  0  0
 25 26  1  0  0  0
 26 27  1  0  0  0
 27 28  1  0  0  0
 27 29  2  0  0  0
 24  1  1  0  0  0
  1  2  1  0  0  0
  2  3  1  0  0  0
  3  4  1  0  0  0
  4  5  1  0  0  0
  5  6  1  0  0  0
  6  7  1  0  0  0
  6  8  1  0  0  0
  8  9  1  0  0  0
  9 10  1  0  0  0
 10 11  1  0  0  0
 10 12  1  0  0  0
 12 13  1  0  0  0
 13 14  1  0  0  0
 14 15  1  0  0  0
 14 16  1  0  0  0
 16 17  1  0  0  0
 17 18  1  0  0  0
 18 19  1  0  0  0
 19 20  1  0  0  0
 19  1  1  0  0  0
 19  4  1  0  0  0
 16  5  1  0  0  0
 14  9  1  0  0  0
 28 30  1  0  0  0
  7 21  1  0  0  0
 11 22  1  0  0  0
M  END
> <minimizedAffinity>
6.80212

> <CNNscore>
0.4458484054

> <CNNaffinity>
6.2680411339

> <CNN_VS>
2.7945961952

> <CNNaffinity_variance>
0.6552495956

$$$$
[H]OC(=O)C([H])([H])C([H])([H])[C@@]([H])(C([H])([H])[H])[C@@]1([H])C([H])([H])C([H])([H])[C@@]2([H])[C@@]3([H])[C@]([H])(C([H])([H])C([H])([H])[C@@]21C([H])([H])[H])[C@@]1(C([H])([H])[H])C([H])([H])C([H])([H])[C@@]([H])(O[H])[C@@]1([H])C([H])([H])[C@@]3([H])O[H]


 30 33  0  0  0  0  0  0  0  0999 V2000
  -15.1225   -5.8628    4.7473 C   0  0  0  0  0  0  0  0  0  0  0  0
  -14.9635   -6.6013    3.4579 C   0  0  0  0  0  0  0  0  0  0  0  0
  -15.6939   -7.9481    3.6793 C   0  0  0  0  0  0  0  0  0  0  0  0
  -16.7903   -7.4716    4.5680 C   0  0  0  0  0  0  0  0  0  0  0  0
  -17.6027   -8.4701    5.2802 C   0  0  0  0  0  0  0  0  0  0  0  0
  -18.1181   -9.5758    4.3649 C   0  0  0  0  0  0  0  0  0  0  0  0
  -18.6625   -9.0646    3.1923 O   0  0  0  0  0  0  0  0  0  0  0  0
  -19.0538  -10.4618    5.1086 C   0  0  0  0  0  0  0  0  0  0  0  0
  -19.3263  -10.0456    6.5184 C   0  0  0  0  0  0  0  0  0  0  0  0
  -20.6032  -10.7745    6.9548 C   0  0  0  0  0  0  0  0  0  0  0  0
  -20.6118  -12.0724    6.4042 O   0  0  0  0  0  0  0  0  0  0  0  0
  -21.6826   -9.9285    6.3548 C   0  0  0  0  0  0  0  0  0  0  0  0
  -21.1111   -8.5694    6.1160 C   0  0  0  0  0  0  0  0  0  0  0  0
  -19.6912   -8.5918    6.6481 C   0  0  0  0  0  0  0  0  0  0  0  0
  -19.7693   -8.2474    8.1200 C   0  0  0  0  0  0  0  0  0  0  0  0
  -18.7759   -7.6973    5.8736 C   0  0  0  0  0  0  0  0  0  0  0  0
  -18.3046   -6.5544    6.6874 C   0  0  0  0  0  0  0  0  0  0  0  0
  -17.1777   -5.7491    6.1702 C   0  0  0  0  0  0  0  0  0  0  0  0
  -16.0497   -6.6317    5.5969 C   0  0  0  0  0  0  0  0  0  0  0  0
  -15.4396   -7.4403    6.7026 C   0  0  0  0  0  0  0  0  0  0  0  0
  -18.7129   -8.0811    3.1863 H   0  0  0  0  0  0  0  0  0  0  0  0
  -21.0902  -12.7096    6.9974 H   0  0  0  0  0  0  0  0  0  0  0  0
  -13.2350   -4.4147    4.2181 C   0  0  0  0  0  0  0  0  0  0  0  0
  -13.8701   -5.3240    5.3168 C   0  0  0  0  0  0  0  0  0  0  0  0
  -12.7848   -6.3026    5.6305 C   0  0  0  0  0  0  0  0  0  0  0  0
  -13.1454   -6.9374    6.9843 C   0  0  0  0  0  0  0  0  0  0  0  0
  -12.5247   -8.2871    6.9912 C   0  0  0  0  0  0  0  0  0  0  0  0
  -11.8923   -8.7944    8.1377 O   0  0  0  0  0  0  0  0  0  0  0  0
  -12.5261   -9.0444    5.9928 O   0  0  0  0  0  0  0  0  0  0  0  0
  -12.4212   -8.7612    9.0134 H   0  0  0  0  0  0  0  0  0  0  0  0
 23 24  1  0  0  0
 24 25  1  0  0  0
 25 26  1  0  0  0
 26 27  1  0  0  0
 27 28  1  0  0  0
 27 29  2  0  0  0
 24  1  1  0  0  0
  1  2  1  0  0  0
  2  3  1  0  0  0
  3  4  1  0  0  0
  4  5  1  0  0  0
  5  6  1  0  0  0
  6  7  1  0  0  0
  6  8  1  0  0  0
  8  9  1  0  0  0
  9 10  1  0  0  0
 10 11  1  0  0  0
 10 12  1  0  0  0
 12 13  1  0  0  0
 13 14  1  0  0  0
 14 15  1  0  0  0
 14 16  1  0  0  0
 16 17  1  0  0  0
 17 18  1  0  0  0
 18 19  1  0  0  0
 19 20  1  0  0  0
 19  1  1  0  0  0
 19  4  1  0  0  0
 16  5  1  0  0  0
 14  9  1  0  0  0
 28 30  1  0  0  0
  7 21  1  0  0  0
 11 22  1  0  0  0
M  END
> <minimizedAffinity>
20.01750

> <CNNscore>
0.4256044328

> <CNNaffinity>
6.3312873840

> <CNN_VS>
2.6946239471

> <CNNaffinity_variance>
1.3492819071

$$$$
[H]OC(=O)C([H])([H])C([H])([H])[C@@]([H])(C([H])([H])[H])[C@@]1([H])C([H])([H])C([H])([H])[C@@]2([H])[C@@]3([H])[C@]([H])(C([H])([H])C([H])([H])[C@@]21C([H])([H])[H])[C@@]1(C([H])([H])[H])C([H])([H])C([H])([H])[C@@]([H])(O[H])[C@@]1([H])C([H])([H])[C@@]3([H])O[H]


 30 33  0  0  0  0  0  0  0  0999 V2000
  -16.8801   -7.0276    5.4000 C   0  0  0  0  0  0  0  0  0  0  0  0
  -17.3047   -8.4567    5.2972 C   0  0  0  0  0  0  0  0  0  0  0  0
  -15.9839   -9.2640    5.2961 C   0  0  0  0  0  0  0  0  0  0  0  0
  -15.1839   -8.3970    6.2057 C   0  0  0  0  0  0  0  0  0  0  0  0
  -13.7319   -8.6175    6.2909 C   0  0  0  0  0  0  0  0  0  0  0  0
  -13.3675  -10.0816    6.5137 C   0  0  0  0  0  0  0  0  0  0  0  0
  -14.1362  -10.6588    7.5180 O   0  0  0  0  0  0  0  0  0  0  0  0
  -11.9039  -10.2159    6.7447 C   0  0  0  0  0  0  0  0  0  0  0  0
  -11.1518   -8.9242    6.7762 C   0  0  0  0  0  0  0  0  0  0  0  0
   -9.8057   -9.2136    7.4518 C   0  0  0  0  0  0  0  0  0  0  0  0
   -9.3487  -10.4874    7.0564 O   0  0  0  0  0  0  0  0  0  0  0  0
  -10.1606   -9.1969    8.9060 C   0  0  0  0  0  0  0  0  0  0  0  0
  -11.4213   -8.4098    9.0542 C   0  0  0  0  0  0  0  0  0  0  0  0
  -11.7799   -7.8934    7.6742 C   0  0  0  0  0  0  0  0  0  0  0  0
  -11.0415   -6.5848    7.4904 C   0  0  0  0  0  0  0  0  0  0  0  0
  -13.2577   -7.7782    7.4727 C   0  0  0  0  0  0  0  0  0  0  0  0
  -13.6858   -6.3685    7.3313 C   0  0  0  0  0  0  0  0  0  0  0  0
  -15.0545   -6.1024    6.8396 C   0  0  0  0  0  0  0  0  0  0  0  0
  -15.4268   -7.0046    5.6449 C   0  0  0  0  0  0  0  0  0  0  0  0
  -14.5502   -6.6690    4.4755 C   0  0  0  0  0  0  0  0  0  0  0  0
  -14.7161  -10.0115    7.9811 H   0  0  0  0  0  0  0  0  0  0  0  0
   -8.3561  -10.5218    7.0387 H   0  0  0  0  0  0  0  0  0  0  0  0
  -18.0836   -7.0366    3.2807 C   0  0  0  0  0  0  0  0  0  0  0  0
  -17.4759   -6.1252    4.3931 C   0  0  0  0  0  0  0  0  0  0  0  0
  -16.5449   -5.2299    3.6410 C   0  0  0  0  0  0  0  0  0  0  0  0
  -16.4174   -3.9382    4.4663 C   0  0  0  0  0  0  0  0  0  0  0  0
  -15.0026   -3.5019    4.3431 C   0  0  0  0  0  0  0  0  0  0  0  0
  -14.4985   -2.4348    5.1040 O   0  0  0  0  0  0  0  0  0  0  0  0
  -14.1847   -4.0483    3.5669 O   0  0  0  0  0  0  0  0  0  0  0  0
  -14.6600   -2.4672    6.1142 H   0  0  0  0  0  0  0  0  0  0  0  0
 23 24  1  0  0  0
 24 25  1  0  0  0
 25 26  1  0  0  0
 26 27  1  0  0  0
 27 28  1  0  0  0
 27 29  2  0  0  0
 24  1  1  0  0  0
  1  2  1  0  0  0
  2  3  1  0  0  0
  3  4  1  0  0  0
  4  5  1  0  0  0
  5  6  1  0  0  0
  6  7  1  0  0  0
  6  8  1  0  0  0
  8  9  1  0  0  0
  9 10  1  0  0  0
 10 11  1  0  0  0
 10 12  1  0  0  0
 12 13  1  0  0  0
 13 14  1  0  0  0
 14 15  1  0  0  0
 14 16  1  0  0  0
 16 17  1  0  0  0
 17 18  1  0  0  0
 18 19  1  0  0  0
 19 20  1  0  0  0
 19  1  1  0  0  0
 19  4  1  0  0  0
 16  5  1  0  0  0
 14  9  1  0  0  0
 28 30  1  0  0  0
  7 21  1  0  0  0
 11 22  1  0  0  0
M  END
> <minimizedAffinity>
-2.97987

> <CNNscore>
0.3640559614

> <CNNaffinity>
6.4519424438

> <CNN_VS>
2.3488681316

> <CNNaffinity_variance>
0.4919086099

$$$$
[H]OC(=O)C([H])([H])C([H])([H])[C@@]([H])(C([H])([H])[H])[C@@]1([H])C([H])([H])C([H])([H])[C@@]2([H])[C@@]3([H])[C@]([H])(C([H])([H])C([H])([H])[C@@]21C([H])([H])[H])[C@@]1(C([H])([H])[H])C([H])([H])C([H])([H])[C@@]([H])(O[H])[C@@]1([H])C([H])([H])[C@@]3([H])O[H]


 30 33  0  0  0  0  0  0  0  0999 V2000
  -15.4828   -8.8820    7.3295 C   0  0  0  0  0  0  0  0  0  0  0  0
  -16.3298   -9.6592    6.3746 C   0  0  0  0  0  0  0  0  0  0  0  0
  -16.9730   -8.5924    5.4557 C   0  0  0  0  0  0  0  0  0  0  0  0
  -15.8486   -7.6161    5.4149 C   0  0  0  0  0  0  0  0  0  0  0  0
  -16.1027   -6.2728    4.8716 C   0  0  0  0  0  0  0  0  0  0  0  0
  -16.8135   -6.3045    3.5227 C   0  0  0  0  0  0  0  0  0  0  0  0
  -16.2307   -7.2187    2.6524 O   0  0  0  0  0  0  0  0  0  0  0  0
  -16.9019   -4.9310    2.9578 C   0  0  0  0  0  0  0  0  0  0  0  0
  -16.2358   -3.8713    3.7754 C   0  0  0  0  0  0  0  0  0  0  0  0
  -16.0387   -2.6614    2.8538 C   0  0  0  0  0  0  0  0  0  0  0  0
  -17.1515   -2.5405    1.9968 O   0  0  0  0  0  0  0  0  0  0  0  0
  -14.8073   -3.0325    2.0877 C   0  0  0  0  0  0  0  0  0  0  0  0
  -14.0651   -4.0498    2.8908 C   0  0  0  0  0  0  0  0  0  0  0  0
  -14.8337   -4.2316    4.1853 C   0  0  0  0  0  0  0  0  0  0  0  0
  -14.3299   -3.1760    5.1461 C   0  0  0  0  0  0  0  0  0  0  0  0
  -14.7306   -5.6244    4.7211 C   0  0  0  0  0  0  0  0  0  0  0  0
  -13.9767   -5.6702    5.9940 C   0  0  0  0  0  0  0  0  0  0  0  0
  -14.0358   -6.9121    6.7940 C   0  0  0  0  0  0  0  0  0  0  0  0
  -15.4683   -7.4780    6.8807 C   0  0  0  0  0  0  0  0  0  0  0  0
  -16.3377   -6.5184    7.6369 C   0  0  0  0  0  0  0  0  0  0  0  0
  -15.4066   -7.6218    3.0104 H   0  0  0  0  0  0  0  0  0  0  0  0
  -17.3197   -1.5904    1.7605 H   0  0  0  0  0  0  0  0  0  0  0  0
  -17.2247   -9.0331    9.0273 C   0  0  0  0  0  0  0  0  0  0  0  0
  -15.6965   -9.2014    8.7561 C   0  0  0  0  0  0  0  0  0  0  0  0
  -15.0616   -8.2966    9.7621 C   0  0  0  0  0  0  0  0  0  0  0  0
  -13.7901   -9.0101   10.2521 C   0  0  0  0  0  0  0  0  0  0  0  0
  -12.6428   -8.2487    9.6943 C   0  0  0  0  0  0  0  0  0  0  0  0
  -12.2948   -8.3421    8.3371 O   0  0  0  0  0  0  0  0  0  0  0  0
  -11.9261   -7.4890   10.3868 O   0  0  0  0  0  0  0  0  0  0  0  0
  -13.0433   -8.1965    7.6544 H   0  0  0  0  0  0  0  0  0  0  0  0
 23 24  1  0  0  0
 24 25  1  0  0  0
 25 26  1  0  0  0
 26 27  1  0  0  0
 27 28  1  0  0  0
 27 29  2  0  0  0
 24  1  1  0  0  0
  1  2  1  0  0  0
  2  3  1  0  0  0
  3  4  1  0  0  0
  4  5  1  0  0  0
  5  6  1  0  0  0
  6  7  1  0  0  0
  6  8  1  0  0  0
  8  9  1  0  0  0
  9 10  1  0  0  0
 10 11  1  0  0  0
 10 12  1  0  0  0
 12 13  1  0  0  0
 13 14  1  0  0  0
 14 15  1  0  0  0
 14 16  1  0  0  0
 16 17  1  0  0  0
 17 18  1  0  0  0
 18 19  1  0  0  0
 19 20  1  0  0  0
 19  1  1  0  0  0
 19  4  1  0  0  0
 16  5  1  0  0  0
 14  9  1  0  0  0
 28 30  1  0  0  0
  7 21  1  0  0  0
 11 22  1  0  0  0
M  END
> <minimizedAffinity>
21.16914

> <CNNscore>
0.3228591681

> <CNNaffinity>
6.2162332535

> <CNN_VS>
2.0069677830

> <CNNaffinity_variance>
1.0237023830

$$$$
[H]OC(=O)C([H])([H])C([H])([H])[C@@]([H])(C([H])([H])[H])[C@@]1([H])C([H])([H])C([H])([H])[C@@]2([H])[C@@]3([H])[C@]([H])(C([H])([H])C([H])([H])[C@@]21C([H])([H])[H])[C@@]1(C([H])([H])[H])C([H])([H])C([H])([H])[C@@]([H])(O[H])[C@@]1([H])C([H])([H])[C@@]3([H])O[H]


 30 33  0  0  0  0  0  0  0  0999 V2000
  -11.0643   -6.5885    8.5407 C   0  0  0  0  0  0  0  0  0  0  0  0
  -10.5981   -6.3623    9.9424 C   0  0  0  0  0  0  0  0  0  0  0  0
   -9.1815   -6.9844    9.9946 C   0  0  0  0  0  0  0  0  0  0  0  0
   -8.7426   -6.6735    8.6055 C   0  0  0  0  0  0  0  0  0  0  0  0
   -7.5317   -7.3286    8.0871 C   0  0  0  0  0  0  0  0  0  0  0  0
   -6.3475   -7.2250    9.0426 C   0  0  0  0  0  0  0  0  0  0  0  0
   -6.1863   -5.9323    9.5280 O   0  0  0  0  0  0  0  0  0  0  0  0
   -5.1207   -7.7670    8.3985 C   0  0  0  0  0  0  0  0  0  0  0  0
   -5.2989   -8.2126    6.9827 C   0  0  0  0  0  0  0  0  0  0  0  0
   -3.8965   -8.3032    6.3686 C   0  0  0  0  0  0  0  0  0  0  0  0
   -2.9933   -8.7892    7.3358 O   0  0  0  0  0  0  0  0  0  0  0  0
   -3.5992   -6.8773    6.0233 C   0  0  0  0  0  0  0  0  0  0  0  0
   -4.9036   -6.1586    5.9097 C   0  0  0  0  0  0  0  0  0  0  0  0
   -5.9929   -7.1920    6.1221 C   0  0  0  0  0  0  0  0  0  0  0  0
   -6.2742   -7.8162    4.7721 C   0  0  0  0  0  0  0  0  0  0  0  0
   -7.2076   -6.6162    6.7783 C   0  0  0  0  0  0  0  0  0  0  0  0
   -8.3755   -6.6138    5.8691 C   0  0  0  0  0  0  0  0  0  0  0  0
   -9.7097   -6.3526    6.4501 C   0  0  0  0  0  0  0  0  0  0  0  0
   -9.9291   -7.1241    7.7679 C   0  0  0  0  0  0  0  0  0  0  0  0
   -9.9386   -8.5970    7.4868 C   0  0  0  0  0  0  0  0  0  0  0  0
   -6.7956   -5.2828    9.1075 H   0  0  0  0  0  0  0  0  0  0  0  0
   -2.2612   -9.3100    6.9121 H   0  0  0  0  0  0  0  0  0  0  0  0
  -12.3554   -8.5326    9.2431 C   0  0  0  0  0  0  0  0  0  0  0  0
  -12.4006   -7.2072    8.4194 C   0  0  0  0  0  0  0  0  0  0  0  0
  -12.8254   -7.6561    7.0585 C   0  0  0  0  0  0  0  0  0  0  0  0
  -14.3138   -8.0293    7.1652 C   0  0  0  0  0  0  0  0  0  0  0  0
  -14.9759   -7.4522    5.9670 C   0  0  0  0  0  0  0  0  0  0  0  0
  -15.0114   -6.0655    5.7488 O   0  0  0  0  0  0  0  0  0  0  0  0
  -15.5343   -8.1533    5.0913 O   0  0  0  0  0  0  0  0  0  0  0  0
  -14.1214   -5.5632    5.8052 H   0  0  0  0  0  0  0  0  0  0  0  0
 23 24  1  0  0  0
 24 25  1  0  0  0
 25 26  1  0  0  0
 26 27  1  0  0  0
 27 28  1  0  0  0
 27 29  2  0  0  0
 24  1  1  0  0  0
  1  2  1  0  0  0
  2  3  1  0  0  0
  3  4  1  0  0  0
  4  5  1  0  0  0
  5  6  1  0  0  0
  6  7  1  0  0  0
  6  8  1  0  0  0
  8  9  1  0  0  0
  9 10  1  0  0  0
 10 11  1  0  0  0
 10 12  1  0  0  0
 12 13  1  0  0  0
 13 14  1  0  0  0
 14 15  1  0  0  0
 14 16  1  0  0  0
 16 17  1  0  0  0
 17 18  1  0  0  0
 18 19  1  0  0  0
 19 20  1  0  0  0
 19  1  1  0  0  0
 19  4  1  0  0  0
 16  5  1  0  0  0
 14  9  1  0  0  0
 28 30  1  0  0  0
  7 21  1  0  0  0
 11 22  1  0  0  0
M  END
> <minimizedAffinity>
-1.58206

> <CNNscore>
0.3050249219

> <CNNaffinity>
6.2180061340

> <CNN_VS>
1.8966468573

> <CNNaffinity_variance>
0.5625721216

$$$$
[H]Oc1c([H])c([H])c2c(c1[H])C([H])([H])C([H])([H])[C@]1([H])[C@]2([H])C([H])([H])C([H])([H])[C@]2(C([H])([H])[H])[C@@]([H])(O[H])C([H])([H])C([H])([H])[C@]21[H]


 22 25  0  0  0  0  0  0  0  0999 V2000
   -3.6132   -5.5765    5.7425 C   0  0  0  0  0  0  0  0  0  0  0  0
   -2.2354   -4.9637    5.8151 C   0  0  0  0  0  0  0  0  0  0  0  0
   -1.2750   -5.9723    6.3457 C   0  0  0  0  0  0  0  0  0  0  0  0
   -1.4869   -6.2566    7.7976 C   0  0  0  0  0  0  0  0  0  0  0  0
   -1.6650   -5.0212    8.6196 C   0  0  0  0  0  0  0  0  0  0  0  0
   -2.7679   -4.1327    8.0240 C   0  0  0  0  0  0  0  0  0  0  0  0
   -3.1037   -3.0499    8.9849 C   0  0  0  0  0  0  0  0  0  0  0  0
   -3.8415   -3.7094   10.1597 C   0  0  0  0  0  0  0  0  0  0  0  0
   -2.8935   -4.7021   10.7724 C   0  0  0  0  0  0  0  0  0  0  0  0
   -3.0363   -5.0206   12.1069 C   0  0  0  0  0  0  0  0  0  0  0  0
   -2.2061   -5.9256   12.7556 C   0  0  0  0  0  0  0  0  0  0  0  0
   -2.3769   -6.2281   14.1130 O   0  0  0  0  0  0  0  0  0  0  0  0
   -1.2084   -6.5129   12.0086 C   0  0  0  0  0  0  0  0  0  0  0  0
   -1.0600   -6.1981   10.6704 C   0  0  0  0  0  0  0  0  0  0  0  0
   -1.8866   -5.2992   10.0312 C   0  0  0  0  0  0  0  0  0  0  0  0
   -2.2558   -3.7080    6.7029 C   0  0  0  0  0  0  0  0  0  0  0  0
   -3.0933   -2.7918    5.9124 C   0  0  0  0  0  0  0  0  0  0  0  0
   -2.6676   -3.0777    4.4780 C   0  0  0  0  0  0  0  0  0  0  0  0
   -1.8649   -4.3572    4.5075 C   0  0  0  0  0  0  0  0  0  0  0  0
   -2.1977   -5.2157    3.4717 O   0  0  0  0  0  0  0  0  0  0  0  0
   -3.1246   -5.7647   14.6017 H   0  0  0  0  0  0  0  0  0  0  0  0
   -1.9851   -6.1599    3.7259 H   0  0  0  0  0  0  0  0  0  0  0  0
  2  1  1  0  0  0
  2  3  1  0  0  0
  3  4  1  0  0  0
  4  5  1  0  0  0
  5  6  1  0  0  0
  6  7  1  0  0  0
  7  8  1  0  0  0
  8  9  1  0  0  0
  9 10  2  0  0  0
 10 11  1  0  0  0
 11 12  1  0  0  0
 11 13  2  0  0  0
 13 14  1  0  0  0
 14 15  2  0  0  0
  6 16  1  0  0  0
 16 17  1  0  0  0
 17 18  1  0  0  0
 18 19  1  0  0  0
 19 20  1  0  0  0
 16  2  1  0  0  0
 19  2  1  0  0  0
 15  5  1  0  0  0
 15  9  1  0  0  0
 12 21  1  0  0  0
 20 22  1  0  0  0
M  END
> <minimizedAffinity>
-3.01803

> <CNNscore>
0.3928277194

> <CNNaffinity>
4.1578159332

> <CNN_VS>
1.6333053112

> <CNNaffinity_variance>
0.1890236139

$$$$
[H]Oc1c([H])c([H])c2c(c1[H])C([H])([H])C([H])([H])[C@]1([H])[C@]2([H])C([H])([H])C([H])([H])[C@]2(C([H])([H])[H])[C@@]([H])(O[H])C([H])([H])C([H])([H])[C@]21[H]


 22 25  0  0  0  0  0  0  0  0999 V2000
   -6.0366   -6.8770    6.1863 C   0  0  0  0  0  0  0  0  0  0  0  0
   -5.8655   -7.9251    7.2593 C   0  0  0  0  0  0  0  0  0  0  0  0
   -6.3640   -9.2349    6.7526 C   0  0  0  0  0  0  0  0  0  0  0  0
   -7.8523   -9.2690    6.6205 C   0  0  0  0  0  0  0  0  0  0  0  0
   -8.5621   -8.7107    7.8114 C   0  0  0  0  0  0  0  0  0  0  0  0
   -8.0302   -7.3088    8.1468 C   0  0  0  0  0  0  0  0  0  0  0  0
   -8.9130   -6.6740    9.1597 C   0  0  0  0  0  0  0  0  0  0  0  0
  -10.2349   -6.3400    8.4524 C   0  0  0  0  0  0  0  0  0  0  0  0
  -10.8145   -7.6394    7.9676 C   0  0  0  0  0  0  0  0  0  0  0  0
  -12.1814   -7.7401    7.8123 C   0  0  0  0  0  0  0  0  0  0  0  0
  -12.8031   -8.9010    7.3707 C   0  0  0  0  0  0  0  0  0  0  0  0
  -14.1947   -8.9718    7.2233 O   0  0  0  0  0  0  0  0  0  0  0  0
  -11.9944   -9.9790    7.0840 C   0  0  0  0  0  0  0  0  0  0  0  0
  -10.6236   -9.8845    7.2374 C   0  0  0  0  0  0  0  0  0  0  0  0
  -10.0113   -8.7301    7.6760 C   0  0  0  0  0  0  0  0  0  0  0  0
   -6.6173   -7.5103    8.5354 C   0  0  0  0  0  0  0  0  0  0  0  0
   -5.8555   -6.3265    8.9644 C   0  0  0  0  0  0  0  0  0  0  0  0
   -4.4137   -6.7053    8.6508 C   0  0  0  0  0  0  0  0  0  0  0  0
   -4.4661   -7.9288    7.7661 C   0  0  0  0  0  0  0  0  0  0  0  0
   -3.5747   -7.8559    6.7074 O   0  0  0  0  0  0  0  0  0  0  0  0
  -14.7282   -8.1491    7.4496 H   0  0  0  0  0  0  0  0  0  0  0  0
   -3.8926   -8.4280    5.9505 H   0  0  0  0  0  0  0  0  0  0  0  0
  2  1  1  0  0  0
  2  3  1  0  0  0
  3  4  1  0  0  0
  4  5  1  0  0  0
  5  6  1  0  0  0
  6  7  1  0  0  0
  7  8  1  0  0  0
  8  9  1  0  0  0
  9 10  2  0  0  0
 10 11  1  0  0  0
 11 12  1  0  0  0
 11 13  2  0  0  0
 13 14  1  0  0  0
 14 15  2  0  0  0
  6 16  1  0  0  0
 16 17  1  0  0  0
 17 18  1  0  0  0
 18 19  1  0  0  0
 19 20  1  0  0  0
 16  2  1  0  0  0
 19  2  1  0  0  0
 15  5  1  0  0  0
 15  9  1  0  0  0
 12 21  1  0  0  0
 20 22  1  0  0  0
M  END
> <minimizedAffinity>
-6.12596

> <CNNscore>
0.3569467962

> <CNNaffinity>
5.4100198746

> <CNN_VS>
1.9310892820

> <CNNaffinity_variance>
0.1373759955

$$$$
[H]Oc1c([H])c([H])c2c(c1[H])C([H])([H])C([H])([H])[C@]1([H])[C@]2([H])C([H])([H])C([H])([H])[C@]2(C([H])([H])[H])[C@@]([H])(O[H])C([H])([H])C([H])([H])[C@]21[H]


 22 25  0  0  0  0  0  0  0  0999 V2000
   -7.8716   -7.3943    6.0239 C   0  0  0  0  0  0  0  0  0  0  0  0
   -7.6555   -8.4215    7.1088 C   0  0  0  0  0  0  0  0  0  0  0  0
   -8.3348   -9.6918    6.7270 C   0  0  0  0  0  0  0  0  0  0  0  0
   -9.8243   -9.5864    6.7910 C   0  0  0  0  0  0  0  0  0  0  0  0
  -10.3148   -8.9272    8.0394 C   0  0  0  0  0  0  0  0  0  0  0  0
   -9.6170   -7.5737    8.2433 C   0  0  0  0  0  0  0  0  0  0  0  0
  -10.2950   -6.8270    9.3347 C   0  0  0  0  0  0  0  0  0  0  0  0
  -11.6633   -6.3885    8.7917 C   0  0  0  0  0  0  0  0  0  0  0  0
  -12.4187   -7.6400    8.4415 C   0  0  0  0  0  0  0  0  0  0  0  0
  -13.7976   -7.6133    8.4696 C   0  0  0  0  0  0  0  0  0  0  0  0
  -14.5762   -8.7216    8.1620 C   0  0  0  0  0  0  0  0  0  0  0  0
  -15.9756   -8.6626    8.1998 O   0  0  0  0  0  0  0  0  0  0  0  0
  -13.9150   -9.8805    7.8184 C   0  0  0  0  0  0  0  0  0  0  0  0
  -12.5330   -9.9138    7.7882 C   0  0  0  0  0  0  0  0  0  0  0  0
  -11.7648   -8.8111    8.0944 C   0  0  0  0  0  0  0  0  0  0  0  0
   -8.1893   -7.8985    8.4531 C   0  0  0  0  0  0  0  0  0  0  0  0
   -7.2721   -6.7812    8.7291 C   0  0  0  0  0  0  0  0  0  0  0  0
   -5.9257   -7.3061    8.2471 C   0  0  0  0  0  0  0  0  0  0  0  0
   -6.2073   -8.5447    7.4292 C   0  0  0  0  0  0  0  0  0  0  0  0
   -5.4621   -8.5895    6.2615 O   0  0  0  0  0  0  0  0  0  0  0  0
  -16.3967   -7.7860    8.4586 H   0  0  0  0  0  0  0  0  0  0  0  0
   -5.9291   -9.1506    5.5771 H   0  0  0  0  0  0  0  0  0  0  0  0
  2  1  1  0  0  0
  2  3  1  0  0  0
  3  4  1  0  0  0
  4  5  1  0  0  0
  5  6  1  0  0  0
  6  7  1  0  0  0
  7  8  1  0  0  0
  8  9  1  0  0  0
  9 10  2  0  0  0
 10 11  1  0  0  0
 11 12  1  0  0  0
 11 13  2  0  0  0
 13 14  1  0  0  0
 14 15  2  0  0  0
  6 16  1  0  0  0
 16 17  1  0  0  0
 17 18  1  0  0  0
 18 19  1  0  0  0
 19 20  1  0  0  0
 16  2  1  0  0  0
 19  2  1  0  0  0
 15  5  1  0  0  0
 15  9  1  0  0  0
 12 21  1  0  0  0
 20 22  1  0  0  0
M  END
> <minimizedAffinity>
-7.90108

> <CNNscore>
0.3527343869

> <CNNaffinity>
5.8005366325

> <CNN_VS>
2.0460486412

> <CNNaffinity_variance>
0.1421109885

$$$$
[H]Oc1c([H])c([H])c2c(c1[H])C([H])([H])C([H])([H])[C@]1([H])[C@]2([H])C([H])([H])C([H])([H])[C@]2(C([H])([H])[H])[C@@]([H])(O[H])C([H])([H])C([H])([H])[C@]21[H]


 22 25  0  0  0  0  0  0  0  0999 V2000
   -9.1532   -9.3897    8.8432 C   0  0  0  0  0  0  0  0  0  0  0  0
   -9.3515   -8.8214    7.4587 C   0  0  0  0  0  0  0  0  0  0  0  0
   -8.6067   -9.6545    6.4728 C   0  0  0  0  0  0  0  0  0  0  0  0
   -7.1255   -9.4915    6.5882 C   0  0  0  0  0  0  0  0  0  0  0  0
   -6.6973   -8.0639    6.7002 C   0  0  0  0  0  0  0  0  0  0  0  0
   -7.4597   -7.3606    7.8337 C   0  0  0  0  0  0  0  0  0  0  0  0
   -6.8440   -6.0335    8.0949 C   0  0  0  0  0  0  0  0  0  0  0  0
   -5.4830   -6.2960    8.7567 C   0  0  0  0  0  0  0  0  0  0  0  0
   -4.6638   -7.0894    7.7775 C   0  0  0  0  0  0  0  0  0  0  0  0
   -3.2887   -6.9955    7.8321 C   0  0  0  0  0  0  0  0  0  0  0  0
   -2.4539   -7.6913    6.9672 C   0  0  0  0  0  0  0  0  0  0  0  0
   -1.0600   -7.5746    7.0482 O   0  0  0  0  0  0  0  0  0  0  0  0
   -3.0538   -8.5004    6.0272 C   0  0  0  0  0  0  0  0  0  0  0  0
   -4.4316   -8.5991    5.9673 C   0  0  0  0  0  0  0  0  0  0  0  0
   -5.2559   -7.9064    6.8279 C   0  0  0  0  0  0  0  0  0  0  0  0
   -8.8765   -7.3594    7.4087 C   0  0  0  0  0  0  0  0  0  0  0  0
   -9.8493   -6.6945    8.2905 C   0  0  0  0  0  0  0  0  0  0  0  0
  -11.1581   -7.4030    7.9652 C   0  0  0  0  0  0  0  0  0  0  0  0
  -10.8006   -8.6386    7.1727 C   0  0  0  0  0  0  0  0  0  0  0  0
  -11.5125   -9.7550    7.5819 O   0  0  0  0  0  0  0  0  0  0  0  0
   -0.6851   -6.9669    7.7572 H   0  0  0  0  0  0  0  0  0  0  0  0
  -11.0035  -10.5875    7.3602 H   0  0  0  0  0  0  0  0  0  0  0  0
  2  1  1  0  0  0
  2  3  1  0  0  0
  3  4  1  0  0  0
  4  5  1  0  0  0
  5  6  1  0  0  0
  6  7  1  0  0  0
  7  8  1  0  0  0
  8  9  1  0  0  0
  9 10  2  0  0  0
 10 11  1  0  0  0
 11 12  1  0  0  0
 11 13  2  0  0  0
 13 14  1  0  0  0
 14 15  2  0  0  0
  6 16  1  0  0  0
 16 17  1  0  0  0
 17 18  1  0  0  0
 18 19  1  0  0  0
 19 20  1  0  0  0
 16  2  1  0  0  0
 19  2  1  0  0  0
 15  5  1  0  0  0
 15  9  1  0  0  0
 12 21  1  0  0  0
 20 22  1  0  0  0
M  END
> <minimizedAffinity>
-3.03655

> <CNNscore>
0.3226998746

> <CNNaffinity>
5.0872240067

> <CNN_VS>
1.6416465044

> <CNNaffinity_variance>
0.4020280242

$$$$
[H]Oc1c([H])c([H])c2c(c1[H])C([H])([H])C([H])([H])[C@]1([H])[C@]2([H])C([H])([H])C([H])([H])[C@]2(C([H])([H])[H])[C@@]([H])(O[H])C([H])([H])C([H])([H])[C@]21[H]


 22 25  0  0  0  0  0  0  0  0999 V2000
  -10.3694   -9.5407    6.9365 C   0  0  0  0  0  0  0  0  0  0  0  0
  -10.4241   -8.5623    8.0849 C   0  0  0  0  0  0  0  0  0  0  0  0
  -11.2455   -9.1404    9.1859 C   0  0  0  0  0  0  0  0  0  0  0  0
  -12.7004   -9.1937    8.8478 C   0  0  0  0  0  0  0  0  0  0  0  0
  -13.2107   -7.9266    8.2415 C   0  0  0  0  0  0  0  0  0  0  0  0
  -12.3403   -7.5138    7.0446 C   0  0  0  0  0  0  0  0  0  0  0  0
  -13.0056   -6.4085    6.3069 C   0  0  0  0  0  0  0  0  0  0  0  0
  -14.2285   -7.0152    5.6027 C   0  0  0  0  0  0  0  0  0  0  0  0
  -15.1250   -7.5663    6.6759 C   0  0  0  0  0  0  0  0  0  0  0  0
  -16.4794   -7.6544    6.4296 C   0  0  0  0  0  0  0  0  0  0  0  0
  -17.3814   -8.1495    7.3626 C   0  0  0  0  0  0  0  0  0  0  0  0
  -18.7520   -8.2261    7.0820 O   0  0  0  0  0  0  0  0  0  0  0  0
  -16.8719   -8.5618    8.5744 C   0  0  0  0  0  0  0  0  0  0  0  0
  -15.5153   -8.4763    8.8276 C   0  0  0  0  0  0  0  0  0  0  0  0
  -14.6242   -7.9842    7.8984 C   0  0  0  0  0  0  0  0  0  0  0  0
  -11.0075   -7.2192    7.6147 C   0  0  0  0  0  0  0  0  0  0  0  0
   -9.9647   -6.7424    6.6922 C   0  0  0  0  0  0  0  0  0  0  0  0
   -8.6713   -7.1620    7.3789 C   0  0  0  0  0  0  0  0  0  0  0  0
   -9.0520   -8.1341    8.4710 C   0  0  0  0  0  0  0  0  0  0  0  0
   -8.2064   -9.2309    8.5228 O   0  0  0  0  0  0  0  0  0  0  0  0
  -19.0596   -7.9086    6.1780 H   0  0  0  0  0  0  0  0  0  0  0  0
   -8.6804  -10.0112    8.9324 H   0  0  0  0  0  0  0  0  0  0  0  0
  2  1  1  0  0  0
  2  3  1  0  0  0
  3  4  1  0  0  0
  4  5  1  0  0  0
  5  6  1  0  0  0
  6  7  1  0  0  0
  7  8  1  0  0  0
  8  9  1  0  0  0
  9 10  2  0  0  0
 10 11  1  0  0  0
 11 12  1  0  0  0
 11 13  2  0  0  0
 13 14  1  0  0  0
 14 15  2  0  0  0
  6 16  1  0  0  0
 16 17  1  0  0  0
 17 18  1  0  0  0
 18 19  1  0  0  0
 19 20  1  0  0  0
 16  2  1  0  0  0
 19  2  1  0  0  0
 15  5  1  0  0  0
 15  9  1  0  0  0
 12 21  1  0  0  0
 20 22  1  0  0  0
M  END
> <minimizedAffinity>
-1.21238

> <CNNscore>
0.3148540854

> <CNNaffinity>
5.8378496170

> <CNN_VS>
1.8380707502

> <CNNaffinity_variance>
0.4667563438

$$$$
[H]Oc1c([H])c([H])c2c(c1[H])C([H])([H])C([H])([H])[C@]1([H])[C@]2([H])C([H])([H])C([H])([H])[C@]2(C([H])([H])[H])[C@@]([H])(O[H])C([H])([H])C([H])([H])[C@]21[H]


 22 25  0  0  0  0  0  0  0  0999 V2000
  -12.7191   -9.5857    9.2873 C   0  0  0  0  0  0  0  0  0  0  0  0
  -12.8844   -8.9792    7.9148 C   0  0  0  0  0  0  0  0  0  0  0  0
  -12.1561   -9.8126    6.9168 C   0  0  0  0  0  0  0  0  0  0  0  0
  -10.6718   -9.7000    7.0506 C   0  0  0  0  0  0  0  0  0  0  0  0
  -10.1994   -8.2900    7.2007 C   0  0  0  0  0  0  0  0  0  0  0  0
  -10.9510   -7.5892    8.3429 C   0  0  0  0  0  0  0  0  0  0  0  0
  -10.2961   -6.2891    8.6415 C   0  0  0  0  0  0  0  0  0  0  0  0
   -8.9512   -6.6105    9.3103 C   0  0  0  0  0  0  0  0  0  0  0  0
   -8.1474   -7.4068    8.3207 C   0  0  0  0  0  0  0  0  0  0  0  0
   -6.7707   -7.3585    8.3911 C   0  0  0  0  0  0  0  0  0  0  0  0
   -5.9493   -8.0605    7.5183 C   0  0  0  0  0  0  0  0  0  0  0  0
   -4.5534   -7.9906    7.6158 O   0  0  0  0  0  0  0  0  0  0  0  0
   -6.5648   -8.8277    6.5535 C   0  0  0  0  0  0  0  0  0  0  0  0
   -7.9443   -8.8805    6.4777 C   0  0  0  0  0  0  0  0  0  0  0  0
   -8.7551   -8.1820    7.3463 C   0  0  0  0  0  0  0  0  0  0  0  0
  -12.3624   -7.5324    7.9041 C   0  0  0  0  0  0  0  0  0  0  0  0
  -13.3228   -6.8574    8.7917 C   0  0  0  0  0  0  0  0  0  0  0  0
  -14.6500   -7.5156    8.4368 C   0  0  0  0  0  0  0  0  0  0  0  0
  -14.3238   -8.7432    7.6189 C   0  0  0  0  0  0  0  0  0  0  0  0
  -15.0753   -9.8454    7.9944 O   0  0  0  0  0  0  0  0  0  0  0  0
   -4.1668   -7.4120    8.3427 H   0  0  0  0  0  0  0  0  0  0  0  0
  -14.5907  -10.6885    7.7581 H   0  0  0  0  0  0  0  0  0  0  0  0
  2  1  1  0  0  0
  2  3  1  0  0  0
  3  4  1  0  0  0
  4  5  1  0  0  0
  5  6  1  0  0  0
  6  7  1  0  0  0
  7  8  1  0  0  0
  8  9  1  0  0  0
  9 10  2  0  0  0
 10 11  1  0  0  0
 11 12  1  0  0  0
 11 13  2  0  0  0
 13 14  1  0  0  0
 14 15  2  0  0  0
  6 16  1  0  0  0
 16 17  1  0  0  0
 17 18  1  0  0  0
 18 19  1  0  0  0
 19 20  1  0  0  0
 16  2  1  0  0  0
 19  2  1  0  0  0
 15  5  1  0  0  0
 15  9  1  0  0  0
 12 21  1  0  0  0
 20 22  1  0  0  0
M  END
> <minimizedAffinity>
-7.98925

> <CNNscore>
0.3008843064

> <CNNaffinity>
5.7377567291

> <CNN_VS>
1.7264009714

> <CNNaffinity_variance>
0.0825482458

$$$$
[H]Oc1c([H])c([H])c2c(c1[H])C([H])([H])C([H])([H])[C@]1([H])[C@]2([H])C([H])([H])C([H])([H])[C@]2(C([H])([H])[H])[C@@]([H])(O[H])C([H])([H])C([H])([H])[C@]21[H]


 22 25  0  0  0  0  0  0  0  0999 V2000
  -15.2794   -8.7217    7.9032 C   0  0  0  0  0  0  0  0  0  0  0  0
  -14.8836   -8.4900    6.4649 C   0  0  0  0  0  0  0  0  0  0  0  0
  -14.2914   -9.7397    5.9094 C   0  0  0  0  0  0  0  0  0  0  0  0
  -12.9441  -10.0391    6.4827 C   0  0  0  0  0  0  0  0  0  0  0  0
  -12.0441   -8.8467    6.5253 C   0  0  0  0  0  0  0  0  0  0  0  0
  -12.7394   -7.6724    7.2312 C   0  0  0  0  0  0  0  0  0  0  0  0
  -11.7497   -6.5942    7.4891 C   0  0  0  0  0  0  0  0  0  0  0  0
  -10.8119   -7.1048    8.5934 C   0  0  0  0  0  0  0  0  0  0  0  0
  -10.1403   -8.3404    8.0630 C   0  0  0  0  0  0  0  0  0  0  0  0
   -8.8981   -8.6842    8.5545 C   0  0  0  0  0  0  0  0  0  0  0  0
   -8.2042   -9.8070    8.1221 C   0  0  0  0  0  0  0  0  0  0  0  0
   -6.9433  -10.1294    8.6411 O   0  0  0  0  0  0  0  0  0  0  0  0
   -8.8076  -10.5897    7.1622 C   0  0  0  0  0  0  0  0  0  0  0  0
  -10.0526  -10.2508    6.6655 C   0  0  0  0  0  0  0  0  0  0  0  0
  -10.7373   -9.1353    7.0978 C   0  0  0  0  0  0  0  0  0  0  0  0
  -13.8875   -7.3222    6.3668 C   0  0  0  0  0  0  0  0  0  0  0  0
  -14.7200   -6.1790    6.7738 C   0  0  0  0  0  0  0  0  0  0  0  0
  -16.0705   -6.4857    6.1391 C   0  0  0  0  0  0  0  0  0  0  0  0
  -16.0260   -7.9286    5.6936 C   0  0  0  0  0  0  0  0  0  0  0  0
  -17.1912   -8.6138    5.9994 O   0  0  0  0  0  0  0  0  0  0  0  0
   -6.5581   -9.5164    9.3400 H   0  0  0  0  0  0  0  0  0  0  0  0
  -17.0030   -9.5934    6.0791 H   0  0  0  0  0  0  0  0  0  0  0  0
  2  1  1  0  0  0
  2  3  1  0  0  0
  3  4  1  0  0  0
  4  5  1  0  0  0
  5  6  1  0  0  0
  6  7  1  0  0  0
  7  8  1  0  0  0
  8  9  1  0  0  0
  9 10  2  0  0  0
 10 11  1  0  0  0
 11 12  1  0  0  0
 11 13  2  0  0  0
 13 14  1  0  0  0
 14 15  2  0  0  0
  6 16  1  0  0  0
 16 17  1  0  0  0
 17 18  1  0  0  0
 18 19  1  0  0  0
 19 20  1  0  0  0
 16  2  1  0  0  0
 19  2  1  0  0  0
 15  5  1  0  0  0
 15  9  1  0  0  0
 12 21  1  0  0  0
 20 22  1  0  0  0
M  END
> <minimizedAffinity>
-5.67293

> <CNNscore>
0.2675577104

> <CNNaffinity>
5.7014980316

> <CNN_VS>
1.5254797935

> <CNNaffinity_variance>
0.3785580099

$$$$
[H]Oc1c([H])c([H])c2c(c1[H])C([H])([H])C([H])([H])[C@]1([H])[C@]2([H])C([H])([H])C([H])([H])[C@]2(C([H])([H])[H])[C@@]([H])(O[H])C([H])([H])C([H])([H])[C@]21[H]


 22 25  0  0  0  0  0  0  0  0999 V2000
   -5.3270   -5.9093    6.5573 C   0  0  0  0  0  0  0  0  0  0  0  0
   -4.9533   -6.9858    7.5476 C   0  0  0  0  0  0  0  0  0  0  0  0
   -5.5583   -6.6683    8.8720 C   0  0  0  0  0  0  0  0  0  0  0  0
   -4.9060   -5.4978    9.5339 C   0  0  0  0  0  0  0  0  0  0  0  0
   -3.4131   -5.5522    9.4883 C   0  0  0  0  0  0  0  0  0  0  0  0
   -2.9259   -5.7634    8.0466 C   0  0  0  0  0  0  0  0  0  0  0  0
   -1.4552   -5.5595    7.9865 C   0  0  0  0  0  0  0  0  0  0  0  0
   -1.2054   -4.0560    8.1781 C   0  0  0  0  0  0  0  0  0  0  0  0
   -1.7479   -3.6893    9.5310 C   0  0  0  0  0  0  0  0  0  0  0  0
   -1.1999   -2.6126   10.1968 C   0  0  0  0  0  0  0  0  0  0  0  0
   -1.6375   -2.2031   11.4498 C   0  0  0  0  0  0  0  0  0  0  0  0
   -1.0601   -1.1047   12.1005 O   0  0  0  0  0  0  0  0  0  0  0  0
   -2.6625   -2.9218   12.0252 C   0  0  0  0  0  0  0  0  0  0  0  0
   -3.2162   -4.0019   11.3631 C   0  0  0  0  0  0  0  0  0  0  0  0
   -2.7783   -4.4045   10.1197 C   0  0  0  0  0  0  0  0  0  0  0  0
   -3.4237   -7.1013    7.6586 C   0  0  0  0  0  0  0  0  0  0  0  0
   -3.0598   -7.6001    6.3228 C   0  0  0  0  0  0  0  0  0  0  0  0
   -4.1826   -8.5762    5.9957 C   0  0  0  0  0  0  0  0  0  0  0  0
   -5.2814   -8.3316    7.0033 C   0  0  0  0  0  0  0  0  0  0  0  0
   -6.5397   -8.3180    6.4227 O   0  0  0  0  0  0  0  0  0  0  0  0
   -0.3152   -0.6226   11.6259 H   0  0  0  0  0  0  0  0  0  0  0  0
   -7.1696   -7.7758    6.9800 H   0  0  0  0  0  0  0  0  0  0  0  0
  2  1  1  0  0  0
  2  3  1  0  0  0
  3  4  1  0  0  0
  4  5  1  0  0  0
  5  6  1  0  0  0
  6  7  1  0  0  0
  7  8  1  0  0  0
  8  9  1  0  0  0
  9 10  2  0  0  0
 10 11  1  0  0  0
 11 12  1  0  0  0
 11 13  2  0  0  0
 13 14  1  0  0  0
 14 15  2  0  0  0
  6 16  1  0  0  0
 16 17  1  0  0  0
 17 18  1  0  0  0
 18 19  1  0  0  0
 19 20  1  0  0  0
 16  2  1  0  0  0
 19  2  1  0  0  0
 15  5  1  0  0  0
 15  9  1  0  0  0
 12 21  1  0  0  0
 20 22  1  0  0  0
M  END
> <minimizedAffinity>
-2.93806

> <CNNscore>
0.2619524896

> <CNNaffinity>
4.1340336800

> <CNN_VS>
1.0829204321

> <CNNaffinity_variance>
0.3766921163

$$$$
[H]Oc1c([H])c([H])c2c(c1[H])C([H])([H])C([H])([H])[C@]1([H])[C@]2([H])C([H])([H])C([H])([H])[C@]2(C([H])([H])[H])[C@@]([H])(O[H])C([H])([H])C([H])([H])[C@]21[H]


 22 25  0  0  0  0  0  0  0  0999 V2000
  -10.0190   -8.4600    9.4803 C   0  0  0  0  0  0  0  0  0  0  0  0
   -9.6180   -7.9472    8.1182 C   0  0  0  0  0  0  0  0  0  0  0  0
  -10.1695   -6.5761    7.9259 C   0  0  0  0  0  0  0  0  0  0  0  0
  -11.6542   -6.5748    7.7541 C   0  0  0  0  0  0  0  0  0  0  0  0
  -12.1374   -7.6185    6.7997 C   0  0  0  0  0  0  0  0  0  0  0  0
  -11.5884   -8.9996    7.1890 C   0  0  0  0  0  0  0  0  0  0  0  0
  -12.2775  -10.0483    6.3928 C   0  0  0  0  0  0  0  0  0  0  0  0
  -13.7187  -10.1314    6.9176 C   0  0  0  0  0  0  0  0  0  0  0  0
  -14.3458   -8.7836    6.6953 C   0  0  0  0  0  0  0  0  0  0  0  0
  -15.7140   -8.7052    6.5386 C   0  0  0  0  0  0  0  0  0  0  0  0
  -16.3779   -7.5034    6.3283 C   0  0  0  0  0  0  0  0  0  0  0  0
  -17.7695   -7.4569    6.1726 O   0  0  0  0  0  0  0  0  0  0  0  0
  -15.6108   -6.3600    6.2793 C   0  0  0  0  0  0  0  0  0  0  0  0
  -14.2389   -6.4317    6.4359 C   0  0  0  0  0  0  0  0  0  0  0  0
  -13.5847   -7.6269    6.6443 C   0  0  0  0  0  0  0  0  0  0  0  0
  -10.1224   -8.8986    7.0200 C   0  0  0  0  0  0  0  0  0  0  0  0
   -9.3242  -10.1080    7.2769 C   0  0  0  0  0  0  0  0  0  0  0  0
   -7.9596   -9.5516    7.6625 C   0  0  0  0  0  0  0  0  0  0  0  0
   -8.1479   -8.0757    7.9247 C   0  0  0  0  0  0  0  0  0  0  0  0
   -7.4779   -7.6494    9.0604 O   0  0  0  0  0  0  0  0  0  0  0  0
  -18.2715   -8.3278    6.2188 H   0  0  0  0  0  0  0  0  0  0  0  0
   -7.9195   -6.8328    9.4339 H   0  0  0  0  0  0  0  0  0  0  0  0
  2  1  1  0  0  0
  2  3  1  0  0  0
  3  4  1  0  0  0
  4  5  1  0  0  0
  5  6  1  0  0  0
  6  7  1  0  0  0
  7  8  1  0  0  0
  8  9  1  0  0  0
  9 10  2  0  0  0
 10 11  1  0  0  0
 11 12  1  0  0  0
 11 13  2  0  0  0
 13 14  1  0  0  0
 14 15  2  0  0  0
  6 16  1  0  0  0
 16 17  1  0  0  0
 17 18  1  0  0  0
 18 19  1  0  0  0
 19 20  1  0  0  0
 16  2  1  0  0  0
 19  2  1  0  0  0
 15  5  1  0  0  0
 15  9  1  0  0  0
 12 21  1  0  0  0
 20 22  1  0  0  0
M  END
> <minimizedAffinity>
-2.55850

> <CNNscore>
0.2519474030

> <CNNaffinity>
5.6492047310

> <CNN_VS>
1.4233024120

> <CNNaffinity_variance>
0.3074485660

$$$$
[H]O[C@@]1([H])C([H])([H])C([H])([H])[C@]2([H])[C@]1(C([H])([H])[H])C([H])([H])C([H])([H])[C@]1([H])[C@]3(C([H])([H])[H])C(=C([H])C(=O)C([H])([H])C3([H])[H])C([H])([H])C([H])([H])[C@@]21[H]


 22 25  0  0  0  0  0  0  0  0999 V2000
  -13.8629   -4.7383    3.0664 C   0  0  0  0  0  0  0  0  0  0  0  0
  -14.6003   -4.3264    4.3124 C   0  0  0  0  0  0  0  0  0  0  0  0
  -14.4674   -5.3188    5.4162 C   0  0  0  0  0  0  0  0  0  0  0  0
  -15.1322   -6.6014    4.9820 C   0  0  0  0  0  0  0  0  0  0  0  0
  -16.6099   -6.3554    4.7617 C   0  0  0  0  0  0  0  0  0  0  0  0
  -16.8472   -5.2875    3.6960 C   0  0  0  0  0  0  0  0  0  0  0  0
  -18.3139   -4.8877    3.7790 C   0  0  0  0  0  0  0  0  0  0  0  0
  -19.2443   -6.0408    3.6561 C   0  0  0  0  0  0  0  0  0  0  0  0
  -18.8066   -7.2583    4.3551 C   0  0  0  0  0  0  0  0  0  0  0  0
  -19.7344   -8.0181    4.9132 C   0  0  0  0  0  0  0  0  0  0  0  0
  -19.4160   -9.2382    5.6260 C   0  0  0  0  0  0  0  0  0  0  0  0
  -20.2020   -9.7842    6.4275 O   0  0  0  0  0  0  0  0  0  0  0  0
  -18.0583   -9.8280    5.3450 C   0  0  0  0  0  0  0  0  0  0  0  0
  -17.0809   -8.6732    5.4296 C   0  0  0  0  0  0  0  0  0  0  0  0
  -17.3535   -7.6027    4.4180 C   0  0  0  0  0  0  0  0  0  0  0  0
  -16.9540   -8.1317    3.0554 C   0  0  0  0  0  0  0  0  0  0  0  0
  -16.0732   -4.0892    4.0630 C   0  0  0  0  0  0  0  0  0  0  0  0
  -16.0313   -2.9911    3.0663 C   0  0  0  0  0  0  0  0  0  0  0  0
  -14.9022   -2.1104    3.6072 C   0  0  0  0  0  0  0  0  0  0  0  0
  -14.2568   -2.9097    4.7224 C   0  0  0  0  0  0  0  0  0  0  0  0
  -12.9347   -2.6713    4.8851 O   0  0  0  0  0  0  0  0  0  0  0  0
  -12.3239   -3.1039    4.2658 H   0  0  0  0  0  0  0  0  0  0  0  0
  2  1  1  0  0  0
  2  3  1  0  0  0
  3  4  1  0  0  0
  4  5  1  0  0  0
  5  6  1  0  0  0
  6  7  1  0  0  0
  7  8  1  0  0  0
  8  9  1  0  0  0
  9 10  2  0  0  0
 10 11  1  0  0  0
 11 12  2  0  0  0
 11 13  1  0  0  0
 13 14  1  0  0  0
 14 15  1  0  0  0
 15 16  1  0  0  0
  6 17  1  0  0  0
 17 18  1  0  0  0
 18 19  1  0  0  0
 19 20  1  0  0  0
 20 21  1  0  0  0
 17  2  1  0  0  0
 20  2  1  0  0  0
 15  5  1  0  0  0
 15  9  1  0  0  0
 21 22  1  0  0  0
M  END
> <minimizedAffinity>
14.00872

> <CNNscore>
0.5589177608

> <CNNaffinity>
6.5442442894

> <CNN_VS>
3.6576943398

> <CNNaffinity_variance>
1.4154474735

$$$$
[H]O[C@@]1([H])C([H])([H])C([H])([H])[C@]2([H])[C@]1(C([H])([H])[H])C([H])([H])C([H])([H])[C@]1([H])[C@]3(C([H])([H])[H])C(=C([H])C(=O)C([H])([H])C3([H])[H])C([H])([H])C([H])([H])[C@@]21[H]


 22 25  0  0  0  0  0  0  0  0999 V2000
  -12.8580  -10.0729    9.0889 C   0  0  0  0  0  0  0  0  0  0  0  0
  -12.9537   -9.0190    8.0184 C   0  0  0  0  0  0  0  0  0  0  0  0
  -12.3368   -9.4465    6.7310 C   0  0  0  0  0  0  0  0  0  0  0  0
  -10.8568   -9.6342    6.9548 C   0  0  0  0  0  0  0  0  0  0  0  0
  -10.2328   -8.3111    7.3454 C   0  0  0  0  0  0  0  0  0  0  0  0
  -10.8606   -7.7503    8.6197 C   0  0  0  0  0  0  0  0  0  0  0  0
  -10.4077   -6.3021    8.7443 C   0  0  0  0  0  0  0  0  0  0  0  0
   -8.9297   -6.1447    8.7129 C   0  0  0  0  0  0  0  0  0  0  0  0
   -8.2411   -7.0165    7.7494 C   0  0  0  0  0  0  0  0  0  0  0  0
   -7.1752   -6.5348    7.1319 C   0  0  0  0  0  0  0  0  0  0  0  0
   -6.4214   -7.3058    6.1646 C   0  0  0  0  0  0  0  0  0  0  0  0
   -5.6400   -6.7880    5.3402 O   0  0  0  0  0  0  0  0  0  0  0  0
   -6.6329   -8.7970    6.2046 C   0  0  0  0  0  0  0  0  0  0  0  0
   -8.1332   -8.9997    6.2697 C   0  0  0  0  0  0  0  0  0  0  0  0
   -8.7507   -8.3984    7.4947 C   0  0  0  0  0  0  0  0  0  0  0  0
   -8.3599   -9.2515    8.6845 C   0  0  0  0  0  0  0  0  0  0  0  0
  -12.3215   -7.7097    8.4354 C   0  0  0  0  0  0  0  0  0  0  0  0
  -13.1342   -7.3541    9.6245 C   0  0  0  0  0  0  0  0  0  0  0  0
  -14.5450   -7.7438    9.1763 C   0  0  0  0  0  0  0  0  0  0  0  0
  -14.3679   -8.4975    7.8726 C   0  0  0  0  0  0  0  0  0  0  0  0
  -15.3030   -9.4496    7.6485 O   0  0  0  0  0  0  0  0  0  0  0  0
  -15.1985  -10.2958    8.1140 H   0  0  0  0  0  0  0  0  0  0  0  0
  2  1  1  0  0  0
  2  3  1  0  0  0
  3  4  1  0  0  0
  4  5  1  0  0  0
  5  6  1  0  0  0
  6  7  1  0  0  0
  7  8  1  0  0  0
  8  9  1  0  0  0
  9 10  2  0  0  0
 10 11  1  0  0  0
 11 12  2  0  0  0
 11 13  1  0  0  0
 13 14  1  0  0  0
 14 15  1  0  0  0
 15 16  1  0  0  0
  6 17  1  0  0  0
 17 18  1  0  0  0
 18 19  1  0  0  0
 19 20  1  0  0  0
 20 21  1  0  0  0
 17  2  1  0  0  0
 20  2  1  0  0  0
 15  5  1  0  0  0
 15  9  1  0  0  0
 21 22  1  0  0  0
M  END
> <minimizedAffinity>
-7.61216

> <CNNscore>
0.4514156282

> <CNNaffinity>
6.1020331383

> <CNN_VS>
2.7545530796

> <CNNaffinity_variance>
0.2179150581

$$$$
[H]O[C@@]1([H])C([H])([H])C([H])([H])[C@]2([H])[C@]1(C([H])([H])[H])C([H])([H])C([H])([H])[C@]1([H])[C@]3(C([H])([H])[H])C(=C([H])C(=O)C([H])([H])C3([H])[H])C([H])([H])C([H])([H])[C@@]21[H]


 22 25  0  0  0  0  0  0  0  0999 V2000
  -12.5828   -7.3090    9.6875 C   0  0  0  0  0  0  0  0  0  0  0  0
  -13.3965   -8.5731    9.6101 C   0  0  0  0  0  0  0  0  0  0  0  0
  -12.8928   -9.5212    8.5765 C   0  0  0  0  0  0  0  0  0  0  0  0
  -13.0554   -8.8755    7.2229 C   0  0  0  0  0  0  0  0  0  0  0  0
  -14.5255   -8.6375    6.9496 C   0  0  0  0  0  0  0  0  0  0  0  0
  -15.1531   -7.7344    8.0092 C   0  0  0  0  0  0  0  0  0  0  0  0
  -16.6633   -7.8193    7.8351 C   0  0  0  0  0  0  0  0  0  0  0  0
  -17.1145   -7.4903    6.4572 C   0  0  0  0  0  0  0  0  0  0  0  0
  -16.2526   -8.0167    5.3883 C   0  0  0  0  0  0  0  0  0  0  0  0
  -16.8316   -8.4193    4.2692 C   0  0  0  0  0  0  0  0  0  0  0  0
  -16.0796   -8.9542    3.1527 C   0  0  0  0  0  0  0  0  0  0  0  0
  -16.5996   -9.6346    2.2444 O   0  0  0  0  0  0  0  0  0  0  0  0
  -14.6059   -8.6410    3.1429 C   0  0  0  0  0  0  0  0  0  0  0  0
  -14.1121   -8.9343    4.5452 C   0  0  0  0  0  0  0  0  0  0  0  0
  -14.7726   -8.0835    5.5862 C   0  0  0  0  0  0  0  0  0  0  0  0
  -14.2336   -6.6738    5.4517 C   0  0  0  0  0  0  0  0  0  0  0  0
  -14.8596   -8.3052    9.3350 C   0  0  0  0  0  0  0  0  0  0  0  0
  -15.2368   -7.4854   10.5126 C   0  0  0  0  0  0  0  0  0  0  0  0
  -14.4939   -8.1945   11.6476 C   0  0  0  0  0  0  0  0  0  0  0  0
  -13.5824   -9.2023   10.9749 C   0  0  0  0  0  0  0  0  0  0  0  0
  -12.4339   -9.4496   11.6465 O   0  0  0  0  0  0  0  0  0  0  0  0
  -11.7193   -8.7968   11.5635 H   0  0  0  0  0  0  0  0  0  0  0  0
  2  1  1  0  0  0
  2  3  1  0  0  0
  3  4  1  0  0  0
  4  5  1  0  0  0
  5  6  1  0  0  0
  6  7  1  0  0  0
  7  8  1  0  0  0
  8  9  1  0  0  0
  9 10  2  0  0  0
 10 11  1  0  0  0
 11 12  2  0  0  0
 11 13  1  0  0  0
 13 14  1  0  0  0
 14 15  1  0  0  0
 15 16  1  0  0  0
  6 17  1  0  0  0
 17 18  1  0  0  0
 18 19  1  0  0  0
 19 20  1  0  0  0
 20 21  1  0  0  0
 17  2  1  0  0  0
 20  2  1  0  0  0
 15  5  1  0  0  0
 15  9  1  0  0  0
 21 22  1  0  0  0
M  END
> <minimizedAffinity>
2.60927

> <CNNscore>
0.4444781244

> <CNNaffinity>
6.0778260231

> <CNN_VS>
2.7014605999

> <CNNaffinity_variance>
0.3142729700

$$$$
[H]O[C@@]1([H])C([H])([H])C([H])([H])[C@]2([H])[C@]1(C([H])([H])[H])C([H])([H])C([H])([H])[C@]1([H])[C@]3(C([H])([H])[H])C(=C([H])C(=O)C([H])([H])C3([H])[H])C([H])([H])C([H])([H])[C@@]21[H]


 22 25  0  0  0  0  0  0  0  0999 V2000
   -4.9007   -6.3069    5.9440 C   0  0  0  0  0  0  0  0  0  0  0  0
   -5.0049   -7.3336    7.0398 C   0  0  0  0  0  0  0  0  0  0  0  0
   -5.8643   -6.8846    8.1715 C   0  0  0  0  0  0  0  0  0  0  0  0
   -5.2058   -5.6934    8.8219 C   0  0  0  0  0  0  0  0  0  0  0  0
   -3.8680   -6.1071    9.3978 C   0  0  0  0  0  0  0  0  0  0  0  0
   -2.9400   -6.6594    8.3179 C   0  0  0  0  0  0  0  0  0  0  0  0
   -1.7745   -7.3337    9.0285 C   0  0  0  0  0  0  0  0  0  0  0  0
   -1.0743   -6.4383    9.9869 C   0  0  0  0  0  0  0  0  0  0  0  0
   -1.9613   -5.5619   10.7665 C   0  0  0  0  0  0  0  0  0  0  0  0
   -1.6256   -5.2987   12.0185 C   0  0  0  0  0  0  0  0  0  0  0  0
   -2.4255   -4.4487   12.8764 C   0  0  0  0  0  0  0  0  0  0  0  0
   -2.3255   -4.4491   14.1208 O   0  0  0  0  0  0  0  0  0  0  0  0
   -3.4060   -3.5445   12.1757 C   0  0  0  0  0  0  0  0  0  0  0  0
   -4.1210   -4.4163   11.1634 C   0  0  0  0  0  0  0  0  0  0  0  0
   -3.1964   -5.0002   10.1397 C   0  0  0  0  0  0  0  0  0  0  0  0
   -2.7647   -3.8864    9.2074 C   0  0  0  0  0  0  0  0  0  0  0  0
   -3.6546   -7.7266    7.5967 C   0  0  0  0  0  0  0  0  0  0  0  0
   -2.9877   -8.2802    6.3927 C   0  0  0  0  0  0  0  0  0  0  0  0
   -4.1215   -9.0685    5.7324 C   0  0  0  0  0  0  0  0  0  0  0  0
   -5.3782   -8.6963    6.4950 C   0  0  0  0  0  0  0  0  0  0  0  0
   -6.5083   -8.7194    5.7509 O   0  0  0  0  0  0  0  0  0  0  0  0
   -6.6751   -7.9591    5.1696 H   0  0  0  0  0  0  0  0  0  0  0  0
  2  1  1  0  0  0
  2  3  1  0  0  0
  3  4  1  0  0  0
  4  5  1  0  0  0
  5  6  1  0  0  0
  6  7  1  0  0  0
  7  8  1  0  0  0
  8  9  1  0  0  0
  9 10  2  0  0  0
 10 11  1  0  0  0
 11 12  2  0  0  0
 11 13  1  0  0  0
 13 14  1  0  0  0
 14 15  1  0  0  0
 15 16  1  0  0  0
  6 17  1  0  0  0
 17 18  1  0  0  0
 18 19  1  0  0  0
 19 20  1  0  0  0
 20 21  1  0  0  0
 17  2  1  0  0  0
 20  2  1  0  0  0
 15  5  1  0  0  0
 15  9  1  0  0  0
 21 22  1  0  0  0
M  END
> <minimizedAffinity>
-2.88957

> <CNNscore>
0.3914722800

> <CNNaffinity>
4.6557931900

> <CNN_VS>
1.8226139545

> <CNNaffinity_variance>
0.5201585889

$$$$
[H]O[C@@]1([H])C([H])([H])C([H])([H])[C@]2([H])[C@]1(C([H])([H])[H])C([H])([H])C([H])([H])[C@]1([H])[C@]3(C([H])([H])[H])C(=C([H])C(=O)C([H])([H])C3([H])[H])C([H])([H])C([H])([H])[C@@]21[H]


 22 25  0  0  0  0  0  0  0  0999 V2000
  -12.4650   -8.4850    9.7828 C   0  0  0  0  0  0  0  0  0  0  0  0
  -12.6862   -7.0775    9.2971 C   0  0  0  0  0  0  0  0  0  0  0  0
  -14.0654   -6.5831    9.5697 C   0  0  0  0  0  0  0  0  0  0  0  0
  -15.0345   -7.4215    8.7739 C   0  0  0  0  0  0  0  0  0  0  0  0
  -14.7655   -7.2384    7.2951 C   0  0  0  0  0  0  0  0  0  0  0  0
  -13.3398   -7.6467    6.9304 C   0  0  0  0  0  0  0  0  0  0  0  0
  -13.0704   -7.1311    5.5234 C   0  0  0  0  0  0  0  0  0  0  0  0
  -14.0739   -7.5913    4.5277 C   0  0  0  0  0  0  0  0  0  0  0  0
  -15.4604   -7.6069    5.0175 C   0  0  0  0  0  0  0  0  0  0  0  0
  -16.4212   -7.2948    4.1637 C   0  0  0  0  0  0  0  0  0  0  0  0
  -17.8203   -7.2782    4.5386 C   0  0  0  0  0  0  0  0  0  0  0  0
  -18.6959   -6.6822    3.8778 O   0  0  0  0  0  0  0  0  0  0  0  0
  -18.1731   -8.0331    5.7938 C   0  0  0  0  0  0  0  0  0  0  0  0
  -17.1492   -7.6140    6.8292 C   0  0  0  0  0  0  0  0  0  0  0  0
  -15.7468   -7.9676    6.4395 C   0  0  0  0  0  0  0  0  0  0  0  0
  -15.5886   -9.4692    6.5665 C   0  0  0  0  0  0  0  0  0  0  0  0
  -12.4116   -6.9247    7.8174 C   0  0  0  0  0  0  0  0  0  0  0  0
  -10.9808   -7.3091    7.7408 C   0  0  0  0  0  0  0  0  0  0  0  0
  -10.4024   -6.6417    8.9911 C   0  0  0  0  0  0  0  0  0  0  0  0
  -11.5974   -6.1422    9.7796 C   0  0  0  0  0  0  0  0  0  0  0  0
  -11.4138   -6.1296   11.1203 O   0  0  0  0  0  0  0  0  0  0  0  0
  -11.4988   -6.9756   11.5901 H   0  0  0  0  0  0  0  0  0  0  0  0
  2  1  1  0  0  0
  2  3  1  0  0  0
  3  4  1  0  0  0
  4  5  1  0  0  0
  5  6  1  0  0  0
  6  7  1  0  0  0
  7  8  1  0  0  0
  8  9  1  0  0  0
  9 10  2  0  0  0
 10 11  1  0  0  0
 11 12  2  0  0  0
 11 13  1  0  0  0
 13 14  1  0  0  0
 14 15  1  0  0  0
 15 16  1  0  0  0
  6 17  1  0  0  0
 17 18  1  0  0  0
 18 19  1  0  0  0
 19 20  1  0  0  0
 20 21  1  0  0  0
 17  2  1  0  0  0
 20  2  1  0  0  0
 15  5  1  0  0  0
 15  9  1  0  0  0
 21 22  1  0  0  0
M  END
> <minimizedAffinity>
-3.05394

> <CNNscore>
0.2936340570

> <CNNaffinity>
5.8779778481

> <CNN_VS>
1.7259744406

> <CNNaffinity_variance>
0.0463211462

$$$$
[H]O[C@@]1([H])C([H])([H])C([H])([H])[C@]2([H])[C@]1(C([H])([H])[H])C([H])([H])C([H])([H])[C@]1([H])[C@]3(C([H])([H])[H])C(=C([H])C(=O)C([H])([H])C3([H])[H])C([H])([H])C([H])([H])[C@@]21[H]


 22 25  0  0  0  0  0  0  0  0999 V2000
  -14.5580   -6.2214    6.2782 C   0  0  0  0  0  0  0  0  0  0  0  0
  -14.5710   -7.3688    7.2524 C   0  0  0  0  0  0  0  0  0  0  0  0
  -13.9258   -7.0295    8.5522 C   0  0  0  0  0  0  0  0  0  0  0  0
  -12.4640   -6.7573    8.2980 C   0  0  0  0  0  0  0  0  0  0  0  0
  -11.8005   -8.0118    7.7701 C   0  0  0  0  0  0  0  0  0  0  0  0
  -12.4506   -8.4854    6.4719 C   0  0  0  0  0  0  0  0  0  0  0  0
  -11.9431   -9.8955    6.2032 C   0  0  0  0  0  0  0  0  0  0  0  0
  -10.4597   -9.9892    6.1722 C   0  0  0  0  0  0  0  0  0  0  0  0
   -9.7731   -9.1760    7.1870 C   0  0  0  0  0  0  0  0  0  0  0  0
   -8.6663   -9.6625    7.7237 C   0  0  0  0  0  0  0  0  0  0  0  0
   -7.9103   -8.9470    8.7311 C   0  0  0  0  0  0  0  0  0  0  0  0
   -7.0787   -9.5003    9.4799 O   0  0  0  0  0  0  0  0  0  0  0  0
   -8.1846   -7.4690    8.8319 C   0  0  0  0  0  0  0  0  0  0  0  0
   -9.6933   -7.3282    8.8343 C   0  0  0  0  0  0  0  0  0  0  0  0
  -10.3296   -7.8460    7.5810 C   0  0  0  0  0  0  0  0  0  0  0  0
  -10.0181   -6.8748    6.4604 C   0  0  0  0  0  0  0  0  0  0  0  0
  -13.9009   -8.6070    6.6993 C   0  0  0  0  0  0  0  0  0  0  0  0
  -14.7410   -8.8920    5.5103 C   0  0  0  0  0  0  0  0  0  0  0  0
  -16.1495   -8.6064    6.0374 C   0  0  0  0  0  0  0  0  0  0  0  0
  -15.9562   -7.9635    7.3969 C   0  0  0  0  0  0  0  0  0  0  0  0
  -16.9211   -7.0773    7.7359 O   0  0  0  0  0  0  0  0  0  0  0  0
  -16.8687   -6.1895    7.3449 H   0  0  0  0  0  0  0  0  0  0  0  0
  2  1  1  0  0  0
  2  3  1  0  0  0
  3  4  1  0  0  0
  4  5  1  0  0  0
  5  6  1  0  0  0
  6  7  1  0  0  0
  7  8  1  0  0  0
  8  9  1  0  0  0
  9 10  2  0  0  0
 10 11  1  0  0  0
 11 12  2  0  0  0
 11 13  1  0  0  0
 13 14  1  0  0  0
 14 15  1  0  0  0
 15 16  1  0  0  0
  6 17  1  0  0  0
 17 18  1  0  0  0
 18 19  1  0  0  0
 19 20  1  0  0  0
 20 21  1  0  0  0
 17  2  1  0  0  0
 20  2  1  0  0  0
 15  5  1  0  0  0
 15  9  1  0  0  0
 21 22  1  0  0  0
M  END
> <minimizedAffinity>
-3.22373

> <CNNscore>
0.2778313160

> <CNNaffinity>
5.8950829506

> <CNN_VS>
1.6378386021

> <CNNaffinity_variance>
0.1460802257

$$$$
[H]O[C@@]1([H])C([H])([H])C([H])([H])[C@]2([H])[C@]1(C([H])([H])[H])C([H])([H])C([H])([H])[C@]1([H])[C@]3(C([H])([H])[H])C(=C([H])C(=O)C([H])([H])C3([H])[H])C([H])([H])C([H])([H])[C@@]21[H]


 22 25  0  0  0  0  0  0  0  0999 V2000
   -8.3668   -6.9481    6.5535 C   0  0  0  0  0  0  0  0  0  0  0  0
   -7.7732   -8.0597    7.3769 C   0  0  0  0  0  0  0  0  0  0  0  0
   -7.6829   -7.7201    8.8252 C   0  0  0  0  0  0  0  0  0  0  0  0
   -6.7206   -6.5691    8.9821 C   0  0  0  0  0  0  0  0  0  0  0  0
   -5.3421   -6.9966    8.5243 C   0  0  0  0  0  0  0  0  0  0  0  0
   -5.3501   -7.4416    7.0634 C   0  0  0  0  0  0  0  0  0  0  0  0
   -4.0248   -8.1432    6.7999 C   0  0  0  0  0  0  0  0  0  0  0  0
   -2.8417   -7.3103    7.1419 C   0  0  0  0  0  0  0  0  0  0  0  0
   -2.9855   -6.5178    8.3723 C   0  0  0  0  0  0  0  0  0  0  0  0
   -1.9121   -6.3460    9.1259 C   0  0  0  0  0  0  0  0  0  0  0  0
   -1.9397   -5.5841   10.3575 C   0  0  0  0  0  0  0  0  0  0  0  0
   -1.0599   -5.6797   11.2380 O   0  0  0  0  0  0  0  0  0  0  0  0
   -3.1097   -4.6499   10.5260 C   0  0  0  0  0  0  0  0  0  0  0  0
   -4.3382   -5.4554   10.1544 C   0  0  0  0  0  0  0  0  0  0  0  0
   -4.3135   -5.9364    8.7360 C   0  0  0  0  0  0  0  0  0  0  0  0
   -4.5488   -4.7436    7.8317 C   0  0  0  0  0  0  0  0  0  0  0  0
   -6.3967   -8.4647    6.8981 C   0  0  0  0  0  0  0  0  0  0  0  0
   -6.6841   -8.9072    5.5116 C   0  0  0  0  0  0  0  0  0  0  0  0
   -8.0019   -9.6665    5.6842 C   0  0  0  0  0  0  0  0  0  0  0  0
   -8.4556   -9.3835    7.1031 C   0  0  0  0  0  0  0  0  0  0  0  0
   -9.7989   -9.3735    7.2665 O   0  0  0  0  0  0  0  0  0  0  0  0
  -10.2760   -8.5739    6.9892 H   0  0  0  0  0  0  0  0  0  0  0  0
  2  1  1  0  0  0
  2  3  1  0  0  0
  3  4  1  0  0  0
  4  5  1  0  0  0
  5  6  1  0  0  0
  6  7  1  0  0  0
  7  8  1  0  0  0
  8  9  1  0  0  0
  9 10  2  0  0  0
 10 11  1  0  0  0
 11 12  2  0  0  0
 11 13  1  0  0  0
 13 14  1  0  0  0
 14 15  1  0  0  0
 15 16  1  0  0  0
  6 17  1  0  0  0
 17 18  1  0  0  0
 18 19  1  0  0  0
 19 20  1  0  0  0
 20 21  1  0  0  0
 17  2  1  0  0  0
 20  2  1  0  0  0
 15  5  1  0  0  0
 15  9  1  0  0  0
 21 22  1  0  0  0
M  END
> <minimizedAffinity>
-3.68310

> <CNNscore>
0.2733127773

> <CNNaffinity>
4.7887039185

> <CNN_VS>
1.3088139296

> <CNNaffinity_variance>
0.3198738694

$$$$
[H]O[C@@]1([H])C([H])([H])C([H])([H])[C@]2([H])[C@]1(C([H])([H])[H])C([H])([H])C([H])([H])[C@]1([H])[C@]3(C([H])([H])[H])C(=C([H])C(=O)C([H])([H])C3([H])[H])C([H])([H])C([H])([H])[C@@]21[H]


 22 25  0  0  0  0  0  0  0  0999 V2000
  -12.6670   -6.9115    7.6170 C   0  0  0  0  0  0  0  0  0  0  0  0
  -11.9899   -7.7059    8.7015 C   0  0  0  0  0  0  0  0  0  0  0  0
  -11.0483   -6.8860    9.5152 C   0  0  0  0  0  0  0  0  0  0  0  0
   -9.9263   -6.4248    8.6186 C   0  0  0  0  0  0  0  0  0  0  0  0
   -9.1622   -7.6272    8.1058 C   0  0  0  0  0  0  0  0  0  0  0  0
  -10.0681   -8.5735    7.3209 C   0  0  0  0  0  0  0  0  0  0  0  0
   -9.3027   -9.8762    7.1332 C   0  0  0  0  0  0  0  0  0  0  0  0
   -7.9736   -9.6890    6.4940 C   0  0  0  0  0  0  0  0  0  0  0  0
   -7.2373   -8.4999    6.9484 C   0  0  0  0  0  0  0  0  0  0  0  0
   -5.9211   -8.5876    7.0459 C   0  0  0  0  0  0  0  0  0  0  0  0
   -5.0975   -7.4790    7.4827 C   0  0  0  0  0  0  0  0  0  0  0  0
   -3.9285   -7.6204    7.8973 O   0  0  0  0  0  0  0  0  0  0  0  0
   -5.7371   -6.1168    7.4099 C   0  0  0  0  0  0  0  0  0  0  0  0
   -7.1128   -6.2731    8.0256 C   0  0  0  0  0  0  0  0  0  0  0  0
   -7.9773   -7.2451    7.2830 C   0  0  0  0  0  0  0  0  0  0  0  0
   -8.3915   -6.6012    5.9754 C   0  0  0  0  0  0  0  0  0  0  0  0
  -11.2338   -8.8991    8.1605 C   0  0  0  0  0  0  0  0  0  0  0  0
  -12.3237   -9.6733    7.5174 C   0  0  0  0  0  0  0  0  0  0  0  0
  -13.4635   -9.5219    8.5280 C   0  0  0  0  0  0  0  0  0  0  0  0
  -12.9893   -8.4865    9.5292 C   0  0  0  0  0  0  0  0  0  0  0  0
  -13.9805   -7.7421   10.0719 O   0  0  0  0  0  0  0  0  0  0  0  0
  -14.3357   -7.0137    9.5361 H   0  0  0  0  0  0  0  0  0  0  0  0
  2  1  1  0  0  0
  2  3  1  0  0  0
  3  4  1  0  0  0
  4  5  1  0  0  0
  5  6  1  0  0  0
  6  7  1  0  0  0
  7  8  1  0  0  0
  8  9  1  0  0  0
  9 10  2  0  0  0
 10 11  1  0  0  0
 11 12  2  0  0  0
 11 13  1  0  0  0
 13 14  1  0  0  0
 14 15  1  0  0  0
 15 16  1  0  0  0
  6 17  1  0  0  0
 17 18  1  0  0  0
 18 19  1  0  0  0
 19 20  1  0  0  0
 20 21  1  0  0  0
 17  2  1  0  0  0
 20  2  1  0  0  0
 15  5  1  0  0  0
 15  9  1  0  0  0
 21 22  1  0  0  0
M  END
> <minimizedAffinity>
-8.11403

> <CNNscore>
0.2139657885

> <CNNaffinity>
5.6149263382

> <CNN_VS>
1.2014021873

> <CNNaffinity_variance>
0.1110141501

$$$$
[H]O[C@@]1([H])C([H])([H])C([H])([H])[C@]2([H])[C@]1(C([H])([H])[H])C([H])([H])C([H])([H])[C@]1([H])[C@]3(C([H])([H])[H])C(=C([H])C(=O)C([H])([H])C3([H])[H])C([H])([H])C([H])([H])[C@@]21[H]


 22 25  0  0  0  0  0  0  0  0999 V2000
   -7.6562   -7.6179    9.1997 C   0  0  0  0  0  0  0  0  0  0  0  0
   -8.0195   -7.3643    7.7610 C   0  0  0  0  0  0  0  0  0  0  0  0
   -8.9396   -6.2040    7.5941 C   0  0  0  0  0  0  0  0  0  0  0  0
  -10.2475   -6.5365    8.2682 C   0  0  0  0  0  0  0  0  0  0  0  0
  -10.8818   -7.7276    7.5814 C   0  0  0  0  0  0  0  0  0  0  0  0
   -9.9717   -8.9530    7.6312 C   0  0  0  0  0  0  0  0  0  0  0  0
  -10.5402   -9.9752    6.6565 C   0  0  0  0  0  0  0  0  0  0  0  0
  -11.9660  -10.3055    6.9180 C   0  0  0  0  0  0  0  0  0  0  0  0
  -12.8012   -9.1566    7.2989 C   0  0  0  0  0  0  0  0  0  0  0  0
  -14.0548   -9.1370    6.8774 C   0  0  0  0  0  0  0  0  0  0  0  0
  -14.9651   -8.0554    7.1931 C   0  0  0  0  0  0  0  0  0  0  0  0
  -16.0169   -7.8418    6.5554 O   0  0  0  0  0  0  0  0  0  0  0  0
  -14.5696   -7.1820    8.3553 C   0  0  0  0  0  0  0  0  0  0  0  0
  -13.1071   -6.8480    8.1420 C   0  0  0  0  0  0  0  0  0  0  0  0
  -12.2267   -8.0598    8.1360 C   0  0  0  0  0  0  0  0  0  0  0  0
  -12.1309   -8.5774    9.5569 C   0  0  0  0  0  0  0  0  0  0  0  0
   -8.6519   -8.5697    7.1014 C   0  0  0  0  0  0  0  0  0  0  0  0
   -7.5675   -9.5752    7.2207 C   0  0  0  0  0  0  0  0  0  0  0  0
   -6.3219   -8.7411    6.9113 C   0  0  0  0  0  0  0  0  0  0  0  0
   -6.7912   -7.2997    6.8777 C   0  0  0  0  0  0  0  0  0  0  0  0
   -5.8581   -6.4011    7.2689 O   0  0  0  0  0  0  0  0  0  0  0  0
   -5.7118   -6.2969    8.2236 H   0  0  0  0  0  0  0  0  0  0  0  0
  2  1  1  0  0  0
  2  3  1  0  0  0
  3  4  1  0  0  0
  4  5  1  0  0  0
  5  6  1  0  0  0
  6  7  1  0  0  0
  7  8  1  0  0  0
  8  9  1  0  0  0
  9 10  2  0  0  0
 10 11  1  0  0  0
 11 12  2  0  0  0
 11 13  1  0  0  0
 13 14  1  0  0  0
 14 15  1  0  0  0
 15 16  1  0  0  0
  6 17  1  0  0  0
 17 18  1  0  0  0
 18 19  1  0  0  0
 19 20  1  0  0  0
 20 21  1  0  0  0
 17  2  1  0  0  0
 20  2  1  0  0  0
 15  5  1  0  0  0
 15  9  1  0  0  0
 21 22  1  0  0  0
M  END
> <minimizedAffinity>
-8.85606

> <CNNscore>
0.2109203935

> <CNNaffinity>
5.7804279327

> <CNN_VS>
1.2192101479

> <CNNaffinity_variance>
0.0578450337

$$$$
[H]OC(=O)C([H])([H])C([H])([H])[C@@]([H])(C([H])([H])[H])[C@@]1([H])C([H])([H])C([H])([H])[C@]2([H])[C@]1(C([H])([H])[H])C([H])([H])C([H])([H])[C@]1([H])[C@@]3(C([H])([H])[H])C([H])([H])C([H])([H])C([H])(N(C([H])([H])[H])C([H])([H])[H])C([H])([H])[C@@]3([H])C([H])([H])[C@@]([H])(O[H])[C@]12[H]


 32 35  0  0  0  0  0  0  0  0999 V2000
  -10.8067   -7.8729    7.5603 C   0  0  0  0  0  0  0  0  0  0  0  0
  -10.7602   -9.0144    8.5224 C   0  0  0  0  0  0  0  0  0  0  0  0
   -9.2769   -9.2196    8.8633 C   0  0  0  0  0  0  0  0  0  0  0  0
   -8.6438   -8.0125    8.2433 C   0  0  0  0  0  0  0  0  0  0  0  0
   -7.1897   -8.0828    8.0131 C   0  0  0  0  0  0  0  0  0  0  0  0
   -6.5348   -8.1132    9.4047 C   0  0  0  0  0  0  0  0  0  0  0  0
   -7.3189   -7.3464   10.2550 O   0  0  0  0  0  0  0  0  0  0  0  0
   -5.1370   -7.5456    9.3473 C   0  0  0  0  0  0  0  0  0  0  0  0
   -4.5670   -7.7443    7.9387 C   0  0  0  0  0  0  0  0  0  0  0  0
   -3.0811   -7.6076    7.9226 C   0  0  0  0  0  0  0  0  0  0  0  0
   -2.5659   -6.3129    7.4189 C   0  0  0  0  0  0  0  0  0  0  0  0
   -3.5738   -5.1974    7.4706 C   0  0  0  0  0  0  0  0  0  0  0  0
   -4.7643   -5.5848    6.6613 C   0  0  0  0  0  0  0  0  0  0  0  0
   -5.3080   -6.9524    6.9212 C   0  0  0  0  0  0  0  0  0  0  0  0
   -5.2856   -7.7405    5.6070 C   0  0  0  0  0  0  0  0  0  0  0  0
   -6.7503   -6.8065    7.3615 C   0  0  0  0  0  0  0  0  0  0  0  0
   -7.6007   -6.3325    6.2473 C   0  0  0  0  0  0  0  0  0  0  0  0
   -9.0405   -6.6321    6.2932 C   0  0  0  0  0  0  0  0  0  0  0  0
   -9.4427   -7.9291    6.9250 C   0  0  0  0  0  0  0  0  0  0  0  0
   -9.1958   -9.1261    6.0731 C   0  0  0  0  0  0  0  0  0  0  0  0
   -6.8226   -6.5561   10.6146 H   0  0  0  0  0  0  0  0  0  0  0  0
   -1.3507   -5.8640    8.1031 N   0  0  0  0  0  0  0  0  0  0  0  0
   -1.3750   -4.4721    8.4478 C   0  0  0  0  0  0  0  0  0  0  0  0
   -1.1336   -6.7170    9.2586 C   0  0  0  0  0  0  0  0  0  0  0  0
  -12.0618   -6.2627    6.2727 C   0  0  0  0  0  0  0  0  0  0  0  0
  -11.9780   -7.7391    6.7190 C   0  0  0  0  0  0  0  0  0  0  0  0
  -13.3143   -8.0422    7.3197 C   0  0  0  0  0  0  0  0  0  0  0  0
  -13.6394   -9.5025    6.9433 C   0  0  0  0  0  0  0  0  0  0  0  0
  -14.2303  -10.1775    8.1536 C   0  0  0  0  0  0  0  0  0  0  0  0
  -14.8586  -11.3947    7.9376 O   0  0  0  0  0  0  0  0  0  0  0  0
  -14.1544   -9.6610    9.2933 O   0  0  0  0  0  0  0  0  0  0  0  0
  -15.4826  -11.5525    7.1499 H   0  0  0  0  0  0  0  0  0  0  0  0
 25 26  1  0  0  0
 26 27  1  0  0  0
 27 28  1  0  0  0
 28 29  1  0  0  0
 29 30  1  0  0  0
 29 31  2  0  0  0
 26  1  1  0  0  0
  1  2  1  0  0  0
  2  3  1  0  0  0
  3  4  1  0  0  0
  4  5  1  0  0  0
  5  6  1  0  0  0
  6  7  1  0  0  0
  6  8  1  0  0  0
  8  9  1  0  0  0
  9 10  1  0  0  0
 10 11  1  0  0  0
 11 12  1  0  0  0
 12 13  1  0  0  0
 13 14  1  0  0  0
 14 15  1  0  0  0
 14 16  1  0  0  0
 16 17  1  0  0  0
 17 18  1  0  0  0
 18 19  1  0  0  0
 19 20  1  0  0  0
 11 22  1  0  0  0
 22 23  1  0  0  0
 22 24  1  0  0  0
 19  1  1  0  0  0
 19  4  1  0  0  0
 16  5  1  0  0  0
 14  9  1  0  0  0
 30 32  1  0  0  0
  7 21  1  0  0  0
M  END
> <minimizedAffinity>
7.09820

> <CNNscore>
0.4721966982

> <CNNaffinity>
6.6074628830

> <CNN_VS>
3.1200220585

> <CNNaffinity_variance>
1.7871459723

$$$$
[H]OC(=O)C([H])([H])C([H])([H])[C@@]([H])(C([H])([H])[H])[C@@]1([H])C([H])([H])C([H])([H])[C@]2([H])[C@]1(C([H])([H])[H])C([H])([H])C([H])([H])[C@]1([H])[C@@]3(C([H])([H])[H])C([H])([H])C([H])([H])C([H])(N(C([H])([H])[H])C([H])([H])[H])C([H])([H])[C@@]3([H])C([H])([H])[C@@]([H])(O[H])[C@]12[H]


 32 35  0  0  0  0  0  0  0  0999 V2000
  -16.8762   -5.9697    3.9824 C   0  0  0  0  0  0  0  0  0  0  0  0
  -17.7098   -7.1964    3.8061 C   0  0  0  0  0  0  0  0  0  0  0  0
  -17.3112   -8.1455    4.9457 C   0  0  0  0  0  0  0  0  0  0  0  0
  -16.4578   -7.2633    5.8033 C   0  0  0  0  0  0  0  0  0  0  0  0
  -15.5686   -7.9450    6.7609 C   0  0  0  0  0  0  0  0  0  0  0  0
  -16.4861   -8.6152    7.7979 C   0  0  0  0  0  0  0  0  0  0  0  0
  -17.6009   -7.8044    7.9588 O   0  0  0  0  0  0  0  0  0  0  0  0
  -15.7716   -8.7702    9.1189 C   0  0  0  0  0  0  0  0  0  0  0  0
  -14.2623   -8.8621    8.8706 C   0  0  0  0  0  0  0  0  0  0  0  0
  -13.5454   -9.4347   10.0475 C   0  0  0  0  0  0  0  0  0  0  0  0
  -12.8496   -8.4513   10.9100 C   0  0  0  0  0  0  0  0  0  0  0  0
  -13.3638   -7.0452   10.7638 C   0  0  0  0  0  0  0  0  0  0  0  0
  -13.2152   -6.6225    9.3420 C   0  0  0  0  0  0  0  0  0  0  0  0
  -13.7100   -7.5953    8.3211 C   0  0  0  0  0  0  0  0  0  0  0  0
  -12.5463   -7.9560    7.3915 C   0  0  0  0  0  0  0  0  0  0  0  0
  -14.7783   -6.9059    7.4972 C   0  0  0  0  0  0  0  0  0  0  0  0
  -14.1946   -5.8350    6.6595 C   0  0  0  0  0  0  0  0  0  0  0  0
  -14.9170   -5.4295    5.4434 C   0  0  0  0  0  0  0  0  0  0  0  0
  -15.6725   -6.4988    4.7160 C   0  0  0  0  0  0  0  0  0  0  0  0
  -14.8128   -7.4245    3.9263 C   0  0  0  0  0  0  0  0  0  0  0  0
  -17.6782   -7.4512    8.8913 H   0  0  0  0  0  0  0  0  0  0  0  0
  -12.8758   -8.8028   12.3320 N   0  0  0  0  0  0  0  0  0  0  0  0
  -12.4913   -7.7206   13.1911 C   0  0  0  0  0  0  0  0  0  0  0  0
  -14.1942   -9.3220   12.6516 C   0  0  0  0  0  0  0  0  0  0  0  0
  -15.5927   -4.0789    3.2053 C   0  0  0  0  0  0  0  0  0  0  0  0
  -16.6868   -5.1049    2.8362 C   0  0  0  0  0  0  0  0  0  0  0  0
  -17.8500   -4.2858    2.3728 C   0  0  0  0  0  0  0  0  0  0  0  0
  -17.3617   -2.8231    2.3279 C   0  0  0  0  0  0  0  0  0  0  0  0
  -17.6340   -2.2808    0.9490 C   0  0  0  0  0  0  0  0  0  0  0  0
  -16.8408   -1.2221    0.5333 O   0  0  0  0  0  0  0  0  0  0  0  0
  -18.5315   -2.7657    0.2205 O   0  0  0  0  0  0  0  0  0  0  0  0
  -16.6144   -0.4399    1.1429 H   0  0  0  0  0  0  0  0  0  0  0  0
 25 26  1  0  0  0
 26 27  1  0  0  0
 27 28  1  0  0  0
 28 29  1  0  0  0
 29 30  1  0  0  0
 29 31  2  0  0  0
 26  1  1  0  0  0
  1  2  1  0  0  0
  2  3  1  0  0  0
  3  4  1  0  0  0
  4  5  1  0  0  0
  5  6  1  0  0  0
  6  7  1  0  0  0
  6  8  1  0  0  0
  8  9  1  0  0  0
  9 10  1  0  0  0
 10 11  1  0  0  0
 11 12  1  0  0  0
 12 13  1  0  0  0
 13 14  1  0  0  0
 14 15  1  0  0  0
 14 16  1  0  0  0
 16 17  1  0  0  0
 17 18  1  0  0  0
 18 19  1  0  0  0
 19 20  1  0  0  0
 11 22  1  0  0  0
 22 23  1  0  0  0
 22 24  1  0  0  0
 19  1  1  0  0  0
 19  4  1  0  0  0
 16  5  1  0  0  0
 14  9  1  0  0  0
 30 32  1  0  0  0
  7 21  1  0  0  0
M  END
> <minimizedAffinity>
18.69888

> <CNNscore>
0.4482703805

> <CNNaffinity>
6.9340629578

> <CNN_VS>
3.1083350182

> <CNNaffinity_variance>
0.4991556704

$$$$
[H]OC(=O)C([H])([H])C([H])([H])[C@@]([H])(C([H])([H])[H])[C@@]1([H])C([H])([H])C([H])([H])[C@]2([H])[C@]1(C([H])([H])[H])C([H])([H])C([H])([H])[C@]1([H])[C@@]3(C([H])([H])[H])C([H])([H])C([H])([H])C([H])(N(C([H])([H])[H])C([H])([H])[H])C([H])([H])[C@@]3([H])C([H])([H])[C@@]([H])(O[H])[C@]12[H]


 32 35  0  0  0  0  0  0  0  0999 V2000
   -8.0147   -8.2560    8.2393 C   0  0  0  0  0  0  0  0  0  0  0  0
   -7.8185   -6.8310    8.6412 C   0  0  0  0  0  0  0  0  0  0  0  0
   -9.2082   -6.1802    8.5826 C   0  0  0  0  0  0  0  0  0  0  0  0
  -10.1006   -7.3662    8.3839 C   0  0  0  0  0  0  0  0  0  0  0  0
  -11.4541   -7.0870    7.8716 C   0  0  0  0  0  0  0  0  0  0  0  0
  -12.1844   -6.3150    8.9838 C   0  0  0  0  0  0  0  0  0  0  0  0
  -11.7161   -6.7886   10.2013 O   0  0  0  0  0  0  0  0  0  0  0  0
  -13.6757   -6.5312    8.8904 C   0  0  0  0  0  0  0  0  0  0  0  0
  -14.0523   -6.8428    7.4380 C   0  0  0  0  0  0  0  0  0  0  0  0
  -15.5112   -6.6451    7.1940 C   0  0  0  0  0  0  0  0  0  0  0  0
  -16.3244   -7.8830    7.1570 C   0  0  0  0  0  0  0  0  0  0  0  0
  -15.6749   -9.0562    7.8386 C   0  0  0  0  0  0  0  0  0  0  0  0
  -14.3625   -9.3277    7.1858 C   0  0  0  0  0  0  0  0  0  0  0  0
  -13.4820   -8.1378    6.9803 C   0  0  0  0  0  0  0  0  0  0  0  0
  -13.1781   -8.0126    5.4834 C   0  0  0  0  0  0  0  0  0  0  0  0
  -12.1778   -8.3895    7.7090 C   0  0  0  0  0  0  0  0  0  0  0  0
  -11.4064   -9.4720    7.0591 C   0  0  0  0  0  0  0  0  0  0  0  0
   -9.9487   -9.5044    7.2566 C   0  0  0  0  0  0  0  0  0  0  0  0
   -9.2532   -8.1843    7.3861 C   0  0  0  0  0  0  0  0  0  0  0  0
   -9.0874   -7.4524    6.0990 C   0  0  0  0  0  0  0  0  0  0  0  0
  -12.4402   -7.2158   10.7429 H   0  0  0  0  0  0  0  0  0  0  0  0
  -17.6676   -7.7142    7.7172 N   0  0  0  0  0  0  0  0  0  0  0  0
  -18.2739   -6.4617    7.3698 C   0  0  0  0  0  0  0  0  0  0  0  0
  -18.4776   -8.8515    7.3167 C   0  0  0  0  0  0  0  0  0  0  0  0
   -6.8421  -10.3498    8.4987 C   0  0  0  0  0  0  0  0  0  0  0  0
   -6.8633   -8.9929    7.7608 C   0  0  0  0  0  0  0  0  0  0  0  0
   -5.5068   -8.4038    7.9873 C   0  0  0  0  0  0  0  0  0  0  0  0
   -5.6234   -6.9022    7.6531 C   0  0  0  0  0  0  0  0  0  0  0  0
   -4.4494   -6.1917    8.2748 C   0  0  0  0  0  0  0  0  0  0  0  0
   -4.7366   -5.0584    9.0204 O   0  0  0  0  0  0  0  0  0  0  0  0
   -3.2769   -6.6084    8.1226 O   0  0  0  0  0  0  0  0  0  0  0  0
   -5.4033   -4.3564    8.7081 H   0  0  0  0  0  0  0  0  0  0  0  0
 25 26  1  0  0  0
 26 27  1  0  0  0
 27 28  1  0  0  0
 28 29  1  0  0  0
 29 30  1  0  0  0
 29 31  2  0  0  0
 26  1  1  0  0  0
  1  2  1  0  0  0
  2  3  1  0  0  0
  3  4  1  0  0  0
  4  5  1  0  0  0
  5  6  1  0  0  0
  6  7  1  0  0  0
  6  8  1  0  0  0
  8  9  1  0  0  0
  9 10  1  0  0  0
 10 11  1  0  0  0
 11 12  1  0  0  0
 12 13  1  0  0  0
 13 14  1  0  0  0
 14 15  1  0  0  0
 14 16  1  0  0  0
 16 17  1  0  0  0
 17 18  1  0  0  0
 18 19  1  0  0  0
 19 20  1  0  0  0
 11 22  1  0  0  0
 22 23  1  0  0  0
 22 24  1  0  0  0
 19  1  1  0  0  0
 19  4  1  0  0  0
 16  5  1  0  0  0
 14  9  1  0  0  0
 30 32  1  0  0  0
  7 21  1  0  0  0
M  END
> <minimizedAffinity>
0.71196

> <CNNscore>
0.4339646101

> <CNNaffinity>
6.9712271690

> <CNN_VS>
3.0252659321

> <CNNaffinity_variance>
1.0150731802

$$$$
[H]OC(=O)C([H])([H])C([H])([H])[C@@]([H])(C([H])([H])[H])[C@@]1([H])C([H])([H])C([H])([H])[C@]2([H])[C@]1(C([H])([H])[H])C([H])([H])C([H])([H])[C@]1([H])[C@@]3(C([H])([H])[H])C([H])([H])C([H])([H])C([H])(N(C([H])([H])[H])C([H])([H])[H])C([H])([H])[C@@]3([H])C([H])([H])[C@@]([H])(O[H])[C@]12[H]


 32 35  0  0  0  0  0  0  0  0999 V2000
   -5.0130   -6.6859    9.6664 C   0  0  0  0  0  0  0  0  0  0  0  0
   -6.1626   -6.9928   10.5691 C   0  0  0  0  0  0  0  0  0  0  0  0
   -7.1746   -7.7706    9.7151 C   0  0  0  0  0  0  0  0  0  0  0  0
   -6.3901   -8.0394    8.4683 C   0  0  0  0  0  0  0  0  0  0  0  0
   -7.1697   -8.4009    7.2708 C   0  0  0  0  0  0  0  0  0  0  0  0
   -7.7945   -9.7759    7.5631 C   0  0  0  0  0  0  0  0  0  0  0  0
   -6.9017  -10.4831    8.3560 O   0  0  0  0  0  0  0  0  0  0  0  0
   -8.0461  -10.5295    6.2793 C   0  0  0  0  0  0  0  0  0  0  0  0
   -8.2519   -9.5292    5.1368 C   0  0  0  0  0  0  0  0  0  0  0  0
   -8.9156  -10.1659    3.9616 C   0  0  0  0  0  0  0  0  0  0  0  0
   -8.0178  -10.5198    2.8373 C   0  0  0  0  0  0  0  0  0  0  0  0
   -6.5710  -10.6409    3.2313 C   0  0  0  0  0  0  0  0  0  0  0  0
   -6.1192   -9.3450    3.8132 C   0  0  0  0  0  0  0  0  0  0  0  0
   -7.0179   -8.7508    4.8489 C   0  0  0  0  0  0  0  0  0  0  0  0
   -7.4432   -7.3556    4.3787 C   0  0  0  0  0  0  0  0  0  0  0  0
   -6.2202   -8.5968    6.1278 C   0  0  0  0  0  0  0  0  0  0  0  0
   -5.1752   -7.5597    5.9805 C   0  0  0  0  0  0  0  0  0  0  0  0
   -4.6765   -6.8954    7.1950 C   0  0  0  0  0  0  0  0  0  0  0  0
   -5.6592   -6.6893    8.3064 C   0  0  0  0  0  0  0  0  0  0  0  0
   -6.6271   -5.5820    8.0685 C   0  0  0  0  0  0  0  0  0  0  0  0
   -6.5714  -11.3120    7.9041 H   0  0  0  0  0  0  0  0  0  0  0  0
   -8.4084  -11.7506    2.1454 N   0  0  0  0  0  0  0  0  0  0  0  0
   -7.9788  -11.7935    0.7778 C   0  0  0  0  0  0  0  0  0  0  0  0
   -7.9221  -12.8828    2.9144 C   0  0  0  0  0  0  0  0  0  0  0  0
   -4.6124   -5.0496   11.3951 C   0  0  0  0  0  0  0  0  0  0  0  0
   -4.1323   -5.5959   10.0324 C   0  0  0  0  0  0  0  0  0  0  0  0
   -4.0766   -4.4031    9.1309 C   0  0  0  0  0  0  0  0  0  0  0  0
   -2.6120   -4.2802    8.6620 C   0  0  0  0  0  0  0  0  0  0  0  0
   -2.3305   -2.8270    8.3819 C   0  0  0  0  0  0  0  0  0  0  0  0
   -3.3168   -1.9241    8.7493 O   0  0  0  0  0  0  0  0  0  0  0  0
   -1.2590   -2.4596    7.8449 O   0  0  0  0  0  0  0  0  0  0  0  0
   -4.3040   -2.0957    8.5739 H   0  0  0  0  0  0  0  0  0  0  0  0
 25 26  1  0  0  0
 26 27  1  0  0  0
 27 28  1  0  0  0
 28 29  1  0  0  0
 29 30  1  0  0  0
 29 31  2  0  0  0
 26  1  1  0  0  0
  1  2  1  0  0  0
  2  3  1  0  0  0
  3  4  1  0  0  0
  4  5  1  0  0  0
  5  6  1  0  0  0
  6  7  1  0  0  0
  6  8  1  0  0  0
  8  9  1  0  0  0
  9 10  1  0  0  0
 10 11  1  0  0  0
 11 12  1  0  0  0
 12 13  1  0  0  0
 13 14  1  0  0  0
 14 15  1  0  0  0
 14 16  1  0  0  0
 16 17  1  0  0  0
 17 18  1  0  0  0
 18 19  1  0  0  0
 19 20  1  0  0  0
 11 22  1  0  0  0
 22 23  1  0  0  0
 22 24  1  0  0  0
 19  1  1  0  0  0
 19  4  1  0  0  0
 16  5  1  0  0  0
 14  9  1  0  0  0
 30 32  1  0  0  0
  7 21  1  0  0  0
M  END
> <minimizedAffinity>
18.26644

> <CNNscore>
0.4337640703

> <CNNaffinity>
5.9163460732

> <CNN_VS>
2.5662982464

> <CNNaffinity_variance>
1.0239143372

$$$$
[H]OC(=O)C([H])([H])C([H])([H])[C@@]([H])(C([H])([H])[H])[C@@]1([H])C([H])([H])C([H])([H])[C@]2([H])[C@]1(C([H])([H])[H])C([H])([H])C([H])([H])[C@]1([H])[C@@]3(C([H])([H])[H])C([H])([H])C([H])([H])C([H])(N(C([H])([H])[H])C([H])([H])[H])C([H])([H])[C@@]3([H])C([H])([H])[C@@]([H])(O[H])[C@]12[H]


 32 35  0  0  0  0  0  0  0  0999 V2000
   -5.0652   -4.4640   12.8455 C   0  0  0  0  0  0  0  0  0  0  0  0
   -4.0824   -3.4409   13.3125 C   0  0  0  0  0  0  0  0  0  0  0  0
   -3.2152   -3.0998   12.0919 C   0  0  0  0  0  0  0  0  0  0  0  0
   -3.9494   -3.7899   10.9842 C   0  0  0  0  0  0  0  0  0  0  0  0
   -3.1889   -4.0263    9.7440 C   0  0  0  0  0  0  0  0  0  0  0  0
   -2.9149   -2.6399    9.1365 C   0  0  0  0  0  0  0  0  0  0  0  0
   -3.9990   -1.8274    9.4374 O   0  0  0  0  0  0  0  0  0  0  0  0
   -2.7500   -2.7385    7.6390 C   0  0  0  0  0  0  0  0  0  0  0  0
   -2.2418   -4.1380    7.2764 C   0  0  0  0  0  0  0  0  0  0  0  0
   -1.6580   -4.1723    5.9035 C   0  0  0  0  0  0  0  0  0  0  0  0
   -2.5302   -4.7502    4.8546 C   0  0  0  0  0  0  0  0  0  0  0  0
   -3.9910   -4.7528    5.2138 C   0  0  0  0  0  0  0  0  0  0  0  0
   -4.1773   -5.5310    6.4716 C   0  0  0  0  0  0  0  0  0  0  0  0
   -3.2433   -5.1923    7.5880 C   0  0  0  0  0  0  0  0  0  0  0  0
   -2.4801   -6.4612    7.9831 C   0  0  0  0  0  0  0  0  0  0  0  0
   -4.0742   -4.7503    8.7753 C   0  0  0  0  0  0  0  0  0  0  0  0
   -4.8434   -5.8829    9.3365 C   0  0  0  0  0  0  0  0  0  0  0  0
   -5.2636   -5.8102   10.7448 C   0  0  0  0  0  0  0  0  0  0  0  0
   -4.3414   -5.1050   11.6912 C   0  0  0  0  0  0  0  0  0  0  0  0
   -3.1331   -5.8915   12.0667 C   0  0  0  0  0  0  0  0  0  0  0  0
   -4.4756   -1.5155    8.6154 H   0  0  0  0  0  0  0  0  0  0  0  0
   -2.3808   -4.1005    3.5500 N   0  0  0  0  0  0  0  0  0  0  0  0
   -2.3041   -2.6708    3.6336 C   0  0  0  0  0  0  0  0  0  0  0  0
   -1.2293   -4.6786    2.8793 C   0  0  0  0  0  0  0  0  0  0  0  0
   -5.8231   -6.7212   13.2417 C   0  0  0  0  0  0  0  0  0  0  0  0
   -5.6994   -5.3030   13.8413 C   0  0  0  0  0  0  0  0  0  0  0  0
   -7.0823   -4.9448   14.2859 C   0  0  0  0  0  0  0  0  0  0  0  0
   -7.9463   -4.8792   13.0096 C   0  0  0  0  0  0  0  0  0  0  0  0
   -9.3907   -5.0187   13.4144 C   0  0  0  0  0  0  0  0  0  0  0  0
  -10.3024   -5.2274   12.3906 O   0  0  0  0  0  0  0  0  0  0  0  0
   -9.7434   -4.9491   14.6153 O   0  0  0  0  0  0  0  0  0  0  0  0
  -10.2665   -4.7088   11.5162 H   0  0  0  0  0  0  0  0  0  0  0  0
 25 26  1  0  0  0
 26 27  1  0  0  0
 27 28  1  0  0  0
 28 29  1  0  0  0
 29 30  1  0  0  0
 29 31  2  0  0  0
 26  1  1  0  0  0
  1  2  1  0  0  0
  2  3  1  0  0  0
  3  4  1  0  0  0
  4  5  1  0  0  0
  5  6  1  0  0  0
  6  7  1  0  0  0
  6  8  1  0  0  0
  8  9  1  0  0  0
  9 10  1  0  0  0
 10 11  1  0  0  0
 11 12  1  0  0  0
 12 13  1  0  0  0
 13 14  1  0  0  0
 14 15  1  0  0  0
 14 16  1  0  0  0
 16 17  1  0  0  0
 17 18  1  0  0  0
 18 19  1  0  0  0
 19 20  1  0  0  0
 11 22  1  0  0  0
 22 23  1  0  0  0
 22 24  1  0  0  0
 19  1  1  0  0  0
 19  4  1  0  0  0
 16  5  1  0  0  0
 14  9  1  0  0  0
 30 32  1  0  0  0
  7 21  1  0  0  0
M  END
> <minimizedAffinity>
4.11581

> <CNNscore>
0.4313721657

> <CNNaffinity>
5.5342659950

> <CNN_VS>
2.3873283863

> <CNNaffinity_variance>
1.1507805586

$$$$
[H]OC(=O)C([H])([H])C([H])([H])[C@@]([H])(C([H])([H])[H])[C@@]1([H])C([H])([H])C([H])([H])[C@]2([H])[C@]1(C([H])([H])[H])C([H])([H])C([H])([H])[C@]1([H])[C@@]3(C([H])([H])[H])C([H])([H])C([H])([H])C([H])(N(C([H])([H])[H])C([H])([H])[H])C([H])([H])[C@@]3([H])C([H])([H])[C@@]([H])(O[H])[C@]12[H]


 32 35  0  0  0  0  0  0  0  0999 V2000
  -16.9970   -7.7579    4.2749 C   0  0  0  0  0  0  0  0  0  0  0  0
  -17.5653   -9.0597    4.7367 C   0  0  0  0  0  0  0  0  0  0  0  0
  -16.8414   -9.3952    6.0488 C   0  0  0  0  0  0  0  0  0  0  0  0
  -16.0996   -8.1253    6.3301 C   0  0  0  0  0  0  0  0  0  0  0  0
  -14.9785   -8.2205    7.2821 C   0  0  0  0  0  0  0  0  0  0  0  0
  -15.6026   -8.5411    8.6511 C   0  0  0  0  0  0  0  0  0  0  0  0
  -16.8371   -7.9098    8.7083 O   0  0  0  0  0  0  0  0  0  0  0  0
  -14.7197   -8.0398    9.7686 C   0  0  0  0  0  0  0  0  0  0  0  0
  -13.2658   -7.9994    9.2862 C   0  0  0  0  0  0  0  0  0  0  0  0
  -12.3090   -7.9329   10.4294 C   0  0  0  0  0  0  0  0  0  0  0  0
  -11.7409   -6.5931   10.7077 C   0  0  0  0  0  0  0  0  0  0  0  0
  -12.5562   -5.4601   10.1470 C   0  0  0  0  0  0  0  0  0  0  0  0
  -12.6709   -5.6326    8.6707 C   0  0  0  0  0  0  0  0  0  0  0  0
  -13.0651   -6.9972    8.2059 C   0  0  0  0  0  0  0  0  0  0  0  0
  -11.9701   -7.5266    7.2735 C   0  0  0  0  0  0  0  0  0  0  0  0
  -14.3457   -6.8675    7.4069 C   0  0  0  0  0  0  0  0  0  0  0  0
  -14.1070   -6.1541    6.1327 C   0  0  0  0  0  0  0  0  0  0  0  0
  -15.0383   -6.3881    5.0179 C   0  0  0  0  0  0  0  0  0  0  0  0
  -15.6298   -7.7595    4.9058 C   0  0  0  0  0  0  0  0  0  0  0  0
  -14.6929   -8.7871    4.3711 C   0  0  0  0  0  0  0  0  0  0  0  0
  -16.8766   -7.2249    9.4360 H   0  0  0  0  0  0  0  0  0  0  0  0
  -11.5227   -6.3380   12.1338 N   0  0  0  0  0  0  0  0  0  0  0  0
  -11.3435   -4.9486   12.4407 C   0  0  0  0  0  0  0  0  0  0  0  0
  -12.6186   -6.9329   12.8788 C   0  0  0  0  0  0  0  0  0  0  0  0
  -15.7703   -6.8671    2.3967 C   0  0  0  0  0  0  0  0  0  0  0  0
  -17.1335   -7.4140    2.8747 C   0  0  0  0  0  0  0  0  0  0  0  0
  -18.1291   -6.3610    2.5025 C   0  0  0  0  0  0  0  0  0  0  0  0
  -17.6370   -5.0493    3.1485 C   0  0  0  0  0  0  0  0  0  0  0  0
  -18.4541   -4.8036    4.3901 C   0  0  0  0  0  0  0  0  0  0  0  0
  -19.8251   -4.6901    4.2156 O   0  0  0  0  0  0  0  0  0  0  0  0
  -17.9170   -4.7080    5.5187 O   0  0  0  0  0  0  0  0  0  0  0  0
  -20.2340   -4.1524    3.4550 H   0  0  0  0  0  0  0  0  0  0  0  0
 25 26  1  0  0  0
 26 27  1  0  0  0
 27 28  1  0  0  0
 28 29  1  0  0  0
 29 30  1  0  0  0
 29 31  2  0  0  0
 26  1  1  0  0  0
  1  2  1  0  0  0
  2  3  1  0  0  0
  3  4  1  0  0  0
  4  5  1  0  0  0
  5  6  1  0  0  0
  6  7  1  0  0  0
  6  8  1  0  0  0
  8  9  1  0  0  0
  9 10  1  0  0  0
 10 11  1  0  0  0
 11 12  1  0  0  0
 12 13  1  0  0  0
 13 14  1  0  0  0
 14 15  1  0  0  0
 14 16  1  0  0  0
 16 17  1  0  0  0
 17 18  1  0  0  0
 18 19  1  0  0  0
 19 20  1  0  0  0
 11 22  1  0  0  0
 22 23  1  0  0  0
 22 24  1  0  0  0
 19  1  1  0  0  0
 19  4  1  0  0  0
 16  5  1  0  0  0
 14  9  1  0  0  0
 30 32  1  0  0  0
  7 21  1  0  0  0
M  END
> <minimizedAffinity>
6.24620

> <CNNscore>
0.4279954433

> <CNNaffinity>
6.9392991066

> <CNN_VS>
2.9699883461

> <CNNaffinity_variance>
1.0886390209

$$$$
[H]OC(=O)C([H])([H])C([H])([H])[C@@]([H])(C([H])([H])[H])[C@@]1([H])C([H])([H])C([H])([H])[C@]2([H])[C@]1(C([H])([H])[H])C([H])([H])C([H])([H])[C@]1([H])[C@@]3(C([H])([H])[H])C([H])([H])C([H])([H])C([H])(N(C([H])([H])[H])C([H])([H])[H])C([H])([H])[C@@]3([H])C([H])([H])[C@@]([H])(O[H])[C@]12[H]


 32 35  0  0  0  0  0  0  0  0999 V2000
  -10.3077   -6.4534    8.3864 C   0  0  0  0  0  0  0  0  0  0  0  0
   -9.5608   -7.2526    7.3695 C   0  0  0  0  0  0  0  0  0  0  0  0
  -10.6280   -7.9341    6.5006 C   0  0  0  0  0  0  0  0  0  0  0  0
  -11.8834   -7.2606    6.9618 C   0  0  0  0  0  0  0  0  0  0  0  0
  -13.1479   -7.9488    6.6463 C   0  0  0  0  0  0  0  0  0  0  0  0
  -13.2960   -7.8967    5.1160 C   0  0  0  0  0  0  0  0  0  0  0  0
  -12.7377   -6.7033    4.6802 O   0  0  0  0  0  0  0  0  0  0  0  0
  -14.7517   -7.9549    4.7201 C   0  0  0  0  0  0  0  0  0  0  0  0
  -15.5423   -8.6949    5.8044 C   0  0  0  0  0  0  0  0  0  0  0  0
  -16.8667   -9.1602    5.2980 C   0  0  0  0  0  0  0  0  0  0  0  0
  -18.0289   -8.3347    5.7019 C   0  0  0  0  0  0  0  0  0  0  0  0
  -17.6639   -6.9368    6.1207 C   0  0  0  0  0  0  0  0  0  0  0  0
  -16.7096   -7.0091    7.2637 C   0  0  0  0  0  0  0  0  0  0  0  0
  -15.5593   -7.9471    7.0897 C   0  0  0  0  0  0  0  0  0  0  0  0
  -15.5938   -8.9727    8.2279 C   0  0  0  0  0  0  0  0  0  0  0  0
  -14.2795   -7.1457    7.2129 C   0  0  0  0  0  0  0  0  0  0  0  0
  -14.0877   -6.6604    8.5976 C   0  0  0  0  0  0  0  0  0  0  0  0
  -12.7204   -6.3506    9.0444 C   0  0  0  0  0  0  0  0  0  0  0  0
  -11.6167   -7.1916    8.4807 C   0  0  0  0  0  0  0  0  0  0  0  0
  -11.5265   -8.5566    9.0708 C   0  0  0  0  0  0  0  0  0  0  0  0
  -13.4128   -6.1095    4.2421 H   0  0  0  0  0  0  0  0  0  0  0  0
  -19.0672   -8.2476    4.6719 N   0  0  0  0  0  0  0  0  0  0  0  0
  -20.3878   -8.4913    5.1756 C   0  0  0  0  0  0  0  0  0  0  0  0
  -18.9544   -6.9569    4.0153 C   0  0  0  0  0  0  0  0  0  0  0  0
   -8.3296   -6.9328    9.6839 C   0  0  0  0  0  0  0  0  0  0  0  0
   -9.6138   -6.0784    9.6011 C   0  0  0  0  0  0  0  0  0  0  0  0
  -10.3123   -6.2955   10.9063 C   0  0  0  0  0  0  0  0  0  0  0  0
  -11.1748   -5.0402   11.1520 C   0  0  0  0  0  0  0  0  0  0  0  0
  -11.9408   -5.2422   12.4335 C   0  0  0  0  0  0  0  0  0  0  0  0
  -11.2558   -5.8514   13.4739 O   0  0  0  0  0  0  0  0  0  0  0  0
  -13.1344   -4.8762   12.5471 O   0  0  0  0  0  0  0  0  0  0  0  0
  -10.6577   -6.6617   13.3306 H   0  0  0  0  0  0  0  0  0  0  0  0
 25 26  1  0  0  0
 26 27  1  0  0  0
 27 28  1  0  0  0
 28 29  1  0  0  0
 29 30  1  0  0  0
 29 31  2  0  0  0
 26  1  1  0  0  0
  1  2  1  0  0  0
  2  3  1  0  0  0
  3  4  1  0  0  0
  4  5  1  0  0  0
  5  6  1  0  0  0
  6  7  1  0  0  0
  6  8  1  0  0  0
  8  9  1  0  0  0
  9 10  1  0  0  0
 10 11  1  0  0  0
 11 12  1  0  0  0
 12 13  1  0  0  0
 13 14  1  0  0  0
 14 15  1  0  0  0
 14 16  1  0  0  0
 16 17  1  0  0  0
 17 18  1  0  0  0
 18 19  1  0  0  0
 19 20  1  0  0  0
 11 22  1  0  0  0
 22 23  1  0  0  0
 22 24  1  0  0  0
 19  1  1  0  0  0
 19  4  1  0  0  0
 16  5  1  0  0  0
 14  9  1  0  0  0
 30 32  1  0  0  0
  7 21  1  0  0  0
M  END
> <minimizedAffinity>
12.33684

> <CNNscore>
0.4183730185

> <CNNaffinity>
7.0345945358

> <CNN_VS>
2.9430844784

> <CNNaffinity_variance>
2.0858714581

$$$$
[H]OC(=O)C([H])([H])C([H])([H])[C@@]([H])(C([H])([H])[H])[C@@]1([H])C([H])([H])C([H])([H])[C@]2([H])[C@]1(C([H])([H])[H])C([H])([H])C([H])([H])[C@]1([H])[C@@]3(C([H])([H])[H])C([H])([H])C([H])([H])C([H])(N(C([H])([H])[H])C([H])([H])[H])C([H])([H])[C@@]3([H])C([H])([H])[C@@]([H])(O[H])[C@]12[H]


 32 35  0  0  0  0  0  0  0  0999 V2000
   -6.2360   -7.7548    6.8312 C   0  0  0  0  0  0  0  0  0  0  0  0
   -7.2071   -8.3554    7.7940 C   0  0  0  0  0  0  0  0  0  0  0  0
   -6.7481   -7.9100    9.1902 C   0  0  0  0  0  0  0  0  0  0  0  0
   -5.6949   -6.8967    8.8645 C   0  0  0  0  0  0  0  0  0  0  0  0
   -4.7518   -6.5633    9.9471 C   0  0  0  0  0  0  0  0  0  0  0  0
   -5.5746   -5.8397   11.0268 C   0  0  0  0  0  0  0  0  0  0  0  0
   -6.5661   -5.1129   10.3829 O   0  0  0  0  0  0  0  0  0  0  0  0
   -4.6975   -4.9088   11.8291 C   0  0  0  0  0  0  0  0  0  0  0  0
   -3.2567   -5.4305   11.8125 C   0  0  0  0  0  0  0  0  0  0  0  0
   -2.4407   -4.8261   12.9060 C   0  0  0  0  0  0  0  0  0  0  0  0
   -1.5316   -3.7318   12.4922 C   0  0  0  0  0  0  0  0  0  0  0  0
   -1.9152   -3.0843   11.1897 C   0  0  0  0  0  0  0  0  0  0  0  0
   -1.9298   -4.1228   10.1203 C   0  0  0  0  0  0  0  0  0  0  0  0
   -2.6627   -5.3828   10.4500 C   0  0  0  0  0  0  0  0  0  0  0  0
   -1.6874   -6.5581   10.3229 C   0  0  0  0  0  0  0  0  0  0  0  0
   -3.7621   -5.5666    9.4239 C   0  0  0  0  0  0  0  0  0  0  0  0
   -3.1985   -5.8664    8.0891 C   0  0  0  0  0  0  0  0  0  0  0  0
   -4.0427   -6.5844    7.1213 C   0  0  0  0  0  0  0  0  0  0  0  0
   -4.9999   -7.5943    7.6757 C   0  0  0  0  0  0  0  0  0  0  0  0
   -4.3614   -8.8707    8.1031 C   0  0  0  0  0  0  0  0  0  0  0  0
   -6.4724   -4.1292   10.5372 H   0  0  0  0  0  0  0  0  0  0  0  0
   -1.3892   -2.6800   13.5019 N   0  0  0  0  0  0  0  0  0  0  0  0
   -1.7702   -1.3817   13.0264 C   0  0  0  0  0  0  0  0  0  0  0  0
   -2.1328   -3.0766   14.6850 C   0  0  0  0  0  0  0  0  0  0  0  0
   -4.6586   -8.1953    5.0581 C   0  0  0  0  0  0  0  0  0  0  0  0
   -6.1259   -8.3498    5.5153 C   0  0  0  0  0  0  0  0  0  0  0  0
   -6.9440   -7.7647    4.4076 C   0  0  0  0  0  0  0  0  0  0  0  0
   -7.9893   -6.8482    5.0763 C   0  0  0  0  0  0  0  0  0  0  0  0
   -8.7820   -6.1709    3.9888 C   0  0  0  0  0  0  0  0  0  0  0  0
  -10.0984   -5.8546    4.2887 O   0  0  0  0  0  0  0  0  0  0  0  0
   -8.2724   -5.9094    2.8738 O   0  0  0  0  0  0  0  0  0  0  0  0
  -10.7154   -6.5000    4.7761 H   0  0  0  0  0  0  0  0  0  0  0  0
 25 26  1  0  0  0
 26 27  1  0  0  0
 27 28  1  0  0  0
 28 29  1  0  0  0
 29 30  1  0  0  0
 29 31  2  0  0  0
 26  1  1  0  0  0
  1  2  1  0  0  0
  2  3  1  0  0  0
  3  4  1  0  0  0
  4  5  1  0  0  0
  5  6  1  0  0  0
  6  7  1  0  0  0
  6  8  1  0  0  0
  8  9  1  0  0  0
  9 10  1  0  0  0
 10 11  1  0  0  0
 11 12  1  0  0  0
 12 13  1  0  0  0
 13 14  1  0  0  0
 14 15  1  0  0  0
 14 16  1  0  0  0
 16 17  1  0  0  0
 17 18  1  0  0  0
 18 19  1  0  0  0
 19 20  1  0  0  0
 11 22  1  0  0  0
 22 23  1  0  0  0
 22 24  1  0  0  0
 19  1  1  0  0  0
 19  4  1  0  0  0
 16  5  1  0  0  0
 14  9  1  0  0  0
 30 32  1  0  0  0
  7 21  1  0  0  0
M  END
> <minimizedAffinity>
16.67568

> <CNNscore>
0.4058798850

> <CNNaffinity>
5.2782011032

> <CNN_VS>
2.1423156261

> <CNNaffinity_variance>
0.6893251538

$$$$
[H]OC(=O)C([H])([H])C([H])([H])[C@@]([H])(C([H])([H])[H])[C@@]1([H])C([H])([H])C([H])([H])[C@]2([H])[C@]1(C([H])([H])[H])C([H])([H])C([H])([H])[C@]1([H])[C@@]3(C([H])([H])[H])C([H])([H])C([H])([H])C([H])(N(C([H])([H])[H])C([H])([H])[H])C([H])([H])[C@@]3([H])C([H])([H])[C@@]([H])(O[H])[C@]12[H]


 32 35  0  0  0  0  0  0  0  0999 V2000
   -9.8760   -6.9231    8.5225 C   0  0  0  0  0  0  0  0  0  0  0  0
   -9.3063   -6.7455    7.1533 C   0  0  0  0  0  0  0  0  0  0  0  0
  -10.4628   -7.0065    6.1772 C   0  0  0  0  0  0  0  0  0  0  0  0
  -11.6411   -7.0717    7.0989 C   0  0  0  0  0  0  0  0  0  0  0  0
  -12.8540   -7.7161    6.5644 C   0  0  0  0  0  0  0  0  0  0  0  0
  -13.3704   -6.7983    5.4431 C   0  0  0  0  0  0  0  0  0  0  0  0
  -13.0781   -5.4902    5.8027 O   0  0  0  0  0  0  0  0  0  0  0  0
  -14.8613   -6.9595    5.2679 C   0  0  0  0  0  0  0  0  0  0  0  0
  -15.2752   -8.3646    5.7181 C   0  0  0  0  0  0  0  0  0  0  0  0
  -16.6179   -8.7392    5.1856 C   0  0  0  0  0  0  0  0  0  0  0  0
  -17.7382   -8.6313    6.1492 C   0  0  0  0  0  0  0  0  0  0  0  0
  -17.4510   -7.7241    7.3143 C   0  0  0  0  0  0  0  0  0  0  0  0
  -16.2484   -8.2305    8.0353 C   0  0  0  0  0  0  0  0  0  0  0  0
  -15.0711   -8.5646    7.1776 C   0  0  0  0  0  0  0  0  0  0  0  0
  -14.7098  -10.0368    7.4026 C   0  0  0  0  0  0  0  0  0  0  0  0
  -13.9030   -7.7150    7.6350 C   0  0  0  0  0  0  0  0  0  0  0  0
  -13.4429   -8.1245    8.9804 C   0  0  0  0  0  0  0  0  0  0  0  0
  -12.0548   -7.8227    9.3641 C   0  0  0  0  0  0  0  0  0  0  0  0
  -11.0274   -7.8613    8.2749 C   0  0  0  0  0  0  0  0  0  0  0  0
  -10.6376   -9.2354    7.8512 C   0  0  0  0  0  0  0  0  0  0  0  0
  -13.9039   -4.9384    5.9201 H   0  0  0  0  0  0  0  0  0  0  0  0
  -18.9963   -8.2015    5.5337 N   0  0  0  0  0  0  0  0  0  0  0  0
  -18.8220   -7.6163    4.2359 C   0  0  0  0  0  0  0  0  0  0  0  0
  -19.9066   -9.3332    5.5131 C   0  0  0  0  0  0  0  0  0  0  0  0
   -9.2631   -6.1781   10.7350 C   0  0  0  0  0  0  0  0  0  0  0  0
   -8.9599   -7.1935    9.6112 C   0  0  0  0  0  0  0  0  0  0  0  0
   -7.4935   -7.0578    9.3471 C   0  0  0  0  0  0  0  0  0  0  0  0
   -7.0566   -8.3578    8.6406 C   0  0  0  0  0  0  0  0  0  0  0  0
   -6.0494   -7.9981    7.5796 C   0  0  0  0  0  0  0  0  0  0  0  0
   -6.1485   -8.6802    6.3763 O   0  0  0  0  0  0  0  0  0  0  0  0
   -5.1705   -7.1270    7.7800 O   0  0  0  0  0  0  0  0  0  0  0  0
   -6.3123   -9.6832    6.3315 H   0  0  0  0  0  0  0  0  0  0  0  0
 25 26  1  0  0  0
 26 27  1  0  0  0
 27 28  1  0  0  0
 28 29  1  0  0  0
 29 30  1  0  0  0
 29 31  2  0  0  0
 26  1  1  0  0  0
  1  2  1  0  0  0
  2  3  1  0  0  0
  3  4  1  0  0  0
  4  5  1  0  0  0
  5  6  1  0  0  0
  6  7  1  0  0  0
  6  8  1  0  0  0
  8  9  1  0  0  0
  9 10  1  0  0  0
 10 11  1  0  0  0
 11 12  1  0  0  0
 12 13  1  0  0  0
 13 14  1  0  0  0
 14 15  1  0  0  0
 14 16  1  0  0  0
 16 17  1  0  0  0
 17 18  1  0  0  0
 18 19  1  0  0  0
 19 20  1  0  0  0
 11 22  1  0  0  0
 22 23  1  0  0  0
 22 24  1  0  0  0
 19  1  1  0  0  0
 19  4  1  0  0  0
 16  5  1  0  0  0
 14  9  1  0  0  0
 30 32  1  0  0  0
  7 21  1  0  0  0
M  END
> <minimizedAffinity>
7.27507

> <CNNscore>
0.3987047374

> <CNNaffinity>
6.8398909569

> <CNN_VS>
2.7270970345

> <CNNaffinity_variance>
1.1766976118

$$$$
[H]OC(=O)C([H])([H])C([H])([H])[C@@]([H])(C([H])([H])[H])[C@@]1([H])C([H])([H])C([H])([H])[C@@]2([H])[C@]3([H])C([H])([H])C([H])([H])c4c([H])c(O[H])c([H])c([H])c4[C@@]3([H])C([H])([H])C([H])([H])[C@@]21C([H])([H])[H]


 28 31  0  0  0  0  0  0  0  0999 V2000
  -11.8819   -7.5373   10.3091 C   0  0  0  0  0  0  0  0  0  0  0  0
  -12.3774   -8.7426    9.4966 C   0  0  0  0  0  0  0  0  0  0  0  0
  -11.6776   -8.5024    8.1317 C   0  0  0  0  0  0  0  0  0  0  0  0
  -10.3603   -8.1077    8.6680 C   0  0  0  0  0  0  0  0  0  0  0  0
   -9.2936   -7.6554    7.7840 C   0  0  0  0  0  0  0  0  0  0  0  0
   -9.0461   -8.5424    6.5814 C   0  0  0  0  0  0  0  0  0  0  0  0
   -8.0588   -7.7595    5.7053 C   0  0  0  0  0  0  0  0  0  0  0  0
   -6.8097   -7.6138    6.5055 C   0  0  0  0  0  0  0  0  0  0  0  0
   -5.6201   -7.4847    5.8208 C   0  0  0  0  0  0  0  0  0  0  0  0
   -4.4004   -7.3425    6.4832 C   0  0  0  0  0  0  0  0  0  0  0  0
   -3.2021   -7.2128    5.7816 O   0  0  0  0  0  0  0  0  0  0  0  0
   -4.4054   -7.3330    7.8459 C   0  0  0  0  0  0  0  0  0  0  0  0
   -5.6044   -7.4632    8.5281 C   0  0  0  0  0  0  0  0  0  0  0  0
   -6.8112   -7.6041    7.8819 C   0  0  0  0  0  0  0  0  0  0  0  0
   -8.0274   -7.7406    8.6546 C   0  0  0  0  0  0  0  0  0  0  0  0
   -8.1941   -6.8073    9.8039 C   0  0  0  0  0  0  0  0  0  0  0  0
   -9.4643   -6.9425   10.5489 C   0  0  0  0  0  0  0  0  0  0  0  0
  -10.7125   -6.9731    9.6476 C   0  0  0  0  0  0  0  0  0  0  0  0
  -10.7977   -5.6638    8.9677 C   0  0  0  0  0  0  0  0  0  0  0  0
   -3.2604   -7.2266    4.7512 H   0  0  0  0  0  0  0  0  0  0  0  0
  -14.0839   -6.7572    9.7260 C   0  0  0  0  0  0  0  0  0  0  0  0
  -12.9915   -6.6894   10.8159 C   0  0  0  0  0  0  0  0  0  0  0  0
  -12.6695   -5.2432   11.0145 C   0  0  0  0  0  0  0  0  0  0  0  0
  -13.3652   -4.2245   10.2103 C   0  0  0  0  0  0  0  0  0  0  0  0
  -12.9133   -2.8593   10.1599 C   0  0  0  0  0  0  0  0  0  0  0  0
  -11.7153   -2.4185   10.7502 O   0  0  0  0  0  0  0  0  0  0  0  0
  -13.5759   -1.9689    9.5761 O   0  0  0  0  0  0  0  0  0  0  0  0
  -11.6910   -1.5100   11.1941 H   0  0  0  0  0  0  0  0  0  0  0  0
 21 22  1  0  0  0
 22 23  1  0  0  0
 23 24  1  0  0  0
 24 25  1  0  0  0
 25 26  1  0  0  0
 25 27  2  0  0  0
 22  1  1  0  0  0
  1  2  1  0  0  0
  2  3  1  0  0  0
  3  4  1  0  0  0
  4  5  1  0  0  0
  5  6  1  0  0  0
  6  7  1  0  0  0
  7  8  1  0  0  0
  8  9  2  0  0  0
  9 10  1  0  0  0
 10 11  1  0  0  0
 10 12  2  0  0  0
 12 13  1  0  0  0
 13 14  2  0  0  0
 14 15  1  0  0  0
 15 16  1  0  0  0
 16 17  1  0  0  0
 17 18  1  0  0  0
 18 19  1  0  0  0
 18  1  1  0  0  0
 18  4  1  0  0  0
 15  5  1  0  0  0
 14  8  1  0  0  0
 26 28  1  0  0  0
 11 20  1  0  0  0
M  END
> <minimizedAffinity>
7.27268

> <CNNscore>
0.5481376052

> <CNNaffinity>
6.2139825821

> <CNN_VS>
3.4061174393

> <CNNaffinity_variance>
1.0200103521

$$$$
[H]OC(=O)C([H])([H])C([H])([H])[C@@]([H])(C([H])([H])[H])[C@@]1([H])C([H])([H])C([H])([H])[C@@]2([H])[C@]3([H])C([H])([H])C([H])([H])c4c([H])c(O[H])c([H])c([H])c4[C@@]3([H])C([H])([H])C([H])([H])[C@@]21C([H])([H])[H]


 28 31  0  0  0  0  0  0  0  0999 V2000
   -4.3037   -1.5885    6.6507 C   0  0  0  0  0  0  0  0  0  0  0  0
   -4.7559   -2.8516    5.9034 C   0  0  0  0  0  0  0  0  0  0  0  0
   -3.7200   -3.8936    6.4049 C   0  0  0  0  0  0  0  0  0  0  0  0
   -3.7294   -3.4922    7.8254 C   0  0  0  0  0  0  0  0  0  0  0  0
   -2.8201   -4.1045    8.7856 C   0  0  0  0  0  0  0  0  0  0  0  0
   -2.7754   -5.6180    8.7424 C   0  0  0  0  0  0  0  0  0  0  0  0
   -1.6112   -6.0086    9.6629 C   0  0  0  0  0  0  0  0  0  0  0  0
   -1.9799   -5.5415   11.0295 C   0  0  0  0  0  0  0  0  0  0  0  0
   -1.4468   -6.2194   12.1052 C   0  0  0  0  0  0  0  0  0  0  0  0
   -1.7336   -5.8551   13.4212 C   0  0  0  0  0  0  0  0  0  0  0  0
   -1.1896   -6.5474   14.5028 O   0  0  0  0  0  0  0  0  0  0  0  0
   -2.5661   -4.7964   13.6291 C   0  0  0  0  0  0  0  0  0  0  0  0
   -3.0985   -4.1194   12.5437 C   0  0  0  0  0  0  0  0  0  0  0  0
   -2.8206   -4.4728   11.2430 C   0  0  0  0  0  0  0  0  0  0  0  0
   -3.4139   -3.7263   10.1542 C   0  0  0  0  0  0  0  0  0  0  0  0
   -3.3887   -2.2415   10.2735 C   0  0  0  0  0  0  0  0  0  0  0  0
   -3.9643   -1.5053    9.1275 C   0  0  0  0  0  0  0  0  0  0  0  0
   -3.4426   -1.9809    7.7588 C   0  0  0  0  0  0  0  0  0  0  0  0
   -1.9932   -1.6958    7.7161 C   0  0  0  0  0  0  0  0  0  0  0  0
   -0.5659   -7.3401   14.2840 H   0  0  0  0  0  0  0  0  0  0  0  0
   -4.2264   -1.0129    4.3141 C   0  0  0  0  0  0  0  0  0  0  0  0
   -3.9572   -0.4710    5.7352 C   0  0  0  0  0  0  0  0  0  0  0  0
   -2.5313   -0.0229    5.7630 C   0  0  0  0  0  0  0  0  0  0  0  0
   -1.6904   -0.1930    4.5662 C   0  0  0  0  0  0  0  0  0  0  0  0
   -2.2085    0.0132    3.2397 C   0  0  0  0  0  0  0  0  0  0  0  0
   -1.4202    0.4514    2.1606 O   0  0  0  0  0  0  0  0  0  0  0  0
   -3.4156   -0.1894    2.9669 O   0  0  0  0  0  0  0  0  0  0  0  0
   -1.8187    1.0951    1.4899 H   0  0  0  0  0  0  0  0  0  0  0  0
 21 22  1  0  0  0
 22 23  1  0  0  0
 23 24  1  0  0  0
 24 25  1  0  0  0
 25 26  1  0  0  0
 25 27  2  0  0  0
 22  1  1  0  0  0
  1  2  1  0  0  0
  2  3  1  0  0  0
  3  4  1  0  0  0
  4  5  1  0  0  0
  5  6  1  0  0  0
  6  7  1  0  0  0
  7  8  1  0  0  0
  8  9  2  0  0  0
  9 10  1  0  0  0
 10 11  1  0  0  0
 10 12  2  0  0  0
 12 13  1  0  0  0
 13 14  2  0  0  0
 14 15  1  0  0  0
 15 16  1  0  0  0
 16 17  1  0  0  0
 17 18  1  0  0  0
 18 19  1  0  0  0
 18  1  1  0  0  0
 18  4  1  0  0  0
 15  5  1  0  0  0
 14  8  1  0  0  0
 26 28  1  0  0  0
 11 20  1  0  0  0
M  END
> <minimizedAffinity>
-0.18450

> <CNNscore>
0.4954534769

> <CNNaffinity>
5.0410165787

> <CNN_VS>
2.4975891113

> <CNNaffinity_variance>
0.7418428659

$$$$
[H]OC(=O)C([H])([H])C([H])([H])[C@@]([H])(C([H])([H])[H])[C@@]1([H])C([H])([H])C([H])([H])[C@@]2([H])[C@]3([H])C([H])([H])C([H])([H])c4c([H])c(O[H])c([H])c([H])c4[C@@]3([H])C([H])([H])C([H])([H])[C@@]21C([H])([H])[H]


 28 31  0  0  0  0  0  0  0  0999 V2000
   -4.5917   -0.1727    0.5400 C   0  0  0  0  0  0  0  0  0  0  0  0
   -5.9592    0.4239    0.9040 C   0  0  0  0  0  0  0  0  0  0  0  0
   -6.2076   -0.2054    2.3014 C   0  0  0  0  0  0  0  0  0  0  0  0
   -4.8422   -0.0206    2.8308 C   0  0  0  0  0  0  0  0  0  0  0  0
   -4.4645   -0.5470    4.1363 C   0  0  0  0  0  0  0  0  0  0  0  0
   -5.4323   -0.2240    5.2558 C   0  0  0  0  0  0  0  0  0  0  0  0
   -4.9491   -1.0548    6.4523 C   0  0  0  0  0  0  0  0  0  0  0  0
   -3.5855   -0.5556    6.7883 C   0  0  0  0  0  0  0  0  0  0  0  0
   -3.1574   -0.6861    8.0923 C   0  0  0  0  0  0  0  0  0  0  0  0
   -1.8970   -0.2490    8.5013 C   0  0  0  0  0  0  0  0  0  0  0  0
   -1.4731   -0.3852    9.8230 O   0  0  0  0  0  0  0  0  0  0  0  0
   -1.0801    0.3203    7.5709 C   0  0  0  0  0  0  0  0  0  0  0  0
   -1.5163    0.4485    6.2620 C   0  0  0  0  0  0  0  0  0  0  0  0
   -2.7579    0.0201    5.8511 C   0  0  0  0  0  0  0  0  0  0  0  0
   -3.1541    0.1884    4.4693 C   0  0  0  0  0  0  0  0  0  0  0  0
   -2.1439   -0.1791    3.4377 C   0  0  0  0  0  0  0  0  0  0  0  0
   -2.5915   -0.0362    2.0356 C   0  0  0  0  0  0  0  0  0  0  0  0
   -3.9619   -0.6790    1.7527 C   0  0  0  0  0  0  0  0  0  0  0  0
   -3.8198   -2.1339    1.9693 C   0  0  0  0  0  0  0  0  0  0  0  0
   -2.1345   -0.8241   10.4827 H   0  0  0  0  0  0  0  0  0  0  0  0
   -6.1136   -1.2788   -0.9625 C   0  0  0  0  0  0  0  0  0  0  0  0
   -4.6226   -0.9549   -0.7226 C   0  0  0  0  0  0  0  0  0  0  0  0
   -3.8959   -2.2611   -0.6990 C   0  0  0  0  0  0  0  0  0  0  0  0
   -3.9419   -3.0990    0.5111 C   0  0  0  0  0  0  0  0  0  0  0  0
   -2.7517   -3.6692    1.0845 C   0  0  0  0  0  0  0  0  0  0  0  0
   -2.0105   -4.6936    0.4688 O   0  0  0  0  0  0  0  0  0  0  0  0
   -2.3008   -3.2774    2.1871 O   0  0  0  0  0  0  0  0  0  0  0  0
   -1.6024   -5.4189    1.0437 H   0  0  0  0  0  0  0  0  0  0  0  0
 21 22  1  0  0  0
 22 23  1  0  0  0
 23 24  1  0  0  0
 24 25  1  0  0  0
 25 26  1  0  0  0
 25 27  2  0  0  0
 22  1  1  0  0  0
  1  2  1  0  0  0
  2  3  1  0  0  0
  3  4  1  0  0  0
  4  5  1  0  0  0
  5  6  1  0  0  0
  6  7  1  0  0  0
  7  8  1  0  0  0
  8  9  2  0  0  0
  9 10  1  0  0  0
 10 11  1  0  0  0
 10 12  2  0  0  0
 12 13  1  0  0  0
 13 14  2  0  0  0
 14 15  1  0  0  0
 15 16  1  0  0  0
 16 17  1  0  0  0
 17 18  1  0  0  0
 18 19  1  0  0  0
 18  1  1  0  0  0
 18  4  1  0  0  0
 15  5  1  0  0  0
 14  8  1  0  0  0
 26 28  1  0  0  0
 11 20  1  0  0  0
M  END
> <minimizedAffinity>
0.32575

> <CNNscore>
0.4880080819

> <CNNaffinity>
5.0322980881

> <CNN_VS>
2.4558022022

> <CNNaffinity_variance>
0.8658565283

$$$$
[H]OC(=O)C([H])([H])C([H])([H])[C@@]([H])(C([H])([H])[H])[C@@]1([H])C([H])([H])C([H])([H])[C@@]2([H])[C@]3([H])C([H])([H])C([H])([H])c4c([H])c(O[H])c([H])c([H])c4[C@@]3([H])C([H])([H])C([H])([H])[C@@]21C([H])([H])[H]


 28 31  0  0  0  0  0  0  0  0999 V2000
  -15.6528   -8.2088    4.0993 C   0  0  0  0  0  0  0  0  0  0  0  0
  -16.1846   -6.7700    4.0237 C   0  0  0  0  0  0  0  0  0  0  0  0
  -16.0786   -6.3243    5.5071 C   0  0  0  0  0  0  0  0  0  0  0  0
  -14.7494   -6.9059    5.7787 C   0  0  0  0  0  0  0  0  0  0  0  0
  -14.1719   -6.8691    7.1162 C   0  0  0  0  0  0  0  0  0  0  0  0
  -14.2207   -5.5146    7.7923 C   0  0  0  0  0  0  0  0  0  0  0  0
  -13.7718   -5.7738    9.2368 C   0  0  0  0  0  0  0  0  0  0  0  0
  -12.3657   -6.2622    9.1596 C   0  0  0  0  0  0  0  0  0  0  0  0
  -11.5462   -6.0334   10.2444 C   0  0  0  0  0  0  0  0  0  0  0  0
  -10.2159   -6.4540   10.2646 C   0  0  0  0  0  0  0  0  0  0  0  0
   -9.3947   -6.2175   11.3667 O   0  0  0  0  0  0  0  0  0  0  0  0
   -9.7311   -7.1080    9.1717 C   0  0  0  0  0  0  0  0  0  0  0  0
  -10.5599   -7.3347    8.0847 C   0  0  0  0  0  0  0  0  0  0  0  0
  -11.8727   -6.9229    8.0573 C   0  0  0  0  0  0  0  0  0  0  0  0
  -12.6835   -7.1873    6.8879 C   0  0  0  0  0  0  0  0  0  0  0  0
  -12.5881   -8.5561    6.3074 C   0  0  0  0  0  0  0  0  0  0  0  0
  -13.4586   -8.8093    5.1391 C   0  0  0  0  0  0  0  0  0  0  0  0
  -14.9209   -8.3743    5.3485 C   0  0  0  0  0  0  0  0  0  0  0  0
  -15.4771   -9.2064    6.4358 C   0  0  0  0  0  0  0  0  0  0  0  0
   -9.8169   -5.7181   12.1652 H   0  0  0  0  0  0  0  0  0  0  0  0
  -17.9044   -8.9770    4.4699 C   0  0  0  0  0  0  0  0  0  0  0  0
  -16.6371   -9.2123    3.6188 C   0  0  0  0  0  0  0  0  0  0  0  0
  -16.2524  -10.6449    3.8049 C   0  0  0  0  0  0  0  0  0  0  0  0
  -16.3019  -11.5677    2.6585 C   0  0  0  0  0  0  0  0  0  0  0  0
  -16.4495  -12.9882    2.8341 C   0  0  0  0  0  0  0  0  0  0  0  0
  -15.6799  -13.7399    3.7399 O   0  0  0  0  0  0  0  0  0  0  0  0
  -17.2884  -13.6480    2.1757 O   0  0  0  0  0  0  0  0  0  0  0  0
  -15.3787  -14.6689    3.4765 H   0  0  0  0  0  0  0  0  0  0  0  0
 21 22  1  0  0  0
 22 23  1  0  0  0
 23 24  1  0  0  0
 24 25  1  0  0  0
 25 26  1  0  0  0
 25 27  2  0  0  0
 22  1  1  0  0  0
  1  2  1  0  0  0
  2  3  1  0  0  0
  3  4  1  0  0  0
  4  5  1  0  0  0
  5  6  1  0  0  0
  6  7  1  0  0  0
  7  8  1  0  0  0
  8  9  2  0  0  0
  9 10  1  0  0  0
 10 11  1  0  0  0
 10 12  2  0  0  0
 12 13  1  0  0  0
 13 14  2  0  0  0
 14 15  1  0  0  0
 15 16  1  0  0  0
 16 17  1  0  0  0
 17 18  1  0  0  0
 18 19  1  0  0  0
 18  1  1  0  0  0
 18  4  1  0  0  0
 15  5  1  0  0  0
 14  8  1  0  0  0
 26 28  1  0  0  0
 11 20  1  0  0  0
M  END
> <minimizedAffinity>
9.67980

> <CNNscore>
0.4747691453

> <CNNaffinity>
6.6618742943

> <CNN_VS>
3.1628522873

> <CNNaffinity_variance>
1.5241612196

$$$$
[H]OC(=O)C([H])([H])C([H])([H])[C@@]([H])(C([H])([H])[H])[C@@]1([H])C([H])([H])C([H])([H])[C@@]2([H])[C@]3([H])C([H])([H])C([H])([H])c4c([H])c(O[H])c([H])c([H])c4[C@@]3([H])C([H])([H])C([H])([H])[C@@]21C([H])([H])[H]


 28 31  0  0  0  0  0  0  0  0999 V2000
   -5.9525   -7.9279    7.8063 C   0  0  0  0  0  0  0  0  0  0  0  0
   -5.9567   -7.4133    9.2533 C   0  0  0  0  0  0  0  0  0  0  0  0
   -7.3077   -6.6502    9.3047 C   0  0  0  0  0  0  0  0  0  0  0  0
   -8.1119   -7.6519    8.5776 C   0  0  0  0  0  0  0  0  0  0  0  0
   -9.5048   -7.3935    8.2360 C   0  0  0  0  0  0  0  0  0  0  0  0
  -10.3531   -6.8737    9.3782 C   0  0  0  0  0  0  0  0  0  0  0  0
  -11.6869   -6.4728    8.7335 C   0  0  0  0  0  0  0  0  0  0  0  0
  -12.2787   -7.7230    8.1780 C   0  0  0  0  0  0  0  0  0  0  0  0
  -13.6513   -7.7894    8.0673 C   0  0  0  0  0  0  0  0  0  0  0  0
  -14.2957   -8.9176    7.5585 C   0  0  0  0  0  0  0  0  0  0  0  0
  -15.6850   -8.9754    7.4507 O   0  0  0  0  0  0  0  0  0  0  0  0
  -13.5296   -9.9737    7.1649 C   0  0  0  0  0  0  0  0  0  0  0  0
  -12.1506   -9.9005    7.2788 C   0  0  0  0  0  0  0  0  0  0  0  0
  -11.5078   -8.7915    7.7797 C   0  0  0  0  0  0  0  0  0  0  0  0
  -10.0638   -8.7817    7.8766 C   0  0  0  0  0  0  0  0  0  0  0  0
   -9.3138   -9.2887    6.6934 C   0  0  0  0  0  0  0  0  0  0  0  0
   -7.8405   -9.2278    6.8052 C   0  0  0  0  0  0  0  0  0  0  0  0
   -7.3098   -7.8624    7.2802 C   0  0  0  0  0  0  0  0  0  0  0  0
   -7.6631   -6.8679    6.2458 C   0  0  0  0  0  0  0  0  0  0  0  0
  -16.2126   -8.1455    7.7641 H   0  0  0  0  0  0  0  0  0  0  0  0
   -5.3677   -6.6141    5.8753 C   0  0  0  0  0  0  0  0  0  0  0  0
   -4.7781   -7.4535    7.0300 C   0  0  0  0  0  0  0  0  0  0  0  0
   -3.9366   -8.5183    6.4033 C   0  0  0  0  0  0  0  0  0  0  0  0
   -2.4788   -8.3336    6.3084 C   0  0  0  0  0  0  0  0  0  0  0  0
   -1.5564   -9.3663    6.6999 C   0  0  0  0  0  0  0  0  0  0  0  0
   -1.1095   -9.5443    8.0215 O   0  0  0  0  0  0  0  0  0  0  0  0
   -1.0898  -10.1805    5.8680 O   0  0  0  0  0  0  0  0  0  0  0  0
   -0.1483   -9.8144    8.1834 H   0  0  0  0  0  0  0  0  0  0  0  0
 21 22  1  0  0  0
 22 23  1  0  0  0
 23 24  1  0  0  0
 24 25  1  0  0  0
 25 26  1  0  0  0
 25 27  2  0  0  0
 22  1  1  0  0  0
  1  2  1  0  0  0
  2  3  1  0  0  0
  3  4  1  0  0  0
  4  5  1  0  0  0
  5  6  1  0  0  0
  6  7  1  0  0  0
  7  8  1  0  0  0
  8  9  2  0  0  0
  9 10  1  0  0  0
 10 11  1  0  0  0
 10 12  2  0  0  0
 12 13  1  0  0  0
 13 14  2  0  0  0
 14 15  1  0  0  0
 15 16  1  0  0  0
 16 17  1  0  0  0
 17 18  1  0  0  0
 18 19  1  0  0  0
 18  1  1  0  0  0
 18  4  1  0  0  0
 15  5  1  0  0  0
 14  8  1  0  0  0
 26 28  1  0  0  0
 11 20  1  0  0  0
M  END
> <minimizedAffinity>
-6.67912

> <CNNscore>
0.4327024519

> <CNNaffinity>
6.3807640076

> <CNN_VS>
2.7609722614

> <CNNaffinity_variance>
0.2837163508

$$$$
[H]OC(=O)C([H])([H])C([H])([H])[C@@]([H])(C([H])([H])[H])[C@@]1([H])C([H])([H])C([H])([H])[C@@]2([H])[C@]3([H])C([H])([H])C([H])([H])c4c([H])c(O[H])c([H])c([H])c4[C@@]3([H])C([H])([H])C([H])([H])[C@@]21C([H])([H])[H]


 28 31  0  0  0  0  0  0  0  0999 V2000
  -11.7195   -6.6297    9.7401 C   0  0  0  0  0  0  0  0  0  0  0  0
  -12.1376   -8.1072    9.7644 C   0  0  0  0  0  0  0  0  0  0  0  0
  -11.4113   -8.6535    8.5057 C   0  0  0  0  0  0  0  0  0  0  0  0
  -10.1285   -7.9544    8.7165 C   0  0  0  0  0  0  0  0  0  0  0  0
   -9.0586   -8.0328    7.7300 C   0  0  0  0  0  0  0  0  0  0  0  0
   -8.7381   -9.4334    7.2505 C   0  0  0  0  0  0  0  0  0  0  0  0
   -7.7625   -9.2408    6.0815 C   0  0  0  0  0  0  0  0  0  0  0  0
   -6.5441   -8.5985    6.6513 C   0  0  0  0  0  0  0  0  0  0  0  0
   -5.3428   -8.8213    6.0128 C   0  0  0  0  0  0  0  0  0  0  0  0
   -4.1496   -8.2620    6.4717 C   0  0  0  0  0  0  0  0  0  0  0  0
   -2.9391   -8.4936    5.8190 O   0  0  0  0  0  0  0  0  0  0  0  0
   -4.1933   -7.4759    7.5841 C   0  0  0  0  0  0  0  0  0  0  0  0
   -5.4040   -7.2559    8.2211 C   0  0  0  0  0  0  0  0  0  0  0  0
   -6.5847   -7.8041    7.7747 C   0  0  0  0  0  0  0  0  0  0  0  0
   -7.8148   -7.5385    8.4897 C   0  0  0  0  0  0  0  0  0  0  0  0
   -8.0551   -6.1262    8.8988 C   0  0  0  0  0  0  0  0  0  0  0  0
   -9.3385   -5.8782    9.5905 C   0  0  0  0  0  0  0  0  0  0  0  0
  -10.5583   -6.4840    8.8718 C   0  0  0  0  0  0  0  0  0  0  0  0
  -10.6827   -5.8047    7.5654 C   0  0  0  0  0  0  0  0  0  0  0  0
   -2.9678   -9.0967    4.9819 H   0  0  0  0  0  0  0  0  0  0  0  0
  -13.8668   -6.2137   10.7467 C   0  0  0  0  0  0  0  0  0  0  0  0
  -12.8796   -5.7042    9.6736 C   0  0  0  0  0  0  0  0  0  0  0  0
  -13.6244   -5.6834    8.3775 C   0  0  0  0  0  0  0  0  0  0  0  0
  -13.5117   -6.8247    7.4538 C   0  0  0  0  0  0  0  0  0  0  0  0
  -14.6494   -7.6341    7.1059 C   0  0  0  0  0  0  0  0  0  0  0  0
  -15.0056   -7.9389    5.7800 O   0  0  0  0  0  0  0  0  0  0  0  0
  -15.4019   -8.1215    7.9827 O   0  0  0  0  0  0  0  0  0  0  0  0
  -15.9850   -7.9728    5.5293 H   0  0  0  0  0  0  0  0  0  0  0  0
 21 22  1  0  0  0
 22 23  1  0  0  0
 23 24  1  0  0  0
 24 25  1  0  0  0
 25 26  1  0  0  0
 25 27  2  0  0  0
 22  1  1  0  0  0
  1  2  1  0  0  0
  2  3  1  0  0  0
  3  4  1  0  0  0
  4  5  1  0  0  0
  5  6  1  0  0  0
  6  7  1  0  0  0
  7  8  1  0  0  0
  8  9  2  0  0  0
  9 10  1  0  0  0
 10 11  1  0  0  0
 10 12  2  0  0  0
 12 13  1  0  0  0
 13 14  2  0  0  0
 14 15  1  0  0  0
 15 16  1  0  0  0
 16 17  1  0  0  0
 17 18  1  0  0  0
 18 19  1  0  0  0
 18  1  1  0  0  0
 18  4  1  0  0  0
 15  5  1  0  0  0
 14  8  1  0  0  0
 26 28  1  0  0  0
 11 20  1  0  0  0
M  END
> <minimizedAffinity>
-0.59260

> <CNNscore>
0.3817301095

> <CNNaffinity>
6.1112127304

> <CNN_VS>
2.3328340054

> <CNNaffinity_variance>
0.4504491687

$$$$
[H]OC(=O)C([H])([H])C([H])([H])[C@@]([H])(C([H])([H])[H])[C@@]1([H])C([H])([H])C([H])([H])[C@@]2([H])[C@]3([H])C([H])([H])C([H])([H])c4c([H])c(O[H])c([H])c([H])c4[C@@]3([H])C([H])([H])C([H])([H])[C@@]21C([H])([H])[H]


 28 31  0  0  0  0  0  0  0  0999 V2000
  -12.4270  -10.3735    6.5083 C   0  0  0  0  0  0  0  0  0  0  0  0
  -13.1946  -10.6941    7.7993 C   0  0  0  0  0  0  0  0  0  0  0  0
  -13.9412   -9.3568    8.0536 C   0  0  0  0  0  0  0  0  0  0  0  0
  -14.3537   -9.1090    6.6582 C   0  0  0  0  0  0  0  0  0  0  0  0
  -15.0356   -7.8767    6.2835 C   0  0  0  0  0  0  0  0  0  0  0  0
  -16.2008   -7.4991    7.1745 C   0  0  0  0  0  0  0  0  0  0  0  0
  -16.6031   -6.0872    6.7275 C   0  0  0  0  0  0  0  0  0  0  0  0
  -17.0530   -6.2060    5.3114 C   0  0  0  0  0  0  0  0  0  0  0  0
  -17.9689   -5.2849    4.8494 C   0  0  0  0  0  0  0  0  0  0  0  0
  -18.4478   -5.3154    3.5392 C   0  0  0  0  0  0  0  0  0  0  0  0
  -19.3746   -4.3793    3.0812 O   0  0  0  0  0  0  0  0  0  0  0  0
  -17.9852   -6.2908    2.7075 C   0  0  0  0  0  0  0  0  0  0  0  0
  -17.0647   -7.2135    3.1780 C   0  0  0  0  0  0  0  0  0  0  0  0
  -16.5880   -7.1900    4.4688 C   0  0  0  0  0  0  0  0  0  0  0  0
  -15.6305   -8.1868    4.8984 C   0  0  0  0  0  0  0  0  0  0  0  0
  -14.5043   -8.4732    3.9661 C   0  0  0  0  0  0  0  0  0  0  0  0
  -13.5199   -9.4650    4.4500 C   0  0  0  0  0  0  0  0  0  0  0  0
  -13.0258   -9.2006    5.8843 C   0  0  0  0  0  0  0  0  0  0  0  0
  -12.3045   -7.9109    5.8716 C   0  0  0  0  0  0  0  0  0  0  0  0
  -19.6884   -3.6641    3.7560 H   0  0  0  0  0  0  0  0  0  0  0  0
  -10.7682  -11.4004    7.9193 C   0  0  0  0  0  0  0  0  0  0  0  0
  -10.9571  -10.5272    6.6593 C   0  0  0  0  0  0  0  0  0  0  0  0
  -10.1894   -9.2654    6.8899 C   0  0  0  0  0  0  0  0  0  0  0  0
   -8.7974   -9.1631    6.4204 C   0  0  0  0  0  0  0  0  0  0  0  0
   -7.9067   -8.1419    6.9047 C   0  0  0  0  0  0  0  0  0  0  0  0
   -8.2440   -6.7772    6.9463 O   0  0  0  0  0  0  0  0  0  0  0  0
   -6.7574   -8.4173    7.3240 O   0  0  0  0  0  0  0  0  0  0  0  0
   -7.5355   -6.0888    6.7292 H   0  0  0  0  0  0  0  0  0  0  0  0
 21 22  1  0  0  0
 22 23  1  0  0  0
 23 24  1  0  0  0
 24 25  1  0  0  0
 25 26  1  0  0  0
 25 27  2  0  0  0
 22  1  1  0  0  0
  1  2  1  0  0  0
  2  3  1  0  0  0
  3  4  1  0  0  0
  4  5  1  0  0  0
  5  6  1  0  0  0
  6  7  1  0  0  0
  7  8  1  0  0  0
  8  9  2  0  0  0
  9 10  1  0  0  0
 10 11  1  0  0  0
 10 12  2  0  0  0
 12 13  1  0  0  0
 13 14  2  0  0  0
 14 15  1  0  0  0
 15 16  1  0  0  0
 16 17  1  0  0  0
 17 18  1  0  0  0
 18 19  1  0  0  0
 18  1  1  0  0  0
 18  4  1  0  0  0
 15  5  1  0  0  0
 14  8  1  0  0  0
 26 28  1  0  0  0
 11 20  1  0  0  0
M  END
> <minimizedAffinity>
5.72219

> <CNNscore>
0.3755100071

> <CNNaffinity>
6.3590807915

> <CNN_VS>
2.3878984451

> <CNNaffinity_variance>
0.8184270859

$$$$
[H]OC(=O)C([H])([H])C([H])([H])[C@@]([H])(C([H])([H])[H])[C@@]1([H])C([H])([H])C([H])([H])[C@@]2([H])[C@]3([H])C([H])([H])C([H])([H])c4c([H])c(O[H])c([H])c([H])c4[C@@]3([H])C([H])([H])C([H])([H])[C@@]21C([H])([H])[H]


 28 31  0  0  0  0  0  0  0  0999 V2000
  -11.6211   -9.9549    6.8174 C   0  0  0  0  0  0  0  0  0  0  0  0
  -12.2310  -10.5289    8.1046 C   0  0  0  0  0  0  0  0  0  0  0  0
  -13.2825   -9.4427    8.4580 C   0  0  0  0  0  0  0  0  0  0  0  0
  -13.7985   -9.2354    7.0907 C   0  0  0  0  0  0  0  0  0  0  0  0
  -14.7853   -8.2007    6.8085 C   0  0  0  0  0  0  0  0  0  0  0  0
  -15.9726   -8.1816    7.7488 C   0  0  0  0  0  0  0  0  0  0  0  0
  -16.7376   -6.8981    7.3986 C   0  0  0  0  0  0  0  0  0  0  0  0
  -17.1974   -7.0532    5.9892 C   0  0  0  0  0  0  0  0  0  0  0  0
  -18.3345   -6.3742    5.6066 C   0  0  0  0  0  0  0  0  0  0  0  0
  -18.8407   -6.4572    4.3089 C   0  0  0  0  0  0  0  0  0  0  0  0
  -19.9921   -5.7666    3.9315 O   0  0  0  0  0  0  0  0  0  0  0  0
  -18.1782   -7.2364    3.4083 C   0  0  0  0  0  0  0  0  0  0  0  0
  -17.0358   -7.9161    3.7993 C   0  0  0  0  0  0  0  0  0  0  0  0
  -16.5307   -7.8396    5.0771 C   0  0  0  0  0  0  0  0  0  0  0  0
  -15.3354   -8.5793    5.4219 C   0  0  0  0  0  0  0  0  0  0  0  0
  -14.2105   -8.5183    4.4469 C   0  0  0  0  0  0  0  0  0  0  0  0
  -12.9883   -9.2492    4.8454 C   0  0  0  0  0  0  0  0  0  0  0  0
  -12.5221   -8.9431    6.2808 C   0  0  0  0  0  0  0  0  0  0  0  0
  -12.1534   -7.5129    6.3292 C   0  0  0  0  0  0  0  0  0  0  0  0
  -20.4508   -5.1923    4.6560 H   0  0  0  0  0  0  0  0  0  0  0  0
   -9.5229  -11.1348    6.7623 C   0  0  0  0  0  0  0  0  0  0  0  0
  -10.1557   -9.7350    6.9231 C   0  0  0  0  0  0  0  0  0  0  0  0
   -9.6701   -9.1895    8.2275 C   0  0  0  0  0  0  0  0  0  0  0  0
   -8.9384   -7.9119    8.2561 C   0  0  0  0  0  0  0  0  0  0  0  0
   -7.5003   -7.8614    8.2587 C   0  0  0  0  0  0  0  0  0  0  0  0
   -6.7593   -6.9562    9.0394 O   0  0  0  0  0  0  0  0  0  0  0  0
   -6.8143   -8.6363    7.5506 O   0  0  0  0  0  0  0  0  0  0  0  0
   -5.9184   -6.5477    8.6534 H   0  0  0  0  0  0  0  0  0  0  0  0
 21 22  1  0  0  0
 22 23  1  0  0  0
 23 24  1  0  0  0
 24 25  1  0  0  0
 25 26  1  0  0  0
 25 27  2  0  0  0
 22  1  1  0  0  0
  1  2  1  0  0  0
  2  3  1  0  0  0
  3  4  1  0  0  0
  4  5  1  0  0  0
  5  6  1  0  0  0
  6  7  1  0  0  0
  7  8  1  0  0  0
  8  9  2  0  0  0
  9 10  1  0  0  0
 10 11  1  0  0  0
 10 12  2  0  0  0
 12 13  1  0  0  0
 13 14  2  0  0  0
 14 15  1  0  0  0
 15 16  1  0  0  0
 16 17  1  0  0  0
 17 18  1  0  0  0
 18 19  1  0  0  0
 18  1  1  0  0  0
 18  4  1  0  0  0
 15  5  1  0  0  0
 14  8  1  0  0  0
 26 28  1  0  0  0
 11 20  1  0  0  0
M  END
> <minimizedAffinity>
-2.54927

> <CNNscore>
0.2811843157

> <CNNaffinity>
6.3437800407

> <CNN_VS>
1.7837713957

> <CNNaffinity_variance>
0.4037985802

$$$$
[H]OC(=O)C([H])([H])C([H])([H])[C@@]([H])(C([H])([H])[H])[C@@]1([H])C([H])([H])C([H])([H])[C@@]2([H])[C@]3([H])C([H])([H])C([H])([H])c4c([H])c(O[H])c([H])c([H])c4[C@@]3([H])C([H])([H])C([H])([H])[C@@]21C([H])([H])[H]


 28 31  0  0  0  0  0  0  0  0999 V2000
   -5.7972   -7.9404    7.3274 C   0  0  0  0  0  0  0  0  0  0  0  0
   -5.6894   -7.2891    8.7140 C   0  0  0  0  0  0  0  0  0  0  0  0
   -7.0482   -6.5443    8.8108 C   0  0  0  0  0  0  0  0  0  0  0  0
   -7.8885   -7.6230    8.2545 C   0  0  0  0  0  0  0  0  0  0  0  0
   -9.3111   -7.4189    8.0129 C   0  0  0  0  0  0  0  0  0  0  0  0
  -10.0703   -6.8041    9.1705 C   0  0  0  0  0  0  0  0  0  0  0  0
  -11.4631   -6.4865    8.6096 C   0  0  0  0  0  0  0  0  0  0  0  0
  -12.0715   -7.7928    8.2286 C   0  0  0  0  0  0  0  0  0  0  0  0
  -13.4466   -7.8896    8.2448 C   0  0  0  0  0  0  0  0  0  0  0  0
  -14.1062   -9.0708    7.9031 C   0  0  0  0  0  0  0  0  0  0  0  0
  -15.4980   -9.1589    7.9229 O   0  0  0  0  0  0  0  0  0  0  0  0
  -13.3526  -10.1485    7.5458 C   0  0  0  0  0  0  0  0  0  0  0  0
  -11.9710  -10.0446    7.5315 C   0  0  0  0  0  0  0  0  0  0  0  0
  -11.3133   -8.8834    7.8674 C   0  0  0  0  0  0  0  0  0  0  0  0
   -9.8668   -8.8432    7.8365 C   0  0  0  0  0  0  0  0  0  0  0  0
   -9.2093   -9.4507    6.6456 C   0  0  0  0  0  0  0  0  0  0  0  0
   -7.7336   -9.3578    6.6222 C   0  0  0  0  0  0  0  0  0  0  0  0
   -7.1957   -7.9455    6.9178 C   0  0  0  0  0  0  0  0  0  0  0  0
   -7.6586   -7.0603    5.8288 C   0  0  0  0  0  0  0  0  0  0  0  0
  -16.0157   -8.3105    8.2013 H   0  0  0  0  0  0  0  0  0  0  0  0
   -3.5266   -8.4725    6.7287 C   0  0  0  0  0  0  0  0  0  0  0  0
   -4.7046   -7.5256    6.4102 C   0  0  0  0  0  0  0  0  0  0  0  0
   -4.1971   -6.1308    6.5884 C   0  0  0  0  0  0  0  0  0  0  0  0
   -3.5441   -5.4433    5.4617 C   0  0  0  0  0  0  0  0  0  0  0  0
   -3.6849   -4.0265    5.2533 C   0  0  0  0  0  0  0  0  0  0  0  0
   -4.7242   -3.4551    4.4975 O   0  0  0  0  0  0  0  0  0  0  0  0
   -2.8723   -3.2064    5.7430 O   0  0  0  0  0  0  0  0  0  0  0  0
   -4.5244   -2.6538    3.9136 H   0  0  0  0  0  0  0  0  0  0  0  0
 21 22  1  0  0  0
 22 23  1  0  0  0
 23 24  1  0  0  0
 24 25  1  0  0  0
 25 26  1  0  0  0
 25 27  2  0  0  0
 22  1  1  0  0  0
  1  2  1  0  0  0
  2  3  1  0  0  0
  3  4  1  0  0  0
  4  5  1  0  0  0
  5  6  1  0  0  0
  6  7  1  0  0  0
  7  8  1  0  0  0
  8  9  2  0  0  0
  9 10  1  0  0  0
 10 11  1  0  0  0
 10 12  2  0  0  0
 12 13  1  0  0  0
 13 14  2  0  0  0
 14 15  1  0  0  0
 15 16  1  0  0  0
 16 17  1  0  0  0
 17 18  1  0  0  0
 18 19  1  0  0  0
 18  1  1  0  0  0
 18  4  1  0  0  0
 15  5  1  0  0  0
 14  8  1  0  0  0
 26 28  1  0  0  0
 11 20  1  0  0  0
M  END
> <minimizedAffinity>
-7.89191

> <CNNscore>
0.2681961656

> <CNNaffinity>
6.1327099800

> <CNN_VS>
1.6447693110

> <CNNaffinity_variance>
0.0861042291

$$$$
[H]OC(C([H])([H])[H])(C([H])([H])[H])C([H])([H])C([H])([H])C([H])([H])[C@@]([H])(C([H])([H])[H])[C@@]1([H])C([H])([H])C([H])([H])[C@@]2([H])/C(=C([H])/C([H])=C3\C(=C([H])[H])[C@@]([H])(O[H])C([H])([H])[C@]([H])(O[H])C3([H])[H])C([H])([H])C([H])([H])C([H])([H])[C@@]21C([H])([H])[H]


 33 35  0  0  0  0  0  0  0  0999 V2000
  -11.0265   -7.3982    7.9589 C   0  0  0  0  0  0  0  0  0  0  0  0
  -10.4167   -6.0046    8.1803 C   0  0  0  0  0  0  0  0  0  0  0  0
   -8.9626   -6.0983    7.7770 C   0  0  0  0  0  0  0  0  0  0  0  0
   -8.8698   -7.4036    7.1204 C   0  0  0  0  0  0  0  0  0  0  0  0
   -7.5458   -8.0207    7.0319 C   0  0  0  0  0  0  0  0  0  0  0  0
   -7.5237   -9.4379    6.5762 C   0  0  0  0  0  0  0  0  0  0  0  0
   -8.9406   -9.6991    6.0573 C   0  0  0  0  0  0  0  0  0  0  0  0
   -9.9599   -9.5417    7.1540 C   0  0  0  0  0  0  0  0  0  0  0  0
   -9.8354   -8.2627    7.9328 C   0  0  0  0  0  0  0  0  0  0  0  0
   -9.2589   -8.5056    9.3204 C   0  0  0  0  0  0  0  0  0  0  0  0
   -6.3988   -7.4399    7.3064 C   0  0  0  0  0  0  0  0  0  0  0  0
   -5.1922   -8.2156    7.1595 C   0  0  0  0  0  0  0  0  0  0  0  0
   -3.9744   -7.6704    7.0710 C   0  0  0  0  0  0  0  0  0  0  0  0
   -2.7365   -8.4814    6.9334 C   0  0  0  0  0  0  0  0  0  0  0  0
   -1.5196   -7.6252    7.1989 C   0  0  0  0  0  0  0  0  0  0  0  0
   -1.0723   -7.0280    6.0393 O   0  0  0  0  0  0  0  0  0  0  0  0
   -1.7628   -6.5866    8.2619 C   0  0  0  0  0  0  0  0  0  0  0  0
   -2.8278   -5.5776    7.9020 C   0  0  0  0  0  0  0  0  0  0  0  0
   -3.4502   -5.0957    9.0571 O   0  0  0  0  0  0  0  0  0  0  0  0
   -3.8476   -6.2209    7.0283 C   0  0  0  0  0  0  0  0  0  0  0  0
   -4.6301   -5.5785    6.1839 C   0  0  0  0  0  0  0  0  0  0  0  0
   -1.0684   -7.6501    5.2774 H   0  0  0  0  0  0  0  0  0  0  0  0
   -3.7329   -5.8421    9.6437 H   0  0  0  0  0  0  0  0  0  0  0  0
  -12.3999   -9.1426    8.9991 C   0  0  0  0  0  0  0  0  0  0  0  0
  -12.0426   -7.6898    9.0373 C   0  0  0  0  0  0  0  0  0  0  0  0
  -13.2935   -6.8589    8.8393 C   0  0  0  0  0  0  0  0  0  0  0  0
  -14.3321   -7.4811    7.9823 C   0  0  0  0  0  0  0  0  0  0  0  0
  -14.4356   -6.9533    6.5845 C   0  0  0  0  0  0  0  0  0  0  0  0
  -15.5377   -7.4563    5.7384 C   0  0  0  0  0  0  0  0  0  0  0  0
  -15.1892   -7.5967    4.2846 C   0  0  0  0  0  0  0  0  0  0  0  0
  -16.6677   -6.3849    5.7450 C   0  0  0  0  0  0  0  0  0  0  0  0
  -16.0838   -8.6465    6.1884 O   0  0  0  0  0  0  0  0  0  0  0  0
  -16.2562   -9.2934    5.4441 H   0  0  0  0  0  0  0  0  0  0  0  0
 24 25  1  0  0  0
 25 26  1  0  0  0
 26 27  1  0  0  0
 27 28  1  0  0  0
 28 29  1  0  0  0
 29 30  1  0  0  0
 29 31  1  0  0  0
 29 32  1  0  0  0
 25  1  1  0  0  0
  1  2  1  0  0  0
  2  3  1  0  0  0
  3  4  1  0  0  0
  4  5  1  0  0  0
  5  6  1  0  0  0
  6  7  1  0  0  0
  7  8  1  0  0  0
  8  9  1  0  0  0
  9 10  1  0  0  0
  5 11  2  0  0  0
 11 12  1  0  0  0
 12 13  2  0  0  0
 13 14  1  0  0  0
 14 15  1  0  0  0
 15 16  1  0  0  0
 15 17  1  0  0  0
 17 18  1  0  0  0
 18 19  1  0  0  0
 18 20  1  0  0  0
 20 21  2  0  0  0
  9  1  1  0  0  0
 20 13  1  0  0  0
  9  4  1  0  0  0
 32 33  1  0  0  0
 16 22  1  0  0  0
 19 23  1  0  0  0
M  END
> <minimizedAffinity>
-5.72795

> <CNNscore>
0.5812982917

> <CNNaffinity>
6.8114571571

> <CNN_VS>
3.9594883919

> <CNNaffinity_variance>
0.2745534778

$$$$
[H]OC(C([H])([H])[H])(C([H])([H])[H])C([H])([H])C([H])([H])C([H])([H])[C@@]([H])(C([H])([H])[H])[C@@]1([H])C([H])([H])C([H])([H])[C@@]2([H])/C(=C([H])/C([H])=C3\C(=C([H])[H])[C@@]([H])(O[H])C([H])([H])[C@]([H])(O[H])C3([H])[H])C([H])([H])C([H])([H])C([H])([H])[C@@]21C([H])([H])[H]


 33 35  0  0  0  0  0  0  0  0999 V2000
  -10.2879   -6.5112    8.2807 C   0  0  0  0  0  0  0  0  0  0  0  0
   -9.6102   -6.7307    9.6429 C   0  0  0  0  0  0  0  0  0  0  0  0
   -8.1481   -6.9942    9.3626 C   0  0  0  0  0  0  0  0  0  0  0  0
   -8.0039   -6.6650    7.9433 C   0  0  0  0  0  0  0  0  0  0  0  0
   -6.8639   -7.2426    7.2302 C   0  0  0  0  0  0  0  0  0  0  0  0
   -6.8801   -7.0819    5.7501 C   0  0  0  0  0  0  0  0  0  0  0  0
   -7.9982   -6.0700    5.4836 C   0  0  0  0  0  0  0  0  0  0  0  0
   -9.3310   -6.5969    5.9447 C   0  0  0  0  0  0  0  0  0  0  0  0
   -9.3309   -7.1304    7.3494 C   0  0  0  0  0  0  0  0  0  0  0  0
   -9.3944   -8.6510    7.3710 C   0  0  0  0  0  0  0  0  0  0  0  0
   -5.8449   -7.8700    7.7744 C   0  0  0  0  0  0  0  0  0  0  0  0
   -4.8124   -8.3730    6.9025 C   0  0  0  0  0  0  0  0  0  0  0  0
   -3.6178   -7.7882    6.7644 C   0  0  0  0  0  0  0  0  0  0  0  0
   -2.5565   -8.3241    5.8725 C   0  0  0  0  0  0  0  0  0  0  0  0
   -1.2328   -7.6633    6.1812 C   0  0  0  0  0  0  0  0  0  0  0  0
   -1.0661   -6.5165    5.4339 O   0  0  0  0  0  0  0  0  0  0  0  0
   -1.0638   -7.3616    7.6469 C   0  0  0  0  0  0  0  0  0  0  0  0
   -2.0776   -6.3842    8.1933 C   0  0  0  0  0  0  0  0  0  0  0  0
   -2.3023   -6.6263    9.5516 O   0  0  0  0  0  0  0  0  0  0  0  0
   -3.3602   -6.5307    7.4510 C   0  0  0  0  0  0  0  0  0  0  0  0
   -4.2762   -5.5897    7.3357 C   0  0  0  0  0  0  0  0  0  0  0  0
   -1.3375   -6.6399    4.4966 H   0  0  0  0  0  0  0  0  0  0  0  0
   -2.4860   -7.5859    9.7137 H   0  0  0  0  0  0  0  0  0  0  0  0
  -11.7839   -8.0826    9.4226 C   0  0  0  0  0  0  0  0  0  0  0  0
  -11.6792   -7.0981    8.3003 C   0  0  0  0  0  0  0  0  0  0  0  0
  -11.9902   -7.7933    6.9910 C   0  0  0  0  0  0  0  0  0  0  0  0
  -13.3245   -7.4887    6.4192 C   0  0  0  0  0  0  0  0  0  0  0  0
  -14.3859   -7.0920    7.3985 C   0  0  0  0  0  0  0  0  0  0  0  0
  -15.2396   -8.1600    7.9589 C   0  0  0  0  0  0  0  0  0  0  0  0
  -15.3432   -8.1495    9.4567 C   0  0  0  0  0  0  0  0  0  0  0  0
  -14.5585   -9.5250    7.6458 C   0  0  0  0  0  0  0  0  0  0  0  0
  -16.5142   -8.1921    7.4186 O   0  0  0  0  0  0  0  0  0  0  0  0
  -17.2203   -8.3352    8.1137 H   0  0  0  0  0  0  0  0  0  0  0  0
 24 25  1  0  0  0
 25 26  1  0  0  0
 26 27  1  0  0  0
 27 28  1  0  0  0
 28 29  1  0  0  0
 29 30  1  0  0  0
 29 31  1  0  0  0
 29 32  1  0  0  0
 25  1  1  0  0  0
  1  2  1  0  0  0
  2  3  1  0  0  0
  3  4  1  0  0  0
  4  5  1  0  0  0
  5  6  1  0  0  0
  6  7  1  0  0  0
  7  8  1  0  0  0
  8  9  1  0  0  0
  9 10  1  0  0  0
  5 11  2  0  0  0
 11 12  1  0  0  0
 12 13  2  0  0  0
 13 14  1  0  0  0
 14 15  1  0  0  0
 15 16  1  0  0  0
 15 17  1  0  0  0
 17 18  1  0  0  0
 18 19  1  0  0  0
 18 20  1  0  0  0
 20 21  2  0  0  0
  9  1  1  0  0  0
 20 13  1  0  0  0
  9  4  1  0  0  0
 32 33  1  0  0  0
 16 22  1  0  0  0
 19 23  1  0  0  0
M  END
> <minimizedAffinity>
-3.35021

> <CNNscore>
0.4067305923

> <CNNaffinity>
6.4350395203

> <CNN_VS>
2.6173274517

> <CNNaffinity_variance>
0.2154455632

$$$$
[H]OC(C([H])([H])[H])(C([H])([H])[H])C([H])([H])C([H])([H])C([H])([H])[C@@]([H])(C([H])([H])[H])[C@@]1([H])C([H])([H])C([H])([H])[C@@]2([H])/C(=C([H])/C([H])=C3\C(=C([H])[H])[C@@]([H])(O[H])C([H])([H])[C@]([H])(O[H])C3([H])[H])C([H])([H])C([H])([H])C([H])([H])[C@@]21C([H])([H])[H]


 33 35  0  0  0  0  0  0  0  0999 V2000
  -17.0878   -7.0463    5.2247 C   0  0  0  0  0  0  0  0  0  0  0  0
  -17.2831   -8.0431    6.3785 C   0  0  0  0  0  0  0  0  0  0  0  0
  -16.0754   -7.9080    7.2778 C   0  0  0  0  0  0  0  0  0  0  0  0
  -15.4016   -6.7100    6.7733 C   0  0  0  0  0  0  0  0  0  0  0  0
  -13.9805   -6.5541    7.0861 C   0  0  0  0  0  0  0  0  0  0  0  0
  -13.2777   -5.4572    6.3653 C   0  0  0  0  0  0  0  0  0  0  0  0
  -14.3992   -4.6401    5.7174 C   0  0  0  0  0  0  0  0  0  0  0  0
  -15.1774   -5.4694    4.7309 C   0  0  0  0  0  0  0  0  0  0  0  0
  -15.6380   -6.7952    5.2676 C   0  0  0  0  0  0  0  0  0  0  0  0
  -14.8279   -7.9461    4.6880 C   0  0  0  0  0  0  0  0  0  0  0  0
  -13.2890   -7.2790    7.9374 C   0  0  0  0  0  0  0  0  0  0  0  0
  -11.8906   -6.9733    8.1111 C   0  0  0  0  0  0  0  0  0  0  0  0
  -10.9238   -7.8950    8.0501 C   0  0  0  0  0  0  0  0  0  0  0  0
   -9.4843   -7.5652    8.2173 C   0  0  0  0  0  0  0  0  0  0  0  0
   -8.6273   -8.7250    7.7646 C   0  0  0  0  0  0  0  0  0  0  0  0
   -8.3888   -9.5992    8.8040 O   0  0  0  0  0  0  0  0  0  0  0  0
   -9.2186   -9.4583    6.5897 C   0  0  0  0  0  0  0  0  0  0  0  0
  -10.5543  -10.1026    6.8773 C   0  0  0  0  0  0  0  0  0  0  0  0
  -11.3183  -10.1783    5.7091 O   0  0  0  0  0  0  0  0  0  0  0  0
  -11.2881   -9.2954    7.8909 C   0  0  0  0  0  0  0  0  0  0  0  0
  -12.2282   -9.7615    8.6889 C   0  0  0  0  0  0  0  0  0  0  0  0
   -8.1665   -9.1318    9.6404 H   0  0  0  0  0  0  0  0  0  0  0  0
  -11.3437   -9.3031    5.2462 H   0  0  0  0  0  0  0  0  0  0  0  0
  -18.6195   -6.6858    3.3445 C   0  0  0  0  0  0  0  0  0  0  0  0
  -17.6284   -7.6341    3.9430 C   0  0  0  0  0  0  0  0  0  0  0  0
  -18.3002   -8.9668    4.2015 C   0  0  0  0  0  0  0  0  0  0  0  0
  -19.1332   -9.0232    5.4275 C   0  0  0  0  0  0  0  0  0  0  0  0
  -19.7329  -10.3558    5.7557 C   0  0  0  0  0  0  0  0  0  0  0  0
  -20.8360  -10.3914    6.7382 C   0  0  0  0  0  0  0  0  0  0  0  0
  -20.3929  -10.5657    8.1622 C   0  0  0  0  0  0  0  0  0  0  0  0
  -21.6816  -11.6683    6.4561 C   0  0  0  0  0  0  0  0  0  0  0  0
  -21.6840   -9.2995    6.6600 O   0  0  0  0  0  0  0  0  0  0  0  0
  -21.9303   -8.9416    7.5619 H   0  0  0  0  0  0  0  0  0  0  0  0
 24 25  1  0  0  0
 25 26  1  0  0  0
 26 27  1  0  0  0
 27 28  1  0  0  0
 28 29  1  0  0  0
 29 30  1  0  0  0
 29 31  1  0  0  0
 29 32  1  0  0  0
 25  1  1  0  0  0
  1  2  1  0  0  0
  2  3  1  0  0  0
  3  4  1  0  0  0
  4  5  1  0  0  0
  5  6  1  0  0  0
  6  7  1  0  0  0
  7  8  1  0  0  0
  8  9  1  0  0  0
  9 10  1  0  0  0
  5 11  2  0  0  0
 11 12  1  0  0  0
 12 13  2  0  0  0
 13 14  1  0  0  0
 14 15  1  0  0  0
 15 16  1  0  0  0
 15 17  1  0  0  0
 17 18  1  0  0  0
 18 19  1  0  0  0
 18 20  1  0  0  0
 20 21  2  0  0  0
  9  1  1  0  0  0
 20 13  1  0  0  0
  9  4  1  0  0  0
 32 33  1  0  0  0
 16 22  1  0  0  0
 19 23  1  0  0  0
M  END
> <minimizedAffinity>
-1.46903

> <CNNscore>
0.3955021799

> <CNNaffinity>
6.8982725143

> <CNN_VS>
2.7282817364

> <CNNaffinity_variance>
0.5247259736

$$$$
[H]OC(C([H])([H])[H])(C([H])([H])[H])C([H])([H])C([H])([H])C([H])([H])[C@@]([H])(C([H])([H])[H])[C@@]1([H])C([H])([H])C([H])([H])[C@@]2([H])/C(=C([H])/C([H])=C3\C(=C([H])[H])[C@@]([H])(O[H])C([H])([H])[C@]([H])(O[H])C3([H])[H])C([H])([H])C([H])([H])C([H])([H])[C@@]21C([H])([H])[H]


 33 35  0  0  0  0  0  0  0  0999 V2000
  -13.2674   -7.0834    9.0197 C   0  0  0  0  0  0  0  0  0  0  0  0
  -12.8481   -8.3520    9.7799 C   0  0  0  0  0  0  0  0  0  0  0  0
  -12.1634   -7.8921   11.0470 C   0  0  0  0  0  0  0  0  0  0  0  0
  -12.4434   -6.4557   11.0889 C   0  0  0  0  0  0  0  0  0  0  0  0
  -11.5573   -5.6200   11.9000 C   0  0  0  0  0  0  0  0  0  0  0  0
  -11.7244   -4.1501   11.7322 C   0  0  0  0  0  0  0  0  0  0  0  0
  -13.0245   -3.9973   10.9376 C   0  0  0  0  0  0  0  0  0  0  0  0
  -12.9151   -4.6466    9.5837 C   0  0  0  0  0  0  0  0  0  0  0  0
  -12.3972   -6.0568    9.6161 C   0  0  0  0  0  0  0  0  0  0  0  0
  -10.9642   -6.1390    9.1097 C   0  0  0  0  0  0  0  0  0  0  0  0
  -10.6520   -6.0475   12.7520 C   0  0  0  0  0  0  0  0  0  0  0  0
   -9.8700   -5.0660   13.4621 C   0  0  0  0  0  0  0  0  0  0  0  0
   -8.5587   -5.1957   13.6898 C   0  0  0  0  0  0  0  0  0  0  0  0
   -7.7607   -4.1703   14.4114 C   0  0  0  0  0  0  0  0  0  0  0  0
   -6.2840   -4.4260   14.2160 C   0  0  0  0  0  0  0  0  0  0  0  0
   -5.7947   -5.2695   15.1910 O   0  0  0  0  0  0  0  0  0  0  0  0
   -5.9659   -4.9680   12.8476 C   0  0  0  0  0  0  0  0  0  0  0  0
   -6.5938   -6.3111   12.5582 C   0  0  0  0  0  0  0  0  0  0  0  0
   -6.8256   -6.4533   11.1870 O   0  0  0  0  0  0  0  0  0  0  0  0
   -7.8872   -6.4231   13.2876 C   0  0  0  0  0  0  0  0  0  0  0  0
   -8.4621   -7.5581   13.6328 C   0  0  0  0  0  0  0  0  0  0  0  0
   -6.1309   -5.0390   16.0861 H   0  0  0  0  0  0  0  0  0  0  0  0
   -7.2966   -5.6611   10.8243 H   0  0  0  0  0  0  0  0  0  0  0  0
  -14.1476   -6.4923    6.8091 C   0  0  0  0  0  0  0  0  0  0  0  0
  -13.1205   -7.3050    7.5331 C   0  0  0  0  0  0  0  0  0  0  0  0
  -13.3002   -8.7682    7.1852 C   0  0  0  0  0  0  0  0  0  0  0  0
  -12.0758   -9.4554    6.7072 C   0  0  0  0  0  0  0  0  0  0  0  0
  -10.9382   -9.5262    7.6788 C   0  0  0  0  0  0  0  0  0  0  0  0
   -9.5714   -9.3246    7.1547 C   0  0  0  0  0  0  0  0  0  0  0  0
   -9.2376  -10.1622    5.9542 C   0  0  0  0  0  0  0  0  0  0  0  0
   -8.5696   -9.8192    8.2396 C   0  0  0  0  0  0  0  0  0  0  0  0
   -9.2728   -8.0010    6.8786 O   0  0  0  0  0  0  0  0  0  0  0  0
   -8.7832   -7.8925    6.0121 H   0  0  0  0  0  0  0  0  0  0  0  0
 24 25  1  0  0  0
 25 26  1  0  0  0
 26 27  1  0  0  0
 27 28  1  0  0  0
 28 29  1  0  0  0
 29 30  1  0  0  0
 29 31  1  0  0  0
 29 32  1  0  0  0
 25  1  1  0  0  0
  1  2  1  0  0  0
  2  3  1  0  0  0
  3  4  1  0  0  0
  4  5  1  0  0  0
  5  6  1  0  0  0
  6  7  1  0  0  0
  7  8  1  0  0  0
  8  9  1  0  0  0
  9 10  1  0  0  0
  5 11  2  0  0  0
 11 12  1  0  0  0
 12 13  2  0  0  0
 13 14  1  0  0  0
 14 15  1  0  0  0
 15 16  1  0  0  0
 15 17  1  0  0  0
 17 18  1  0  0  0
 18 19  1  0  0  0
 18 20  1  0  0  0
 20 21  2  0  0  0
  9  1  1  0  0  0
 20 13  1  0  0  0
  9  4  1  0  0  0
 32 33  1  0  0  0
 16 22  1  0  0  0
 19 23  1  0  0  0
M  END
> <minimizedAffinity>
11.05568

> <CNNscore>
0.3716604412

> <CNNaffinity>
6.1561217308

> <CNN_VS>
2.2879869938

> <CNNaffinity_variance>
0.4246282578

$$$$
[H]OC(C([H])([H])[H])(C([H])([H])[H])C([H])([H])C([H])([H])C([H])([H])[C@@]([H])(C([H])([H])[H])[C@@]1([H])C([H])([H])C([H])([H])[C@@]2([H])/C(=C([H])/C([H])=C3\C(=C([H])[H])[C@@]([H])(O[H])C([H])([H])[C@]([H])(O[H])C3([H])[H])C([H])([H])C([H])([H])C([H])([H])[C@@]21C([H])([H])[H]


 33 35  0  0  0  0  0  0  0  0999 V2000
  -16.1933   -7.8565    4.0091 C   0  0  0  0  0  0  0  0  0  0  0  0
  -16.6150   -8.7809    5.1627 C   0  0  0  0  0  0  0  0  0  0  0  0
  -16.2991   -8.0458    6.4454 C   0  0  0  0  0  0  0  0  0  0  0  0
  -15.9754   -6.6905    5.9959 C   0  0  0  0  0  0  0  0  0  0  0  0
  -15.1777   -5.8552    6.8945 C   0  0  0  0  0  0  0  0  0  0  0  0
  -14.6711   -4.5821    6.3121 C   0  0  0  0  0  0  0  0  0  0  0  0
  -15.4289   -4.4338    4.9896 C   0  0  0  0  0  0  0  0  0  0  0  0
  -15.1185   -5.5711    4.0534 C   0  0  0  0  0  0  0  0  0  0  0  0
  -15.2568   -6.9339    4.6713 C   0  0  0  0  0  0  0  0  0  0  0  0
  -13.8992   -7.5691    4.9362 C   0  0  0  0  0  0  0  0  0  0  0  0
  -14.8841   -6.1236    8.1475 C   0  0  0  0  0  0  0  0  0  0  0  0
  -14.0803   -5.1733    8.8756 C   0  0  0  0  0  0  0  0  0  0  0  0
  -13.1326   -5.5291    9.7492 C   0  0  0  0  0  0  0  0  0  0  0  0
  -12.3013   -4.5400   10.4837 C   0  0  0  0  0  0  0  0  0  0  0  0
  -11.1148   -5.2263   11.1207 C   0  0  0  0  0  0  0  0  0  0  0  0
  -11.4243   -5.6752   12.3873 O   0  0  0  0  0  0  0  0  0  0  0  0
  -10.5799   -6.3564   10.2815 C   0  0  0  0  0  0  0  0  0  0  0  0
  -11.5634   -7.4835   10.0709 C   0  0  0  0  0  0  0  0  0  0  0  0
  -11.3134   -8.1250    8.8543 O   0  0  0  0  0  0  0  0  0  0  0  0
  -12.9494   -6.9391   10.0616 C   0  0  0  0  0  0  0  0  0  0  0  0
  -14.0332   -7.6315   10.3509 C   0  0  0  0  0  0  0  0  0  0  0  0
  -11.9329   -5.0107   12.9042 H   0  0  0  0  0  0  0  0  0  0  0  0
  -11.2349   -7.4674    8.1178 H   0  0  0  0  0  0  0  0  0  0  0  0
  -16.4737   -9.9029    2.6880 C   0  0  0  0  0  0  0  0  0  0  0  0
  -15.6331   -8.6785    2.8728 C   0  0  0  0  0  0  0  0  0  0  0  0
  -14.2029   -9.0884    3.1569 C   0  0  0  0  0  0  0  0  0  0  0  0
  -14.0038   -9.8399    4.4202 C   0  0  0  0  0  0  0  0  0  0  0  0
  -12.6120   -9.8414    4.9733 C   0  0  0  0  0  0  0  0  0  0  0  0
  -12.4536   -9.7486    6.4395 C   0  0  0  0  0  0  0  0  0  0  0  0
  -13.6182  -10.2802    7.2241 C   0  0  0  0  0  0  0  0  0  0  0  0
  -12.4128   -8.2384    6.8176 C   0  0  0  0  0  0  0  0  0  0  0  0
  -11.2890  -10.3316    6.9097 O   0  0  0  0  0  0  0  0  0  0  0  0
  -11.4392  -10.8688    7.7409 H   0  0  0  0  0  0  0  0  0  0  0  0
 24 25  1  0  0  0
 25 26  1  0  0  0
 26 27  1  0  0  0
 27 28  1  0  0  0
 28 29  1  0  0  0
 29 30  1  0  0  0
 29 31  1  0  0  0
 29 32  1  0  0  0
 25  1  1  0  0  0
  1  2  1  0  0  0
  2  3  1  0  0  0
  3  4  1  0  0  0
  4  5  1  0  0  0
  5  6  1  0  0  0
  6  7  1  0  0  0
  7  8  1  0  0  0
  8  9  1  0  0  0
  9 10  1  0  0  0
  5 11  2  0  0  0
 11 12  1  0  0  0
 12 13  2  0  0  0
 13 14  1  0  0  0
 14 15  1  0  0  0
 15 16  1  0  0  0
 15 17  1  0  0  0
 17 18  1  0  0  0
 18 19  1  0  0  0
 18 20  1  0  0  0
 20 21  2  0  0  0
  9  1  1  0  0  0
 20 13  1  0  0  0
  9  4  1  0  0  0
 32 33  1  0  0  0
 16 22  1  0  0  0
 19 23  1  0  0  0
M  END
> <minimizedAffinity>
5.48715

> <CNNscore>
0.3604871929

> <CNNaffinity>
6.5704054832

> <CNN_VS>
2.3685469627

> <CNNaffinity_variance>
0.1873202920

$$$$
[H]OC(C([H])([H])[H])(C([H])([H])[H])C([H])([H])C([H])([H])C([H])([H])[C@@]([H])(C([H])([H])[H])[C@@]1([H])C([H])([H])C([H])([H])[C@@]2([H])/C(=C([H])/C([H])=C3\C(=C([H])[H])[C@@]([H])(O[H])C([H])([H])[C@]([H])(O[H])C3([H])[H])C([H])([H])C([H])([H])C([H])([H])[C@@]21C([H])([H])[H]


 33 35  0  0  0  0  0  0  0  0999 V2000
   -6.7551   -8.2727    6.7842 C   0  0  0  0  0  0  0  0  0  0  0  0
   -7.5144   -7.2752    5.8945 C   0  0  0  0  0  0  0  0  0  0  0  0
   -6.4958   -6.2748    5.3972 C   0  0  0  0  0  0  0  0  0  0  0  0
   -5.2136   -6.8660    5.7844 C   0  0  0  0  0  0  0  0  0  0  0  0
   -4.0620   -5.9689    5.8883 C   0  0  0  0  0  0  0  0  0  0  0  0
   -2.8416   -6.5548    6.5080 C   0  0  0  0  0  0  0  0  0  0  0  0
   -3.1258   -8.0580    6.5747 C   0  0  0  0  0  0  0  0  0  0  0  0
   -4.3186   -8.3488    7.4461 C   0  0  0  0  0  0  0  0  0  0  0  0
   -5.5334   -7.5251    7.1237 C   0  0  0  0  0  0  0  0  0  0  0  0
   -5.7777   -6.4521    8.1752 C   0  0  0  0  0  0  0  0  0  0  0  0
   -4.0121   -4.7197    5.4820 C   0  0  0  0  0  0  0  0  0  0  0  0
   -2.7820   -3.9919    5.6723 C   0  0  0  0  0  0  0  0  0  0  0  0
   -2.5713   -2.7645    5.1852 C   0  0  0  0  0  0  0  0  0  0  0  0
   -1.3035   -2.0190    5.3996 C   0  0  0  0  0  0  0  0  0  0  0  0
   -1.4864   -0.5634    5.0360 C   0  0  0  0  0  0  0  0  0  0  0  0
   -1.2072   -0.3477    3.7030 O   0  0  0  0  0  0  0  0  0  0  0  0
   -2.8619   -0.0507    5.3719 C   0  0  0  0  0  0  0  0  0  0  0  0
   -3.9750   -0.7410    4.6193 C   0  0  0  0  0  0  0  0  0  0  0  0
   -5.1523   -0.7267    5.3729 O   0  0  0  0  0  0  0  0  0  0  0  0
   -3.5879   -2.1520    4.3423 C   0  0  0  0  0  0  0  0  0  0  0  0
   -4.0726   -2.8881    3.3620 C   0  0  0  0  0  0  0  0  0  0  0  0
   -0.3955   -0.8203    3.4111 H   0  0  0  0  0  0  0  0  0  0  0  0
   -4.9845   -1.0434    6.2962 H   0  0  0  0  0  0  0  0  0  0  0  0
   -7.8290  -10.1747    7.8979 C   0  0  0  0  0  0  0  0  0  0  0  0
   -7.6276   -8.6924    7.9432 C   0  0  0  0  0  0  0  0  0  0  0  0
   -8.9734   -8.0000    7.8841 C   0  0  0  0  0  0  0  0  0  0  0  0
  -10.1411   -8.9058    7.7573 C   0  0  0  0  0  0  0  0  0  0  0  0
  -11.4856   -8.2467    7.7242 C   0  0  0  0  0  0  0  0  0  0  0  0
  -12.6796   -9.1171    7.7342 C   0  0  0  0  0  0  0  0  0  0  0  0
  -13.0918   -9.6202    6.3809 C   0  0  0  0  0  0  0  0  0  0  0  0
  -13.8922   -8.2536    8.1916 C   0  0  0  0  0  0  0  0  0  0  0  0
  -12.5763  -10.1907    8.6025 O   0  0  0  0  0  0  0  0  0  0  0  0
  -12.9186  -11.0414    8.2008 H   0  0  0  0  0  0  0  0  0  0  0  0
 24 25  1  0  0  0
 25 26  1  0  0  0
 26 27  1  0  0  0
 27 28  1  0  0  0
 28 29  1  0  0  0
 29 30  1  0  0  0
 29 31  1  0  0  0
 29 32  1  0  0  0
 25  1  1  0  0  0
  1  2  1  0  0  0
  2  3  1  0  0  0
  3  4  1  0  0  0
  4  5  1  0  0  0
  5  6  1  0  0  0
  6  7  1  0  0  0
  7  8  1  0  0  0
  8  9  1  0  0  0
  9 10  1  0  0  0
  5 11  2  0  0  0
 11 12  1  0  0  0
 12 13  2  0  0  0
 13 14  1  0  0  0
 14 15  1  0  0  0
 15 16  1  0  0  0
 15 17  1  0  0  0
 17 18  1  0  0  0
 18 19  1  0  0  0
 18 20  1  0  0  0
 20 21  2  0  0  0
  9  1  1  0  0  0
 20 13  1  0  0  0
  9  4  1  0  0  0
 32 33  1  0  0  0
 16 22  1  0  0  0
 19 23  1  0  0  0
M  END
> <minimizedAffinity>
-7.68322

> <CNNscore>
0.3535023332

> <CNNaffinity>
5.9453439713

> <CNN_VS>
2.1016929150

> <CNNaffinity_variance>
0.0751046091

$$$$
[H]OC(C([H])([H])[H])(C([H])([H])[H])C([H])([H])C([H])([H])C([H])([H])[C@@]([H])(C([H])([H])[H])[C@@]1([H])C([H])([H])C([H])([H])[C@@]2([H])/C(=C([H])/C([H])=C3\C(=C([H])[H])[C@@]([H])(O[H])C([H])([H])[C@]([H])(O[H])C3([H])[H])C([H])([H])C([H])([H])C([H])([H])[C@@]21C([H])([H])[H]


 33 35  0  0  0  0  0  0  0  0999 V2000
   -5.6488   -7.3445    7.2303 C   0  0  0  0  0  0  0  0  0  0  0  0
   -6.0058   -8.4343    8.2539 C   0  0  0  0  0  0  0  0  0  0  0  0
   -7.5106   -8.5776    8.2281 C   0  0  0  0  0  0  0  0  0  0  0  0
   -7.9119   -7.7950    7.0576 C   0  0  0  0  0  0  0  0  0  0  0  0
   -9.2971   -7.3261    7.0033 C   0  0  0  0  0  0  0  0  0  0  0  0
   -9.6040   -6.3436    5.9276 C   0  0  0  0  0  0  0  0  0  0  0  0
   -8.3721   -6.3690    5.0182 C   0  0  0  0  0  0  0  0  0  0  0  0
   -7.1380   -5.9298    5.7604 C   0  0  0  0  0  0  0  0  0  0  0  0
   -6.9259   -6.6297    7.0730 C   0  0  0  0  0  0  0  0  0  0  0  0
   -7.2335   -5.7162    8.2510 C   0  0  0  0  0  0  0  0  0  0  0  0
  -10.2741   -7.6973    7.8008 C   0  0  0  0  0  0  0  0  0  0  0  0
  -11.5789   -7.1209    7.5906 C   0  0  0  0  0  0  0  0  0  0  0  0
  -12.6457   -7.8344    7.2150 C   0  0  0  0  0  0  0  0  0  0  0  0
  -13.9890   -7.2308    7.0147 C   0  0  0  0  0  0  0  0  0  0  0  0
  -15.0403   -8.3135    6.9317 C   0  0  0  0  0  0  0  0  0  0  0  0
  -15.2089   -8.7409    5.6315 O   0  0  0  0  0  0  0  0  0  0  0  0
  -14.7400   -9.4829    7.8318 C   0  0  0  0  0  0  0  0  0  0  0  0
  -13.4618  -10.2104    7.4872 C   0  0  0  0  0  0  0  0  0  0  0  0
  -12.9128  -10.7960    8.6316 O   0  0  0  0  0  0  0  0  0  0  0  0
  -12.4818   -9.2485    6.9111 C   0  0  0  0  0  0  0  0  0  0  0  0
  -11.4866   -9.5750    6.1105 C   0  0  0  0  0  0  0  0  0  0  0  0
  -15.2346   -7.9925    4.9938 H   0  0  0  0  0  0  0  0  0  0  0  0
  -12.8590  -10.1409    9.3725 H   0  0  0  0  0  0  0  0  0  0  0  0
   -3.2240   -7.0116    7.0851 C   0  0  0  0  0  0  0  0  0  0  0  0
   -4.4824   -6.5293    7.7358 C   0  0  0  0  0  0  0  0  0  0  0  0
   -4.3498   -6.6518    9.2397 C   0  0  0  0  0  0  0  0  0  0  0  0
   -3.8397   -5.4400    9.9264 C   0  0  0  0  0  0  0  0  0  0  0  0
   -3.3344   -5.6375   11.3224 C   0  0  0  0  0  0  0  0  0  0  0  0
   -1.8853   -5.8614   11.5050 C   0  0  0  0  0  0  0  0  0  0  0  0
   -1.4495   -7.2861   11.3182 C   0  0  0  0  0  0  0  0  0  0  0  0
   -1.5433   -5.5634   12.9947 C   0  0  0  0  0  0  0  0  0  0  0  0
   -1.0938   -5.0407   10.7193 O   0  0  0  0  0  0  0  0  0  0  0  0
   -0.3273   -5.5328   10.3040 H   0  0  0  0  0  0  0  0  0  0  0  0
 24 25  1  0  0  0
 25 26  1  0  0  0
 26 27  1  0  0  0
 27 28  1  0  0  0
 28 29  1  0  0  0
 29 30  1  0  0  0
 29 31  1  0  0  0
 29 32  1  0  0  0
 25  1  1  0  0  0
  1  2  1  0  0  0
  2  3  1  0  0  0
  3  4  1  0  0  0
  4  5  1  0  0  0
  5  6  1  0  0  0
  6  7  1  0  0  0
  7  8  1  0  0  0
  8  9  1  0  0  0
  9 10  1  0  0  0
  5 11  2  0  0  0
 11 12  1  0  0  0
 12 13  2  0  0  0
 13 14  1  0  0  0
 14 15  1  0  0  0
 15 16  1  0  0  0
 15 17  1  0  0  0
 17 18  1  0  0  0
 18 19  1  0  0  0
 18 20  1  0  0  0
 20 21  2  0  0  0
  9  1  1  0  0  0
 20 13  1  0  0  0
  9  4  1  0  0  0
 32 33  1  0  0  0
 16 22  1  0  0  0
 19 23  1  0  0  0
M  END
> <minimizedAffinity>
0.04224

> <CNNscore>
0.3471851647

> <CNNaffinity>
6.4235320091

> <CNN_VS>
2.2301549911

> <CNNaffinity_variance>
0.5771786571

$$$$
[H]OC(C([H])([H])[H])(C([H])([H])[H])C([H])([H])C([H])([H])C([H])([H])[C@@]([H])(C([H])([H])[H])[C@@]1([H])C([H])([H])C([H])([H])[C@@]2([H])/C(=C([H])/C([H])=C3\C(=C([H])[H])[C@@]([H])(O[H])C([H])([H])[C@]([H])(O[H])C3([H])[H])C([H])([H])C([H])([H])C([H])([H])[C@@]21C([H])([H])[H]


 33 35  0  0  0  0  0  0  0  0999 V2000
  -10.1503   -9.1467    7.9478 C   0  0  0  0  0  0  0  0  0  0  0  0
   -9.6811  -10.0715    6.8131 C   0  0  0  0  0  0  0  0  0  0  0  0
   -8.3236   -9.5688    6.3770 C   0  0  0  0  0  0  0  0  0  0  0  0
   -7.9697   -8.5915    7.4081 C   0  0  0  0  0  0  0  0  0  0  0  0
   -6.9664   -7.5830    7.0646 C   0  0  0  0  0  0  0  0  0  0  0  0
   -6.8061   -6.4728    8.0435 C   0  0  0  0  0  0  0  0  0  0  0  0
   -7.5844   -6.9323    9.2797 C   0  0  0  0  0  0  0  0  0  0  0  0
   -9.0454   -7.1164    8.9663 C   0  0  0  0  0  0  0  0  0  0  0  0
   -9.3140   -7.9522    7.7467 C   0  0  0  0  0  0  0  0  0  0  0  0
   -9.7833   -7.1002    6.5761 C   0  0  0  0  0  0  0  0  0  0  0  0
   -6.2053   -7.5789    5.9927 C   0  0  0  0  0  0  0  0  0  0  0  0
   -5.2709   -6.4934    5.8270 C   0  0  0  0  0  0  0  0  0  0  0  0
   -3.9582   -6.6128    6.0520 C   0  0  0  0  0  0  0  0  0  0  0  0
   -3.0029   -5.4897    5.8646 C   0  0  0  0  0  0  0  0  0  0  0  0
   -1.5830   -6.0075    5.8616 C   0  0  0  0  0  0  0  0  0  0  0  0
   -1.0630   -6.0328    7.1385 O   0  0  0  0  0  0  0  0  0  0  0  0
   -1.4627   -7.3650    5.2209 C   0  0  0  0  0  0  0  0  0  0  0  0
   -2.2291   -8.4519    5.9372 C   0  0  0  0  0  0  0  0  0  0  0  0
   -2.6201   -9.4455    5.0350 O   0  0  0  0  0  0  0  0  0  0  0  0
   -3.4400   -7.8677    6.5772 C   0  0  0  0  0  0  0  0  0  0  0  0
   -4.0672   -8.3839    7.6156 C   0  0  0  0  0  0  0  0  0  0  0  0
   -1.2790   -5.2178    7.6449 H   0  0  0  0  0  0  0  0  0  0  0  0
   -3.0596   -9.0486    4.2410 H   0  0  0  0  0  0  0  0  0  0  0  0
  -12.2478   -9.1061    9.2167 C   0  0  0  0  0  0  0  0  0  0  0  0
  -11.6438   -8.9420    7.8573 C   0  0  0  0  0  0  0  0  0  0  0  0
  -12.2688   -9.9407    6.9053 C   0  0  0  0  0  0  0  0  0  0  0  0
  -13.6319   -9.5928    6.4353 C   0  0  0  0  0  0  0  0  0  0  0  0
  -13.8174   -8.1955    5.9290 C   0  0  0  0  0  0  0  0  0  0  0  0
  -15.1234   -7.8472    5.3319 C   0  0  0  0  0  0  0  0  0  0  0  0
  -15.1596   -7.9218    3.8327 C   0  0  0  0  0  0  0  0  0  0  0  0
  -15.3969   -6.3439    5.6330 C   0  0  0  0  0  0  0  0  0  0  0  0
  -16.1810   -8.5783    5.8457 O   0  0  0  0  0  0  0  0  0  0  0  0
  -16.8145   -8.8858    5.1341 H   0  0  0  0  0  0  0  0  0  0  0  0
 24 25  1  0  0  0
 25 26  1  0  0  0
 26 27  1  0  0  0
 27 28  1  0  0  0
 28 29  1  0  0  0
 29 30  1  0  0  0
 29 31  1  0  0  0
 29 32  1  0  0  0
 25  1  1  0  0  0
  1  2  1  0  0  0
  2  3  1  0  0  0
  3  4  1  0  0  0
  4  5  1  0  0  0
  5  6  1  0  0  0
  6  7  1  0  0  0
  7  8  1  0  0  0
  8  9  1  0  0  0
  9 10  1  0  0  0
  5 11  2  0  0  0
 11 12  1  0  0  0
 12 13  2  0  0  0
 13 14  1  0  0  0
 14 15  1  0  0  0
 15 16  1  0  0  0
 15 17  1  0  0  0
 17 18  1  0  0  0
 18 19  1  0  0  0
 18 20  1  0  0  0
 20 21  2  0  0  0
  9  1  1  0  0  0
 20 13  1  0  0  0
  9  4  1  0  0  0
 32 33  1  0  0  0
 16 22  1  0  0  0
 19 23  1  0  0  0
M  END
> <minimizedAffinity>
-5.47702

> <CNNscore>
0.3304331899

> <CNNaffinity>
6.5503454208

> <CNN_VS>
2.1644515991

> <CNNaffinity_variance>
0.1982460469

$$$$
[H]OC(C([H])([H])[H])(C([H])([H])[H])C([H])([H])C([H])([H])C([H])([H])[C@@]([H])(C([H])([H])[H])[C@@]1([H])C([H])([H])C([H])([H])[C@@]2([H])/C(=C([H])/C([H])=C3\C(=C([H])[H])[C@@]([H])(O[H])C([H])([H])[C@]([H])(O[H])C3([H])[H])C([H])([H])C([H])([H])C([H])([H])[C@@]21C([H])([H])[H]


 33 35  0  0  0  0  0  0  0  0999 V2000
   -9.7812   -8.0406    7.3119 C   0  0  0  0  0  0  0  0  0  0  0  0
   -9.8461   -6.6083    7.8661 C   0  0  0  0  0  0  0  0  0  0  0  0
   -8.4579   -6.0258    7.7266 C   0  0  0  0  0  0  0  0  0  0  0  0
   -7.7552   -7.0038    6.8939 C   0  0  0  0  0  0  0  0  0  0  0  0
   -6.2929   -7.0095    6.9502 C   0  0  0  0  0  0  0  0  0  0  0  0
   -5.6260   -8.1602    6.2809 C   0  0  0  0  0  0  0  0  0  0  0  0
   -6.7390   -8.8366    5.4753 C   0  0  0  0  0  0  0  0  0  0  0  0
   -7.8315   -9.3464    6.3772 C   0  0  0  0  0  0  0  0  0  0  0  0
   -8.3396   -8.3334    7.3639 C   0  0  0  0  0  0  0  0  0  0  0  0
   -7.8545   -8.6338    8.7750 C   0  0  0  0  0  0  0  0  0  0  0  0
   -5.5344   -6.1004    7.5215 C   0  0  0  0  0  0  0  0  0  0  0  0
   -4.1046   -6.2807    7.4738 C   0  0  0  0  0  0  0  0  0  0  0  0
   -3.2962   -5.5433    6.7051 C   0  0  0  0  0  0  0  0  0  0  0  0
   -1.8220   -5.7298    6.6748 C   0  0  0  0  0  0  0  0  0  0  0  0
   -1.1612   -4.5535    5.9937 C   0  0  0  0  0  0  0  0  0  0  0  0
   -1.0602   -4.7617    4.6343 O   0  0  0  0  0  0  0  0  0  0  0  0
   -1.8656   -3.2520    6.2725 C   0  0  0  0  0  0  0  0  0  0  0  0
   -3.2854   -3.2002    5.7592 C   0  0  0  0  0  0  0  0  0  0  0  0
   -4.0562   -2.3422    6.5490 O   0  0  0  0  0  0  0  0  0  0  0  0
   -3.8782   -4.5656    5.7972 C   0  0  0  0  0  0  0  0  0  0  0  0
   -4.8772   -4.9750    5.0406 C   0  0  0  0  0  0  0  0  0  0  0  0
   -0.7635   -5.6742    4.4182 H   0  0  0  0  0  0  0  0  0  0  0  0
   -3.9443   -2.5515    7.5106 H   0  0  0  0  0  0  0  0  0  0  0  0
  -11.3045   -9.9595    7.2188 C   0  0  0  0  0  0  0  0  0  0  0  0
  -10.6782   -8.9449    8.1233 C   0  0  0  0  0  0  0  0  0  0  0  0
  -11.7654   -8.1479    8.8141 C   0  0  0  0  0  0  0  0  0  0  0  0
  -13.1513   -8.5114    8.4304 C   0  0  0  0  0  0  0  0  0  0  0  0
  -13.9894   -7.4066    7.8647 C   0  0  0  0  0  0  0  0  0  0  0  0
  -14.8215   -7.7099    6.6819 C   0  0  0  0  0  0  0  0  0  0  0  0
  -14.1674   -8.6161    5.6793 C   0  0  0  0  0  0  0  0  0  0  0  0
  -15.0316   -6.3817    5.8965 C   0  0  0  0  0  0  0  0  0  0  0  0
  -16.0718   -8.2141    6.9978 O   0  0  0  0  0  0  0  0  0  0  0  0
  -16.3338   -8.9816    6.4107 H   0  0  0  0  0  0  0  0  0  0  0  0
 24 25  1  0  0  0
 25 26  1  0  0  0
 26 27  1  0  0  0
 27 28  1  0  0  0
 28 29  1  0  0  0
 29 30  1  0  0  0
 29 31  1  0  0  0
 29 32  1  0  0  0
 25  1  1  0  0  0
  1  2  1  0  0  0
  2  3  1  0  0  0
  3  4  1  0  0  0
  4  5  1  0  0  0
  5  6  1  0  0  0
  6  7  1  0  0  0
  7  8  1  0  0  0
  8  9  1  0  0  0
  9 10  1  0  0  0
  5 11  2  0  0  0
 11 12  1  0  0  0
 12 13  2  0  0  0
 13 14  1  0  0  0
 14 15  1  0  0  0
 15 16  1  0  0  0
 15 17  1  0  0  0
 17 18  1  0  0  0
 18 19  1  0  0  0
 18 20  1  0  0  0
 20 21  2  0  0  0
  9  1  1  0  0  0
 20 13  1  0  0  0
  9  4  1  0  0  0
 32 33  1  0  0  0
 16 22  1  0  0  0
 19 23  1  0  0  0
M  END
> <minimizedAffinity>
-7.50527

> <CNNscore>
0.3296057284

> <CNNaffinity>
6.3792371750

> <CNN_VS>
2.1026329994

> <CNNaffinity_variance>
0.0811317787

$$$$
[H]OC(=O)C([H])([H])C([H])([H])[C@@]([H])(C([H])([H])[H])[C@@]1([H])C([H])([H])C([H])([H])[C@@]2([H])[C@]3([H])C([H])([H])[C@]([H])(O[H])C([H])([H])C([H])([H])[C@]3(C([H])([H])[H])[C@@]21[H]


 22 24  0  0  0  0  0  0  0  0999 V2000
  -10.6078   -7.2210    8.1578 C   0  0  0  0  0  0  0  0  0  0  0  0
  -11.1367   -5.8998    8.7669 C   0  0  0  0  0  0  0  0  0  0  0  0
   -9.9627   -4.9123    8.5823 C   0  0  0  0  0  0  0  0  0  0  0  0
   -9.0279   -5.7259    7.8265 C   0  0  0  0  0  0  0  0  0  0  0  0
   -7.6240   -5.9667    8.0109 C   0  0  0  0  0  0  0  0  0  0  0  0
   -6.7640   -5.6729    6.8169 C   0  0  0  0  0  0  0  0  0  0  0  0
   -5.9119   -6.8432    6.3784 C   0  0  0  0  0  0  0  0  0  0  0  0
   -5.1509   -6.4274    5.2880 O   0  0  0  0  0  0  0  0  0  0  0  0
   -6.7885   -7.9884    5.9188 C   0  0  0  0  0  0  0  0  0  0  0  0
   -8.0614   -8.0809    6.6858 C   0  0  0  0  0  0  0  0  0  0  0  0
   -8.0010   -7.4630    8.0512 C   0  0  0  0  0  0  0  0  0  0  0  0
   -7.0660   -8.1558    9.0185 C   0  0  0  0  0  0  0  0  0  0  0  0
   -9.2270   -7.0406    8.6484 C   0  0  0  0  0  0  0  0  0  0  0  0
   -5.7425   -5.9683    4.6659 H   0  0  0  0  0  0  0  0  0  0  0  0
  -10.7860   -9.6361    7.8896 C   0  0  0  0  0  0  0  0  0  0  0  0
  -11.3472   -8.4021    8.5648 C   0  0  0  0  0  0  0  0  0  0  0  0
  -12.8373   -8.3465    8.4977 C   0  0  0  0  0  0  0  0  0  0  0  0
  -13.3676   -8.8131    9.8543 C   0  0  0  0  0  0  0  0  0  0  0  0
  -14.2625   -7.8310   10.4657 C   0  0  0  0  0  0  0  0  0  0  0  0
  -15.5930   -8.2113   10.7507 O   0  0  0  0  0  0  0  0  0  0  0  0
  -13.8547   -6.6764   10.7332 O   0  0  0  0  0  0  0  0  0  0  0  0
  -15.8126   -9.2061   10.7464 H   0  0  0  0  0  0  0  0  0  0  0  0
 15 16  1  0  0  0
 16 17  1  0  0  0
 17 18  1  0  0  0
 18 19  1  0  0  0
 19 20  1  0  0  0
 19 21  2  0  0  0
 16  1  1  0  0  0
  1  2  1  0  0  0
  2  3  1  0  0  0
  3  4  1  0  0  0
  4  5  1  0  0  0
  5  6  1  0  0  0
  6  7  1  0  0  0
  7  8  1  0  0  0
  7  9  1  0  0  0
  9 10  1  0  0  0
 10 11  1  0  0  0
 11 12  1  0  0  0
 11 13  1  0  0  0
 13  1  1  0  0  0
 13  4  1  0  0  0
 11  5  1  0  0  0
 20 22  1  0  0  0
  8 14  1  0  0  0
M  END
> <minimizedAffinity>
0.41610

> <CNNscore>
0.3958219588

> <CNNaffinity>
5.4079847336

> <CNN_VS>
2.1405990124

> <CNNaffinity_variance>
0.4202905595

$$$$
[H]OC(=O)C([H])([H])C([H])([H])[C@@]([H])(C([H])([H])[H])[C@@]1([H])C([H])([H])C([H])([H])[C@@]2([H])[C@]3([H])C([H])([H])[C@]([H])(O[H])C([H])([H])C([H])([H])[C@]3(C([H])([H])[H])[C@@]21[H]


 22 24  0  0  0  0  0  0  0  0999 V2000
  -12.4027   -8.1185    7.9792 C   0  0  0  0  0  0  0  0  0  0  0  0
  -12.6370   -7.7264    9.4582 C   0  0  0  0  0  0  0  0  0  0  0  0
  -14.1623   -7.4934    9.5411 C   0  0  0  0  0  0  0  0  0  0  0  0
  -14.5785   -7.8825    8.2059 C   0  0  0  0  0  0  0  0  0  0  0  0
  -15.4322   -7.2261    7.2555 C   0  0  0  0  0  0  0  0  0  0  0  0
  -16.5820   -8.0502    6.7551 C   0  0  0  0  0  0  0  0  0  0  0  0
  -16.6335   -8.1706    5.2482 C   0  0  0  0  0  0  0  0  0  0  0  0
  -17.7543   -8.9313    4.9226 O   0  0  0  0  0  0  0  0  0  0  0  0
  -15.4131   -8.9062    4.7377 C   0  0  0  0  0  0  0  0  0  0  0  0
  -14.1938   -8.6248    5.5447 C   0  0  0  0  0  0  0  0  0  0  0  0
  -14.2356   -7.3210    6.2851 C   0  0  0  0  0  0  0  0  0  0  0  0
  -14.2499   -6.0922    5.4021 C   0  0  0  0  0  0  0  0  0  0  0  0
  -13.4091   -7.1819    7.4408 C   0  0  0  0  0  0  0  0  0  0  0  0
  -17.7606   -9.7182    5.4957 H   0  0  0  0  0  0  0  0  0  0  0  0
  -10.3952   -9.3612    7.3773 C   0  0  0  0  0  0  0  0  0  0  0  0
  -11.0243   -7.9934    7.5413 C   0  0  0  0  0  0  0  0  0  0  0  0
  -10.1415   -7.0483    8.2865 C   0  0  0  0  0  0  0  0  0  0  0  0
   -8.7079   -7.5614    8.1424 C   0  0  0  0  0  0  0  0  0  0  0  0
   -7.8825   -6.6738    7.3240 C   0  0  0  0  0  0  0  0  0  0  0  0
   -6.6433   -6.2331    7.8401 O   0  0  0  0  0  0  0  0  0  0  0  0
   -8.2671   -6.3144    6.1864 O   0  0  0  0  0  0  0  0  0  0  0  0
   -6.2615   -6.7293    8.6437 H   0  0  0  0  0  0  0  0  0  0  0  0
 15 16  1  0  0  0
 16 17  1  0  0  0
 17 18  1  0  0  0
 18 19  1  0  0  0
 19 20  1  0  0  0
 19 21  2  0  0  0
 16  1  1  0  0  0
  1  2  1  0  0  0
  2  3  1  0  0  0
  3  4  1  0  0  0
  4  5  1  0  0  0
  5  6  1  0  0  0
  6  7  1  0  0  0
  7  8  1  0  0  0
  7  9  1  0  0  0
  9 10  1  0  0  0
 10 11  1  0  0  0
 11 12  1  0  0  0
 11 13  1  0  0  0
 13  1  1  0  0  0
 13  4  1  0  0  0
 11  5  1  0  0  0
 20 22  1  0  0  0
  8 14  1  0  0  0
M  END
> <minimizedAffinity>
-8.76082

> <CNNscore>
0.2446245104

> <CNNaffinity>
5.9522776604

> <CNN_VS>
1.4560730457

> <CNNaffinity_variance>
0.1418066621

$$$$
[H]OC(=O)C([H])([H])C([H])([H])[C@@]([H])(C([H])([H])[H])[C@@]1([H])C([H])([H])C([H])([H])[C@@]2([H])[C@]3([H])C([H])([H])[C@]([H])(O[H])C([H])([H])C([H])([H])[C@]3(C([H])([H])[H])[C@@]21[H]


 22 24  0  0  0  0  0  0  0  0999 V2000
   -5.9232   -6.6833    6.4053 C   0  0  0  0  0  0  0  0  0  0  0  0
   -5.2595   -7.6945    5.4393 C   0  0  0  0  0  0  0  0  0  0  0  0
   -6.2387   -8.8898    5.4263 C   0  0  0  0  0  0  0  0  0  0  0  0
   -7.3225   -8.3735    6.2425 C   0  0  0  0  0  0  0  0  0  0  0  0
   -8.0311   -8.9564    7.3474 C   0  0  0  0  0  0  0  0  0  0  0  0
   -9.5231   -9.0045    7.1945 C   0  0  0  0  0  0  0  0  0  0  0  0
  -10.2723   -8.3408    8.3286 C   0  0  0  0  0  0  0  0  0  0  0  0
  -11.6350   -8.4811    8.0748 O   0  0  0  0  0  0  0  0  0  0  0  0
   -9.9611   -6.8600    8.3685 C   0  0  0  0  0  0  0  0  0  0  0  0
   -8.5628   -6.5558    7.9567 C   0  0  0  0  0  0  0  0  0  0  0  0
   -7.6081   -7.6986    8.1360 C   0  0  0  0  0  0  0  0  0  0  0  0
   -7.3709   -8.1052    9.5741 C   0  0  0  0  0  0  0  0  0  0  0  0
   -6.4245   -7.7123    7.3379 C   0  0  0  0  0  0  0  0  0  0  0  0
  -11.7951   -8.2343    7.1468 H   0  0  0  0  0  0  0  0  0  0  0  0
   -3.8919   -5.4250    5.9290 C   0  0  0  0  0  0  0  0  0  0  0  0
   -5.0231   -5.6612    6.9077 C   0  0  0  0  0  0  0  0  0  0  0  0
   -4.5393   -5.7915    8.3138 C   0  0  0  0  0  0  0  0  0  0  0  0
   -3.2891   -4.9200    8.4432 C   0  0  0  0  0  0  0  0  0  0  0  0
   -2.2201   -5.5926    9.1805 C   0  0  0  0  0  0  0  0  0  0  0  0
   -1.5894   -4.9029   10.2401 O   0  0  0  0  0  0  0  0  0  0  0  0
   -1.8734   -6.7587    8.8788 O   0  0  0  0  0  0  0  0  0  0  0  0
   -2.0520   -4.0724   10.6064 H   0  0  0  0  0  0  0  0  0  0  0  0
 15 16  1  0  0  0
 16 17  1  0  0  0
 17 18  1  0  0  0
 18 19  1  0  0  0
 19 20  1  0  0  0
 19 21  2  0  0  0
 16  1  1  0  0  0
  1  2  1  0  0  0
  2  3  1  0  0  0
  3  4  1  0  0  0
  4  5  1  0  0  0
  5  6  1  0  0  0
  6  7  1  0  0  0
  7  8  1  0  0  0
  7  9  1  0  0  0
  9 10  1  0  0  0
 10 11  1  0  0  0
 11 12  1  0  0  0
 11 13  1  0  0  0
 13  1  1  0  0  0
 13  4  1  0  0  0
 11  5  1  0  0  0
 20 22  1  0  0  0
  8 14  1  0  0  0
M  END
> <minimizedAffinity>
-4.35830

> <CNNscore>
0.2282970548

> <CNNaffinity>
4.7138919830

> <CNN_VS>
1.0761677027

> <CNNaffinity_variance>
0.3076405823

$$$$
[H]OC(=O)C([H])([H])C([H])([H])[C@@]([H])(C([H])([H])[H])[C@@]1([H])C([H])([H])C([H])([H])[C@@]2([H])[C@]3([H])C([H])([H])[C@]([H])(O[H])C([H])([H])C([H])([H])[C@]3(C([H])([H])[H])[C@@]21[H]


 22 24  0  0  0  0  0  0  0  0999 V2000
   -4.7225   -6.7666    6.8354 C   0  0  0  0  0  0  0  0  0  0  0  0
   -3.8094   -7.9129    6.3368 C   0  0  0  0  0  0  0  0  0  0  0  0
   -4.7444   -9.1426    6.3059 C   0  0  0  0  0  0  0  0  0  0  0  0
   -6.0170   -8.5363    6.6525 C   0  0  0  0  0  0  0  0  0  0  0  0
   -7.0148   -8.9209    7.6114 C   0  0  0  0  0  0  0  0  0  0  0  0
   -8.3993   -9.0906    7.0583 C   0  0  0  0  0  0  0  0  0  0  0  0
   -9.4430   -8.2543    7.7648 C   0  0  0  0  0  0  0  0  0  0  0  0
  -10.6748   -8.5270    7.1736 O   0  0  0  0  0  0  0  0  0  0  0  0
   -9.1551   -6.7809    7.5712 C   0  0  0  0  0  0  0  0  0  0  0  0
   -7.6972   -6.4834    7.5147 C   0  0  0  0  0  0  0  0  0  0  0  0
   -6.8359   -7.5041    8.1973 C   0  0  0  0  0  0  0  0  0  0  0  0
   -7.0239   -7.5899    9.6963 C   0  0  0  0  0  0  0  0  0  0  0  0
   -5.4725   -7.6097    7.7876 C   0  0  0  0  0  0  0  0  0  0  0  0
  -10.5603   -8.4872    6.2077 H   0  0  0  0  0  0  0  0  0  0  0  0
   -4.3501   -5.3644    8.7929 C   0  0  0  0  0  0  0  0  0  0  0  0
   -4.0045   -5.6097    7.3389 C   0  0  0  0  0  0  0  0  0  0  0  0
   -4.0465   -4.3582    6.5266 C   0  0  0  0  0  0  0  0  0  0  0  0
   -3.1527   -3.3347    7.2286 C   0  0  0  0  0  0  0  0  0  0  0  0
   -3.1203   -2.0534    6.5240 C   0  0  0  0  0  0  0  0  0  0  0  0
   -1.8882   -1.3706    6.4150 O   0  0  0  0  0  0  0  0  0  0  0  0
   -4.1652   -1.5735    6.0251 O   0  0  0  0  0  0  0  0  0  0  0  0
   -1.0372   -1.8945    6.6128 H   0  0  0  0  0  0  0  0  0  0  0  0
 15 16  1  0  0  0
 16 17  1  0  0  0
 17 18  1  0  0  0
 18 19  1  0  0  0
 19 20  1  0  0  0
 19 21  2  0  0  0
 16  1  1  0  0  0
  1  2  1  0  0  0
  2  3  1  0  0  0
  3  4  1  0  0  0
  4  5  1  0  0  0
  5  6  1  0  0  0
  6  7  1  0  0  0
  7  8  1  0  0  0
  7  9  1  0  0  0
  9 10  1  0  0  0
 10 11  1  0  0  0
 11 12  1  0  0  0
 11 13  1  0  0  0
 13  1  1  0  0  0
 13  4  1  0  0  0
 11  5  1  0  0  0
 20 22  1  0  0  0
  8 14  1  0  0  0
M  END
> <minimizedAffinity>
-4.21061

> <CNNscore>
0.2229671180

> <CNNaffinity>
4.6249780655

> <CNN_VS>
1.0312180519

> <CNNaffinity_variance>
0.1696656197

$$$$
[H]OC(=O)C([H])([H])C([H])([H])[C@@]([H])(C([H])([H])[H])[C@@]1([H])C([H])([H])C([H])([H])[C@@]2([H])[C@]3([H])C([H])([H])[C@]([H])(O[H])C([H])([H])C([H])([H])[C@]3(C([H])([H])[H])[C@@]21[H]


 22 24  0  0  0  0  0  0  0  0999 V2000
  -13.5892   -6.8884    6.9279 C   0  0  0  0  0  0  0  0  0  0  0  0
  -14.5708   -6.6504    8.1009 C   0  0  0  0  0  0  0  0  0  0  0  0
  -13.6715   -6.7230    9.3552 C   0  0  0  0  0  0  0  0  0  0  0  0
  -12.3586   -6.8609    8.7516 C   0  0  0  0  0  0  0  0  0  0  0  0
  -11.2855   -7.7752    9.0266 C   0  0  0  0  0  0  0  0  0  0  0  0
   -9.9625   -7.1343    9.3270 C   0  0  0  0  0  0  0  0  0  0  0  0
   -8.8387   -7.6121    8.4345 C   0  0  0  0  0  0  0  0  0  0  0  0
   -7.6736   -6.9626    8.8367 O   0  0  0  0  0  0  0  0  0  0  0  0
   -9.1090   -7.2249    6.9963 C   0  0  0  0  0  0  0  0  0  0  0  0
  -10.5586   -7.2527    6.6569 C   0  0  0  0  0  0  0  0  0  0  0  0
  -11.3765   -8.1545    7.5331 C   0  0  0  0  0  0  0  0  0  0  0  0
  -11.0527   -9.6269    7.4031 C   0  0  0  0  0  0  0  0  0  0  0  0
  -12.7741   -7.8869    7.6479 C   0  0  0  0  0  0  0  0  0  0  0  0
   -7.8761   -6.0156    8.9360 H   0  0  0  0  0  0  0  0  0  0  0  0
  -14.6498   -6.0451    4.9029 C   0  0  0  0  0  0  0  0  0  0  0  0
  -14.2304   -7.2731    5.6836 C   0  0  0  0  0  0  0  0  0  0  0  0
  -15.3105   -8.3014    5.7475 C   0  0  0  0  0  0  0  0  0  0  0  0
  -15.9261   -8.3963    4.3506 C   0  0  0  0  0  0  0  0  0  0  0  0
  -17.3813   -8.2522    4.3767 C   0  0  0  0  0  0  0  0  0  0  0  0
  -18.0904   -8.7345    5.4995 O   0  0  0  0  0  0  0  0  0  0  0  0
  -17.9854   -7.7089    3.4222 O   0  0  0  0  0  0  0  0  0  0  0  0
  -17.5577   -8.9419    6.3428 H   0  0  0  0  0  0  0  0  0  0  0  0
 15 16  1  0  0  0
 16 17  1  0  0  0
 17 18  1  0  0  0
 18 19  1  0  0  0
 19 20  1  0  0  0
 19 21  2  0  0  0
 16  1  1  0  0  0
  1  2  1  0  0  0
  2  3  1  0  0  0
  3  4  1  0  0  0
  4  5  1  0  0  0
  5  6  1  0  0  0
  6  7  1  0  0  0
  7  8  1  0  0  0
  7  9  1  0  0  0
  9 10  1  0  0  0
 10 11  1  0  0  0
 11 12  1  0  0  0
 11 13  1  0  0  0
 13  1  1  0  0  0
 13  4  1  0  0  0
 11  5  1  0  0  0
 20 22  1  0  0  0
  8 14  1  0  0  0
M  END
> <minimizedAffinity>
-6.41493

> <CNNscore>
0.2145817429

> <CNNaffinity>
5.8085298538

> <CNN_VS>
1.2464044094

> <CNNaffinity_variance>
0.1427243501

$$$$
[H]OC(=O)C([H])([H])C([H])([H])[C@@]([H])(C([H])([H])[H])[C@@]1([H])C([H])([H])C([H])([H])[C@@]2([H])[C@]3([H])C([H])([H])[C@]([H])(O[H])C([H])([H])C([H])([H])[C@]3(C([H])([H])[H])[C@@]21[H]


 22 24  0  0  0  0  0  0  0  0999 V2000
   -2.8236   -6.4756    5.4959 C   0  0  0  0  0  0  0  0  0  0  0  0
   -1.7241   -7.5394    5.7321 C   0  0  0  0  0  0  0  0  0  0  0  0
   -2.4723   -8.6934    6.4363 C   0  0  0  0  0  0  0  0  0  0  0  0
   -3.8396   -8.2077    6.3952 C   0  0  0  0  0  0  0  0  0  0  0  0
   -4.8421   -8.1247    7.4204 C   0  0  0  0  0  0  0  0  0  0  0  0
   -6.1440   -8.7963    7.0954 C   0  0  0  0  0  0  0  0  0  0  0  0
   -7.3445   -7.8833    7.2105 C   0  0  0  0  0  0  0  0  0  0  0  0
   -8.4783   -8.6355    6.9108 O   0  0  0  0  0  0  0  0  0  0  0  0
   -7.2527   -6.7639    6.1957 C   0  0  0  0  0  0  0  0  0  0  0  0
   -5.8509   -6.3273    5.9478 C   0  0  0  0  0  0  0  0  0  0  0  0
   -4.9081   -6.6213    7.0767 C   0  0  0  0  0  0  0  0  0  0  0  0
   -5.1932   -5.8610    8.3535 C   0  0  0  0  0  0  0  0  0  0  0  0
   -3.5166   -6.7262    6.7753 C   0  0  0  0  0  0  0  0  0  0  0  0
   -8.2989   -9.1389    6.0971 H   0  0  0  0  0  0  0  0  0  0  0  0
   -1.1202   -5.2130    4.2956 C   0  0  0  0  0  0  0  0  0  0  0  0
   -2.3146   -5.1435    5.2240 C   0  0  0  0  0  0  0  0  0  0  0  0
   -2.0771   -4.2395    6.3878 C   0  0  0  0  0  0  0  0  0  0  0  0
   -3.2939   -3.3197    6.5001 C   0  0  0  0  0  0  0  0  0  0  0  0
   -3.5716   -2.6149    5.2490 C   0  0  0  0  0  0  0  0  0  0  0  0
   -4.7637   -2.9145    4.5523 O   0  0  0  0  0  0  0  0  0  0  0  0
   -2.7683   -1.7605    4.8065 O   0  0  0  0  0  0  0  0  0  0  0  0
   -5.4912   -3.4212    5.0543 H   0  0  0  0  0  0  0  0  0  0  0  0
 15 16  1  0  0  0
 16 17  1  0  0  0
 17 18  1  0  0  0
 18 19  1  0  0  0
 19 20  1  0  0  0
 19 21  2  0  0  0
 16  1  1  0  0  0
  1  2  1  0  0  0
  2  3  1  0  0  0
  3  4  1  0  0  0
  4  5  1  0  0  0
  5  6  1  0  0  0
  6  7  1  0  0  0
  7  8  1  0  0  0
  7  9  1  0  0  0
  9 10  1  0  0  0
 10 11  1  0  0  0
 11 12  1  0  0  0
 11 13  1  0  0  0
 13  1  1  0  0  0
 13  4  1  0  0  0
 11  5  1  0  0  0
 20 22  1  0  0  0
  8 14  1  0  0  0
M  END
> <minimizedAffinity>
-4.63342

> <CNNscore>
0.2100495100

> <CNNaffinity>
4.2513237000

> <CNN_VS>
0.8929884434

> <CNNaffinity_variance>
0.1250550896

$$$$
[H]OC(=O)C([H])([H])C([H])([H])[C@@]([H])(C([H])([H])[H])[C@@]1([H])C([H])([H])C([H])([H])[C@@]2([H])[C@]3([H])C([H])([H])[C@]([H])(O[H])C([H])([H])C([H])([H])[C@]3(C([H])([H])[H])[C@@]21[H]


 22 24  0  0  0  0  0  0  0  0999 V2000
  -10.5997   -8.3500    8.3251 C   0  0  0  0  0  0  0  0  0  0  0  0
  -11.2088   -9.5913    7.6290 C   0  0  0  0  0  0  0  0  0  0  0  0
  -10.0206  -10.1971    6.8489 C   0  0  0  0  0  0  0  0  0  0  0  0
   -8.9334   -9.3383    7.2820 C   0  0  0  0  0  0  0  0  0  0  0  0
   -7.9173   -8.6530    6.5332 C   0  0  0  0  0  0  0  0  0  0  0  0
   -6.5074   -8.9430    6.9571 C   0  0  0  0  0  0  0  0  0  0  0  0
   -5.7104   -7.7056    7.3053 C   0  0  0  0  0  0  0  0  0  0  0  0
   -4.4243   -8.1143    7.6519 O   0  0  0  0  0  0  0  0  0  0  0  0
   -6.3138   -7.0131    8.5085 C   0  0  0  0  0  0  0  0  0  0  0  0
   -7.7974   -7.1314    8.5549 C   0  0  0  0  0  0  0  0  0  0  0  0
   -8.4357   -7.3708    7.2189 C   0  0  0  0  0  0  0  0  0  0  0  0
   -8.2986   -6.2268    6.2380 C   0  0  0  0  0  0  0  0  0  0  0  0
   -9.7213   -7.9911    7.1939 C   0  0  0  0  0  0  0  0  0  0  0  0
   -4.5028   -8.8597    8.2732 H   0  0  0  0  0  0  0  0  0  0  0  0
  -10.9073   -6.2808    9.5742 C   0  0  0  0  0  0  0  0  0  0  0  0
  -11.5807   -7.3836    8.7844 C   0  0  0  0  0  0  0  0  0  0  0  0
  -12.8031   -7.9040    9.4649 C   0  0  0  0  0  0  0  0  0  0  0  0
  -14.0091   -7.2532    8.7858 C   0  0  0  0  0  0  0  0  0  0  0  0
  -14.8982   -8.2401    8.1739 C   0  0  0  0  0  0  0  0  0  0  0  0
  -16.1598   -8.4749    8.7651 O   0  0  0  0  0  0  0  0  0  0  0  0
  -14.5476   -8.8623    7.1438 O   0  0  0  0  0  0  0  0  0  0  0  0
  -16.5013   -7.7920    9.4395 H   0  0  0  0  0  0  0  0  0  0  0  0
 15 16  1  0  0  0
 16 17  1  0  0  0
 17 18  1  0  0  0
 18 19  1  0  0  0
 19 20  1  0  0  0
 19 21  2  0  0  0
 16  1  1  0  0  0
  1  2  1  0  0  0
  2  3  1  0  0  0
  3  4  1  0  0  0
  4  5  1  0  0  0
  5  6  1  0  0  0
  6  7  1  0  0  0
  7  8  1  0  0  0
  7  9  1  0  0  0
  9 10  1  0  0  0
 10 11  1  0  0  0
 11 12  1  0  0  0
 11 13  1  0  0  0
 13  1  1  0  0  0
 13  4  1  0  0  0
 11  5  1  0  0  0
 20 22  1  0  0  0
  8 14  1  0  0  0
M  END
> <minimizedAffinity>
-7.79273

> <CNNscore>
0.1990980804

> <CNNaffinity>
5.3887925148

> <CNN_VS>
1.0728982687

> <CNNaffinity_variance>
0.0376568027

$$$$
[H]OC(=O)C([H])([H])C([H])([H])[C@@]([H])(C([H])([H])[H])[C@@]1([H])C([H])([H])C([H])([H])[C@@]2([H])[C@]3([H])C([H])([H])[C@]([H])(O[H])C([H])([H])C([H])([H])[C@]3(C([H])([H])[H])[C@@]21[H]


 22 24  0  0  0  0  0  0  0  0999 V2000
   -9.7726   -8.4017    7.4820 C   0  0  0  0  0  0  0  0  0  0  0  0
   -9.0689   -9.7248    7.0940 C   0  0  0  0  0  0  0  0  0  0  0  0
  -10.2337  -10.6603    6.6993 C   0  0  0  0  0  0  0  0  0  0  0  0
  -11.3647   -9.7552    6.7930 C   0  0  0  0  0  0  0  0  0  0  0  0
  -12.6422   -9.9053    7.4319 C   0  0  0  0  0  0  0  0  0  0  0  0
  -13.8302   -9.6768    6.5442 C   0  0  0  0  0  0  0  0  0  0  0  0
  -14.7863   -8.6272    7.0660 C   0  0  0  0  0  0  0  0  0  0  0  0
  -15.8468   -8.5366    6.1671 O   0  0  0  0  0  0  0  0  0  0  0  0
  -14.1069   -7.2754    7.1149 C   0  0  0  0  0  0  0  0  0  0  0  0
  -12.6588   -7.3723    7.4473 C   0  0  0  0  0  0  0  0  0  0  0  0
  -12.2837   -8.6148    8.1991 C   0  0  0  0  0  0  0  0  0  0  0  0
  -12.8747   -8.7163    9.5884 C   0  0  0  0  0  0  0  0  0  0  0  0
  -10.9291   -9.0588    8.1230 C   0  0  0  0  0  0  0  0  0  0  0  0
  -15.4759   -8.4844    5.2685 H   0  0  0  0  0  0  0  0  0  0  0  0
   -9.3767   -6.0645    8.0450 C   0  0  0  0  0  0  0  0  0  0  0  0
   -8.9527   -7.5006    8.2713 C   0  0  0  0  0  0  0  0  0  0  0  0
   -7.4713   -7.6720    8.2063 C   0  0  0  0  0  0  0  0  0  0  0  0
   -6.9268   -6.5552    7.3144 C   0  0  0  0  0  0  0  0  0  0  0  0
   -6.8113   -6.9704    5.9168 C   0  0  0  0  0  0  0  0  0  0  0  0
   -7.2287   -6.0748    4.9068 O   0  0  0  0  0  0  0  0  0  0  0  0
   -6.3486   -8.0975    5.6226 O   0  0  0  0  0  0  0  0  0  0  0  0
   -7.3658   -5.0992    5.1659 H   0  0  0  0  0  0  0  0  0  0  0  0
 15 16  1  0  0  0
 16 17  1  0  0  0
 17 18  1  0  0  0
 18 19  1  0  0  0
 19 20  1  0  0  0
 19 21  2  0  0  0
 16  1  1  0  0  0
  1  2  1  0  0  0
  2  3  1  0  0  0
  3  4  1  0  0  0
  4  5  1  0  0  0
  5  6  1  0  0  0
  6  7  1  0  0  0
  7  8  1  0  0  0
  7  9  1  0  0  0
  9 10  1  0  0  0
 10 11  1  0  0  0
 11 12  1  0  0  0
 11 13  1  0  0  0
 13  1  1  0  0  0
 13  4  1  0  0  0
 11  5  1  0  0  0
 20 22  1  0  0  0
  8 14  1  0  0  0
M  END
> <minimizedAffinity>
-8.44813

> <CNNscore>
0.1893739998

> <CNNaffinity>
5.5315184593

> <CNN_VS>
1.0475257635

> <CNNaffinity_variance>
0.0299931765

$$$$
[H]OC(=O)C([H])([H])C([H])([H])[C@@]([H])(C([H])([H])[H])[C@@]1([H])C([H])([H])C([H])([H])[C@@]2([H])[C@]3([H])C([H])([H])[C@]([H])(O[H])C([H])([H])C([H])([H])[C@]3(C([H])([H])[H])[C@@]21[H]


 22 24  0  0  0  0  0  0  0  0999 V2000
  -13.1009   -6.3247    8.6660 C   0  0  0  0  0  0  0  0  0  0  0  0
  -13.4198   -5.8611   10.1080 C   0  0  0  0  0  0  0  0  0  0  0  0
  -12.0355   -5.8051   10.7923 C   0  0  0  0  0  0  0  0  0  0  0  0
  -11.1583   -6.1075    9.6760 C   0  0  0  0  0  0  0  0  0  0  0  0
  -10.0680   -7.0350    9.5577 C   0  0  0  0  0  0  0  0  0  0  0  0
   -8.7689   -6.4378    9.1025 C   0  0  0  0  0  0  0  0  0  0  0  0
   -8.1891   -7.1062    7.8757 C   0  0  0  0  0  0  0  0  0  0  0  0
   -6.9817   -6.4764    7.5815 O   0  0  0  0  0  0  0  0  0  0  0  0
   -9.1094   -6.9157    6.6890 C   0  0  0  0  0  0  0  0  0  0  0  0
  -10.5478   -6.9055    7.0737 C   0  0  0  0  0  0  0  0  0  0  0  0
  -10.8442   -7.6202    8.3586 C   0  0  0  0  0  0  0  0  0  0  0  0
  -10.5970   -9.1127    8.3240 C   0  0  0  0  0  0  0  0  0  0  0  0
  -12.0279   -7.2556    9.0686 C   0  0  0  0  0  0  0  0  0  0  0  0
   -7.1283   -5.5146    7.6147 H   0  0  0  0  0  0  0  0  0  0  0  0
  -15.0189   -7.8210    8.8050 C   0  0  0  0  0  0  0  0  0  0  0  0
  -14.2456   -6.8464    7.9414 C   0  0  0  0  0  0  0  0  0  0  0  0
  -14.0158   -7.3689    6.5622 C   0  0  0  0  0  0  0  0  0  0  0  0
  -14.5687   -8.7943    6.5219 C   0  0  0  0  0  0  0  0  0  0  0  0
  -13.5152   -9.8000    6.6557 C   0  0  0  0  0  0  0  0  0  0  0  0
  -12.4338   -9.7740    5.7469 O   0  0  0  0  0  0  0  0  0  0  0  0
  -13.5709  -10.6652    7.5609 O   0  0  0  0  0  0  0  0  0  0  0  0
  -12.3002   -8.9292    5.1935 H   0  0  0  0  0  0  0  0  0  0  0  0
 15 16  1  0  0  0
 16 17  1  0  0  0
 17 18  1  0  0  0
 18 19  1  0  0  0
 19 20  1  0  0  0
 19 21  2  0  0  0
 16  1  1  0  0  0
  1  2  1  0  0  0
  2  3  1  0  0  0
  3  4  1  0  0  0
  4  5  1  0  0  0
  5  6  1  0  0  0
  6  7  1  0  0  0
  7  8  1  0  0  0
  7  9  1  0  0  0
  9 10  1  0  0  0
 10 11  1  0  0  0
 11 12  1  0  0  0
 11 13  1  0  0  0
 13  1  1  0  0  0
 13  4  1  0  0  0
 11  5  1  0  0  0
 20 22  1  0  0  0
  8 14  1  0  0  0
M  END
> <minimizedAffinity>
-5.05445

> <CNNscore>
0.1783470660

> <CNNaffinity>
5.2341642380

> <CNN_VS>
0.9334978461

> <CNNaffinity_variance>
0.0173234064

$$$$
[H]C#C[C@]1(O[H])C([H])([H])C([H])([H])[C@]2([H])[C@]1(C([H])([H])[H])C([H])([H])C([H])([H])[C@]1([H])[C@]3(C([H])([H])[H])C(=C([H])C(=O)C([H])([H])C3([H])[H])C([H])([H])C([H])([H])[C@@]21[H]


 24 27  0  0  0  0  0  0  0  0999 V2000
   -7.6043  -10.1452    7.5750 C   0  0  0  0  0  0  0  0  0  0  0  0
   -8.6826   -9.1613    7.1982 C   0  0  0  0  0  0  0  0  0  0  0  0
   -9.8824   -9.8590    6.6625 C   0  0  0  0  0  0  0  0  0  0  0  0
   -9.5374  -10.6498    5.4469 C   0  0  0  0  0  0  0  0  0  0  0  0
   -8.6941   -9.9591    4.4467 C   0  0  0  0  0  0  0  0  0  0  0  0
   -7.5776   -9.1206    5.0617 C   0  0  0  0  0  0  0  0  0  0  0  0
   -6.8890   -8.4027    3.9346 C   0  0  0  0  0  0  0  0  0  0  0  0
   -6.0365   -9.4567    3.2165 C   0  0  0  0  0  0  0  0  0  0  0  0
   -7.0182  -10.4510    2.6717 C   0  0  0  0  0  0  0  0  0  0  0  0
   -6.7747  -10.9189    1.4390 C   0  0  0  0  0  0  0  0  0  0  0  0
   -7.6524  -11.8878    0.7990 C   0  0  0  0  0  0  0  0  0  0  0  0
   -7.3132  -12.4789   -0.2557 O   0  0  0  0  0  0  0  0  0  0  0  0
   -8.9710  -12.1849    1.3997 C   0  0  0  0  0  0  0  0  0  0  0  0
   -9.3230  -11.0956    2.3899 C   0  0  0  0  0  0  0  0  0  0  0  0
   -8.1968  -10.9150    3.4145 C   0  0  0  0  0  0  0  0  0  0  0  0
   -7.9423  -12.2919    4.0014 C   0  0  0  0  0  0  0  0  0  0  0  0
   -8.2112   -8.2394    6.0622 C   0  0  0  0  0  0  0  0  0  0  0  0
   -7.3432   -7.2900    6.7810 C   0  0  0  0  0  0  0  0  0  0  0  0
   -8.2766   -6.8779    7.9238 C   0  0  0  0  0  0  0  0  0  0  0  0
   -8.9281   -8.1943    8.2909 C   0  0  0  0  0  0  0  0  0  0  0  0
   -8.2573   -8.6441    9.4521 O   0  0  0  0  0  0  0  0  0  0  0  0
   -7.8593   -7.8837    9.9460 H   0  0  0  0  0  0  0  0  0  0  0  0
  -10.3349   -8.0390    8.6475 C   0  0  0  0  0  0  0  0  0  0  0  0
  -11.4815   -7.9309    8.9471 C   0  0  0  0  0  0  0  0  0  0  0  0
  2  1  1  0  0  0
  2  3  1  0  0  0
  3  4  1  0  0  0
  4  5  1  0  0  0
  5  6  1  0  0  0
  6  7  1  0  0  0
  7  8  1  0  0  0
  8  9  1  0  0  0
  9 10  2  0  0  0
 10 11  1  0  0  0
 11 12  2  0  0  0
 11 13  1  0  0  0
 13 14  1  0  0  0
 14 15  1  0  0  0
 15 16  1  0  0  0
  6 17  1  0  0  0
 17 18  1  0  0  0
 18 19  1  0  0  0
 19 20  1  0  0  0
 20 21  1  0  0  0
 20 23  1  0  0  0
 23 24  3  0  0  0
 17  2  1  0  0  0
 20  2  1  0  0  0
 15  5  1  0  0  0
 15  9  1  0  0  0
 21 22  1  0  0  0
M  END
> <minimizedAffinity>
24.98563

> <CNNscore>
0.5237504244

> <CNNaffinity>
5.7996101379

> <CNN_VS>
3.0375483036

> <CNNaffinity_variance>
0.7533845901

$$$$
[H]C#C[C@]1(O[H])C([H])([H])C([H])([H])[C@]2([H])[C@]1(C([H])([H])[H])C([H])([H])C([H])([H])[C@]1([H])[C@]3(C([H])([H])[H])C(=C([H])C(=O)C([H])([H])C3([H])[H])C([H])([H])C([H])([H])[C@@]21[H]


 24 27  0  0  0  0  0  0  0  0999 V2000
  -15.2859   -6.6945    9.1435 C   0  0  0  0  0  0  0  0  0  0  0  0
  -14.6215   -7.6607    8.1958 C   0  0  0  0  0  0  0  0  0  0  0  0
  -14.0761   -6.9551    7.0050 C   0  0  0  0  0  0  0  0  0  0  0  0
  -15.1612   -6.2548    6.2605 C   0  0  0  0  0  0  0  0  0  0  0  0
  -16.3968   -7.0366    6.0357 C   0  0  0  0  0  0  0  0  0  0  0  0
  -16.8182   -7.8747    7.2391 C   0  0  0  0  0  0  0  0  0  0  0  0
  -18.0120   -8.6860    6.8190 C   0  0  0  0  0  0  0  0  0  0  0  0
  -19.1950   -7.7104    6.7737 C   0  0  0  0  0  0  0  0  0  0  0  0
  -18.8444   -6.7174    5.7059 C   0  0  0  0  0  0  0  0  0  0  0  0
  -19.8398   -6.3366    4.8924 C   0  0  0  0  0  0  0  0  0  0  0  0
  -19.6278   -5.3786    3.8170 C   0  0  0  0  0  0  0  0  0  0  0  0
  -20.5937   -4.8673    3.1987 O   0  0  0  0  0  0  0  0  0  0  0  0
  -18.2487   -4.9972    3.4422 C   0  0  0  0  0  0  0  0  0  0  0  0
  -17.2800   -6.0091    4.0154 C   0  0  0  0  0  0  0  0  0  0  0  0
  -17.4955   -6.1657    5.5253 C   0  0  0  0  0  0  0  0  0  0  0  0
  -17.4165   -4.7649    6.1052 C   0  0  0  0  0  0  0  0  0  0  0  0
  -15.6389   -8.6681    7.6371 C   0  0  0  0  0  0  0  0  0  0  0  0
  -15.7951   -9.6014    8.7667 C   0  0  0  0  0  0  0  0  0  0  0  0
  -14.3256   -9.9073    9.0735 C   0  0  0  0  0  0  0  0  0  0  0  0
  -13.6788   -8.5479    8.9126 C   0  0  0  0  0  0  0  0  0  0  0  0
  -13.4984   -8.0508   10.2244 O   0  0  0  0  0  0  0  0  0  0  0  0
  -13.4448   -8.7926   10.8781 H   0  0  0  0  0  0  0  0  0  0  0  0
  -12.3545   -8.6298    8.3045 C   0  0  0  0  0  0  0  0  0  0  0  0
  -11.2717   -8.7144    7.8183 C   0  0  0  0  0  0  0  0  0  0  0  0
  2  1  1  0  0  0
  2  3  1  0  0  0
  3  4  1  0  0  0
  4  5  1  0  0  0
  5  6  1  0  0  0
  6  7  1  0  0  0
  7  8  1  0  0  0
  8  9  1  0  0  0
  9 10  2  0  0  0
 10 11  1  0  0  0
 11 12  2  0  0  0
 11 13  1  0  0  0
 13 14  1  0  0  0
 14 15  1  0  0  0
 15 16  1  0  0  0
  6 17  1  0  0  0
 17 18  1  0  0  0
 18 19  1  0  0  0
 19 20  1  0  0  0
 20 21  1  0  0  0
 20 23  1  0  0  0
 23 24  3  0  0  0
 17  2  1  0  0  0
 20  2  1  0  0  0
 15  5  1  0  0  0
 15  9  1  0  0  0
 21 22  1  0  0  0
M  END
> <minimizedAffinity>
20.18689

> <CNNscore>
0.4572553039

> <CNNaffinity>
6.3771023750

> <CNN_VS>
2.9159638882

> <CNNaffinity_variance>
0.9147453308

$$$$
[H]C#C[C@]1(O[H])C([H])([H])C([H])([H])[C@]2([H])[C@]1(C([H])([H])[H])C([H])([H])C([H])([H])[C@]1([H])[C@]3(C([H])([H])[H])C(=C([H])C(=O)C([H])([H])C3([H])[H])C([H])([H])C([H])([H])[C@@]21[H]


 24 27  0  0  0  0  0  0  0  0999 V2000
  -12.6864   -9.7107    8.6862 C   0  0  0  0  0  0  0  0  0  0  0  0
  -12.9492   -8.8723    7.4610 C   0  0  0  0  0  0  0  0  0  0  0  0
  -12.2604   -9.4345    6.2682 C   0  0  0  0  0  0  0  0  0  0  0  0
  -10.7860   -9.4854    6.4820 C   0  0  0  0  0  0  0  0  0  0  0  0
  -10.1769   -8.2691    7.0635 C   0  0  0  0  0  0  0  0  0  0  0  0
  -11.0117   -7.6371    8.1734 C   0  0  0  0  0  0  0  0  0  0  0  0
  -10.3212   -6.3648    8.5788 C   0  0  0  0  0  0  0  0  0  0  0  0
   -9.0985   -6.7881    9.4028 C   0  0  0  0  0  0  0  0  0  0  0  0
   -8.2347   -7.5641    8.4536 C   0  0  0  0  0  0  0  0  0  0  0  0
   -6.9141   -7.3456    8.5308 C   0  0  0  0  0  0  0  0  0  0  0  0
   -5.9703   -8.0365    7.6643 C   0  0  0  0  0  0  0  0  0  0  0  0
   -4.7338   -7.9915    7.8789 O   0  0  0  0  0  0  0  0  0  0  0  0
   -6.4735   -8.8081    6.5072 C   0  0  0  0  0  0  0  0  0  0  0  0
   -7.9001   -8.3942    6.2162 C   0  0  0  0  0  0  0  0  0  0  0  0
   -8.7653   -8.5223    7.4754 C   0  0  0  0  0  0  0  0  0  0  0  0
   -8.5721   -9.9441    7.9714 C   0  0  0  0  0  0  0  0  0  0  0  0
  -12.3725   -7.4577    7.6305 C   0  0  0  0  0  0  0  0  0  0  0  0
  -13.3759   -6.8224    8.5029 C   0  0  0  0  0  0  0  0  0  0  0  0
  -14.6589   -7.1682    7.7404 C   0  0  0  0  0  0  0  0  0  0  0  0
  -14.3940   -8.5938    7.3049 C   0  0  0  0  0  0  0  0  0  0  0  0
  -15.1124   -9.4112    8.2084 O   0  0  0  0  0  0  0  0  0  0  0  0
  -15.8744   -8.9162    8.6020 H   0  0  0  0  0  0  0  0  0  0  0  0
  -14.9167   -8.8749    5.9714 C   0  0  0  0  0  0  0  0  0  0  0  0
  -15.3428   -9.0839    4.8801 C   0  0  0  0  0  0  0  0  0  0  0  0
  2  1  1  0  0  0
  2  3  1  0  0  0
  3  4  1  0  0  0
  4  5  1  0  0  0
  5  6  1  0  0  0
  6  7  1  0  0  0
  7  8  1  0  0  0
  8  9  1  0  0  0
  9 10  2  0  0  0
 10 11  1  0  0  0
 11 12  2  0  0  0
 11 13  1  0  0  0
 13 14  1  0  0  0
 14 15  1  0  0  0
 15 16  1  0  0  0
  6 17  1  0  0  0
 17 18  1  0  0  0
 18 19  1  0  0  0
 19 20  1  0  0  0
 20 21  1  0  0  0
 20 23  1  0  0  0
 23 24  3  0  0  0
 17  2  1  0  0  0
 20  2  1  0  0  0
 15  5  1  0  0  0
 15  9  1  0  0  0
 21 22  1  0  0  0
M  END
> <minimizedAffinity>
-6.88910

> <CNNscore>
0.4312763512

> <CNNaffinity>
6.3528399467

> <CNN_VS>
2.7398295403

> <CNNaffinity_variance>
0.2716103494

$$$$
[H]C#C[C@]1(O[H])C([H])([H])C([H])([H])[C@]2([H])[C@]1(C([H])([H])[H])C([H])([H])C([H])([H])[C@]1([H])[C@]3(C([H])([H])[H])C(=C([H])C(=O)C([H])([H])C3([H])[H])C([H])([H])C([H])([H])[C@@]21[H]


 24 27  0  0  0  0  0  0  0  0999 V2000
  -15.5186   -9.1080    5.5868 C   0  0  0  0  0  0  0  0  0  0  0  0
  -15.7814   -7.7095    6.0851 C   0  0  0  0  0  0  0  0  0  0  0  0
  -14.8680   -6.7290    5.4389 C   0  0  0  0  0  0  0  0  0  0  0  0
  -13.4437   -7.0598    5.7294 C   0  0  0  0  0  0  0  0  0  0  0  0
  -13.1346   -7.3976    7.1361 C   0  0  0  0  0  0  0  0  0  0  0  0
  -14.1935   -8.2708    7.8028 C   0  0  0  0  0  0  0  0  0  0  0  0
  -13.7943   -8.4311    9.2432 C   0  0  0  0  0  0  0  0  0  0  0  0
  -12.6208   -9.4192    9.2522 C   0  0  0  0  0  0  0  0  0  0  0  0
  -11.5268   -8.7366    8.4864 C   0  0  0  0  0  0  0  0  0  0  0  0
  -10.2850   -8.8625    8.9760 C   0  0  0  0  0  0  0  0  0  0  0  0
   -9.1376   -8.2473    8.3247 C   0  0  0  0  0  0  0  0  0  0  0  0
   -7.9631   -8.5391    8.6596 O   0  0  0  0  0  0  0  0  0  0  0  0
   -9.3553   -7.2584    7.2467 C   0  0  0  0  0  0  0  0  0  0  0  0
  -10.7887   -6.7748    7.2976 C   0  0  0  0  0  0  0  0  0  0  0  0
  -11.7588   -7.9615    7.2610 C   0  0  0  0  0  0  0  0  0  0  0  0
  -11.3739   -8.7772    6.0398 C   0  0  0  0  0  0  0  0  0  0  0  0
  -15.4911   -7.6001    7.5905 C   0  0  0  0  0  0  0  0  0  0  0  0
  -16.6874   -8.2291    8.1777 C   0  0  0  0  0  0  0  0  0  0  0  0
  -17.7892   -7.4689    7.4327 C   0  0  0  0  0  0  0  0  0  0  0  0
  -17.2243   -7.3860    6.0305 C   0  0  0  0  0  0  0  0  0  0  0  0
  -17.8859   -8.3930    5.2897 O   0  0  0  0  0  0  0  0  0  0  0  0
  -18.7650   -8.6066    5.6923 H   0  0  0  0  0  0  0  0  0  0  0  0
  -17.5280   -6.1141    5.3821 C   0  0  0  0  0  0  0  0  0  0  0  0
  -17.7938   -5.0846    4.8477 C   0  0  0  0  0  0  0  0  0  0  0  0
  2  1  1  0  0  0
  2  3  1  0  0  0
  3  4  1  0  0  0
  4  5  1  0  0  0
  5  6  1  0  0  0
  6  7  1  0  0  0
  7  8  1  0  0  0
  8  9  1  0  0  0
  9 10  2  0  0  0
 10 11  1  0  0  0
 11 12  2  0  0  0
 11 13  1  0  0  0
 13 14  1  0  0  0
 14 15  1  0  0  0
 15 16  1  0  0  0
  6 17  1  0  0  0
 17 18  1  0  0  0
 18 19  1  0  0  0
 19 20  1  0  0  0
 20 21  1  0  0  0
 20 23  1  0  0  0
 23 24  3  0  0  0
 17  2  1  0  0  0
 20  2  1  0  0  0
 15  5  1  0  0  0
 15  9  1  0  0  0
 21 22  1  0  0  0
M  END
> <minimizedAffinity>
-2.94031

> <CNNscore>
0.4167666137

> <CNNaffinity>
6.4660310745

> <CNN_VS>
2.6948258877

> <CNNaffinity_variance>
0.3108831346

$$$$
[H]C#C[C@]1(O[H])C([H])([H])C([H])([H])[C@]2([H])[C@]1(C([H])([H])[H])C([H])([H])C([H])([H])[C@]1([H])[C@]3(C([H])([H])[H])C(=C([H])C(=O)C([H])([H])C3([H])[H])C([H])([H])C([H])([H])[C@@]21[H]


 24 27  0  0  0  0  0  0  0  0999 V2000
  -15.6440   -8.2868    7.6494 C   0  0  0  0  0  0  0  0  0  0  0  0
  -15.4002   -7.9461    6.2011 C   0  0  0  0  0  0  0  0  0  0  0  0
  -14.9672   -9.1446    5.4334 C   0  0  0  0  0  0  0  0  0  0  0  0
  -13.7037   -9.7044    5.9922 C   0  0  0  0  0  0  0  0  0  0  0  0
  -12.6436   -8.7197    6.3005 C   0  0  0  0  0  0  0  0  0  0  0  0
  -13.1674   -7.4353    6.9362 C   0  0  0  0  0  0  0  0  0  0  0  0
  -11.9969   -6.5036    7.0840 C   0  0  0  0  0  0  0  0  0  0  0  0
  -11.1717   -7.0403    8.2606 C   0  0  0  0  0  0  0  0  0  0  0  0
  -10.7005   -8.3955    7.8239 C   0  0  0  0  0  0  0  0  0  0  0  0
   -9.4383   -8.7204    8.1384 C   0  0  0  0  0  0  0  0  0  0  0  0
   -8.8629  -10.0061    7.7710 C   0  0  0  0  0  0  0  0  0  0  0  0
   -7.7651  -10.3892    8.2453 O   0  0  0  0  0  0  0  0  0  0  0  0
   -9.5824  -10.8815    6.8204 C   0  0  0  0  0  0  0  0  0  0  0  0
  -10.6300  -10.0683    6.0909 C   0  0  0  0  0  0  0  0  0  0  0  0
  -11.5434   -9.3473    7.0892 C   0  0  0  0  0  0  0  0  0  0  0  0
  -12.0668  -10.4211    8.0262 C   0  0  0  0  0  0  0  0  0  0  0  0
  -14.2475   -6.9391    6.0611 C   0  0  0  0  0  0  0  0  0  0  0  0
  -14.9018   -5.6733    6.4369 C   0  0  0  0  0  0  0  0  0  0  0  0
  -16.1409   -5.7288    5.5378 C   0  0  0  0  0  0  0  0  0  0  0  0
  -16.5363   -7.1871    5.6330 C   0  0  0  0  0  0  0  0  0  0  0  0
  -17.6140   -7.2338    6.5479 O   0  0  0  0  0  0  0  0  0  0  0  0
  -18.0858   -6.3639    6.5813 H   0  0  0  0  0  0  0  0  0  0  0  0
  -17.0332   -7.7133    4.3655 C   0  0  0  0  0  0  0  0  0  0  0  0
  -17.4539   -8.1290    3.3329 C   0  0  0  0  0  0  0  0  0  0  0  0
  2  1  1  0  0  0
  2  3  1  0  0  0
  3  4  1  0  0  0
  4  5  1  0  0  0
  5  6  1  0  0  0
  6  7  1  0  0  0
  7  8  1  0  0  0
  8  9  1  0  0  0
  9 10  2  0  0  0
 10 11  1  0  0  0
 11 12  2  0  0  0
 11 13  1  0  0  0
 13 14  1  0  0  0
 14 15  1  0  0  0
 15 16  1  0  0  0
  6 17  1  0  0  0
 17 18  1  0  0  0
 18 19  1  0  0  0
 19 20  1  0  0  0
 20 21  1  0  0  0
 20 23  1  0  0  0
 23 24  3  0  0  0
 17  2  1  0  0  0
 20  2  1  0  0  0
 15  5  1  0  0  0
 15  9  1  0  0  0
 21 22  1  0  0  0
M  END
> <minimizedAffinity>
-4.96879

> <CNNscore>
0.3870322704

> <CNNaffinity>
6.4032754898

> <CNN_VS>
2.4782743454

> <CNNaffinity_variance>
0.2089037001

$$$$
[H]C#C[C@]1(O[H])C([H])([H])C([H])([H])[C@]2([H])[C@]1(C([H])([H])[H])C([H])([H])C([H])([H])[C@]1([H])[C@]3(C([H])([H])[H])C(=C([H])C(=O)C([H])([H])C3([H])[H])C([H])([H])C([H])([H])[C@@]21[H]


 24 27  0  0  0  0  0  0  0  0999 V2000
  -15.1396   -5.2083    4.3426 C   0  0  0  0  0  0  0  0  0  0  0  0
  -16.4907   -5.8349    4.5769 C   0  0  0  0  0  0  0  0  0  0  0  0
  -16.9698   -5.5752    5.9612 C   0  0  0  0  0  0  0  0  0  0  0  0
  -16.0223   -6.1385    6.9648 C   0  0  0  0  0  0  0  0  0  0  0  0
  -15.5411   -7.5115    6.6970 C   0  0  0  0  0  0  0  0  0  0  0  0
  -15.2228   -7.7728    5.2278 C   0  0  0  0  0  0  0  0  0  0  0  0
  -14.8580   -9.2259    5.1041 C   0  0  0  0  0  0  0  0  0  0  0  0
  -13.4461   -9.3615    5.6885 C   0  0  0  0  0  0  0  0  0  0  0  0
  -13.5814   -8.9847    7.1338 C   0  0  0  0  0  0  0  0  0  0  0  0
  -12.8933   -9.7272    8.0130 C   0  0  0  0  0  0  0  0  0  0  0  0
  -12.9412   -9.4628    9.4436 C   0  0  0  0  0  0  0  0  0  0  0  0
  -12.1401  -10.0160   10.2367 O   0  0  0  0  0  0  0  0  0  0  0  0
  -13.9521   -8.5245    9.9778 C   0  0  0  0  0  0  0  0  0  0  0  0
  -15.0302   -8.3099    8.9373 C   0  0  0  0  0  0  0  0  0  0  0  0
  -14.4124   -7.8695    7.6049 C   0  0  0  0  0  0  0  0  0  0  0  0
  -13.5462   -6.6645    7.9250 C   0  0  0  0  0  0  0  0  0  0  0  0
  -16.4137   -7.3652    4.4569 C   0  0  0  0  0  0  0  0  0  0  0  0
  -16.3775   -7.5546    2.9960 C   0  0  0  0  0  0  0  0  0  0  0  0
  -17.5749   -6.6946    2.5794 C   0  0  0  0  0  0  0  0  0  0  0  0
  -17.4334   -5.4927    3.4890 C   0  0  0  0  0  0  0  0  0  0  0  0
  -16.8564   -4.4751    2.6939 O   0  0  0  0  0  0  0  0  0  0  0  0
  -17.0522   -4.6238    1.7347 H   0  0  0  0  0  0  0  0  0  0  0  0
  -18.7231   -4.9893    3.9513 C   0  0  0  0  0  0  0  0  0  0  0  0
  -19.7648   -4.5660    4.3409 C   0  0  0  0  0  0  0  0  0  0  0  0
  2  1  1  0  0  0
  2  3  1  0  0  0
  3  4  1  0  0  0
  4  5  1  0  0  0
  5  6  1  0  0  0
  6  7  1  0  0  0
  7  8  1  0  0  0
  8  9  1  0  0  0
  9 10  2  0  0  0
 10 11  1  0  0  0
 11 12  2  0  0  0
 11 13  1  0  0  0
 13 14  1  0  0  0
 14 15  1  0  0  0
 15 16  1  0  0  0
  6 17  1  0  0  0
 17 18  1  0  0  0
 18 19  1  0  0  0
 19 20  1  0  0  0
 20 21  1  0  0  0
 20 23  1  0  0  0
 23 24  3  0  0  0
 17  2  1  0  0  0
 20  2  1  0  0  0
 15  5  1  0  0  0
 15  9  1  0  0  0
 21 22  1  0  0  0
M  END
> <minimizedAffinity>
-0.73567

> <CNNscore>
0.3372901380

> <CNNaffinity>
6.1686563492

> <CNN_VS>
2.0806269646

> <CNNaffinity_variance>
0.1669617444

$$$$
[H]C#C[C@]1(O[H])C([H])([H])C([H])([H])[C@]2([H])[C@]1(C([H])([H])[H])C([H])([H])C([H])([H])[C@]1([H])[C@]3(C([H])([H])[H])C(=C([H])C(=O)C([H])([H])C3([H])[H])C([H])([H])C([H])([H])[C@@]21[H]


 24 27  0  0  0  0  0  0  0  0999 V2000
  -15.6583   -7.5954    3.9057 C   0  0  0  0  0  0  0  0  0  0  0  0
  -16.6888   -6.8928    4.7527 C   0  0  0  0  0  0  0  0  0  0  0  0
  -16.2018   -5.5579    5.1932 C   0  0  0  0  0  0  0  0  0  0  0  0
  -14.9555   -5.6879    6.0005 C   0  0  0  0  0  0  0  0  0  0  0  0
  -14.9662   -6.7435    7.0369 C   0  0  0  0  0  0  0  0  0  0  0  0
  -15.6305   -8.0400    6.5832 C   0  0  0  0  0  0  0  0  0  0  0  0
  -15.6610   -8.9623    7.7699 C   0  0  0  0  0  0  0  0  0  0  0  0
  -14.2254   -9.4725    7.9495 C   0  0  0  0  0  0  0  0  0  0  0  0
  -13.4118   -8.2527    8.2648 C   0  0  0  0  0  0  0  0  0  0  0  0
  -12.4736   -8.3876    9.2130 C   0  0  0  0  0  0  0  0  0  0  0  0
  -11.6187   -7.2782    9.6097 C   0  0  0  0  0  0  0  0  0  0  0  0
  -10.6107   -7.4585   10.3365 O   0  0  0  0  0  0  0  0  0  0  0  0
  -11.9403   -5.9098    9.1495 C   0  0  0  0  0  0  0  0  0  0  0  0
  -13.3700   -5.8750    8.6541 C   0  0  0  0  0  0  0  0  0  0  0  0
  -13.5993   -6.9595    7.5948 C   0  0  0  0  0  0  0  0  0  0  0  0
  -12.5246   -6.7492    6.5434 C   0  0  0  0  0  0  0  0  0  0  0  0
  -16.9568   -7.6727    6.0497 C   0  0  0  0  0  0  0  0  0  0  0  0
  -17.8263   -8.7636    5.5748 C   0  0  0  0  0  0  0  0  0  0  0  0
  -18.8716   -7.9599    4.7949 C   0  0  0  0  0  0  0  0  0  0  0  0
  -18.0187   -6.9169    4.1043 C   0  0  0  0  0  0  0  0  0  0  0  0
  -17.8644   -7.3675    2.7724 O   0  0  0  0  0  0  0  0  0  0  0  0
  -18.6123   -7.9623    2.5128 H   0  0  0  0  0  0  0  0  0  0  0  0
  -18.6756   -5.6153    4.0381 C   0  0  0  0  0  0  0  0  0  0  0  0
  -19.2041   -4.5496    4.0028 C   0  0  0  0  0  0  0  0  0  0  0  0
  2  1  1  0  0  0
  2  3  1  0  0  0
  3  4  1  0  0  0
  4  5  1  0  0  0
  5  6  1  0  0  0
  6  7  1  0  0  0
  7  8  1  0  0  0
  8  9  1  0  0  0
  9 10  2  0  0  0
 10 11  1  0  0  0
 11 12  2  0  0  0
 11 13  1  0  0  0
 13 14  1  0  0  0
 14 15  1  0  0  0
 15 16  1  0  0  0
  6 17  1  0  0  0
 17 18  1  0  0  0
 18 19  1  0  0  0
 19 20  1  0  0  0
 20 21  1  0  0  0
 20 23  1  0  0  0
 23 24  3  0  0  0
 17  2  1  0  0  0
 20  2  1  0  0  0
 15  5  1  0  0  0
 15  9  1  0  0  0
 21 22  1  0  0  0
M  END
> <minimizedAffinity>
-3.21030

> <CNNscore>
0.3347087502

> <CNNaffinity>
6.2985320091

> <CNN_VS>
2.1081738472

> <CNNaffinity_variance>
0.2455921173

$$$$
[H]C#C[C@]1(O[H])C([H])([H])C([H])([H])[C@]2([H])[C@]1(C([H])([H])[H])C([H])([H])C([H])([H])[C@]1([H])[C@]3(C([H])([H])[H])C(=C([H])C(=O)C([H])([H])C3([H])[H])C([H])([H])C([H])([H])[C@@]21[H]


 24 27  0  0  0  0  0  0  0  0999 V2000
   -7.7314   -6.2466    7.5646 C   0  0  0  0  0  0  0  0  0  0  0  0
   -6.8502   -7.4681    7.4968 C   0  0  0  0  0  0  0  0  0  0  0  0
   -6.1787   -7.7183    8.8006 C   0  0  0  0  0  0  0  0  0  0  0  0
   -5.3267   -6.5586    9.1895 C   0  0  0  0  0  0  0  0  0  0  0  0
   -4.4695   -6.0015    8.1203 C   0  0  0  0  0  0  0  0  0  0  0  0
   -5.1589   -5.9236    6.7613 C   0  0  0  0  0  0  0  0  0  0  0  0
   -4.1339   -5.4474    5.7700 C   0  0  0  0  0  0  0  0  0  0  0  0
   -3.9483   -3.9482    6.0368 C   0  0  0  0  0  0  0  0  0  0  0  0
   -3.3982   -3.8622    7.4294 C   0  0  0  0  0  0  0  0  0  0  0  0
   -2.4268   -2.9612    7.6348 C   0  0  0  0  0  0  0  0  0  0  0  0
   -1.8111   -2.7813    8.9415 C   0  0  0  0  0  0  0  0  0  0  0  0
   -1.0609   -1.8031    9.1803 O   0  0  0  0  0  0  0  0  0  0  0  0
   -2.0719   -3.7681   10.0119 C   0  0  0  0  0  0  0  0  0  0  0  0
   -2.6424   -5.0285    9.3980 C   0  0  0  0  0  0  0  0  0  0  0  0
   -3.8693   -4.7011    8.5387 C   0  0  0  0  0  0  0  0  0  0  0  0
   -4.8076   -3.9128    9.4348 C   0  0  0  0  0  0  0  0  0  0  0  0
   -5.7089   -7.2657    6.4874 C   0  0  0  0  0  0  0  0  0  0  0  0
   -6.3998   -7.4696    5.2019 C   0  0  0  0  0  0  0  0  0  0  0  0
   -7.1079   -8.7993    5.4803 C   0  0  0  0  0  0  0  0  0  0  0  0
   -7.5745   -8.6166    6.9089 C   0  0  0  0  0  0  0  0  0  0  0  0
   -8.9483   -8.2902    6.8254 O   0  0  0  0  0  0  0  0  0  0  0  0
   -9.3424   -8.6369    5.9858 H   0  0  0  0  0  0  0  0  0  0  0  0
   -7.4778   -9.8471    7.6880 C   0  0  0  0  0  0  0  0  0  0  0  0
   -7.4025  -10.8611    8.3061 C   0  0  0  0  0  0  0  0  0  0  0  0
  2  1  1  0  0  0
  2  3  1  0  0  0
  3  4  1  0  0  0
  4  5  1  0  0  0
  5  6  1  0  0  0
  6  7  1  0  0  0
  7  8  1  0  0  0
  8  9  1  0  0  0
  9 10  2  0  0  0
 10 11  1  0  0  0
 11 12  2  0  0  0
 11 13  1  0  0  0
 13 14  1  0  0  0
 14 15  1  0  0  0
 15 16  1  0  0  0
  6 17  1  0  0  0
 17 18  1  0  0  0
 18 19  1  0  0  0
 19 20  1  0  0  0
 20 21  1  0  0  0
 20 23  1  0  0  0
 23 24  3  0  0  0
 17  2  1  0  0  0
 20  2  1  0  0  0
 15  5  1  0  0  0
 15  9  1  0  0  0
 21 22  1  0  0  0
M  END
> <minimizedAffinity>
-1.43807

> <CNNscore>
0.3102391958

> <CNNaffinity>
4.9819478989

> <CNN_VS>
1.5455955267

> <CNNaffinity_variance>
0.4911342263

$$$$
[H]C#C[C@]1(O[H])C([H])([H])C([H])([H])[C@]2([H])[C@]1(C([H])([H])[H])C([H])([H])C([H])([H])[C@]1([H])[C@]3(C([H])([H])[H])C(=C([H])C(=O)C([H])([H])C3([H])[H])C([H])([H])C([H])([H])[C@@]21[H]


 24 27  0  0  0  0  0  0  0  0999 V2000
   -4.7676   -6.1955    6.0779 C   0  0  0  0  0  0  0  0  0  0  0  0
   -4.2398   -7.0096    7.2319 C   0  0  0  0  0  0  0  0  0  0  0  0
   -4.2703   -8.4641    6.9208 C   0  0  0  0  0  0  0  0  0  0  0  0
   -5.6621   -8.9169    6.6381 C   0  0  0  0  0  0  0  0  0  0  0  0
   -6.6991   -8.4377    7.5781 C   0  0  0  0  0  0  0  0  0  0  0  0
   -6.5209   -6.9809    7.9952 C   0  0  0  0  0  0  0  0  0  0  0  0
   -7.5746   -6.6818    9.0249 C   0  0  0  0  0  0  0  0  0  0  0  0
   -8.8967   -6.5567    8.2570 C   0  0  0  0  0  0  0  0  0  0  0  0
   -9.1317   -7.9108    7.6566 C   0  0  0  0  0  0  0  0  0  0  0  0
  -10.3917   -8.3682    7.6861 C   0  0  0  0  0  0  0  0  0  0  0  0
  -10.7491   -9.6676    7.1359 C   0  0  0  0  0  0  0  0  0  0  0  0
  -11.9491  -10.0000    6.9737 O   0  0  0  0  0  0  0  0  0  0  0  0
   -9.6805  -10.6183    6.7590 C   0  0  0  0  0  0  0  0  0  0  0  0
   -8.3809  -10.1866    7.4037 C   0  0  0  0  0  0  0  0  0  0  0  0
   -8.0674   -8.7262    7.0577 C   0  0  0  0  0  0  0  0  0  0  0  0
   -8.1222   -8.6355    5.5432 C   0  0  0  0  0  0  0  0  0  0  0  0
   -5.1311   -6.8436    8.4730 C   0  0  0  0  0  0  0  0  0  0  0  0
   -4.7105   -5.5238    8.9756 C   0  0  0  0  0  0  0  0  0  0  0  0
   -3.1903   -5.7119    8.9980 C   0  0  0  0  0  0  0  0  0  0  0  0
   -2.9466   -6.4760    7.7140 C   0  0  0  0  0  0  0  0  0  0  0  0
   -2.4757   -5.5214    6.7825 O   0  0  0  0  0  0  0  0  0  0  0  0
   -2.0547   -4.7545    7.2462 H   0  0  0  0  0  0  0  0  0  0  0  0
   -1.8994   -7.4828    7.8553 C   0  0  0  0  0  0  0  0  0  0  0  0
   -1.0600   -8.3183    7.9715 C   0  0  0  0  0  0  0  0  0  0  0  0
  2  1  1  0  0  0
  2  3  1  0  0  0
  3  4  1  0  0  0
  4  5  1  0  0  0
  5  6  1  0  0  0
  6  7  1  0  0  0
  7  8  1  0  0  0
  8  9  1  0  0  0
  9 10  2  0  0  0
 10 11  1  0  0  0
 11 12  2  0  0  0
 11 13  1  0  0  0
 13 14  1  0  0  0
 14 15  1  0  0  0
 15 16  1  0  0  0
  6 17  1  0  0  0
 17 18  1  0  0  0
 18 19  1  0  0  0
 19 20  1  0  0  0
 20 21  1  0  0  0
 20 23  1  0  0  0
 23 24  3  0  0  0
 17  2  1  0  0  0
 20  2  1  0  0  0
 15  5  1  0  0  0
 15  9  1  0  0  0
 21 22  1  0  0  0
M  END
> <minimizedAffinity>
-4.38225

> <CNNscore>
0.2735532224

> <CNNaffinity>
5.3489871025

> <CNN_VS>
1.4632326365

> <CNNaffinity_variance>
0.2544676960

$$$$
[H]Oc1c([H])c2c(c([H])c1O[H])[C@@]1([H])C([H])([H])C([H])([H])[C@]3(C([H])([H])[H])[C@@]([H])(O[H])C([H])([H])C([H])([H])[C@@]3([H])[C@]1([H])C([H])([H])C2([H])[H]


 24 27  0  0  0  0  0  0  0  0999 V2000
  -14.4504   -7.0053    2.9453 C   0  0  0  0  0  0  0  0  0  0  0  0
  -15.7322   -7.8248    3.0037 C   0  0  0  0  0  0  0  0  0  0  0  0
  -16.8084   -7.2478    2.1868 C   0  0  0  0  0  0  0  0  0  0  0  0
  -18.0198   -6.7527    2.8584 C   0  0  0  0  0  0  0  0  0  0  0  0
  -18.0068   -6.5647    4.3207 C   0  0  0  0  0  0  0  0  0  0  0  0
  -16.6150   -6.7445    4.9567 C   0  0  0  0  0  0  0  0  0  0  0  0
  -16.8131   -6.6163    6.4314 C   0  0  0  0  0  0  0  0  0  0  0  0
  -16.9914   -5.1152    6.7048 C   0  0  0  0  0  0  0  0  0  0  0  0
  -18.1607   -4.6305    5.9023 C   0  0  0  0  0  0  0  0  0  0  0  0
  -18.7809   -3.4761    6.2863 C   0  0  0  0  0  0  0  0  0  0  0  0
  -19.8629   -2.9594    5.6055 C   0  0  0  0  0  0  0  0  0  0  0  0
  -20.4874   -1.7808    6.0068 O   0  0  0  0  0  0  0  0  0  0  0  0
  -20.3417   -3.6237    4.4989 C   0  0  0  0  0  0  0  0  0  0  0  0
  -21.4186   -3.1111    3.8201 O   0  0  0  0  0  0  0  0  0  0  0  0
  -19.6977   -4.8005    4.1201 C   0  0  0  0  0  0  0  0  0  0  0  0
  -18.6207   -5.3118    4.8002 C   0  0  0  0  0  0  0  0  0  0  0  0
  -16.1606   -8.0398    4.4623 C   0  0  0  0  0  0  0  0  0  0  0  0
  -14.9755   -8.6734    5.0275 C   0  0  0  0  0  0  0  0  0  0  0  0
  -14.4949   -9.5931    3.9159 C   0  0  0  0  0  0  0  0  0  0  0  0
  -15.3376   -9.2383    2.6821 C   0  0  0  0  0  0  0  0  0  0  0  0
  -14.5681   -9.3300    1.5339 O   0  0  0  0  0  0  0  0  0  0  0  0
  -20.1208   -1.3089    6.8209 H   0  0  0  0  0  0  0  0  0  0  0  0
  -21.8462   -3.5048    3.0119 H   0  0  0  0  0  0  0  0  0  0  0  0
  -14.8779   -8.6700    0.8660 H   0  0  0  0  0  0  0  0  0  0  0  0
  2  1  1  0  0  0
  2  3  1  0  0  0
  3  4  1  0  0  0
  4  5  1  0  0  0
  5  6  1  0  0  0
  6  7  1  0  0  0
  7  8  1  0  0  0
  8  9  1  0  0  0
  9 10  2  0  0  0
 10 11  1  0  0  0
 11 12  1  0  0  0
 11 13  2  0  0  0
 13 14  1  0  0  0
 13 15  1  0  0  0
 15 16  2  0  0  0
  6 17  1  0  0  0
 17 18  1  0  0  0
 18 19  1  0  0  0
 19 20  1  0  0  0
 20 21  1  0  0  0
 17  2  1  0  0  0
 20  2  1  0  0  0
 16  5  1  0  0  0
 16  9  1  0  0  0
 12 22  1  0  0  0
 14 23  1  0  0  0
 21 24  1  0  0  0
M  END
> <minimizedAffinity>
19.98519

> <CNNscore>
0.4882836640

> <CNNaffinity>
6.1211614609

> <CNN_VS>
2.9888632298

> <CNNaffinity_variance>
1.2424477339

$$$$
[H]Oc1c([H])c2c(c([H])c1O[H])[C@@]1([H])C([H])([H])C([H])([H])[C@]3(C([H])([H])[H])[C@@]([H])(O[H])C([H])([H])C([H])([H])[C@@]3([H])[C@]1([H])C([H])([H])C2([H])[H]


 24 27  0  0  0  0  0  0  0  0999 V2000
  -14.3398   -9.1969    7.9274 C   0  0  0  0  0  0  0  0  0  0  0  0
  -13.2522   -8.3814    7.2416 C   0  0  0  0  0  0  0  0  0  0  0  0
  -11.9028   -8.7510    7.6898 C   0  0  0  0  0  0  0  0  0  0  0  0
  -11.1002   -7.7554    8.4166 C   0  0  0  0  0  0  0  0  0  0  0  0
  -11.7572   -6.5437    8.9399 C   0  0  0  0  0  0  0  0  0  0  0  0
  -13.2925   -6.5659    8.8110 C   0  0  0  0  0  0  0  0  0  0  0  0
  -13.7687   -5.2357    9.2948 C   0  0  0  0  0  0  0  0  0  0  0  0
  -13.6724   -5.2842   10.8272 C   0  0  0  0  0  0  0  0  0  0  0  0
  -12.2498   -5.5779   11.1961 C   0  0  0  0  0  0  0  0  0  0  0  0
  -11.8214   -5.2517   12.4510 C   0  0  0  0  0  0  0  0  0  0  0  0
  -10.5300   -5.4865   12.8730 C   0  0  0  0  0  0  0  0  0  0  0  0
  -10.1045   -5.1493   14.1557 O   0  0  0  0  0  0  0  0  0  0  0  0
   -9.6340   -6.0699   12.0057 C   0  0  0  0  0  0  0  0  0  0  0  0
   -8.3481   -6.3043   12.4238 O   0  0  0  0  0  0  0  0  0  0  0  0
  -10.0868   -6.3968   10.7286 C   0  0  0  0  0  0  0  0  0  0  0  0
  -11.3733   -6.1615   10.3120 C   0  0  0  0  0  0  0  0  0  0  0  0
  -13.5288   -6.8802    7.4060 C   0  0  0  0  0  0  0  0  0  0  0  0
  -14.8655   -6.7624    6.8360 C   0  0  0  0  0  0  0  0  0  0  0  0
  -14.8349   -7.7122    5.6489 C   0  0  0  0  0  0  0  0  0  0  0  0
  -13.5169   -8.4913    5.7668 C   0  0  0  0  0  0  0  0  0  0  0  0
  -13.6958   -9.8009    5.3524 O   0  0  0  0  0  0  0  0  0  0  0  0
  -10.7771   -4.7224   14.7764 H   0  0  0  0  0  0  0  0  0  0  0  0
   -7.6205   -6.7181   11.8849 H   0  0  0  0  0  0  0  0  0  0  0  0
  -13.0948  -10.4007    5.8590 H   0  0  0  0  0  0  0  0  0  0  0  0
  2  1  1  0  0  0
  2  3  1  0  0  0
  3  4  1  0  0  0
  4  5  1  0  0  0
  5  6  1  0  0  0
  6  7  1  0  0  0
  7  8  1  0  0  0
  8  9  1  0  0  0
  9 10  2  0  0  0
 10 11  1  0  0  0
 11 12  1  0  0  0
 11 13  2  0  0  0
 13 14  1  0  0  0
 13 15  1  0  0  0
 15 16  2  0  0  0
  6 17  1  0  0  0
 17 18  1  0  0  0
 18 19  1  0  0  0
 19 20  1  0  0  0
 20 21  1  0  0  0
 17  2  1  0  0  0
 20  2  1  0  0  0
 16  5  1  0  0  0
 16  9  1  0  0  0
 12 22  1  0  0  0
 14 23  1  0  0  0
 21 24  1  0  0  0
M  END
> <minimizedAffinity>
3.94560

> <CNNscore>
0.4440129399

> <CNNaffinity>
5.9021916389

> <CNN_VS>
2.6206495762

> <CNNaffinity_variance>
0.6898091435

$$$$
[H]Oc1c([H])c2c(c([H])c1O[H])[C@@]1([H])C([H])([H])C([H])([H])[C@]3(C([H])([H])[H])[C@@]([H])(O[H])C([H])([H])C([H])([H])[C@@]3([H])[C@]1([H])C([H])([H])C2([H])[H]


 24 27  0  0  0  0  0  0  0  0999 V2000
  -11.2811   -8.8800    6.1849 C   0  0  0  0  0  0  0  0  0  0  0  0
  -12.1535   -8.8816    7.4327 C   0  0  0  0  0  0  0  0  0  0  0  0
  -13.2386   -9.8694    7.3610 C   0  0  0  0  0  0  0  0  0  0  0  0
  -14.6301   -9.3929    7.3395 C   0  0  0  0  0  0  0  0  0  0  0  0
  -14.8987   -7.9657    7.0852 C   0  0  0  0  0  0  0  0  0  0  0  0
  -13.6486   -7.1622    6.6785 C   0  0  0  0  0  0  0  0  0  0  0  0
  -14.0897   -5.7402    6.5605 C   0  0  0  0  0  0  0  0  0  0  0  0
  -14.8578   -5.6449    5.2335 C   0  0  0  0  0  0  0  0  0  0  0  0
  -15.9954   -6.6195    5.2821 C   0  0  0  0  0  0  0  0  0  0  0  0
  -17.0532   -6.4288    4.4398 C   0  0  0  0  0  0  0  0  0  0  0  0
  -18.1405   -7.2765    4.4187 C   0  0  0  0  0  0  0  0  0  0  0  0
  -19.2137   -7.0717    3.5549 O   0  0  0  0  0  0  0  0  0  0  0  0
  -18.1695   -8.3554    5.2733 C   0  0  0  0  0  0  0  0  0  0  0  0
  -19.2508   -9.2001    5.2539 O   0  0  0  0  0  0  0  0  0  0  0  0
  -17.0823   -8.5360    6.1267 C   0  0  0  0  0  0  0  0  0  0  0  0
  -16.0015   -7.6901    6.1448 C   0  0  0  0  0  0  0  0  0  0  0  0
  -12.6736   -7.4661    7.7206 C   0  0  0  0  0  0  0  0  0  0  0  0
  -11.4314   -6.7090    7.8153 C   0  0  0  0  0  0  0  0  0  0  0  0
  -10.4856   -7.6586    8.5336 C   0  0  0  0  0  0  0  0  0  0  0  0
  -11.2134   -9.0092    8.5977 C   0  0  0  0  0  0  0  0  0  0  0  0
  -10.3102  -10.0481    8.4438 O   0  0  0  0  0  0  0  0  0  0  0  0
  -19.1729   -6.2746    2.9361 H   0  0  0  0  0  0  0  0  0  0  0  0
  -19.3778  -10.0063    5.8240 H   0  0  0  0  0  0  0  0  0  0  0  0
  -10.7466  -10.8111    7.9911 H   0  0  0  0  0  0  0  0  0  0  0  0
  2  1  1  0  0  0
  2  3  1  0  0  0
  3  4  1  0  0  0
  4  5  1  0  0  0
  5  6  1  0  0  0
  6  7  1  0  0  0
  7  8  1  0  0  0
  8  9  1  0  0  0
  9 10  2  0  0  0
 10 11  1  0  0  0
 11 12  1  0  0  0
 11 13  2  0  0  0
 13 14  1  0  0  0
 13 15  1  0  0  0
 15 16  2  0  0  0
  6 17  1  0  0  0
 17 18  1  0  0  0
 18 19  1  0  0  0
 19 20  1  0  0  0
 20 21  1  0  0  0
 17  2  1  0  0  0
 20  2  1  0  0  0
 16  5  1  0  0  0
 16  9  1  0  0  0
 12 22  1  0  0  0
 14 23  1  0  0  0
 21 24  1  0  0  0
M  END
> <minimizedAffinity>
-3.50594

> <CNNscore>
0.4086563587

> <CNNaffinity>
6.2950773239

> <CNN_VS>
2.5725233555

> <CNNaffinity_variance>
1.0064208508

$$$$
[H]Oc1c([H])c2c(c([H])c1O[H])[C@@]1([H])C([H])([H])C([H])([H])[C@]3(C([H])([H])[H])[C@@]([H])(O[H])C([H])([H])C([H])([H])[C@@]3([H])[C@]1([H])C([H])([H])C2([H])[H]


 24 27  0  0  0  0  0  0  0  0999 V2000
  -12.9405   -9.6042    9.6564 C   0  0  0  0  0  0  0  0  0  0  0  0
  -12.9402   -9.0278    8.2471 C   0  0  0  0  0  0  0  0  0  0  0  0
  -12.1068   -9.8050    7.3200 C   0  0  0  0  0  0  0  0  0  0  0  0
  -10.9142   -9.1707    6.7378 C   0  0  0  0  0  0  0  0  0  0  0  0
  -10.4156   -7.9088    7.3146 C   0  0  0  0  0  0  0  0  0  0  0  0
  -11.1282   -7.4981    8.6175 C   0  0  0  0  0  0  0  0  0  0  0  0
  -10.5671   -6.1667    8.9954 C   0  0  0  0  0  0  0  0  0  0  0  0
   -9.1746   -6.4459    9.5809 C   0  0  0  0  0  0  0  0  0  0  0  0
   -8.3657   -7.1598    8.5406 C   0  0  0  0  0  0  0  0  0  0  0  0
   -7.0042   -7.1338    8.6428 C   0  0  0  0  0  0  0  0  0  0  0  0
   -6.1847   -7.7634    7.7300 C   0  0  0  0  0  0  0  0  0  0  0  0
   -4.7970   -7.7300    7.8446 O   0  0  0  0  0  0  0  0  0  0  0  0
   -6.7499   -8.4443    6.6753 C   0  0  0  0  0  0  0  0  0  0  0  0
   -5.9359   -9.0714    5.7657 O   0  0  0  0  0  0  0  0  0  0  0  0
   -8.1408   -8.4612    6.5853 C   0  0  0  0  0  0  0  0  0  0  0  0
   -8.9534   -7.8334    7.4960 C   0  0  0  0  0  0  0  0  0  0  0  0
  -12.5467   -7.5441    8.2789 C   0  0  0  0  0  0  0  0  0  0  0  0
  -13.5432   -6.9940    9.1898 C   0  0  0  0  0  0  0  0  0  0  0  0
  -14.8140   -7.7474    8.8297 C   0  0  0  0  0  0  0  0  0  0  0  0
  -14.3838   -8.8619    7.8650 C   0  0  0  0  0  0  0  0  0  0  0  0
  -15.1310  -10.0062    8.0910 O   0  0  0  0  0  0  0  0  0  0  0  0
   -4.4024   -7.2252    8.6253 H   0  0  0  0  0  0  0  0  0  0  0  0
   -6.2333   -9.5896    4.9694 H   0  0  0  0  0  0  0  0  0  0  0  0
  -14.5885  -10.8087    7.8926 H   0  0  0  0  0  0  0  0  0  0  0  0
  2  1  1  0  0  0
  2  3  1  0  0  0
  3  4  1  0  0  0
  4  5  1  0  0  0
  5  6  1  0  0  0
  6  7  1  0  0  0
  7  8  1  0  0  0
  8  9  1  0  0  0
  9 10  2  0  0  0
 10 11  1  0  0  0
 11 12  1  0  0  0
 11 13  2  0  0  0
 13 14  1  0  0  0
 13 15  1  0  0  0
 15 16  2  0  0  0
  6 17  1  0  0  0
 17 18  1  0  0  0
 18 19  1  0  0  0
 19 20  1  0  0  0
 20 21  1  0  0  0
 17  2  1  0  0  0
 20  2  1  0  0  0
 16  5  1  0  0  0
 16  9  1  0  0  0
 12 22  1  0  0  0
 14 23  1  0  0  0
 21 24  1  0  0  0
M  END
> <minimizedAffinity>
-5.83798

> <CNNscore>
0.3825104535

> <CNNaffinity>
5.7954912186

> <CNN_VS>
2.2168359756

> <CNNaffinity_variance>
0.3672474921

$$$$
[H]Oc1c([H])c2c(c([H])c1O[H])[C@@]1([H])C([H])([H])C([H])([H])[C@]3(C([H])([H])[H])[C@@]([H])(O[H])C([H])([H])C([H])([H])[C@@]3([H])[C@]1([H])C([H])([H])C2([H])[H]


 24 27  0  0  0  0  0  0  0  0999 V2000
   -6.9110   -8.1995    9.2730 C   0  0  0  0  0  0  0  0  0  0  0  0
   -7.3627   -7.2694    8.1554 C   0  0  0  0  0  0  0  0  0  0  0  0
   -8.4271   -6.3508    8.5816 C   0  0  0  0  0  0  0  0  0  0  0  0
   -9.7548   -6.4677    7.9595 C   0  0  0  0  0  0  0  0  0  0  0  0
  -10.0753   -7.6684    7.1661 C   0  0  0  0  0  0  0  0  0  0  0  0
   -9.0008   -8.7697    7.2464 C   0  0  0  0  0  0  0  0  0  0  0  0
   -9.4441   -9.8504    6.3158 C   0  0  0  0  0  0  0  0  0  0  0  0
  -10.5785  -10.5919    7.0392 C   0  0  0  0  0  0  0  0  0  0  0  0
  -11.6561   -9.5999    7.3566 C   0  0  0  0  0  0  0  0  0  0  0  0
  -12.9181  -10.0631    7.5962 C   0  0  0  0  0  0  0  0  0  0  0  0
  -13.9679   -9.2207    7.8951 C   0  0  0  0  0  0  0  0  0  0  0  0
  -15.2512   -9.7050    8.1377 O   0  0  0  0  0  0  0  0  0  0  0  0
  -13.7454   -7.8634    7.9563 C   0  0  0  0  0  0  0  0  0  0  0  0
  -14.7890   -7.0233    8.2535 O   0  0  0  0  0  0  0  0  0  0  0  0
  -12.4519   -7.4067    7.7091 C   0  0  0  0  0  0  0  0  0  0  0  0
  -11.4092   -8.2484    7.4119 C   0  0  0  0  0  0  0  0  0  0  0  0
   -7.7579   -8.0816    6.9139 C   0  0  0  0  0  0  0  0  0  0  0  0
   -6.5389   -8.8386    6.6564 C   0  0  0  0  0  0  0  0  0  0  0  0
   -5.4281   -7.8477    6.9669 C   0  0  0  0  0  0  0  0  0  0  0  0
   -6.1141   -6.6347    7.6119 C   0  0  0  0  0  0  0  0  0  0  0  0
   -5.3098   -6.1017    8.6057 O   0  0  0  0  0  0  0  0  0  0  0  0
  -15.3932  -10.7036    8.0879 H   0  0  0  0  0  0  0  0  0  0  0  0
  -14.7439   -6.0313    8.3240 H   0  0  0  0  0  0  0  0  0  0  0  0
   -5.8700   -5.7113    9.3208 H   0  0  0  0  0  0  0  0  0  0  0  0
  2  1  1  0  0  0
  2  3  1  0  0  0
  3  4  1  0  0  0
  4  5  1  0  0  0
  5  6  1  0  0  0
  6  7  1  0  0  0
  7  8  1  0  0  0
  8  9  1  0  0  0
  9 10  2  0  0  0
 10 11  1  0  0  0
 11 12  1  0  0  0
 11 13  2  0  0  0
 13 14  1  0  0  0
 13 15  1  0  0  0
 15 16  2  0  0  0
  6 17  1  0  0  0
 17 18  1  0  0  0
 18 19  1  0  0  0
 19 20  1  0  0  0
 20 21  1  0  0  0
 17  2  1  0  0  0
 20  2  1  0  0  0
 16  5  1  0  0  0
 16  9  1  0  0  0
 12 22  1  0  0  0
 14 23  1  0  0  0
 21 24  1  0  0  0
M  END
> <minimizedAffinity>
-6.77869

> <CNNscore>
0.3136045635

> <CNNaffinity>
5.8397073746

> <CNN_VS>
1.8313589096

> <CNNaffinity_variance>
0.3927109838

$$$$
[H]Oc1c([H])c2c(c([H])c1O[H])[C@@]1([H])C([H])([H])C([H])([H])[C@]3(C([H])([H])[H])[C@@]([H])(O[H])C([H])([H])C([H])([H])[C@@]3([H])[C@]1([H])C([H])([H])C2([H])[H]


 24 27  0  0  0  0  0  0  0  0999 V2000
   -7.3083   -6.9721    5.8391 C   0  0  0  0  0  0  0  0  0  0  0  0
   -7.2463   -8.1082    6.8509 C   0  0  0  0  0  0  0  0  0  0  0  0
   -8.0013   -9.2915    6.4172 C   0  0  0  0  0  0  0  0  0  0  0  0
   -9.1780   -9.7059    7.1965 C   0  0  0  0  0  0  0  0  0  0  0  0
   -9.7473   -8.7771    8.1900 C   0  0  0  0  0  0  0  0  0  0  0  0
   -9.1229   -7.3691    8.1519 C   0  0  0  0  0  0  0  0  0  0  0  0
   -9.7455   -6.6086    9.2764 C   0  0  0  0  0  0  0  0  0  0  0  0
  -11.1597   -6.2386    8.8042 C   0  0  0  0  0  0  0  0  0  0  0  0
  -11.8857   -7.5059    8.4681 C   0  0  0  0  0  0  0  0  0  0  0  0
  -13.2509   -7.4881    8.4446 C   0  0  0  0  0  0  0  0  0  0  0  0
  -13.9975   -8.6081    8.1456 C   0  0  0  0  0  0  0  0  0  0  0  0
  -15.3898   -8.5777    8.1247 O   0  0  0  0  0  0  0  0  0  0  0  0
  -13.3525   -9.7902    7.8595 C   0  0  0  0  0  0  0  0  0  0  0  0
  -14.0936  -10.9061    7.5618 O   0  0  0  0  0  0  0  0  0  0  0  0
  -11.9589   -9.7918    7.8877 C   0  0  0  0  0  0  0  0  0  0  0  0
  -11.2190   -8.6747    8.1858 C   0  0  0  0  0  0  0  0  0  0  0  0
   -7.6867   -7.6126    8.2356 C   0  0  0  0  0  0  0  0  0  0  0  0
   -6.7610   -6.5093    8.4621 C   0  0  0  0  0  0  0  0  0  0  0  0
   -5.4491   -7.0164    7.8842 C   0  0  0  0  0  0  0  0  0  0  0  0
   -5.7892   -8.3210    7.1491 C   0  0  0  0  0  0  0  0  0  0  0  0
   -5.0211   -8.4391    6.0025 O   0  0  0  0  0  0  0  0  0  0  0  0
  -15.8435   -7.7009    8.3374 H   0  0  0  0  0  0  0  0  0  0  0  0
  -13.7357  -11.8083    7.3406 H   0  0  0  0  0  0  0  0  0  0  0  0
   -5.5263   -8.9260    5.3059 H   0  0  0  0  0  0  0  0  0  0  0  0
  2  1  1  0  0  0
  2  3  1  0  0  0
  3  4  1  0  0  0
  4  5  1  0  0  0
  5  6  1  0  0  0
  6  7  1  0  0  0
  7  8  1  0  0  0
  8  9  1  0  0  0
  9 10  2  0  0  0
 10 11  1  0  0  0
 11 12  1  0  0  0
 11 13  2  0  0  0
 13 14  1  0  0  0
 13 15  1  0  0  0
 15 16  2  0  0  0
  6 17  1  0  0  0
 17 18  1  0  0  0
 18 19  1  0  0  0
 19 20  1  0  0  0
 20 21  1  0  0  0
 17  2  1  0  0  0
 20  2  1  0  0  0
 16  5  1  0  0  0
 16  9  1  0  0  0
 12 22  1  0  0  0
 14 23  1  0  0  0
 21 24  1  0  0  0
M  END
> <minimizedAffinity>
-8.31765

> <CNNscore>
0.3037959933

> <CNNaffinity>
5.8577680588

> <CNN_VS>
1.7795664072

> <CNNaffinity_variance>
0.2417160571

$$$$
[H]Oc1c([H])c2c(c([H])c1O[H])[C@@]1([H])C([H])([H])C([H])([H])[C@]3(C([H])([H])[H])[C@@]([H])(O[H])C([H])([H])C([H])([H])[C@@]3([H])[C@]1([H])C([H])([H])C2([H])[H]


 24 27  0  0  0  0  0  0  0  0999 V2000
   -9.7117   -6.6643    6.9689 C   0  0  0  0  0  0  0  0  0  0  0  0
  -10.3371   -7.8663    7.6631 C   0  0  0  0  0  0  0  0  0  0  0  0
  -10.6551   -8.9548    6.7291 C   0  0  0  0  0  0  0  0  0  0  0  0
  -12.0640   -9.3256    6.5266 C   0  0  0  0  0  0  0  0  0  0  0  0
  -13.1234   -8.4228    7.0127 C   0  0  0  0  0  0  0  0  0  0  0  0
  -12.5969   -7.0691    7.5269 C   0  0  0  0  0  0  0  0  0  0  0  0
  -13.7844   -6.3381    8.0615 C   0  0  0  0  0  0  0  0  0  0  0  0
  -14.5536   -5.8268    6.8340 C   0  0  0  0  0  0  0  0  0  0  0  0
  -14.9138   -7.0076    5.9842 C   0  0  0  0  0  0  0  0  0  0  0  0
  -15.9413   -6.8803    5.0937 C   0  0  0  0  0  0  0  0  0  0  0  0
  -16.3384   -7.9155    4.2741 C   0  0  0  0  0  0  0  0  0  0  0  0
  -17.3881   -7.7738    3.3695 O   0  0  0  0  0  0  0  0  0  0  0  0
  -15.6821   -9.1233    4.3491 C   0  0  0  0  0  0  0  0  0  0  0  0
  -16.0760  -10.1548    3.5342 O   0  0  0  0  0  0  0  0  0  0  0  0
  -14.6357   -9.2370    5.2630 C   0  0  0  0  0  0  0  0  0  0  0  0
  -14.2431   -8.2042    6.0773 C   0  0  0  0  0  0  0  0  0  0  0  0
  -11.5581   -7.4305    8.4856 C   0  0  0  0  0  0  0  0  0  0  0  0
  -10.9775   -6.4213    9.3632 C   0  0  0  0  0  0  0  0  0  0  0  0
   -9.6115   -6.9912    9.7119 C   0  0  0  0  0  0  0  0  0  0  0  0
   -9.4202   -8.2131    8.8017 C   0  0  0  0  0  0  0  0  0  0  0  0
   -8.0958   -8.3152    8.4088 O   0  0  0  0  0  0  0  0  0  0  0  0
  -17.8564   -6.8798    3.3301 H   0  0  0  0  0  0  0  0  0  0  0  0
  -15.6758  -11.0659    3.5033 H   0  0  0  0  0  0  0  0  0  0  0  0
   -8.0411   -8.7133    7.5054 H   0  0  0  0  0  0  0  0  0  0  0  0
  2  1  1  0  0  0
  2  3  1  0  0  0
  3  4  1  0  0  0
  4  5  1  0  0  0
  5  6  1  0  0  0
  6  7  1  0  0  0
  7  8  1  0  0  0
  8  9  1  0  0  0
  9 10  2  0  0  0
 10 11  1  0  0  0
 11 12  1  0  0  0
 11 13  2  0  0  0
 13 14  1  0  0  0
 13 15  1  0  0  0
 15 16  2  0  0  0
  6 17  1  0  0  0
 17 18  1  0  0  0
 18 19  1  0  0  0
 19 20  1  0  0  0
 20 21  1  0  0  0
 17  2  1  0  0  0
 20  2  1  0  0  0
 16  5  1  0  0  0
 16  9  1  0  0  0
 12 22  1  0  0  0
 14 23  1  0  0  0
 21 24  1  0  0  0
M  END
> <minimizedAffinity>
-4.03324

> <CNNscore>
0.2628455758

> <CNNaffinity>
6.0335159302

> <CNN_VS>
1.5858830214

> <CNNaffinity_variance>
0.6957851052

$$$$
[H]Oc1c([H])c2c(c([H])c1O[H])[C@@]1([H])C([H])([H])C([H])([H])[C@]3(C([H])([H])[H])[C@@]([H])(O[H])C([H])([H])C([H])([H])[C@@]3([H])[C@]1([H])C([H])([H])C2([H])[H]


 24 27  0  0  0  0  0  0  0  0999 V2000
   -7.9437   -6.6065    6.9454 C   0  0  0  0  0  0  0  0  0  0  0  0
   -6.7964   -7.4245    7.5222 C   0  0  0  0  0  0  0  0  0  0  0  0
   -6.4140   -6.9867    8.8714 C   0  0  0  0  0  0  0  0  0  0  0  0
   -5.0750   -6.4137    9.0774 C   0  0  0  0  0  0  0  0  0  0  0  0
   -4.2749   -6.0135    7.9055 C   0  0  0  0  0  0  0  0  0  0  0  0
   -5.0479   -6.0810    6.5744 C   0  0  0  0  0  0  0  0  0  0  0  0
   -4.0627   -5.7408    5.5048 C   0  0  0  0  0  0  0  0  0  0  0  0
   -3.8717   -4.2182    5.5751 C   0  0  0  0  0  0  0  0  0  0  0  0
   -3.3978   -3.8707    6.9539 C   0  0  0  0  0  0  0  0  0  0  0  0
   -2.7556   -2.6804    7.1415 C   0  0  0  0  0  0  0  0  0  0  0  0
   -2.2872   -2.2823    8.3757 C   0  0  0  0  0  0  0  0  0  0  0  0
   -1.6334   -1.0655    8.5547 O   0  0  0  0  0  0  0  0  0  0  0  0
   -2.4688   -3.1073    9.4627 C   0  0  0  0  0  0  0  0  0  0  0  0
   -2.0032   -2.7130   10.6919 O   0  0  0  0  0  0  0  0  0  0  0  0
   -3.1261   -4.3188    9.2545 C   0  0  0  0  0  0  0  0  0  0  0  0
   -3.5911   -4.7117    8.0243 C   0  0  0  0  0  0  0  0  0  0  0  0
   -5.6058   -7.4290    6.5529 C   0  0  0  0  0  0  0  0  0  0  0  0
   -6.2156   -7.9583    5.3391 C   0  0  0  0  0  0  0  0  0  0  0  0
   -7.1704   -9.0248    5.8522 C   0  0  0  0  0  0  0  0  0  0  0  0
   -7.1990   -8.8649    7.3791 C   0  0  0  0  0  0  0  0  0  0  0  0
   -8.4727   -9.1141    7.8633 O   0  0  0  0  0  0  0  0  0  0  0  0
   -1.5103   -0.4750    7.7448 H   0  0  0  0  0  0  0  0  0  0  0  0
   -2.0784   -3.2260   11.5417 H   0  0  0  0  0  0  0  0  0  0  0  0
   -8.6428   -8.5629    8.6663 H   0  0  0  0  0  0  0  0  0  0  0  0
  2  1  1  0  0  0
  2  3  1  0  0  0
  3  4  1  0  0  0
  4  5  1  0  0  0
  5  6  1  0  0  0
  6  7  1  0  0  0
  7  8  1  0  0  0
  8  9  1  0  0  0
  9 10  2  0  0  0
 10 11  1  0  0  0
 11 12  1  0  0  0
 11 13  2  0  0  0
 13 14  1  0  0  0
 13 15  1  0  0  0
 15 16  2  0  0  0
  6 17  1  0  0  0
 17 18  1  0  0  0
 18 19  1  0  0  0
 19 20  1  0  0  0
 20 21  1  0  0  0
 17  2  1  0  0  0
 20  2  1  0  0  0
 16  5  1  0  0  0
 16  9  1  0  0  0
 12 22  1  0  0  0
 14 23  1  0  0  0
 21 24  1  0  0  0
M  END
> <minimizedAffinity>
-5.37613

> <CNNscore>
0.2294505686

> <CNNaffinity>
4.5939087868

> <CNN_VS>
1.0540750027

> <CNNaffinity_variance>
0.2425032556

$$$$
[H]Oc1c([H])c2c(c([H])c1O[H])[C@@]1([H])C([H])([H])C([H])([H])[C@]3(C([H])([H])[H])[C@@]([H])(O[H])C([H])([H])C([H])([H])[C@@]3([H])[C@]1([H])C([H])([H])C2([H])[H]


 24 27  0  0  0  0  0  0  0  0999 V2000
   -2.2899   -5.8919    5.5388 C   0  0  0  0  0  0  0  0  0  0  0  0
   -3.0737   -5.1649    6.6229 C   0  0  0  0  0  0  0  0  0  0  0  0
   -3.1966   -5.9544    7.8557 C   0  0  0  0  0  0  0  0  0  0  0  0
   -4.5324   -6.3986    8.2822 C   0  0  0  0  0  0  0  0  0  0  0  0
   -5.6571   -6.3128    7.3328 C   0  0  0  0  0  0  0  0  0  0  0  0
   -5.2336   -5.9246    5.9032 C   0  0  0  0  0  0  0  0  0  0  0  0
   -6.4970   -5.7921    5.1179 C   0  0  0  0  0  0  0  0  0  0  0  0
   -6.9677   -7.2258    4.8298 C   0  0  0  0  0  0  0  0  0  0  0  0
   -7.1520   -7.9285    6.1407 C   0  0  0  0  0  0  0  0  0  0  0  0
   -7.9554   -9.0319    6.1812 C   0  0  0  0  0  0  0  0  0  0  0  0
   -8.1799   -9.7376    7.3443 C   0  0  0  0  0  0  0  0  0  0  0  0
   -9.0017  -10.8619    7.3733 O   0  0  0  0  0  0  0  0  0  0  0  0
   -7.5772   -9.3227    8.5104 C   0  0  0  0  0  0  0  0  0  0  0  0
   -7.7994  -10.0237    9.6690 O   0  0  0  0  0  0  0  0  0  0  0  0
   -6.7602   -8.1948    8.4523 C   0  0  0  0  0  0  0  0  0  0  0  0
   -6.5391   -7.4947    7.2925 C   0  0  0  0  0  0  0  0  0  0  0  0
   -4.4382   -4.7146    6.0821 C   0  0  0  0  0  0  0  0  0  0  0  0
   -4.0482   -3.9085    4.9316 C   0  0  0  0  0  0  0  0  0  0  0  0
   -2.8027   -3.1788    5.4097 C   0  0  0  0  0  0  0  0  0  0  0  0
   -2.4365   -3.8112    6.7603 C   0  0  0  0  0  0  0  0  0  0  0  0
   -1.0601   -3.8805    6.8994 O   0  0  0  0  0  0  0  0  0  0  0  0
   -9.4342  -11.1497    6.5073 H   0  0  0  0  0  0  0  0  0  0  0  0
   -7.4181   -9.8157   10.5648 H   0  0  0  0  0  0  0  0  0  0  0  0
   -0.8143   -4.6717    7.4390 H   0  0  0  0  0  0  0  0  0  0  0  0
  2  1  1  0  0  0
  2  3  1  0  0  0
  3  4  1  0  0  0
  4  5  1  0  0  0
  5  6  1  0  0  0
  6  7  1  0  0  0
  7  8  1  0  0  0
  8  9  1  0  0  0
  9 10  2  0  0  0
 10 11  1  0  0  0
 11 12  1  0  0  0
 11 13  2  0  0  0
 13 14  1  0  0  0
 13 15  1  0  0  0
 15 16  2  0  0  0
  6 17  1  0  0  0
 17 18  1  0  0  0
 18 19  1  0  0  0
 19 20  1  0  0  0
 20 21  1  0  0  0
 17  2  1  0  0  0
 20  2  1  0  0  0
 16  5  1  0  0  0
 16  9  1  0  0  0
 12 22  1  0  0  0
 14 23  1  0  0  0
 21 24  1  0  0  0
M  END
> <minimizedAffinity>
-3.21535

> <CNNscore>
0.1896366030

> <CNNaffinity>
4.6317687035

> <CNN_VS>
0.8783528805

> <CNNaffinity_variance>
0.3406750560

$$$$
[H]C#C[C@]1(O[H])C([H])([H])C([H])([H])[C@]2([H])[C@]1(C([H])([H])[H])C([H])([H])C([H])([H])[C@]1([H])c3c([H])c([H])c(O[H])c([H])c3C([H])([H])C([H])([H])[C@]12[H]


 24 27  0  0  0  0  0  0  0  0999 V2000
   -3.9171   -7.3525    6.3241 C   0  0  0  0  0  0  0  0  0  0  0  0
   -5.2455   -6.6804    6.2710 C   0  0  0  0  0  0  0  0  0  0  0  0
   -5.1383   -5.2304    5.9430 C   0  0  0  0  0  0  0  0  0  0  0  0
   -4.3740   -4.5180    7.0166 C   0  0  0  0  0  0  0  0  0  0  0  0
   -4.8576   -4.7948    8.4037 C   0  0  0  0  0  0  0  0  0  0  0  0
   -5.0624   -6.2898    8.6538 C   0  0  0  0  0  0  0  0  0  0  0  0
   -5.5163   -6.5349   10.0448 C   0  0  0  0  0  0  0  0  0  0  0  0
   -5.0952   -5.5581   11.0763 C   0  0  0  0  0  0  0  0  0  0  0  0
   -4.0333   -4.6255   10.6862 C   0  0  0  0  0  0  0  0  0  0  0  0
   -3.1699   -4.1388   11.6354 C   0  0  0  0  0  0  0  0  0  0  0  0
   -2.1481   -3.2446   11.2848 C   0  0  0  0  0  0  0  0  0  0  0  0
   -1.2566   -2.7309   12.2133 O   0  0  0  0  0  0  0  0  0  0  0  0
   -2.0131   -2.8505    9.9613 C   0  0  0  0  0  0  0  0  0  0  0  0
   -2.8844   -3.3438    9.0131 C   0  0  0  0  0  0  0  0  0  0  0  0
   -3.8992   -4.2360    9.3798 C   0  0  0  0  0  0  0  0  0  0  0  0
   -6.0001   -6.7545    7.5995 C   0  0  0  0  0  0  0  0  0  0  0  0
   -6.4188   -8.1667    7.6609 C   0  0  0  0  0  0  0  0  0  0  0  0
   -6.9508   -8.3989    6.2524 C   0  0  0  0  0  0  0  0  0  0  0  0
   -6.1670   -7.4508    5.3687 C   0  0  0  0  0  0  0  0  0  0  0  0
   -5.4002   -8.2612    4.5006 O   0  0  0  0  0  0  0  0  0  0  0  0
   -1.3849   -1.8919   12.7358 H   0  0  0  0  0  0  0  0  0  0  0  0
   -5.7757   -9.1818    4.4450 H   0  0  0  0  0  0  0  0  0  0  0  0
   -7.0031   -6.6037    4.5547 C   0  0  0  0  0  0  0  0  0  0  0  0
   -7.6971   -5.8972    3.8716 C   0  0  0  0  0  0  0  0  0  0  0  0
  2  1  1  0  0  0
  2  3  1  0  0  0
  3  4  1  0  0  0
  4  5  1  0  0  0
  5  6  1  0  0  0
  6  7  1  0  0  0
  7  8  1  0  0  0
  8  9  1  0  0  0
  9 10  2  0  0  0
 10 11  1  0  0  0
 11 12  1  0  0  0
 11 13  2  0  0  0
 13 14  1  0  0  0
 14 15  2  0  0  0
  6 16  1  0  0  0
 16 17  1  0  0  0
 17 18  1  0  0  0
 18 19  1  0  0  0
 19 20  1  0  0  0
 19 23  1  0  0  0
 23 24  3  0  0  0
 16  2  1  0  0  0
 19  2  1  0  0  0
 15  5  1  0  0  0
 15  9  1  0  0  0
 12 21  1  0  0  0
 20 22  1  0  0  0
M  END
> <minimizedAffinity>
3.14844

> <CNNscore>
0.4410950840

> <CNNaffinity>
4.8740611076

> <CNN_VS>
2.1499242783

> <CNNaffinity_variance>
0.9477647543

$$$$
[H]C#C[C@]1(O[H])C([H])([H])C([H])([H])[C@]2([H])[C@]1(C([H])([H])[H])C([H])([H])C([H])([H])[C@]1([H])c3c([H])c([H])c(O[H])c([H])c3C([H])([H])C([H])([H])[C@]12[H]


 24 27  0  0  0  0  0  0  0  0999 V2000
   -1.6573   -5.4789    7.0802 C   0  0  0  0  0  0  0  0  0  0  0  0
   -2.9162   -6.1417    7.5219 C   0  0  0  0  0  0  0  0  0  0  0  0
   -4.0276   -5.1714    7.7337 C   0  0  0  0  0  0  0  0  0  0  0  0
   -3.6721   -4.2180    8.8333 C   0  0  0  0  0  0  0  0  0  0  0  0
   -3.1904   -4.8755   10.0863 C   0  0  0  0  0  0  0  0  0  0  0  0
   -2.1335   -5.9448    9.8051 C   0  0  0  0  0  0  0  0  0  0  0  0
   -1.6561   -6.5600   11.0678 C   0  0  0  0  0  0  0  0  0  0  0  0
   -1.7023   -5.7220   12.2889 C   0  0  0  0  0  0  0  0  0  0  0  0
   -1.9247   -4.2881   12.0791 C   0  0  0  0  0  0  0  0  0  0  0  0
   -1.4011   -3.3796   12.9644 C   0  0  0  0  0  0  0  0  0  0  0  0
   -1.6027   -2.0037   12.7839 C   0  0  0  0  0  0  0  0  0  0  0  0
   -1.0908   -1.0551   13.6551 O   0  0  0  0  0  0  0  0  0  0  0  0
   -2.3413   -1.5610   11.6959 C   0  0  0  0  0  0  0  0  0  0  0  0
   -2.8644   -2.4798   10.8105 C   0  0  0  0  0  0  0  0  0  0  0  0
   -2.6536   -3.8502   11.0051 C   0  0  0  0  0  0  0  0  0  0  0  0
   -2.7575   -6.8918    8.8456 C   0  0  0  0  0  0  0  0  0  0  0  0
   -1.9576   -8.0692    8.4617 C   0  0  0  0  0  0  0  0  0  0  0  0
   -2.6602   -8.5262    7.1897 C   0  0  0  0  0  0  0  0  0  0  0  0
   -3.2505   -7.2685    6.5863 C   0  0  0  0  0  0  0  0  0  0  0  0
   -2.5823   -7.0678    5.3568 O   0  0  0  0  0  0  0  0  0  0  0  0
   -1.5555   -0.7005   14.4623 H   0  0  0  0  0  0  0  0  0  0  0  0
   -2.1577   -7.9103    5.0382 H   0  0  0  0  0  0  0  0  0  0  0  0
   -4.6612   -7.3748    6.3074 C   0  0  0  0  0  0  0  0  0  0  0  0
   -5.8375   -7.4684    6.0727 C   0  0  0  0  0  0  0  0  0  0  0  0
  2  1  1  0  0  0
  2  3  1  0  0  0
  3  4  1  0  0  0
  4  5  1  0  0  0
  5  6  1  0  0  0
  6  7  1  0  0  0
  7  8  1  0  0  0
  8  9  1  0  0  0
  9 10  2  0  0  0
 10 11  1  0  0  0
 11 12  1  0  0  0
 11 13  2  0  0  0
 13 14  1  0  0  0
 14 15  2  0  0  0
  6 16  1  0  0  0
 16 17  1  0  0  0
 17 18  1  0  0  0
 18 19  1  0  0  0
 19 20  1  0  0  0
 19 23  1  0  0  0
 23 24  3  0  0  0
 16  2  1  0  0  0
 19  2  1  0  0  0
 15  5  1  0  0  0
 15  9  1  0  0  0
 12 21  1  0  0  0
 20 22  1  0  0  0
M  END
> <minimizedAffinity>
-2.85730

> <CNNscore>
0.4260163307

> <CNNaffinity>
4.5352673531

> <CNN_VS>
1.9320979118

> <CNNaffinity_variance>
0.4891137183

$$$$
[H]C#C[C@]1(O[H])C([H])([H])C([H])([H])[C@]2([H])[C@]1(C([H])([H])[H])C([H])([H])C([H])([H])[C@]1([H])c3c([H])c([H])c(O[H])c([H])c3C([H])([H])C([H])([H])[C@]12[H]


 24 27  0  0  0  0  0  0  0  0999 V2000
  -14.8419   -9.1278    6.0441 C   0  0  0  0  0  0  0  0  0  0  0  0
  -15.3463   -7.7495    6.2997 C   0  0  0  0  0  0  0  0  0  0  0  0
  -14.5779   -6.7134    5.5529 C   0  0  0  0  0  0  0  0  0  0  0  0
  -13.1509   -6.7066    6.0091 C   0  0  0  0  0  0  0  0  0  0  0  0
  -12.9791   -6.6412    7.4925 C   0  0  0  0  0  0  0  0  0  0  0  0
  -13.8747   -7.6451    8.2201 C   0  0  0  0  0  0  0  0  0  0  0  0
  -13.6630   -7.5752    9.6868 C   0  0  0  0  0  0  0  0  0  0  0  0
  -12.3263   -7.1429   10.1579 C   0  0  0  0  0  0  0  0  0  0  0  0
  -11.2629   -7.1203    9.1488 C   0  0  0  0  0  0  0  0  0  0  0  0
   -9.9620   -7.3451    9.5232 C   0  0  0  0  0  0  0  0  0  0  0  0
   -8.9290   -7.3265    8.5750 C   0  0  0  0  0  0  0  0  0  0  0  0
   -7.6034   -7.5488    8.9130 O   0  0  0  0  0  0  0  0  0  0  0  0
   -9.2313   -7.0773    7.2440 C   0  0  0  0  0  0  0  0  0  0  0  0
  -10.5410   -6.8522    6.8752 C   0  0  0  0  0  0  0  0  0  0  0  0
  -11.5606   -6.8744    7.8345 C   0  0  0  0  0  0  0  0  0  0  0  0
  -15.2612   -7.3520    7.7743 C   0  0  0  0  0  0  0  0  0  0  0  0
  -16.3378   -8.1478    8.3915 C   0  0  0  0  0  0  0  0  0  0  0  0
  -17.4872   -7.9335    7.4150 C   0  0  0  0  0  0  0  0  0  0  0  0
  -16.8301   -7.7026    6.0700 C   0  0  0  0  0  0  0  0  0  0  0  0
  -17.2102   -8.7907    5.2515 O   0  0  0  0  0  0  0  0  0  0  0  0
   -6.9489   -6.8461    9.1800 H   0  0  0  0  0  0  0  0  0  0  0  0
  -18.0245   -9.2396    5.6078 H   0  0  0  0  0  0  0  0  0  0  0  0
  -17.2656   -6.4912    5.4204 C   0  0  0  0  0  0  0  0  0  0  0  0
  -17.6242   -5.4798    4.8763 C   0  0  0  0  0  0  0  0  0  0  0  0
  2  1  1  0  0  0
  2  3  1  0  0  0
  3  4  1  0  0  0
  4  5  1  0  0  0
  5  6  1  0  0  0
  6  7  1  0  0  0
  7  8  1  0  0  0
  8  9  1  0  0  0
  9 10  2  0  0  0
 10 11  1  0  0  0
 11 12  1  0  0  0
 11 13  2  0  0  0
 13 14  1  0  0  0
 14 15  2  0  0  0
  6 16  1  0  0  0
 16 17  1  0  0  0
 17 18  1  0  0  0
 18 19  1  0  0  0
 19 20  1  0  0  0
 19 23  1  0  0  0
 23 24  3  0  0  0
 16  2  1  0  0  0
 19  2  1  0  0  0
 15  5  1  0  0  0
 15  9  1  0  0  0
 12 21  1  0  0  0
 20 22  1  0  0  0
M  END
> <minimizedAffinity>
-5.20579

> <CNNscore>
0.3835084736

> <CNNaffinity>
6.2914848328

> <CNN_VS>
2.4128377438

> <CNNaffinity_variance>
0.2423841059

$$$$
[H]C#C[C@]1(O[H])C([H])([H])C([H])([H])[C@]2([H])[C@]1(C([H])([H])[H])C([H])([H])C([H])([H])[C@]1([H])c3c([H])c([H])c(O[H])c([H])c3C([H])([H])C([H])([H])[C@]12[H]


 24 27  0  0  0  0  0  0  0  0999 V2000
   -9.2421   -9.4316    8.9484 C   0  0  0  0  0  0  0  0  0  0  0  0
   -9.8345   -8.8970    7.6904 C   0  0  0  0  0  0  0  0  0  0  0  0
   -9.3762   -9.6411    6.4830 C   0  0  0  0  0  0  0  0  0  0  0  0
   -7.8944   -9.4908    6.3211 C   0  0  0  0  0  0  0  0  0  0  0  0
   -7.4079   -8.0791    6.3878 C   0  0  0  0  0  0  0  0  0  0  0  0
   -7.9974   -7.3231    7.5796 C   0  0  0  0  0  0  0  0  0  0  0  0
   -7.4764   -5.9352    7.6344 C   0  0  0  0  0  0  0  0  0  0  0  0
   -6.1283   -5.6953    7.0681 C   0  0  0  0  0  0  0  0  0  0  0  0
   -5.3243   -6.8891    6.7888 C   0  0  0  0  0  0  0  0  0  0  0  0
   -3.9557   -6.8230    6.8642 C   0  0  0  0  0  0  0  0  0  0  0  0
   -3.1671   -7.9520    6.5996 C   0  0  0  0  0  0  0  0  0  0  0  0
   -1.7829   -7.9260    6.6651 O   0  0  0  0  0  0  0  0  0  0  0  0
   -3.7830   -9.1474    6.2577 C   0  0  0  0  0  0  0  0  0  0  0  0
   -5.1588   -9.2062    6.1839 C   0  0  0  0  0  0  0  0  0  0  0  0
   -5.9316   -8.0697    6.4513 C   0  0  0  0  0  0  0  0  0  0  0  0
   -9.4725   -7.4318    7.4416 C   0  0  0  0  0  0  0  0  0  0  0  0
  -10.2859   -6.7181    8.4428 C   0  0  0  0  0  0  0  0  0  0  0  0
  -11.6397   -7.4004    8.2930 C   0  0  0  0  0  0  0  0  0  0  0  0
  -11.3275   -8.8088    7.8313 C   0  0  0  0  0  0  0  0  0  0  0  0
  -11.7497   -9.6691    8.8706 O   0  0  0  0  0  0  0  0  0  0  0  0
   -1.1720   -7.7080    5.9084 H   0  0  0  0  0  0  0  0  0  0  0  0
  -12.4072   -9.2161    9.4656 H   0  0  0  0  0  0  0  0  0  0  0  0
  -12.0339   -9.1882    6.6328 C   0  0  0  0  0  0  0  0  0  0  0  0
  -12.6186   -9.5059    5.6305 C   0  0  0  0  0  0  0  0  0  0  0  0
  2  1  1  0  0  0
  2  3  1  0  0  0
  3  4  1  0  0  0
  4  5  1  0  0  0
  5  6  1  0  0  0
  6  7  1  0  0  0
  7  8  1  0  0  0
  8  9  1  0  0  0
  9 10  2  0  0  0
 10 11  1  0  0  0
 11 12  1  0  0  0
 11 13  2  0  0  0
 13 14  1  0  0  0
 14 15  2  0  0  0
  6 16  1  0  0  0
 16 17  1  0  0  0
 17 18  1  0  0  0
 18 19  1  0  0  0
 19 20  1  0  0  0
 19 23  1  0  0  0
 23 24  3  0  0  0
 16  2  1  0  0  0
 19  2  1  0  0  0
 15  5  1  0  0  0
 15  9  1  0  0  0
 12 21  1  0  0  0
 20 22  1  0  0  0
M  END
> <minimizedAffinity>
-0.95084

> <CNNscore>
0.3774863780

> <CNNaffinity>
5.6728105545

> <CNN_VS>
2.1414086819

> <CNNaffinity_variance>
0.5829162598

$$$$
[H]C#C[C@]1(O[H])C([H])([H])C([H])([H])[C@]2([H])[C@]1(C([H])([H])[H])C([H])([H])C([H])([H])[C@]1([H])c3c([H])c([H])c(O[H])c([H])c3C([H])([H])C([H])([H])[C@]12[H]


 24 27  0  0  0  0  0  0  0  0999 V2000
   -9.0659   -6.9668    5.7656 C   0  0  0  0  0  0  0  0  0  0  0  0
   -8.3852   -7.6977    6.8709 C   0  0  0  0  0  0  0  0  0  0  0  0
   -8.7583   -9.1401    6.9154 C   0  0  0  0  0  0  0  0  0  0  0  0
  -10.2246   -9.2813    7.1879 C   0  0  0  0  0  0  0  0  0  0  0  0
  -10.7124   -8.4895    8.3581 C   0  0  0  0  0  0  0  0  0  0  0  0
  -10.2074   -7.0461    8.3267 C   0  0  0  0  0  0  0  0  0  0  0  0
  -10.7287   -6.2792    9.4847 C   0  0  0  0  0  0  0  0  0  0  0  0
  -12.0330   -6.7032   10.0455 C   0  0  0  0  0  0  0  0  0  0  0  0
  -12.8172   -7.6309    9.2245 C   0  0  0  0  0  0  0  0  0  0  0  0
  -14.1876   -7.6120    9.2936 C   0  0  0  0  0  0  0  0  0  0  0  0
  -14.9573   -8.4914    8.5186 C   0  0  0  0  0  0  0  0  0  0  0  0
  -16.3426   -8.5034    8.5599 O   0  0  0  0  0  0  0  0  0  0  0  0
  -14.3207   -9.3893    7.6737 C   0  0  0  0  0  0  0  0  0  0  0  0
  -12.9432   -9.4024    7.6097 C   0  0  0  0  0  0  0  0  0  0  0  0
  -12.1895   -8.5176    8.3901 C   0  0  0  0  0  0  0  0  0  0  0  0
   -8.7263   -7.1343    8.2515 C   0  0  0  0  0  0  0  0  0  0  0  0
   -7.9846   -5.8606    8.2786 C   0  0  0  0  0  0  0  0  0  0  0  0
   -6.6247   -6.2763    7.7322 C   0  0  0  0  0  0  0  0  0  0  0  0
   -6.9058   -7.4444    6.8098 C   0  0  0  0  0  0  0  0  0  0  0  0
   -6.5594   -7.0138    5.5086 O   0  0  0  0  0  0  0  0  0  0  0  0
  -16.8982   -9.0558    9.1759 H   0  0  0  0  0  0  0  0  0  0  0  0
   -5.9449   -6.2310    5.5421 H   0  0  0  0  0  0  0  0  0  0  0  0
   -6.1171   -8.6137    7.1100 C   0  0  0  0  0  0  0  0  0  0  0  0
   -5.4605   -9.5914    7.3558 C   0  0  0  0  0  0  0  0  0  0  0  0
  2  1  1  0  0  0
  2  3  1  0  0  0
  3  4  1  0  0  0
  4  5  1  0  0  0
  5  6  1  0  0  0
  6  7  1  0  0  0
  7  8  1  0  0  0
  8  9  1  0  0  0
  9 10  2  0  0  0
 10 11  1  0  0  0
 11 12  1  0  0  0
 11 13  2  0  0  0
 13 14  1  0  0  0
 14 15  2  0  0  0
  6 16  1  0  0  0
 16 17  1  0  0  0
 17 18  1  0  0  0
 18 19  1  0  0  0
 19 20  1  0  0  0
 19 23  1  0  0  0
 23 24  3  0  0  0
 16  2  1  0  0  0
 19  2  1  0  0  0
 15  5  1  0  0  0
 15  9  1  0  0  0
 12 21  1  0  0  0
 20 22  1  0  0  0
M  END
> <minimizedAffinity>
-3.78856

> <CNNscore>
0.3572825193

> <CNNaffinity>
6.1138200760

> <CNN_VS>
2.1843609810

> <CNNaffinity_variance>
0.4308443069

$$$$
[H]C#C[C@]1(O[H])C([H])([H])C([H])([H])[C@]2([H])[C@]1(C([H])([H])[H])C([H])([H])C([H])([H])[C@]1([H])c3c([H])c([H])c(O[H])c([H])c3C([H])([H])C([H])([H])[C@]12[H]


 24 27  0  0  0  0  0  0  0  0999 V2000
  -12.9401   -9.7888    8.9434 C   0  0  0  0  0  0  0  0  0  0  0  0
  -13.3376   -8.8075    7.8954 C   0  0  0  0  0  0  0  0  0  0  0  0
  -12.7920   -9.1550    6.5525 C   0  0  0  0  0  0  0  0  0  0  0  0
  -11.2946   -9.1201    6.5837 C   0  0  0  0  0  0  0  0  0  0  0  0
  -10.7200   -7.8711    7.1702 C   0  0  0  0  0  0  0  0  0  0  0  0
  -11.3927   -7.4932    8.4908 C   0  0  0  0  0  0  0  0  0  0  0  0
  -10.7842   -6.2663    9.0611 C   0  0  0  0  0  0  0  0  0  0  0  0
   -9.3643   -5.9993    8.7325 C   0  0  0  0  0  0  0  0  0  0  0  0
   -8.6199   -7.1126    8.1359 C   0  0  0  0  0  0  0  0  0  0  0  0
   -7.2690   -7.2230    8.3506 C   0  0  0  0  0  0  0  0  0  0  0  0
   -6.5371   -8.2788    7.7884 C   0  0  0  0  0  0  0  0  0  0  0  0
   -5.1725   -8.4253    7.9815 O   0  0  0  0  0  0  0  0  0  0  0  0
   -7.1913   -9.2201    7.0066 C   0  0  0  0  0  0  0  0  0  0  0  0
   -8.5490   -9.1025    6.7953 C   0  0  0  0  0  0  0  0  0  0  0  0
   -9.2651   -8.0424    7.3640 C   0  0  0  0  0  0  0  0  0  0  0  0
  -12.8446   -7.3905    8.1936 C   0  0  0  0  0  0  0  0  0  0  0  0
  -13.7192   -6.9652    9.3015 C   0  0  0  0  0  0  0  0  0  0  0  0
  -15.0905   -7.4094    8.8087 C   0  0  0  0  0  0  0  0  0  0  0  0
  -14.8265   -8.6107    7.9246 C   0  0  0  0  0  0  0  0  0  0  0  0
  -15.4308   -9.7156    8.5669 O   0  0  0  0  0  0  0  0  0  0  0  0
   -4.4612   -8.0364    7.4018 H   0  0  0  0  0  0  0  0  0  0  0  0
  -16.1209   -9.4169    9.2197 H   0  0  0  0  0  0  0  0  0  0  0  0
  -15.4093   -8.4937    6.6108 C   0  0  0  0  0  0  0  0  0  0  0  0
  -15.8939   -8.3911    5.5144 C   0  0  0  0  0  0  0  0  0  0  0  0
  2  1  1  0  0  0
  2  3  1  0  0  0
  3  4  1  0  0  0
  4  5  1  0  0  0
  5  6  1  0  0  0
  6  7  1  0  0  0
  7  8  1  0  0  0
  8  9  1  0  0  0
  9 10  2  0  0  0
 10 11  1  0  0  0
 11 12  1  0  0  0
 11 13  2  0  0  0
 13 14  1  0  0  0
 14 15  2  0  0  0
  6 16  1  0  0  0
 16 17  1  0  0  0
 17 18  1  0  0  0
 18 19  1  0  0  0
 19 20  1  0  0  0
 19 23  1  0  0  0
 23 24  3  0  0  0
 16  2  1  0  0  0
 19  2  1  0  0  0
 15  5  1  0  0  0
 15  9  1  0  0  0
 12 21  1  0  0  0
 20 22  1  0  0  0
M  END
> <minimizedAffinity>
-6.22613

> <CNNscore>
0.3518183231

> <CNNaffinity>
6.1518406868

> <CNN_VS>
2.1643302441

> <CNNaffinity_variance>
0.3494135737

$$$$
[H]C#C[C@]1(O[H])C([H])([H])C([H])([H])[C@]2([H])[C@]1(C([H])([H])[H])C([H])([H])C([H])([H])[C@]1([H])c3c([H])c([H])c(O[H])c([H])c3C([H])([H])C([H])([H])[C@]12[H]


 24 27  0  0  0  0  0  0  0  0999 V2000
   -7.0532   -5.0049    7.0405 C   0  0  0  0  0  0  0  0  0  0  0  0
   -6.9527   -6.4875    7.1460 C   0  0  0  0  0  0  0  0  0  0  0  0
   -7.2901   -6.9864    8.5094 C   0  0  0  0  0  0  0  0  0  0  0  0
   -6.3114   -6.4485    9.5080 C   0  0  0  0  0  0  0  0  0  0  0  0
   -4.8780   -6.6365    9.1279 C   0  0  0  0  0  0  0  0  0  0  0  0
   -4.6066   -6.2178    7.6820 C   0  0  0  0  0  0  0  0  0  0  0  0
   -3.1727   -6.3906    7.3428 C   0  0  0  0  0  0  0  0  0  0  0  0
   -2.1961   -6.2739    8.4510 C   0  0  0  0  0  0  0  0  0  0  0  0
   -2.7055   -5.7047    9.7024 C   0  0  0  0  0  0  0  0  0  0  0  0
   -1.8619   -5.0019   10.5255 C   0  0  0  0  0  0  0  0  0  0  0  0
   -2.3273   -4.4503   11.7278 C   0  0  0  0  0  0  0  0  0  0  0  0
   -1.5074   -3.7343   12.5858 O   0  0  0  0  0  0  0  0  0  0  0  0
   -3.6574   -4.6201   12.0846 C   0  0  0  0  0  0  0  0  0  0  0  0
   -4.4992   -5.3276   11.2524 C   0  0  0  0  0  0  0  0  0  0  0  0
   -4.0185   -5.8718   10.0553 C   0  0  0  0  0  0  0  0  0  0  0  0
   -5.5461   -7.0084    6.8459 C   0  0  0  0  0  0  0  0  0  0  0  0
   -5.4376   -6.8377    5.3856 C   0  0  0  0  0  0  0  0  0  0  0  0
   -6.7755   -7.3846    4.9043 C   0  0  0  0  0  0  0  0  0  0  0  0
   -7.7432   -7.1285    6.0410 C   0  0  0  0  0  0  0  0  0  0  0  0
   -8.6942   -6.2045    5.5510 O   0  0  0  0  0  0  0  0  0  0  0  0
   -0.9733   -4.1215   13.3329 H   0  0  0  0  0  0  0  0  0  0  0  0
   -8.7066   -6.1974    4.5553 H   0  0  0  0  0  0  0  0  0  0  0  0
   -8.4551   -8.3090    6.4638 C   0  0  0  0  0  0  0  0  0  0  0  0
   -9.0534   -9.2910    6.8177 C   0  0  0  0  0  0  0  0  0  0  0  0
  2  1  1  0  0  0
  2  3  1  0  0  0
  3  4  1  0  0  0
  4  5  1  0  0  0
  5  6  1  0  0  0
  6  7  1  0  0  0
  7  8  1  0  0  0
  8  9  1  0  0  0
  9 10  2  0  0  0
 10 11  1  0  0  0
 11 12  1  0  0  0
 11 13  2  0  0  0
 13 14  1  0  0  0
 14 15  2  0  0  0
  6 16  1  0  0  0
 16 17  1  0  0  0
 17 18  1  0  0  0
 18 19  1  0  0  0
 19 20  1  0  0  0
 19 23  1  0  0  0
 23 24  3  0  0  0
 16  2  1  0  0  0
 19  2  1  0  0  0
 15  5  1  0  0  0
 15  9  1  0  0  0
 12 21  1  0  0  0
 20 22  1  0  0  0
M  END
> <minimizedAffinity>
3.99963

> <CNNscore>
0.3434725404

> <CNNaffinity>
4.9853143692

> <CNN_VS>
1.7123185396

> <CNNaffinity_variance>
0.8938401937

$$$$
[H]C#C[C@]1(O[H])C([H])([H])C([H])([H])[C@]2([H])[C@]1(C([H])([H])[H])C([H])([H])C([H])([H])[C@]1([H])c3c([H])c([H])c(O[H])c([H])c3C([H])([H])C([H])([H])[C@]12[H]


 24 27  0  0  0  0  0  0  0  0999 V2000
   -6.6428   -6.9824    5.2417 C   0  0  0  0  0  0  0  0  0  0  0  0
   -6.0297   -7.5461    6.4769 C   0  0  0  0  0  0  0  0  0  0  0  0
   -6.1538   -9.0296    6.5493 C   0  0  0  0  0  0  0  0  0  0  0  0
   -7.5990   -9.4200    6.6078 C   0  0  0  0  0  0  0  0  0  0  0  0
   -8.3922   -8.6910    7.6441 C   0  0  0  0  0  0  0  0  0  0  0  0
   -8.1418   -7.1827    7.6043 C   0  0  0  0  0  0  0  0  0  0  0  0
   -8.9615   -6.4844    8.6248 C   0  0  0  0  0  0  0  0  0  0  0  0
  -10.2461   -7.1153    9.0087 C   0  0  0  0  0  0  0  0  0  0  0  0
  -10.7220   -8.1925    8.1354 C   0  0  0  0  0  0  0  0  0  0  0  0
  -12.0692   -8.4148    7.9981 C   0  0  0  0  0  0  0  0  0  0  0  0
  -12.5465   -9.4405    7.1696 C   0  0  0  0  0  0  0  0  0  0  0  0
  -13.8985   -9.6967    7.0045 O   0  0  0  0  0  0  0  0  0  0  0  0
  -11.6416  -10.2373    6.4829 C   0  0  0  0  0  0  0  0  0  0  0  0
  -10.2892  -10.0080    6.6258 C   0  0  0  0  0  0  0  0  0  0  0  0
   -9.8293   -8.9795    7.4570 C   0  0  0  0  0  0  0  0  0  0  0  0
   -6.6743   -7.0092    7.7560 C   0  0  0  0  0  0  0  0  0  0  0  0
   -6.1739   -5.6239    7.8191 C   0  0  0  0  0  0  0  0  0  0  0  0
   -4.6944   -5.8088    7.5068 C   0  0  0  0  0  0  0  0  0  0  0  0
   -4.6240   -7.0365    6.6224 C   0  0  0  0  0  0  0  0  0  0  0  0
   -4.1562   -6.5923    5.3646 O   0  0  0  0  0  0  0  0  0  0  0  0
  -14.4416  -10.3193    7.5619 H   0  0  0  0  0  0  0  0  0  0  0  0
   -3.6970   -5.7122    5.4437 H   0  0  0  0  0  0  0  0  0  0  0  0
   -3.7047   -8.0374    7.1045 C   0  0  0  0  0  0  0  0  0  0  0  0
   -2.9337   -8.8694    7.5054 C   0  0  0  0  0  0  0  0  0  0  0  0
  2  1  1  0  0  0
  2  3  1  0  0  0
  3  4  1  0  0  0
  4  5  1  0  0  0
  5  6  1  0  0  0
  6  7  1  0  0  0
  7  8  1  0  0  0
  8  9  1  0  0  0
  9 10  2  0  0  0
 10 11  1  0  0  0
 11 12  1  0  0  0
 11 13  2  0  0  0
 13 14  1  0  0  0
 14 15  2  0  0  0
  6 16  1  0  0  0
 16 17  1  0  0  0
 17 18  1  0  0  0
 18 19  1  0  0  0
 19 20  1  0  0  0
 19 23  1  0  0  0
 23 24  3  0  0  0
 16  2  1  0  0  0
 19  2  1  0  0  0
 15  5  1  0  0  0
 15  9  1  0  0  0
 12 21  1  0  0  0
 20 22  1  0  0  0
M  END
> <minimizedAffinity>
-6.18213

> <CNNscore>
0.2923482060

> <CNNaffinity>
5.6687350273

> <CNN_VS>
1.6572445631

> <CNNaffinity_variance>
0.2248254269

$$$$
[H]C#C[C@]1(O[H])C([H])([H])C([H])([H])[C@]2([H])[C@]1(C([H])([H])[H])C([H])([H])C([H])([H])[C@]1([H])c3c([H])c([H])c(O[H])c([H])c3C([H])([H])C([H])([H])[C@]12[H]


 24 27  0  0  0  0  0  0  0  0999 V2000
  -10.1050   -7.1530    9.6295 C   0  0  0  0  0  0  0  0  0  0  0  0
  -10.6383   -8.0013    8.5271 C   0  0  0  0  0  0  0  0  0  0  0  0
   -9.9225   -9.3036    8.4123 C   0  0  0  0  0  0  0  0  0  0  0  0
   -8.4825   -9.0681    8.0729 C   0  0  0  0  0  0  0  0  0  0  0  0
   -8.2654   -8.1494    6.9139 C   0  0  0  0  0  0  0  0  0  0  0  0
   -9.1098   -6.8786    7.0212 C   0  0  0  0  0  0  0  0  0  0  0  0
   -8.8535   -5.9760    5.8721 C   0  0  0  0  0  0  0  0  0  0  0  0
   -7.5148   -6.0470    5.2409 C   0  0  0  0  0  0  0  0  0  0  0  0
   -6.4851   -6.7713    5.9923 C   0  0  0  0  0  0  0  0  0  0  0  0
   -5.1673   -6.4099    5.8662 C   0  0  0  0  0  0  0  0  0  0  0  0
   -4.1658   -7.0898    6.5742 C   0  0  0  0  0  0  0  0  0  0  0  0
   -2.8245   -6.7553    6.4739 O   0  0  0  0  0  0  0  0  0  0  0  0
   -4.5170   -8.1397    7.4106 C   0  0  0  0  0  0  0  0  0  0  0  0
   -5.8433   -8.4972    7.5323 C   0  0  0  0  0  0  0  0  0  0  0  0
   -6.8309   -7.8079    6.8184 C   0  0  0  0  0  0  0  0  0  0  0  0
  -10.5172   -7.3348    7.1556 C   0  0  0  0  0  0  0  0  0  0  0  0
  -11.5516   -6.2857    7.2080 C   0  0  0  0  0  0  0  0  0  0  0  0
  -12.7369   -7.0412    7.7953 C   0  0  0  0  0  0  0  0  0  0  0  0
  -12.1294   -8.1261    8.6602 C   0  0  0  0  0  0  0  0  0  0  0  0
  -12.5055   -7.8295    9.9902 O   0  0  0  0  0  0  0  0  0  0  0  0
   -2.1813   -7.1357    5.8145 H   0  0  0  0  0  0  0  0  0  0  0  0
  -13.2956   -7.2238   10.0123 H   0  0  0  0  0  0  0  0  0  0  0  0
  -12.6181   -9.4467    8.3496 C   0  0  0  0  0  0  0  0  0  0  0  0
  -13.0210  -10.5504    8.0907 C   0  0  0  0  0  0  0  0  0  0  0  0
  2  1  1  0  0  0
  2  3  1  0  0  0
  3  4  1  0  0  0
  4  5  1  0  0  0
  5  6  1  0  0  0
  6  7  1  0  0  0
  7  8  1  0  0  0
  8  9  1  0  0  0
  9 10  2  0  0  0
 10 11  1  0  0  0
 11 12  1  0  0  0
 11 13  2  0  0  0
 13 14  1  0  0  0
 14 15  2  0  0  0
  6 16  1  0  0  0
 16 17  1  0  0  0
 17 18  1  0  0  0
 18 19  1  0  0  0
 19 20  1  0  0  0
 19 23  1  0  0  0
 23 24  3  0  0  0
 16  2  1  0  0  0
 19  2  1  0  0  0
 15  5  1  0  0  0
 15  9  1  0  0  0
 12 21  1  0  0  0
 20 22  1  0  0  0
M  END
> <minimizedAffinity>
-1.94827

> <CNNscore>
0.2752603590

> <CNNaffinity>
5.4885368347

> <CNN_VS>
1.5107766390

> <CNNaffinity_variance>
0.2256545573

$$$$
[H]OC(=O)[C@@]1([H])C([H])([H])C([H])([H])[C@@]2([H])[C@]3([H])C([H])([H])C([H])([H])c4c([H])c(O[H])c([H])c([H])c4[C@@]3([H])C([H])([H])C([H])([H])[C@]12C([H])([H])[H]


 24 27  0  0  0  0  0  0  0  0999 V2000
  -16.8358   -7.1874    2.5494 C   0  0  0  0  0  0  0  0  0  0  0  0
  -16.6044   -7.4612    4.0134 C   0  0  0  0  0  0  0  0  0  0  0  0
  -17.8286   -7.9106    4.7194 C   0  0  0  0  0  0  0  0  0  0  0  0
  -18.8623   -6.7888    4.6069 C   0  0  0  0  0  0  0  0  0  0  0  0
  -18.3367   -5.5664    5.3024 C   0  0  0  0  0  0  0  0  0  0  0  0
  -17.0245   -5.0846    4.6804 C   0  0  0  0  0  0  0  0  0  0  0  0
  -16.5096   -3.9653    5.5300 C   0  0  0  0  0  0  0  0  0  0  0  0
  -17.5568   -3.2357    6.3039 C   0  0  0  0  0  0  0  0  0  0  0  0
  -18.8868   -3.2223    5.6401 C   0  0  0  0  0  0  0  0  0  0  0  0
  -19.6849   -2.1195    5.5284 C   0  0  0  0  0  0  0  0  0  0  0  0
  -20.9041   -2.2665    4.8786 C   0  0  0  0  0  0  0  0  0  0  0  0
  -21.6838   -1.1109    4.7900 O   0  0  0  0  0  0  0  0  0  0  0  0
  -21.3181   -3.4798    4.3536 C   0  0  0  0  0  0  0  0  0  0  0  0
  -20.5034   -4.5885    4.4720 C   0  0  0  0  0  0  0  0  0  0  0  0
  -19.3057   -4.4443    5.1103 C   0  0  0  0  0  0  0  0  0  0  0  0
  -16.0757   -6.2216    4.7315 C   0  0  0  0  0  0  0  0  0  0  0  0
  -14.7728   -6.0206    4.0498 C   0  0  0  0  0  0  0  0  0  0  0  0
  -14.2664   -7.4435    3.8156 C   0  0  0  0  0  0  0  0  0  0  0  0
  -15.4210   -8.3629    4.1413 C   0  0  0  0  0  0  0  0  0  0  0  0
  -22.5749   -1.0591    4.3566 H   0  0  0  0  0  0  0  0  0  0  0  0
  -15.4636   -9.5409    3.2577 C   0  0  0  0  0  0  0  0  0  0  0  0
  -14.7081   -9.5036    2.0970 O   0  0  0  0  0  0  0  0  0  0  0  0
  -16.1343  -10.5722    3.4828 O   0  0  0  0  0  0  0  0  0  0  0  0
  -15.0683   -9.0643    1.2468 H   0  0  0  0  0  0  0  0  0  0  0  0
  2  1  1  0  0  0
  2  3  1  0  0  0
  3  4  1  0  0  0
  4  5  1  0  0  0
  5  6  1  0  0  0
  6  7  1  0  0  0
  7  8  1  0  0  0
  8  9  1  0  0  0
  9 10  2  0  0  0
 10 11  1  0  0  0
 11 12  1  0  0  0
 11 13  2  0  0  0
 13 14  1  0  0  0
 14 15  2  0  0  0
  6 16  1  0  0  0
 16 17  1  0  0  0
 17 18  1  0  0  0
 18 19  1  0  0  0
 19 21  1  0  0  0
 21 22  1  0  0  0
 21 23  2  0  0  0
 16  2  1  0  0  0
 19  2  1  0  0  0
 15  5  1  0  0  0
 15  9  1  0  0  0
 12 20  1  0  0  0
 22 24  1  0  0  0
M  END
> <minimizedAffinity>
20.71409

> <CNNscore>
0.4864813387

> <CNNaffinity>
6.2344579697

> <CNN_VS>
3.0329475403

> <CNNaffinity_variance>
1.1875312328

$$$$
[H]OC(=O)[C@@]1([H])C([H])([H])C([H])([H])[C@@]2([H])[C@]3([H])C([H])([H])C([H])([H])c4c([H])c(O[H])c([H])c([H])c4[C@@]3([H])C([H])([H])C([H])([H])[C@]12C([H])([H])[H]


 24 27  0  0  0  0  0  0  0  0999 V2000
   -7.5702   -8.0007    5.7796 C   0  0  0  0  0  0  0  0  0  0  0  0
   -7.4144   -8.2993    7.2487 C   0  0  0  0  0  0  0  0  0  0  0  0
   -7.8352   -9.6750    7.6081 C   0  0  0  0  0  0  0  0  0  0  0  0
   -9.3171   -9.8100    7.2538 C   0  0  0  0  0  0  0  0  0  0  0  0
  -10.1096   -8.8410    8.0827 C   0  0  0  0  0  0  0  0  0  0  0  0
   -9.6768   -7.3958    7.8276 C   0  0  0  0  0  0  0  0  0  0  0  0
  -10.4122   -6.5287    8.8009 C   0  0  0  0  0  0  0  0  0  0  0  0
  -11.7021   -7.0964    9.2925 C   0  0  0  0  0  0  0  0  0  0  0  0
  -12.3743   -7.9861    8.3095 C   0  0  0  0  0  0  0  0  0  0  0  0
  -13.7078   -7.9475    8.0162 C   0  0  0  0  0  0  0  0  0  0  0  0
  -14.1887   -8.8465    7.0723 C   0  0  0  0  0  0  0  0  0  0  0  0
  -15.5579   -8.7678    6.8069 O   0  0  0  0  0  0  0  0  0  0  0  0
  -13.3636   -9.7601    6.4370 C   0  0  0  0  0  0  0  0  0  0  0  0
  -12.0170   -9.7906    6.7410 C   0  0  0  0  0  0  0  0  0  0  0  0
  -11.5444   -8.9076    7.6681 C   0  0  0  0  0  0  0  0  0  0  0  0
   -8.2222   -7.3228    8.1006 C   0  0  0  0  0  0  0  0  0  0  0  0
   -7.5581   -6.0348    7.7804 C   0  0  0  0  0  0  0  0  0  0  0  0
   -6.0819   -6.4119    7.6588 C   0  0  0  0  0  0  0  0  0  0  0  0
   -6.0294   -7.9225    7.6604 C   0  0  0  0  0  0  0  0  0  0  0  0
  -16.0447   -9.3416    6.1601 H   0  0  0  0  0  0  0  0  0  0  0  0
   -4.9749   -8.4457    6.7746 C   0  0  0  0  0  0  0  0  0  0  0  0
   -3.6573   -8.2426    7.1513 O   0  0  0  0  0  0  0  0  0  0  0  0
   -5.1868   -9.0604    5.7063 O   0  0  0  0  0  0  0  0  0  0  0  0
   -3.1736   -7.3693    6.9298 H   0  0  0  0  0  0  0  0  0  0  0  0
  2  1  1  0  0  0
  2  3  1  0  0  0
  3  4  1  0  0  0
  4  5  1  0  0  0
  5  6  1  0  0  0
  6  7  1  0  0  0
  7  8  1  0  0  0
  8  9  1  0  0  0
  9 10  2  0  0  0
 10 11  1  0  0  0
 11 12  1  0  0  0
 11 13  2  0  0  0
 13 14  1  0  0  0
 14 15  2  0  0  0
  6 16  1  0  0  0
 16 17  1  0  0  0
 17 18  1  0  0  0
 18 19  1  0  0  0
 19 21  1  0  0  0
 21 22  1  0  0  0
 21 23  2  0  0  0
 16  2  1  0  0  0
 19  2  1  0  0  0
 15  5  1  0  0  0
 15  9  1  0  0  0
 12 20  1  0  0  0
 22 24  1  0  0  0
M  END
> <minimizedAffinity>
-8.49215

> <CNNscore>
0.4657500386

> <CNNaffinity>
6.0102586746

> <CNN_VS>
2.7992782593

> <CNNaffinity_variance>
0.3626700044

$$$$
[H]OC(=O)[C@@]1([H])C([H])([H])C([H])([H])[C@@]2([H])[C@]3([H])C([H])([H])C([H])([H])c4c([H])c(O[H])c([H])c([H])c4[C@@]3([H])C([H])([H])C([H])([H])[C@]12C([H])([H])[H]


 24 27  0  0  0  0  0  0  0  0999 V2000
   -6.2534   -8.7357    7.7159 C   0  0  0  0  0  0  0  0  0  0  0  0
   -5.6885   -7.7675    6.7083 C   0  0  0  0  0  0  0  0  0  0  0  0
   -4.2667   -8.0342    6.3823 C   0  0  0  0  0  0  0  0  0  0  0  0
   -3.4635   -7.8908    7.6762 C   0  0  0  0  0  0  0  0  0  0  0  0
   -3.5786   -6.4778    8.1706 C   0  0  0  0  0  0  0  0  0  0  0  0
   -5.0330   -6.0969    8.4545 C   0  0  0  0  0  0  0  0  0  0  0  0
   -5.0572   -4.6393    8.7933 C   0  0  0  0  0  0  0  0  0  0  0  0
   -3.7759   -4.1039    9.3405 C   0  0  0  0  0  0  0  0  0  0  0  0
   -2.9816   -5.1116   10.0911 C   0  0  0  0  0  0  0  0  0  0  0  0
   -2.3792   -4.8815   11.2951 C   0  0  0  0  0  0  0  0  0  0  0  0
   -1.6692   -5.9265   11.8733 C   0  0  0  0  0  0  0  0  0  0  0  0
   -1.0717   -5.6420   13.1035 O   0  0  0  0  0  0  0  0  0  0  0  0
   -1.5616   -7.1681   11.2685 C   0  0  0  0  0  0  0  0  0  0  0  0
   -2.1745   -7.3900   10.0511 C   0  0  0  0  0  0  0  0  0  0  0  0
   -2.8720   -6.3637    9.4830 C   0  0  0  0  0  0  0  0  0  0  0  0
   -5.7949   -6.3273    7.2048 C   0  0  0  0  0  0  0  0  0  0  0  0
   -7.2664   -6.1546    7.2916 C   0  0  0  0  0  0  0  0  0  0  0  0
   -7.7916   -6.9334    6.0860 C   0  0  0  0  0  0  0  0  0  0  0  0
   -6.6163   -7.7111    5.5396 C   0  0  0  0  0  0  0  0  0  0  0  0
   -0.5345   -6.2845   13.6358 H   0  0  0  0  0  0  0  0  0  0  0  0
   -7.0126   -9.0319    5.0215 C   0  0  0  0  0  0  0  0  0  0  0  0
   -6.6230   -9.3626    3.7339 O   0  0  0  0  0  0  0  0  0  0  0  0
   -7.6764   -9.8754    5.6635 O   0  0  0  0  0  0  0  0  0  0  0  0
   -7.1735   -9.0684    2.9239 H   0  0  0  0  0  0  0  0  0  0  0  0
  2  1  1  0  0  0
  2  3  1  0  0  0
  3  4  1  0  0  0
  4  5  1  0  0  0
  5  6  1  0  0  0
  6  7  1  0  0  0
  7  8  1  0  0  0
  8  9  1  0  0  0
  9 10  2  0  0  0
 10 11  1  0  0  0
 11 12  1  0  0  0
 11 13  2  0  0  0
 13 14  1  0  0  0
 14 15  2  0  0  0
  6 16  1  0  0  0
 16 17  1  0  0  0
 17 18  1  0  0  0
 18 19  1  0  0  0
 19 21  1  0  0  0
 21 22  1  0  0  0
 21 23  2  0  0  0
 16  2  1  0  0  0
 19  2  1  0  0  0
 15  5  1  0  0  0
 15  9  1  0  0  0
 12 20  1  0  0  0
 22 24  1  0  0  0
M  END
> <minimizedAffinity>
1.59116

> <CNNscore>
0.4473377168

> <CNNaffinity>
4.7972488403

> <CNN_VS>
2.1459903717

> <CNNaffinity_variance>
1.0250734091

$$$$
[H]OC(=O)[C@@]1([H])C([H])([H])C([H])([H])[C@@]2([H])[C@]3([H])C([H])([H])C([H])([H])c4c([H])c(O[H])c([H])c([H])c4[C@@]3([H])C([H])([H])C([H])([H])[C@]12C([H])([H])[H]


 24 27  0  0  0  0  0  0  0  0999 V2000
   -5.3006   -8.3236    6.8668 C   0  0  0  0  0  0  0  0  0  0  0  0
   -5.4088   -6.8425    6.6091 C   0  0  0  0  0  0  0  0  0  0  0  0
   -4.0988   -6.2052    6.3326 C   0  0  0  0  0  0  0  0  0  0  0  0
   -3.2197   -6.4060    7.5683 C   0  0  0  0  0  0  0  0  0  0  0  0
   -3.8496   -5.7051    8.7371 C   0  0  0  0  0  0  0  0  0  0  0  0
   -5.2459   -6.2538    9.0374 C   0  0  0  0  0  0  0  0  0  0  0  0
   -5.8434   -5.3976   10.1097 C   0  0  0  0  0  0  0  0  0  0  0  0
   -4.8499   -4.7065   10.9833 C   0  0  0  0  0  0  0  0  0  0  0  0
   -3.5735   -5.4525   11.1394 C   0  0  0  0  0  0  0  0  0  0  0  0
   -2.9256   -5.6373   12.3275 C   0  0  0  0  0  0  0  0  0  0  0  0
   -1.7384   -6.3589   12.3113 C   0  0  0  0  0  0  0  0  0  0  0  0
   -1.1138   -6.5208   13.5503 O   0  0  0  0  0  0  0  0  0  0  0  0
   -1.2101   -6.8829   11.1428 C   0  0  0  0  0  0  0  0  0  0  0  0
   -1.8733   -6.6902    9.9471 C   0  0  0  0  0  0  0  0  0  0  0  0
   -3.0395   -5.9813    9.9627 C   0  0  0  0  0  0  0  0  0  0  0  0
   -6.0426   -6.1192    7.7953 C   0  0  0  0  0  0  0  0  0  0  0  0
   -7.3985   -6.7221    7.8165 C   0  0  0  0  0  0  0  0  0  0  0  0
   -7.7388   -6.8938    6.3364 C   0  0  0  0  0  0  0  0  0  0  0  0
   -6.4623   -6.6216    5.5741 C   0  0  0  0  0  0  0  0  0  0  0  0
   -0.2632   -7.0101   13.6977 H   0  0  0  0  0  0  0  0  0  0  0  0
   -6.3276   -7.4809    4.3852 C   0  0  0  0  0  0  0  0  0  0  0  0
   -5.4515   -8.5515    4.4597 O   0  0  0  0  0  0  0  0  0  0  0  0
   -6.9491   -7.3108    3.3133 O   0  0  0  0  0  0  0  0  0  0  0  0
   -4.4530   -8.4302    4.2756 H   0  0  0  0  0  0  0  0  0  0  0  0
  2  1  1  0  0  0
  2  3  1  0  0  0
  3  4  1  0  0  0
  4  5  1  0  0  0
  5  6  1  0  0  0
  6  7  1  0  0  0
  7  8  1  0  0  0
  8  9  1  0  0  0
  9 10  2  0  0  0
 10 11  1  0  0  0
 11 12  1  0  0  0
 11 13  2  0  0  0
 13 14  1  0  0  0
 14 15  2  0  0  0
  6 16  1  0  0  0
 16 17  1  0  0  0
 17 18  1  0  0  0
 18 19  1  0  0  0
 19 21  1  0  0  0
 21 22  1  0  0  0
 21 23  2  0  0  0
 16  2  1  0  0  0
 19  2  1  0  0  0
 15  5  1  0  0  0
 15  9  1  0  0  0
 12 20  1  0  0  0
 22 24  1  0  0  0
M  END
> <minimizedAffinity>
6.13323

> <CNNscore>
0.4205994904

> <CNNaffinity>
4.7655744553

> <CNN_VS>
2.0043981075

> <CNNaffinity_variance>
1.0980342627

$$$$
[H]OC(=O)[C@@]1([H])C([H])([H])C([H])([H])[C@@]2([H])[C@]3([H])C([H])([H])C([H])([H])c4c([H])c(O[H])c([H])c([H])c4[C@@]3([H])C([H])([H])C([H])([H])[C@]12C([H])([H])[H]


 24 27  0  0  0  0  0  0  0  0999 V2000
   -8.5080  -10.1056    8.0875 C   0  0  0  0  0  0  0  0  0  0  0  0
   -8.8495   -9.0632    7.0539 C   0  0  0  0  0  0  0  0  0  0  0  0
   -8.0936   -9.2318    5.7893 C   0  0  0  0  0  0  0  0  0  0  0  0
   -6.6064   -9.0977    6.1211 C   0  0  0  0  0  0  0  0  0  0  0  0
   -6.3444   -7.7167    6.6485 C   0  0  0  0  0  0  0  0  0  0  0  0
   -7.1542   -7.4343    7.9155 C   0  0  0  0  0  0  0  0  0  0  0  0
   -6.9413   -5.9967    8.2731 C   0  0  0  0  0  0  0  0  0  0  0  0
   -5.6628   -5.4113    7.7728 C   0  0  0  0  0  0  0  0  0  0  0  0
   -4.5614   -6.4023    7.6510 C   0  0  0  0  0  0  0  0  0  0  0  0
   -3.2792   -6.1897    8.0708 C   0  0  0  0  0  0  0  0  0  0  0  0
   -2.3601   -7.2153    7.8872 C   0  0  0  0  0  0  0  0  0  0  0  0
   -1.0630   -6.9499    8.3325 O   0  0  0  0  0  0  0  0  0  0  0  0
   -2.7084   -8.4212    7.3009 C   0  0  0  0  0  0  0  0  0  0  0  0
   -4.0076   -8.6256    6.8801 C   0  0  0  0  0  0  0  0  0  0  0  0
   -4.9106   -7.6183    7.0603 C   0  0  0  0  0  0  0  0  0  0  0  0
   -8.5802   -7.6546    7.5784 C   0  0  0  0  0  0  0  0  0  0  0  0
   -9.5416   -7.5724    8.7060 C   0  0  0  0  0  0  0  0  0  0  0  0
  -10.7661   -8.3277    8.1902 C   0  0  0  0  0  0  0  0  0  0  0  0
  -10.3351   -9.0107    6.9126 C   0  0  0  0  0  0  0  0  0  0  0  0
   -0.3007   -7.5822    8.2701 H   0  0  0  0  0  0  0  0  0  0  0  0
  -10.9704  -10.3288    6.7420 C   0  0  0  0  0  0  0  0  0  0  0  0
  -12.3192  -10.4375    7.0390 O   0  0  0  0  0  0  0  0  0  0  0  0
  -10.3766  -11.3564    6.3477 O   0  0  0  0  0  0  0  0  0  0  0  0
  -12.6374  -10.5972    7.9976 H   0  0  0  0  0  0  0  0  0  0  0  0
  2  1  1  0  0  0
  2  3  1  0  0  0
  3  4  1  0  0  0
  4  5  1  0  0  0
  5  6  1  0  0  0
  6  7  1  0  0  0
  7  8  1  0  0  0
  8  9  1  0  0  0
  9 10  2  0  0  0
 10 11  1  0  0  0
 11 12  1  0  0  0
 11 13  2  0  0  0
 13 14  1  0  0  0
 14 15  2  0  0  0
  6 16  1  0  0  0
 16 17  1  0  0  0
 17 18  1  0  0  0
 18 19  1  0  0  0
 19 21  1  0  0  0
 21 22  1  0  0  0
 21 23  2  0  0  0
 16  2  1  0  0  0
 19  2  1  0  0  0
 15  5  1  0  0  0
 15  9  1  0  0  0
 12 20  1  0  0  0
 22 24  1  0  0  0
M  END
> <minimizedAffinity>
-1.80981

> <CNNscore>
0.4053466916

> <CNNaffinity>
5.2985086441

> <CNN_VS>
2.1477329731

> <CNNaffinity_variance>
0.5404435992

$$$$
[H]OC(=O)[C@@]1([H])C([H])([H])C([H])([H])[C@@]2([H])[C@]3([H])C([H])([H])C([H])([H])c4c([H])c(O[H])c([H])c([H])c4[C@@]3([H])C([H])([H])C([H])([H])[C@]12C([H])([H])[H]


 24 27  0  0  0  0  0  0  0  0999 V2000
  -19.6638   -7.7808    4.9497 C   0  0  0  0  0  0  0  0  0  0  0  0
  -18.7108   -8.5319    5.8438 C   0  0  0  0  0  0  0  0  0  0  0  0
  -18.3295   -7.7679    7.0561 C   0  0  0  0  0  0  0  0  0  0  0  0
  -17.6319   -6.4879    6.5925 C   0  0  0  0  0  0  0  0  0  0  0  0
  -16.3792   -6.8537    5.8502 C   0  0  0  0  0  0  0  0  0  0  0  0
  -16.6826   -7.7156    4.6231 C   0  0  0  0  0  0  0  0  0  0  0  0
  -15.3723   -8.1490    4.0440 C   0  0  0  0  0  0  0  0  0  0  0  0
  -14.2244   -7.2460    4.3515 C   0  0  0  0  0  0  0  0  0  0  0  0
  -14.6168   -5.8233    4.5298 C   0  0  0  0  0  0  0  0  0  0  0  0
  -13.9511   -4.7628    3.9841 C   0  0  0  0  0  0  0  0  0  0  0  0
  -14.4417   -3.4889    4.2427 C   0  0  0  0  0  0  0  0  0  0  0  0
  -13.7270   -2.4380    3.6628 O   0  0  0  0  0  0  0  0  0  0  0  0
  -15.5656   -3.2763    5.0242 C   0  0  0  0  0  0  0  0  0  0  0  0
  -16.2310   -4.3556    5.5710 C   0  0  0  0  0  0  0  0  0  0  0  0
  -15.7493   -5.6071    5.3172 C   0  0  0  0  0  0  0  0  0  0  0  0
  -17.4300   -8.9030    5.0997 C   0  0  0  0  0  0  0  0  0  0  0  0
  -17.9529   -9.8140    4.0512 C   0  0  0  0  0  0  0  0  0  0  0  0
  -19.0608  -10.5868    4.7663 C   0  0  0  0  0  0  0  0  0  0  0  0
  -19.2733   -9.8927    6.0921 C   0  0  0  0  0  0  0  0  0  0  0  0
  -13.9545   -1.4767    3.7569 H   0  0  0  0  0  0  0  0  0  0  0  0
  -20.6881   -9.8934    6.5026 C   0  0  0  0  0  0  0  0  0  0  0  0
  -20.9713   -9.6679    7.8399 O   0  0  0  0  0  0  0  0  0  0  0  0
  -21.6511  -10.0835    5.7277 O   0  0  0  0  0  0  0  0  0  0  0  0
  -20.9497  -10.4312    8.5200 H   0  0  0  0  0  0  0  0  0  0  0  0
  2  1  1  0  0  0
  2  3  1  0  0  0
  3  4  1  0  0  0
  4  5  1  0  0  0
  5  6  1  0  0  0
  6  7  1  0  0  0
  7  8  1  0  0  0
  8  9  1  0  0  0
  9 10  2  0  0  0
 10 11  1  0  0  0
 11 12  1  0  0  0
 11 13  2  0  0  0
 13 14  1  0  0  0
 14 15  2  0  0  0
  6 16  1  0  0  0
 16 17  1  0  0  0
 17 18  1  0  0  0
 18 19  1  0  0  0
 19 21  1  0  0  0
 21 22  1  0  0  0
 21 23  2  0  0  0
 16  2  1  0  0  0
 19  2  1  0  0  0
 15  5  1  0  0  0
 15  9  1  0  0  0
 12 20  1  0  0  0
 22 24  1  0  0  0
M  END
> <minimizedAffinity>
15.44342

> <CNNscore>
0.3303385079

> <CNNaffinity>
5.9212064743

> <CNN_VS>
1.9560024738

> <CNNaffinity_variance>
0.5992410779

$$$$
[H]OC(=O)[C@@]1([H])C([H])([H])C([H])([H])[C@@]2([H])[C@]3([H])C([H])([H])C([H])([H])c4c([H])c(O[H])c([H])c([H])c4[C@@]3([H])C([H])([H])C([H])([H])[C@]12C([H])([H])[H]


 24 27  0  0  0  0  0  0  0  0999 V2000
  -14.5577   -9.4104    7.9671 C   0  0  0  0  0  0  0  0  0  0  0  0
  -14.2322   -8.1981    7.1328 C   0  0  0  0  0  0  0  0  0  0  0  0
  -13.6255   -8.5413    5.8239 C   0  0  0  0  0  0  0  0  0  0  0  0
  -12.3190   -9.2859    6.1038 C   0  0  0  0  0  0  0  0  0  0  0  0
  -11.3801   -8.3707    6.8351 C   0  0  0  0  0  0  0  0  0  0  0  0
  -11.9709   -7.9047    8.1673 C   0  0  0  0  0  0  0  0  0  0  0  0
  -11.0346   -6.8887    8.7426 C   0  0  0  0  0  0  0  0  0  0  0  0
   -9.6194   -7.0138    8.2849 C   0  0  0  0  0  0  0  0  0  0  0  0
   -9.2215   -8.4072    7.9535 C   0  0  0  0  0  0  0  0  0  0  0  0
   -8.0493   -8.9905    8.3422 C   0  0  0  0  0  0  0  0  0  0  0  0
   -7.8203  -10.3044    7.9526 C   0  0  0  0  0  0  0  0  0  0  0  0
   -6.6084  -10.8562    8.3745 O   0  0  0  0  0  0  0  0  0  0  0  0
   -8.7345  -11.0188    7.1957 C   0  0  0  0  0  0  0  0  0  0  0  0
   -9.9165  -10.4194    6.8079 C   0  0  0  0  0  0  0  0  0  0  0  0
  -10.1417   -9.1289    7.1906 C   0  0  0  0  0  0  0  0  0  0  0  0
  -13.2722   -7.2635    7.8654 C   0  0  0  0  0  0  0  0  0  0  0  0
  -14.0916   -6.8587    9.0347 C   0  0  0  0  0  0  0  0  0  0  0  0
  -15.5031   -6.7396    8.4607 C   0  0  0  0  0  0  0  0  0  0  0  0
  -15.4462   -7.3307    7.0708 C   0  0  0  0  0  0  0  0  0  0  0  0
   -6.3052  -11.7799    8.1753 H   0  0  0  0  0  0  0  0  0  0  0  0
  -16.6826   -8.0502    6.7187 C   0  0  0  0  0  0  0  0  0  0  0  0
  -16.7531   -8.6350    5.4648 O   0  0  0  0  0  0  0  0  0  0  0  0
  -17.6728   -8.1697    7.4732 O   0  0  0  0  0  0  0  0  0  0  0  0
  -17.0364   -8.0934    4.6450 H   0  0  0  0  0  0  0  0  0  0  0  0
  2  1  1  0  0  0
  2  3  1  0  0  0
  3  4  1  0  0  0
  4  5  1  0  0  0
  5  6  1  0  0  0
  6  7  1  0  0  0
  7  8  1  0  0  0
  8  9  1  0  0  0
  9 10  2  0  0  0
 10 11  1  0  0  0
 11 12  1  0  0  0
 11 13  2  0  0  0
 13 14  1  0  0  0
 14 15  2  0  0  0
  6 16  1  0  0  0
 16 17  1  0  0  0
 17 18  1  0  0  0
 18 19  1  0  0  0
 19 21  1  0  0  0
 21 22  1  0  0  0
 21 23  2  0  0  0
 16  2  1  0  0  0
 19  2  1  0  0  0
 15  5  1  0  0  0
 15  9  1  0  0  0
 12 20  1  0  0  0
 22 24  1  0  0  0
M  END
> <minimizedAffinity>
-4.50518

> <CNNscore>
0.3187221587

> <CNNaffinity>
5.9862952232

> <CNN_VS>
1.9079649448

> <CNNaffinity_variance>
1.0151630640

$$$$
[H]OC(=O)[C@@]1([H])C([H])([H])C([H])([H])[C@@]2([H])[C@]3([H])C([H])([H])C([H])([H])c4c([H])c(O[H])c([H])c([H])c4[C@@]3([H])C([H])([H])C([H])([H])[C@]12C([H])([H])[H]


 24 27  0  0  0  0  0  0  0  0999 V2000
   -7.0111   -7.0853    8.3262 C   0  0  0  0  0  0  0  0  0  0  0  0
   -6.1925   -7.8403    7.3106 C   0  0  0  0  0  0  0  0  0  0  0  0
   -4.9231   -8.3683    7.8664 C   0  0  0  0  0  0  0  0  0  0  0  0
   -4.0972   -7.1723    8.3431 C   0  0  0  0  0  0  0  0  0  0  0  0
   -3.7716   -6.3006    7.1648 C   0  0  0  0  0  0  0  0  0  0  0  0
   -5.0379   -5.7783    6.4833 C   0  0  0  0  0  0  0  0  0  0  0  0
   -4.6142   -5.0523    5.2450 C   0  0  0  0  0  0  0  0  0  0  0  0
   -3.2237   -4.5111    5.2831 C   0  0  0  0  0  0  0  0  0  0  0  0
   -2.7627   -4.1493    6.6493 C   0  0  0  0  0  0  0  0  0  0  0  0
   -2.1030   -2.9953    6.9632 C   0  0  0  0  0  0  0  0  0  0  0  0
   -1.7359   -2.8002    8.2889 C   0  0  0  0  0  0  0  0  0  0  0  0
   -1.0641   -1.6057    8.5594 O   0  0  0  0  0  0  0  0  0  0  0  0
   -2.0182   -3.7298    9.2764 C   0  0  0  0  0  0  0  0  0  0  0  0
   -2.6856   -4.8933    8.9482 C   0  0  0  0  0  0  0  0  0  0  0  0
   -3.0463   -5.0851    7.6460 C   0  0  0  0  0  0  0  0  0  0  0  0
   -5.8503   -6.9601    6.1107 C   0  0  0  0  0  0  0  0  0  0  0  0
   -7.1987   -6.6816    5.5567 C   0  0  0  0  0  0  0  0  0  0  0  0
   -7.9514   -7.9953    5.7653 C   0  0  0  0  0  0  0  0  0  0  0  0
   -7.0748   -8.8493    6.6524 C   0  0  0  0  0  0  0  0  0  0  0  0
   -0.7401   -1.3268    9.4549 H   0  0  0  0  0  0  0  0  0  0  0  0
   -7.8601   -9.6670    7.5931 C   0  0  0  0  0  0  0  0  0  0  0  0
   -7.1766  -10.5805    8.3790 O   0  0  0  0  0  0  0  0  0  0  0  0
   -9.1009   -9.5938    7.7314 O   0  0  0  0  0  0  0  0  0  0  0  0
   -6.9463  -11.5122    8.0262 H   0  0  0  0  0  0  0  0  0  0  0  0
  2  1  1  0  0  0
  2  3  1  0  0  0
  3  4  1  0  0  0
  4  5  1  0  0  0
  5  6  1  0  0  0
  6  7  1  0  0  0
  7  8  1  0  0  0
  8  9  1  0  0  0
  9 10  2  0  0  0
 10 11  1  0  0  0
 11 12  1  0  0  0
 11 13  2  0  0  0
 13 14  1  0  0  0
 14 15  2  0  0  0
  6 16  1  0  0  0
 16 17  1  0  0  0
 17 18  1  0  0  0
 18 19  1  0  0  0
 19 21  1  0  0  0
 21 22  1  0  0  0
 21 23  2  0  0  0
 16  2  1  0  0  0
 19  2  1  0  0  0
 15  5  1  0  0  0
 15  9  1  0  0  0
 12 20  1  0  0  0
 22 24  1  0  0  0
M  END
> <minimizedAffinity>
-3.76485

> <CNNscore>
0.2242147624

> <CNNaffinity>
4.6866140366

> <CNN_VS>
1.0508080721

> <CNNaffinity_variance>
0.5283674002

$$$$
[H]OC(=O)[C@@]1([H])C([H])([H])C([H])([H])[C@@]2([H])[C@]3([H])C([H])([H])C([H])([H])c4c([H])c(O[H])c([H])c([H])c4[C@@]3([H])C([H])([H])C([H])([H])[C@]12C([H])([H])[H]


 24 27  0  0  0  0  0  0  0  0999 V2000
   -6.7300   -7.1963    8.6427 C   0  0  0  0  0  0  0  0  0  0  0  0
   -7.1916   -7.2142    7.2080 C   0  0  0  0  0  0  0  0  0  0  0  0
   -8.0403   -6.0498    6.8578 C   0  0  0  0  0  0  0  0  0  0  0  0
   -9.2799   -6.0985    7.7528 C   0  0  0  0  0  0  0  0  0  0  0  0
  -10.0504   -7.3522    7.4552 C   0  0  0  0  0  0  0  0  0  0  0  0
   -9.2111   -8.6046    7.7159 C   0  0  0  0  0  0  0  0  0  0  0  0
  -10.0074   -9.7833    7.2504 C   0  0  0  0  0  0  0  0  0  0  0  0
  -11.4853   -9.5746    7.2418 C   0  0  0  0  0  0  0  0  0  0  0  0
  -11.9576   -8.6171    8.2762 C   0  0  0  0  0  0  0  0  0  0  0  0
  -13.0424   -8.8201    9.0809 C   0  0  0  0  0  0  0  0  0  0  0  0
  -13.3589   -7.8293   10.0020 C   0  0  0  0  0  0  0  0  0  0  0  0
  -14.4760   -8.0833   10.8013 O   0  0  0  0  0  0  0  0  0  0  0  0
  -12.6149   -6.6667   10.1189 C   0  0  0  0  0  0  0  0  0  0  0  0
  -11.5200   -6.4715    9.3004 C   0  0  0  0  0  0  0  0  0  0  0  0
  -11.2089   -7.4447    8.3956 C   0  0  0  0  0  0  0  0  0  0  0  0
   -7.9823   -8.4829    6.8968 C   0  0  0  0  0  0  0  0  0  0  0  0
   -6.9504   -9.5298    7.1017 C   0  0  0  0  0  0  0  0  0  0  0  0
   -5.6721   -8.8838    6.5682 C   0  0  0  0  0  0  0  0  0  0  0  0
   -5.9998   -7.4270    6.3337 C   0  0  0  0  0  0  0  0  0  0  0  0
  -14.8240   -7.4721   11.5014 H   0  0  0  0  0  0  0  0  0  0  0  0
   -4.8627   -6.5422    6.6405 C   0  0  0  0  0  0  0  0  0  0  0  0
   -4.9426   -5.2227    6.2259 O   0  0  0  0  0  0  0  0  0  0  0  0
   -3.8303   -6.8996    7.2492 O   0  0  0  0  0  0  0  0  0  0  0  0
   -4.6786   -4.9511    5.2760 H   0  0  0  0  0  0  0  0  0  0  0  0
  2  1  1  0  0  0
  2  3  1  0  0  0
  3  4  1  0  0  0
  4  5  1  0  0  0
  5  6  1  0  0  0
  6  7  1  0  0  0
  7  8  1  0  0  0
  8  9  1  0  0  0
  9 10  2  0  0  0
 10 11  1  0  0  0
 11 12  1  0  0  0
 11 13  2  0  0  0
 13 14  1  0  0  0
 14 15  2  0  0  0
  6 16  1  0  0  0
 16 17  1  0  0  0
 17 18  1  0  0  0
 18 19  1  0  0  0
 19 21  1  0  0  0
 21 22  1  0  0  0
 21 23  2  0  0  0
 16  2  1  0  0  0
 19  2  1  0  0  0
 15  5  1  0  0  0
 15  9  1  0  0  0
 12 20  1  0  0  0
 22 24  1  0  0  0
M  END
> <minimizedAffinity>
-9.00057

> <CNNscore>
0.2210950702

> <CNNaffinity>
5.5895457268

> <CNN_VS>
1.2358210087

> <CNNaffinity_variance>
0.0565580912

$$$$
[H]Oc1c([H])c([H])c2c(c1[H])C([H])([H])C([H])([H])[C@]1([H])[C@]2([H])C([H])([H])C([H])([H])[C@@]2(C([H])([H])[H])[C@@]1([H])C([H])([H])C([H])([H])[C@@]2([H])O[H]


 22 25  0  0  0  0  0  0  0  0999 V2000
   -3.8561  -11.2527    7.8945 C   0  0  0  0  0  0  0  0  0  0  0  0
   -2.4227  -11.3986    8.3088 C   0  0  0  0  0  0  0  0  0  0  0  0
   -2.0741  -10.3818    9.3305 C   0  0  0  0  0  0  0  0  0  0  0  0
   -1.8620   -9.0084    8.8252 C   0  0  0  0  0  0  0  0  0  0  0  0
   -1.2178   -8.9005    7.4900 C   0  0  0  0  0  0  0  0  0  0  0  0
   -1.7616   -9.9391    6.4965 C   0  0  0  0  0  0  0  0  0  0  0  0
   -1.1394   -9.6945    5.1672 C   0  0  0  0  0  0  0  0  0  0  0  0
   -1.7149   -8.3946    4.6297 C   0  0  0  0  0  0  0  0  0  0  0  0
   -1.4895   -7.2818    5.6113 C   0  0  0  0  0  0  0  0  0  0  0  0
   -1.5144   -5.9854    5.1701 C   0  0  0  0  0  0  0  0  0  0  0  0
   -1.3177   -4.9087    6.0011 C   0  0  0  0  0  0  0  0  0  0  0  0
   -1.3422   -3.5885    5.5567 O   0  0  0  0  0  0  0  0  0  0  0  0
   -1.0873   -5.1601    7.3318 C   0  0  0  0  0  0  0  0  0  0  0  0
   -1.0608   -6.4823    7.7882 C   0  0  0  0  0  0  0  0  0  0  0  0
   -1.2594   -7.5511    6.9433 C   0  0  0  0  0  0  0  0  0  0  0  0
   -1.4641  -11.2422    7.1249 C   0  0  0  0  0  0  0  0  0  0  0  0
   -1.7274  -12.4535    6.3370 C   0  0  0  0  0  0  0  0  0  0  0  0
   -1.8168  -13.5450    7.4052 C   0  0  0  0  0  0  0  0  0  0  0  0
   -2.1634  -12.8106    8.7016 C   0  0  0  0  0  0  0  0  0  0  0  0
   -1.0609  -12.8179    9.5691 O   0  0  0  0  0  0  0  0  0  0  0  0
   -1.5010   -3.3137    4.6161 H   0  0  0  0  0  0  0  0  0  0  0  0
   -1.3283  -12.7727   10.5174 H   0  0  0  0  0  0  0  0  0  0  0  0
  2  1  1  0  0  0
  2  3  1  0  0  0
  3  4  1  0  0  0
  4  5  1  0  0  0
  5  6  1  0  0  0
  6  7  1  0  0  0
  7  8  1  0  0  0
  8  9  1  0  0  0
  9 10  2  0  0  0
 10 11  1  0  0  0
 11 12  1  0  0  0
 11 13  2  0  0  0
 13 14  1  0  0  0
 14 15  2  0  0  0
  6 16  1  0  0  0
 16 17  1  0  0  0
 17 18  1  0  0  0
 18 19  1  0  0  0
 19 20  1  0  0  0
 16  2  1  0  0  0
 19  2  1  0  0  0
 15  5  1  0  0  0
 15  9  1  0  0  0
 12 21  1  0  0  0
 20 22  1  0  0  0
M  END
> <minimizedAffinity>
6.75563

> <CNNscore>
0.5044248104

> <CNNaffinity>
4.1861319542

> <CNN_VS>
2.1115887165

> <CNNaffinity_variance>
0.5609196424

$$$$
[H]Oc1c([H])c([H])c2c(c1[H])C([H])([H])C([H])([H])[C@]1([H])[C@]2([H])C([H])([H])C([H])([H])[C@@]2(C([H])([H])[H])[C@@]1([H])C([H])([H])C([H])([H])[C@@]2([H])O[H]


 22 25  0  0  0  0  0  0  0  0999 V2000
   -5.0971   -7.3326    7.4125 C   0  0  0  0  0  0  0  0  0  0  0  0
   -5.7731   -6.1865    6.7217 C   0  0  0  0  0  0  0  0  0  0  0  0
   -6.4291   -5.2999    7.7132 C   0  0  0  0  0  0  0  0  0  0  0  0
   -7.6997   -5.7993    8.2814 C   0  0  0  0  0  0  0  0  0  0  0  0
   -8.5703   -6.5646    7.3508 C   0  0  0  0  0  0  0  0  0  0  0  0
   -7.7676   -7.5313    6.4662 C   0  0  0  0  0  0  0  0  0  0  0  0
   -8.7212   -8.3234    5.6433 C   0  0  0  0  0  0  0  0  0  0  0  0
   -9.4527   -9.2689    6.5817 C   0  0  0  0  0  0  0  0  0  0  0  0
  -10.1122   -8.4967    7.6869 C   0  0  0  0  0  0  0  0  0  0  0  0
  -11.1595   -9.0615    8.3650 C   0  0  0  0  0  0  0  0  0  0  0  0
  -11.8184   -8.4240    9.3887 C   0  0  0  0  0  0  0  0  0  0  0  0
  -12.8842   -8.9946   10.0812 O   0  0  0  0  0  0  0  0  0  0  0  0
  -11.3958   -7.1639    9.7361 C   0  0  0  0  0  0  0  0  0  0  0  0
  -10.3264   -6.5820    9.0469 C   0  0  0  0  0  0  0  0  0  0  0  0
   -9.6760   -7.2332    8.0230 C   0  0  0  0  0  0  0  0  0  0  0  0
   -6.8325   -6.6621    5.7235 C   0  0  0  0  0  0  0  0  0  0  0  0
   -6.0220   -7.2811    4.6664 C   0  0  0  0  0  0  0  0  0  0  0  0
   -4.8686   -6.2910    4.4943 C   0  0  0  0  0  0  0  0  0  0  0  0
   -4.8038   -5.5169    5.8122 C   0  0  0  0  0  0  0  0  0  0  0  0
   -5.2403   -4.1978    5.6180 O   0  0  0  0  0  0  0  0  0  0  0  0
  -13.2556   -9.8971    9.8992 H   0  0  0  0  0  0  0  0  0  0  0  0
   -4.8294   -3.5680    6.2563 H   0  0  0  0  0  0  0  0  0  0  0  0
  2  1  1  0  0  0
  2  3  1  0  0  0
  3  4  1  0  0  0
  4  5  1  0  0  0
  5  6  1  0  0  0
  6  7  1  0  0  0
  7  8  1  0  0  0
  8  9  1  0  0  0
  9 10  2  0  0  0
 10 11  1  0  0  0
 11 12  1  0  0  0
 11 13  2  0  0  0
 13 14  1  0  0  0
 14 15  2  0  0  0
  6 16  1  0  0  0
 16 17  1  0  0  0
 17 18  1  0  0  0
 18 19  1  0  0  0
 19 20  1  0  0  0
 16  2  1  0  0  0
 19  2  1  0  0  0
 15  5  1  0  0  0
 15  9  1  0  0  0
 12 21  1  0  0  0
 20 22  1  0  0  0
M  END
> <minimizedAffinity>
8.22649

> <CNNscore>
0.4894581735

> <CNNaffinity>
5.3643078804

> <CNN_VS>
2.6256043911

> <CNNaffinity_variance>
1.0550098419

$$$$
[H]Oc1c([H])c([H])c2c(c1[H])C([H])([H])C([H])([H])[C@]1([H])[C@]2([H])C([H])([H])C([H])([H])[C@@]2(C([H])([H])[H])[C@@]1([H])C([H])([H])C([H])([H])[C@@]2([H])O[H]


 22 25  0  0  0  0  0  0  0  0999 V2000
  -13.1958   -8.2395    5.9102 C   0  0  0  0  0  0  0  0  0  0  0  0
  -13.2290   -9.0679    7.1593 C   0  0  0  0  0  0  0  0  0  0  0  0
  -14.3364   -8.6277    8.0420 C   0  0  0  0  0  0  0  0  0  0  0  0
  -14.1014   -7.3761    8.7936 C   0  0  0  0  0  0  0  0  0  0  0  0
  -12.7086   -7.1526    9.2626 C   0  0  0  0  0  0  0  0  0  0  0  0
  -11.6682   -7.5410    8.2004 C   0  0  0  0  0  0  0  0  0  0  0  0
  -10.3154   -7.1919    8.7124 C   0  0  0  0  0  0  0  0  0  0  0  0
  -10.2150   -5.6755    8.7302 C   0  0  0  0  0  0  0  0  0  0  0  0
  -11.3330   -5.0904    9.5427 C   0  0  0  0  0  0  0  0  0  0  0  0
  -11.1968   -3.8284   10.0570 C   0  0  0  0  0  0  0  0  0  0  0  0
  -12.1708   -3.2189   10.8109 C   0  0  0  0  0  0  0  0  0  0  0  0
  -12.0366   -1.9354   11.3360 O   0  0  0  0  0  0  0  0  0  0  0  0
  -13.3277   -3.9196   11.0506 C   0  0  0  0  0  0  0  0  0  0  0  0
  -13.4725   -5.2092   10.5278 C   0  0  0  0  0  0  0  0  0  0  0  0
  -12.4874   -5.8070    9.7742 C   0  0  0  0  0  0  0  0  0  0  0  0
  -11.9182   -8.9741    7.9454 C   0  0  0  0  0  0  0  0  0  0  0  0
  -10.9717   -9.6858    7.0765 C   0  0  0  0  0  0  0  0  0  0  0  0
  -11.7733  -10.9078    6.6242 C   0  0  0  0  0  0  0  0  0  0  0  0
  -13.2408  -10.5109    6.7948 C   0  0  0  0  0  0  0  0  0  0  0  0
  -13.8098  -11.2179    7.8646 O   0  0  0  0  0  0  0  0  0  0  0  0
  -11.2385   -1.3576   11.2140 H   0  0  0  0  0  0  0  0  0  0  0  0
  -14.7813  -11.3482    7.7548 H   0  0  0  0  0  0  0  0  0  0  0  0
  2  1  1  0  0  0
  2  3  1  0  0  0
  3  4  1  0  0  0
  4  5  1  0  0  0
  5  6  1  0  0  0
  6  7  1  0  0  0
  7  8  1  0  0  0
  8  9  1  0  0  0
  9 10  2  0  0  0
 10 11  1  0  0  0
 11 12  1  0  0  0
 11 13  2  0  0  0
 13 14  1  0  0  0
 14 15  2  0  0  0
  6 16  1  0  0  0
 16 17  1  0  0  0
 17 18  1  0  0  0
 18 19  1  0  0  0
 19 20  1  0  0  0
 16  2  1  0  0  0
 19  2  1  0  0  0
 15  5  1  0  0  0
 15  9  1  0  0  0
 12 21  1  0  0  0
 20 22  1  0  0  0
M  END
> <minimizedAffinity>
3.46262

> <CNNscore>
0.4519327879

> <CNNaffinity>
5.9345374107

> <CNN_VS>
2.6820120811

> <CNNaffinity_variance>
0.9122247696

$$$$
[H]Oc1c([H])c([H])c2c(c1[H])C([H])([H])C([H])([H])[C@]1([H])[C@]2([H])C([H])([H])C([H])([H])[C@@]2(C([H])([H])[H])[C@@]1([H])C([H])([H])C([H])([H])[C@@]2([H])O[H]


 22 25  0  0  0  0  0  0  0  0999 V2000
   -1.3102   -6.7373    7.4496 C   0  0  0  0  0  0  0  0  0  0  0  0
   -1.9669   -5.5703    6.7754 C   0  0  0  0  0  0  0  0  0  0  0  0
   -1.0985   -4.3708    6.8568 C   0  0  0  0  0  0  0  0  0  0  0  0
   -1.0673   -3.6869    8.1675 C   0  0  0  0  0  0  0  0  0  0  0  0
   -2.3487   -3.6690    8.9207 C   0  0  0  0  0  0  0  0  0  0  0  0
   -3.0847   -5.0160    8.8478 C   0  0  0  0  0  0  0  0  0  0  0  0
   -4.2974   -4.9404    9.7067 C   0  0  0  0  0  0  0  0  0  0  0  0
   -3.8276   -4.9017   11.1516 C   0  0  0  0  0  0  0  0  0  0  0  0
   -2.8748   -3.7604   11.3576 C   0  0  0  0  0  0  0  0  0  0  0  0
   -2.6812   -3.2705   12.6218 C   0  0  0  0  0  0  0  0  0  0  0  0
   -1.8280   -2.2291   12.8977 C   0  0  0  0  0  0  0  0  0  0  0  0
   -1.6280   -1.7275   14.1821 O   0  0  0  0  0  0  0  0  0  0  0  0
   -1.1454   -1.6647   11.8478 C   0  0  0  0  0  0  0  0  0  0  0  0
   -1.3392   -2.1611   10.5542 C   0  0  0  0  0  0  0  0  0  0  0  0
   -2.1978   -3.2052   10.2932 C   0  0  0  0  0  0  0  0  0  0  0  0
   -3.3205   -5.2303    7.4057 C   0  0  0  0  0  0  0  0  0  0  0  0
   -4.1527   -6.3759    7.0151 C   0  0  0  0  0  0  0  0  0  0  0  0
   -3.7661   -6.5977    5.5516 C   0  0  0  0  0  0  0  0  0  0  0  0
   -2.3822   -5.9633    5.4013 C   0  0  0  0  0  0  0  0  0  0  0  0
   -2.4692   -4.7948    4.6299 O   0  0  0  0  0  0  0  0  0  0  0  0
   -2.0769   -2.0724   14.9976 H   0  0  0  0  0  0  0  0  0  0  0  0
   -1.6316   -4.6000    4.1468 H   0  0  0  0  0  0  0  0  0  0  0  0
  2  1  1  0  0  0
  2  3  1  0  0  0
  3  4  1  0  0  0
  4  5  1  0  0  0
  5  6  1  0  0  0
  6  7  1  0  0  0
  7  8  1  0  0  0
  8  9  1  0  0  0
  9 10  2  0  0  0
 10 11  1  0  0  0
 11 12  1  0  0  0
 11 13  2  0  0  0
 13 14  1  0  0  0
 14 15  2  0  0  0
  6 16  1  0  0  0
 16 17  1  0  0  0
 17 18  1  0  0  0
 18 19  1  0  0  0
 19 20  1  0  0  0
 16  2  1  0  0  0
 19  2  1  0  0  0
 15  5  1  0  0  0
 15  9  1  0  0  0
 12 21  1  0  0  0
 20 22  1  0  0  0
M  END
> <minimizedAffinity>
-2.44805

> <CNNscore>
0.3898487389

> <CNNaffinity>
4.2052912712

> <CNN_VS>
1.6394275427

> <CNNaffinity_variance>
0.3774117529

$$$$
[H]Oc1c([H])c([H])c2c(c1[H])C([H])([H])C([H])([H])[C@]1([H])[C@]2([H])C([H])([H])C([H])([H])[C@@]2(C([H])([H])[H])[C@@]1([H])C([H])([H])C([H])([H])[C@@]2([H])O[H]


 22 25  0  0  0  0  0  0  0  0999 V2000
   -6.6625   -6.4130    5.3881 C   0  0  0  0  0  0  0  0  0  0  0  0
   -6.1593   -7.5124    6.2745 C   0  0  0  0  0  0  0  0  0  0  0  0
   -6.6254   -8.8301    5.7787 C   0  0  0  0  0  0  0  0  0  0  0  0
   -8.0405   -9.1579    6.0560 C   0  0  0  0  0  0  0  0  0  0  0  0
   -8.5753   -8.6764    7.3566 C   0  0  0  0  0  0  0  0  0  0  0  0
   -8.1062   -7.2506    7.6861 C   0  0  0  0  0  0  0  0  0  0  0  0
   -8.7657   -6.8141    8.9464 C   0  0  0  0  0  0  0  0  0  0  0  0
  -10.2403   -6.6110    8.6394 C   0  0  0  0  0  0  0  0  0  0  0  0
  -10.8273   -7.8641    8.0584 C   0  0  0  0  0  0  0  0  0  0  0  0
  -12.1811   -8.0610    8.1227 C   0  0  0  0  0  0  0  0  0  0  0  0
  -12.7991   -9.1790    7.6161 C   0  0  0  0  0  0  0  0  0  0  0  0
  -14.1758   -9.3835    7.6794 O   0  0  0  0  0  0  0  0  0  0  0  0
  -12.0101  -10.1331    7.0210 C   0  0  0  0  0  0  0  0  0  0  0  0
  -10.6265   -9.9373    6.9523 C   0  0  0  0  0  0  0  0  0  0  0  0
  -10.0215   -8.8117    7.4647 C   0  0  0  0  0  0  0  0  0  0  0  0
   -6.6327   -7.3456    7.7212 C   0  0  0  0  0  0  0  0  0  0  0  0
   -5.8851   -6.1631    8.1688 C   0  0  0  0  0  0  0  0  0  0  0  0
   -4.4847   -6.4085    7.6040 C   0  0  0  0  0  0  0  0  0  0  0  0
   -4.6860   -7.3792    6.4389 C   0  0  0  0  0  0  0  0  0  0  0  0
   -4.1764   -8.6432    6.7714 O   0  0  0  0  0  0  0  0  0  0  0  0
  -14.8210   -8.7502    8.0894 H   0  0  0  0  0  0  0  0  0  0  0  0
   -3.8797   -9.1494    5.9785 H   0  0  0  0  0  0  0  0  0  0  0  0
  2  1  1  0  0  0
  2  3  1  0  0  0
  3  4  1  0  0  0
  4  5  1  0  0  0
  5  6  1  0  0  0
  6  7  1  0  0  0
  7  8  1  0  0  0
  8  9  1  0  0  0
  9 10  2  0  0  0
 10 11  1  0  0  0
 11 12  1  0  0  0
 11 13  2  0  0  0
 13 14  1  0  0  0
 14 15  2  0  0  0
  6 16  1  0  0  0
 16 17  1  0  0  0
 17 18  1  0  0  0
 18 19  1  0  0  0
 19 20  1  0  0  0
 16  2  1  0  0  0
 19  2  1  0  0  0
 15  5  1  0  0  0
 15  9  1  0  0  0
 12 21  1  0  0  0
 20 22  1  0  0  0
M  END
> <minimizedAffinity>
-7.56515

> <CNNscore>
0.3177506924

> <CNNaffinity>
5.4360961914

> <CNN_VS>
1.7273232937

> <CNNaffinity_variance>
0.1303348541

$$$$
[H]Oc1c([H])c([H])c2c(c1[H])C([H])([H])C([H])([H])[C@]1([H])[C@]2([H])C([H])([H])C([H])([H])[C@@]2(C([H])([H])[H])[C@@]1([H])C([H])([H])C([H])([H])[C@@]2([H])O[H]


 22 25  0  0  0  0  0  0  0  0999 V2000
   -4.4299   -5.2090    5.6694 C   0  0  0  0  0  0  0  0  0  0  0  0
   -3.0260   -4.7264    5.4599 C   0  0  0  0  0  0  0  0  0  0  0  0
   -2.0570   -5.8051    5.7711 C   0  0  0  0  0  0  0  0  0  0  0  0
   -1.8274   -6.0688    7.2079 C   0  0  0  0  0  0  0  0  0  0  0  0
   -1.8513   -4.8785    8.0980 C   0  0  0  0  0  0  0  0  0  0  0  0
   -2.9814   -3.9029    7.7340 C   0  0  0  0  0  0  0  0  0  0  0  0
   -2.9943   -2.7992    8.7318 C   0  0  0  0  0  0  0  0  0  0  0  0
   -3.4782   -3.3843   10.0484 C   0  0  0  0  0  0  0  0  0  0  0  0
   -2.6153   -4.5450   10.4493 C   0  0  0  0  0  0  0  0  0  0  0  0
   -2.5778   -4.9282   11.7637 C   0  0  0  0  0  0  0  0  0  0  0  0
   -1.8153   -5.9787   12.2150 C   0  0  0  0  0  0  0  0  0  0  0  0
   -1.7741   -6.3719   13.5509 O   0  0  0  0  0  0  0  0  0  0  0  0
   -1.0623   -6.6658   11.2943 C   0  0  0  0  0  0  0  0  0  0  0  0
   -1.0966   -6.2789    9.9502 C   0  0  0  0  0  0  0  0  0  0  0  0
   -1.8656   -5.2239    9.5129 C   0  0  0  0  0  0  0  0  0  0  0  0
   -2.6985   -3.5149    6.3373 C   0  0  0  0  0  0  0  0  0  0  0  0
   -3.5263   -2.4564    5.7442 C   0  0  0  0  0  0  0  0  0  0  0  0
   -3.3379   -2.6747    4.2418 C   0  0  0  0  0  0  0  0  0  0  0  0
   -2.9048   -4.1350    4.0995 C   0  0  0  0  0  0  0  0  0  0  0  0
   -1.5554   -4.2027    3.7220 O   0  0  0  0  0  0  0  0  0  0  0  0
   -2.2835   -5.9350   14.2826 H   0  0  0  0  0  0  0  0  0  0  0  0
   -1.3489   -5.0197    3.2093 H   0  0  0  0  0  0  0  0  0  0  0  0
  2  1  1  0  0  0
  2  3  1  0  0  0
  3  4  1  0  0  0
  4  5  1  0  0  0
  5  6  1  0  0  0
  6  7  1  0  0  0
  7  8  1  0  0  0
  8  9  1  0  0  0
  9 10  2  0  0  0
 10 11  1  0  0  0
 11 12  1  0  0  0
 11 13  2  0  0  0
 13 14  1  0  0  0
 14 15  2  0  0  0
  6 16  1  0  0  0
 16 17  1  0  0  0
 17 18  1  0  0  0
 18 19  1  0  0  0
 19 20  1  0  0  0
 16  2  1  0  0  0
 19  2  1  0  0  0
 15  5  1  0  0  0
 15  9  1  0  0  0
 12 21  1  0  0  0
 20 22  1  0  0  0
M  END
> <minimizedAffinity>
-3.20061

> <CNNscore>
0.3113527596

> <CNNaffinity>
4.0434589386

> <CNN_VS>
1.2589421272

> <CNNaffinity_variance>
0.1501669437

$$$$
[H]Oc1c([H])c([H])c2c(c1[H])C([H])([H])C([H])([H])[C@]1([H])[C@]2([H])C([H])([H])C([H])([H])[C@@]2(C([H])([H])[H])[C@@]1([H])C([H])([H])C([H])([H])[C@@]2([H])O[H]


 22 25  0  0  0  0  0  0  0  0999 V2000
   -7.1593   -9.0960    5.4192 C   0  0  0  0  0  0  0  0  0  0  0  0
   -7.4734   -8.1074    6.5016 C   0  0  0  0  0  0  0  0  0  0  0  0
   -7.8081   -6.7873    5.9145 C   0  0  0  0  0  0  0  0  0  0  0  0
   -6.6620   -5.9924    5.4233 C   0  0  0  0  0  0  0  0  0  0  0  0
   -5.4089   -6.1028    6.2151 C   0  0  0  0  0  0  0  0  0  0  0  0
   -5.1252   -7.5472    6.6562 C   0  0  0  0  0  0  0  0  0  0  0  0
   -3.8098   -7.5809    7.3509 C   0  0  0  0  0  0  0  0  0  0  0  0
   -2.7369   -7.3423    6.3012 C   0  0  0  0  0  0  0  0  0  0  0  0
   -2.9983   -6.0556    5.5743 C   0  0  0  0  0  0  0  0  0  0  0  0
   -1.9654   -5.4311    4.9270 C   0  0  0  0  0  0  0  0  0  0  0  0
   -2.1184   -4.2515    4.2386 C   0  0  0  0  0  0  0  0  0  0  0  0
   -1.0706   -3.6128    3.5789 O   0  0  0  0  0  0  0  0  0  0  0  0
   -3.3696   -3.6857    4.2072 C   0  0  0  0  0  0  0  0  0  0  0  0
   -4.4286   -4.3191    4.8665 C   0  0  0  0  0  0  0  0  0  0  0  0
   -4.2599   -5.5009    5.5524 C   0  0  0  0  0  0  0  0  0  0  0  0
   -6.3003   -7.9226    7.4684 C   0  0  0  0  0  0  0  0  0  0  0  0
   -6.2580   -9.2118    8.1711 C   0  0  0  0  0  0  0  0  0  0  0  0
   -7.7349   -9.5018    8.4452 C   0  0  0  0  0  0  0  0  0  0  0  0
   -8.5044   -8.6800    7.4095 C   0  0  0  0  0  0  0  0  0  0  0  0
   -9.1641   -7.6119    8.0356 O   0  0  0  0  0  0  0  0  0  0  0  0
   -0.1366   -3.9478    3.5484 H   0  0  0  0  0  0  0  0  0  0  0  0
   -9.9771   -7.3358    7.5503 H   0  0  0  0  0  0  0  0  0  0  0  0
  2  1  1  0  0  0
  2  3  1  0  0  0
  3  4  1  0  0  0
  4  5  1  0  0  0
  5  6  1  0  0  0
  6  7  1  0  0  0
  7  8  1  0  0  0
  8  9  1  0  0  0
  9 10  2  0  0  0
 10 11  1  0  0  0
 11 12  1  0  0  0
 11 13  2  0  0  0
 13 14  1  0  0  0
 14 15  2  0  0  0
  6 16  1  0  0  0
 16 17  1  0  0  0
 17 18  1  0  0  0
 18 19  1  0  0  0
 19 20  1  0  0  0
 16  2  1  0  0  0
 19  2  1  0  0  0
 15  5  1  0  0  0
 15  9  1  0  0  0
 12 21  1  0  0  0
 20 22  1  0  0  0
M  END
> <minimizedAffinity>
-4.88825

> <CNNscore>
0.2886879146

> <CNNaffinity>
4.7335247993

> <CNN_VS>
1.3665113449

> <CNNaffinity_variance>
0.3245681822

$$$$
[H]Oc1c([H])c([H])c2c(c1[H])C([H])([H])C([H])([H])[C@]1([H])[C@]2([H])C([H])([H])C([H])([H])[C@@]2(C([H])([H])[H])[C@@]1([H])C([H])([H])C([H])([H])[C@@]2([H])O[H]


 22 25  0  0  0  0  0  0  0  0999 V2000
   -7.1756   -9.0702    8.4959 C   0  0  0  0  0  0  0  0  0  0  0  0
   -7.4622   -7.9605    7.5294 C   0  0  0  0  0  0  0  0  0  0  0  0
   -7.9518   -6.7607    8.2506 C   0  0  0  0  0  0  0  0  0  0  0  0
   -9.3553   -6.8161    8.7129 C   0  0  0  0  0  0  0  0  0  0  0  0
  -10.3065   -7.5236    7.8160 C   0  0  0  0  0  0  0  0  0  0  0  0
   -9.7067   -8.8129    7.2334 C   0  0  0  0  0  0  0  0  0  0  0  0
  -10.7545   -9.5042    6.4346 C   0  0  0  0  0  0  0  0  0  0  0  0
  -11.7906  -10.0369    7.4105 C   0  0  0  0  0  0  0  0  0  0  0  0
  -12.3239   -8.9218    8.2619 C   0  0  0  0  0  0  0  0  0  0  0  0
  -13.5401   -9.0703    8.8740 C   0  0  0  0  0  0  0  0  0  0  0  0
  -14.1005   -8.0997    9.6693 C   0  0  0  0  0  0  0  0  0  0  0  0
  -15.3373   -8.2464   10.2937 O   0  0  0  0  0  0  0  0  0  0  0  0
  -13.3970   -6.9337    9.8491 C   0  0  0  0  0  0  0  0  0  0  0  0
  -12.1541   -6.7764    9.2264 C   0  0  0  0  0  0  0  0  0  0  0  0
  -11.6053   -7.7580    8.4321 C   0  0  0  0  0  0  0  0  0  0  0  0
   -8.5129   -8.3616    6.4901 C   0  0  0  0  0  0  0  0  0  0  0  0
   -7.7989   -9.3575    5.6803 C   0  0  0  0  0  0  0  0  0  0  0  0
   -6.4160   -8.7278    5.5028 C   0  0  0  0  0  0  0  0  0  0  0  0
   -6.2724   -7.7408    6.6627 C   0  0  0  0  0  0  0  0  0  0  0  0
   -6.3292   -6.4233    6.1839 O   0  0  0  0  0  0  0  0  0  0  0  0
  -15.9133   -9.0517   10.2204 H   0  0  0  0  0  0  0  0  0  0  0  0
   -5.8283   -5.7939    6.7548 H   0  0  0  0  0  0  0  0  0  0  0  0
  2  1  1  0  0  0
  2  3  1  0  0  0
  3  4  1  0  0  0
  4  5  1  0  0  0
  5  6  1  0  0  0
  6  7  1  0  0  0
  7  8  1  0  0  0
  8  9  1  0  0  0
  9 10  2  0  0  0
 10 11  1  0  0  0
 11 12  1  0  0  0
 11 13  2  0  0  0
 13 14  1  0  0  0
 14 15  2  0  0  0
  6 16  1  0  0  0
 16 17  1  0  0  0
 17 18  1  0  0  0
 18 19  1  0  0  0
 19 20  1  0  0  0
 16  2  1  0  0  0
 19  2  1  0  0  0
 15  5  1  0  0  0
 15  9  1  0  0  0
 12 21  1  0  0  0
 20 22  1  0  0  0
M  END
> <minimizedAffinity>
-5.61176

> <CNNscore>
0.2348051071

> <CNNaffinity>
5.5589475632

> <CNN_VS>
1.3052692413

> <CNNaffinity_variance>
0.1057304740

$$$$
[H]Oc1c([H])c([H])c2c(c1[H])C([H])([H])C([H])([H])[C@]1([H])[C@]2([H])C([H])([H])C([H])([H])[C@@]2(C([H])([H])[H])[C@@]1([H])C([H])([H])C([H])([H])[C@@]2([H])O[H]


 22 25  0  0  0  0  0  0  0  0999 V2000
  -12.9898   -9.7252    9.5677 C   0  0  0  0  0  0  0  0  0  0  0  0
  -13.2417   -9.1928    8.1891 C   0  0  0  0  0  0  0  0  0  0  0  0
  -12.5160  -10.0035    7.1814 C   0  0  0  0  0  0  0  0  0  0  0  0
  -11.0607   -9.7596    7.0865 C   0  0  0  0  0  0  0  0  0  0  0  0
  -10.6235   -8.3538    7.2924 C   0  0  0  0  0  0  0  0  0  0  0  0
  -11.3766   -7.6740    8.4467 C   0  0  0  0  0  0  0  0  0  0  0  0
  -10.8085   -6.3134    8.6468 C   0  0  0  0  0  0  0  0  0  0  0  0
   -9.4126   -6.4854    9.2228 C   0  0  0  0  0  0  0  0  0  0  0  0
   -8.5833   -7.3552    8.3238 C   0  0  0  0  0  0  0  0  0  0  0  0
   -7.2175   -7.2835    8.3976 C   0  0  0  0  0  0  0  0  0  0  0  0
   -6.3852   -8.0438    7.6116 C   0  0  0  0  0  0  0  0  0  0  0  0
   -4.9956   -7.9742    7.6832 O   0  0  0  0  0  0  0  0  0  0  0  0
   -6.9641   -8.9103    6.7166 C   0  0  0  0  0  0  0  0  0  0  0  0
   -8.3587   -8.9878    6.6368 C   0  0  0  0  0  0  0  0  0  0  0  0
   -9.1798   -8.2193    7.4310 C   0  0  0  0  0  0  0  0  0  0  0  0
  -12.7971   -7.7343    8.0469 C   0  0  0  0  0  0  0  0  0  0  0  0
  -13.7703   -7.0195    8.8832 C   0  0  0  0  0  0  0  0  0  0  0  0
  -15.0948   -7.6939    8.5210 C   0  0  0  0  0  0  0  0  0  0  0  0
  -14.7083   -9.0671    7.9685 C   0  0  0  0  0  0  0  0  0  0  0  0
  -14.9384   -9.1121    6.5854 O   0  0  0  0  0  0  0  0  0  0  0  0
   -4.4924   -7.3789    8.2981 H   0  0  0  0  0  0  0  0  0  0  0  0
  -15.1319  -10.0250    6.2660 H   0  0  0  0  0  0  0  0  0  0  0  0
  2  1  1  0  0  0
  2  3  1  0  0  0
  3  4  1  0  0  0
  4  5  1  0  0  0
  5  6  1  0  0  0
  6  7  1  0  0  0
  7  8  1  0  0  0
  8  9  1  0  0  0
  9 10  2  0  0  0
 10 11  1  0  0  0
 11 12  1  0  0  0
 11 13  2  0  0  0
 13 14  1  0  0  0
 14 15  2  0  0  0
  6 16  1  0  0  0
 16 17  1  0  0  0
 17 18  1  0  0  0
 18 19  1  0  0  0
 19 20  1  0  0  0
 16  2  1  0  0  0
 19  2  1  0  0  0
 15  5  1  0  0  0
 15  9  1  0  0  0
 12 21  1  0  0  0
 20 22  1  0  0  0
M  END
> <minimizedAffinity>
-8.28815

> <CNNscore>
0.2309696674

> <CNNaffinity>
5.6734485626

> <CNN_VS>
1.3103945255

> <CNNaffinity_variance>
0.0700300187

$$$$
[H]Oc1c([H])c([H])c2c(c1[H])C([H])([H])C([H])([H])[C@]1([H])[C@]2([H])C([H])([H])C([H])([H])[C@]2(C([H])([H])[H])C(=O)C([H])([H])C([H])([H])[C@]21[H]


 21 24  0  0  0  0  0  0  0  0999 V2000
  -15.5358   -8.5384    7.9023 C   0  0  0  0  0  0  0  0  0  0  0  0
  -14.2621   -8.3738    7.1270 C   0  0  0  0  0  0  0  0  0  0  0  0
  -13.1334   -9.0923    7.7657 C   0  0  0  0  0  0  0  0  0  0  0  0
  -12.8390   -8.5318    9.1174 C   0  0  0  0  0  0  0  0  0  0  0  0
  -12.5803   -7.0576    9.0536 C   0  0  0  0  0  0  0  0  0  0  0  0
  -13.7769   -6.3618    8.3892 C   0  0  0  0  0  0  0  0  0  0  0  0
  -13.6167   -4.8846    8.4974 C   0  0  0  0  0  0  0  0  0  0  0  0
  -13.8170   -4.5145    9.9648 C   0  0  0  0  0  0  0  0  0  0  0  0
  -12.8267   -5.2747   10.7698 C   0  0  0  0  0  0  0  0  0  0  0  0
  -12.4835   -4.7472   12.0001 C   0  0  0  0  0  0  0  0  0  0  0  0
  -11.5709   -5.3691   12.8364 C   0  0  0  0  0  0  0  0  0  0  0  0
  -11.2239   -4.8410   14.0739 O   0  0  0  0  0  0  0  0  0  0  0  0
  -10.9958   -6.5501   12.4144 C   0  0  0  0  0  0  0  0  0  0  0  0
  -11.3468   -7.0774   11.1711 C   0  0  0  0  0  0  0  0  0  0  0  0
  -12.2549   -6.4550   10.3430 C   0  0  0  0  0  0  0  0  0  0  0  0
  -13.8546   -6.8980    7.0105 C   0  0  0  0  0  0  0  0  0  0  0  0
  -14.9219   -6.3533    6.1462 C   0  0  0  0  0  0  0  0  0  0  0  0
  -15.1610   -7.4684    5.1369 C   0  0  0  0  0  0  0  0  0  0  0  0
  -14.5132   -8.6927    5.7233 C   0  0  0  0  0  0  0  0  0  0  0  0
  -14.2970   -9.6808    5.0595 O   0  0  0  0  0  0  0  0  0  0  0  0
  -10.4234   -4.1922   14.0830 H   0  0  0  0  0  0  0  0  0  0  0  0
  2  1  1  0  0  0
  2  3  1  0  0  0
  3  4  1  0  0  0
  4  5  1  0  0  0
  5  6  1  0  0  0
  6  7  1  0  0  0
  7  8  1  0  0  0
  8  9  1  0  0  0
  9 10  2  0  0  0
 10 11  1  0  0  0
 11 12  1  0  0  0
 11 13  2  0  0  0
 13 14  1  0  0  0
 14 15  2  0  0  0
  6 16  1  0  0  0
 16 17  1  0  0  0
 17 18  1  0  0  0
 18 19  1  0  0  0
 19 20  2  0  0  0
 16  2  1  0  0  0
 19  2  1  0  0  0
 15  5  1  0  0  0
 15  9  1  0  0  0
 12 21  1  0  0  0
M  END
> <minimizedAffinity>
5.32056

> <CNNscore>
0.5383629203

> <CNNaffinity>
5.9736504555

> <CNN_VS>
3.2159919739

> <CNNaffinity_variance>
0.6363370419

$$$$
[H]Oc1c([H])c([H])c2c(c1[H])C([H])([H])C([H])([H])[C@]1([H])[C@]2([H])C([H])([H])C([H])([H])[C@]2(C([H])([H])[H])C(=O)C([H])([H])C([H])([H])[C@]21[H]


 21 24  0  0  0  0  0  0  0  0999 V2000
   -4.5257   -6.1623    6.2433 C   0  0  0  0  0  0  0  0  0  0  0  0
   -3.3647   -5.2144    6.1812 C   0  0  0  0  0  0  0  0  0  0  0  0
   -2.0759   -5.9078    6.4194 C   0  0  0  0  0  0  0  0  0  0  0  0
   -2.0277   -6.4896    7.7931 C   0  0  0  0  0  0  0  0  0  0  0  0
   -2.2872   -5.4477    8.8378 C   0  0  0  0  0  0  0  0  0  0  0  0
   -3.6311   -4.7641    8.5483 C   0  0  0  0  0  0  0  0  0  0  0  0
   -3.9888   -3.8684    9.6838 C   0  0  0  0  0  0  0  0  0  0  0  0
   -4.3432   -4.7618   10.8698 C   0  0  0  0  0  0  0  0  0  0  0  0
   -3.1748   -5.6342   11.1534 C   0  0  0  0  0  0  0  0  0  0  0  0
   -3.0662   -6.1369   12.4360 C   0  0  0  0  0  0  0  0  0  0  0  0
   -2.0188   -6.9606   12.8150 C   0  0  0  0  0  0  0  0  0  0  0  0
   -1.9070   -7.4674   14.1040 O   0  0  0  0  0  0  0  0  0  0  0  0
   -1.0633   -7.2799   11.8724 C   0  0  0  0  0  0  0  0  0  0  0  0
   -1.1790   -6.7690   10.5791 C   0  0  0  0  0  0  0  0  0  0  0  0
   -2.2225   -5.9501   10.2071 C   0  0  0  0  0  0  0  0  0  0  0  0
   -3.4834   -4.1010    7.2319 C   0  0  0  0  0  0  0  0  0  0  0  0
   -4.6490   -3.3384    6.7390 C   0  0  0  0  0  0  0  0  0  0  0  0
   -4.4648   -3.3522    5.2273 C   0  0  0  0  0  0  0  0  0  0  0  0
   -3.4534   -4.4308    4.9511 C   0  0  0  0  0  0  0  0  0  0  0  0
   -2.8945   -4.5235    3.8822 O   0  0  0  0  0  0  0  0  0  0  0  0
   -1.3772   -6.8917   14.7745 H   0  0  0  0  0  0  0  0  0  0  0  0
  2  1  1  0  0  0
  2  3  1  0  0  0
  3  4  1  0  0  0
  4  5  1  0  0  0
  5  6  1  0  0  0
  6  7  1  0  0  0
  7  8  1  0  0  0
  8  9  1  0  0  0
  9 10  2  0  0  0
 10 11  1  0  0  0
 11 12  1  0  0  0
 11 13  2  0  0  0
 13 14  1  0  0  0
 14 15  2  0  0  0
  6 16  1  0  0  0
 16 17  1  0  0  0
 17 18  1  0  0  0
 18 19  1  0  0  0
 19 20  2  0  0  0
 16  2  1  0  0  0
 19  2  1  0  0  0
 15  5  1  0  0  0
 15  9  1  0  0  0
 12 21  1  0  0  0
M  END
> <minimizedAffinity>
0.95793

> <CNNscore>
0.4492304623

> <CNNaffinity>
4.3854169846

> <CNN_VS>
1.9700628519

> <CNNaffinity_variance>
0.6894210577

$$$$
[H]Oc1c([H])c([H])c2c(c1[H])C([H])([H])C([H])([H])[C@]1([H])[C@]2([H])C([H])([H])C([H])([H])[C@]2(C([H])([H])[H])C(=O)C([H])([H])C([H])([H])[C@]21[H]


 21 24  0  0  0  0  0  0  0  0999 V2000
  -16.5181   -8.5383    7.4620 C   0  0  0  0  0  0  0  0  0  0  0  0
  -17.6025   -8.3838    6.4371 C   0  0  0  0  0  0  0  0  0  0  0  0
  -17.2378   -9.0241    5.1504 C   0  0  0  0  0  0  0  0  0  0  0  0
  -16.0395   -8.3690    4.5480 C   0  0  0  0  0  0  0  0  0  0  0  0
  -16.2470   -6.8946    4.3834 C   0  0  0  0  0  0  0  0  0  0  0  0
  -16.6179   -6.2807    5.7410 C   0  0  0  0  0  0  0  0  0  0  0  0
  -16.6343   -4.7954    5.6279 C   0  0  0  0  0  0  0  0  0  0  0  0
  -15.1868   -4.3385    5.4648 C   0  0  0  0  0  0  0  0  0  0  0  0
  -14.6239   -5.0140    4.2676 C   0  0  0  0  0  0  0  0  0  0  0  0
  -13.5535   -4.3982    3.6473 C   0  0  0  0  0  0  0  0  0  0  0  0
  -12.9478   -4.9362    2.5236 C   0  0  0  0  0  0  0  0  0  0  0  0
  -11.8714   -4.3191    1.8979 O   0  0  0  0  0  0  0  0  0  0  0  0
  -13.4391   -6.1231    2.0204 C   0  0  0  0  0  0  0  0  0  0  0  0
  -14.5201   -6.7398    2.6515 C   0  0  0  0  0  0  0  0  0  0  0  0
  -15.1191   -6.2007    3.7688 C   0  0  0  0  0  0  0  0  0  0  0  0
  -17.8993   -6.9064    6.1422 C   0  0  0  0  0  0  0  0  0  0  0  0
  -18.4880   -6.4521    7.4189 C   0  0  0  0  0  0  0  0  0  0  0  0
  -19.3403   -7.6365    7.8547 C   0  0  0  0  0  0  0  0  0  0  0  0
  -18.8751   -8.7998    7.0223 C   0  0  0  0  0  0  0  0  0  0  0  0
  -19.5179   -9.8211    6.9364 O   0  0  0  0  0  0  0  0  0  0  0  0
  -12.1034   -3.6463    1.1528 H   0  0  0  0  0  0  0  0  0  0  0  0
  2  1  1  0  0  0
  2  3  1  0  0  0
  3  4  1  0  0  0
  4  5  1  0  0  0
  5  6  1  0  0  0
  6  7  1  0  0  0
  7  8  1  0  0  0
  8  9  1  0  0  0
  9 10  2  0  0  0
 10 11  1  0  0  0
 11 12  1  0  0  0
 11 13  2  0  0  0
 13 14  1  0  0  0
 14 15  2  0  0  0
  6 16  1  0  0  0
 16 17  1  0  0  0
 17 18  1  0  0  0
 18 19  1  0  0  0
 19 20  2  0  0  0
 16  2  1  0  0  0
 19  2  1  0  0  0
 15  5  1  0  0  0
 15  9  1  0  0  0
 12 21  1  0  0  0
M  END
> <minimizedAffinity>
23.94347

> <CNNscore>
0.3534376025

> <CNNaffinity>
5.7590117455

> <CNN_VS>
2.0354514122

> <CNNaffinity_variance>
1.0997860432

$$$$
[H]Oc1c([H])c([H])c2c(c1[H])C([H])([H])C([H])([H])[C@]1([H])[C@]2([H])C([H])([H])C([H])([H])[C@]2(C([H])([H])[H])C(=O)C([H])([H])C([H])([H])[C@]21[H]


 21 24  0  0  0  0  0  0  0  0999 V2000
  -11.0195   -9.4050    5.7049 C   0  0  0  0  0  0  0  0  0  0  0  0
  -10.5284  -10.1433    6.9149 C   0  0  0  0  0  0  0  0  0  0  0  0
  -11.6409  -10.5117    7.8230 C   0  0  0  0  0  0  0  0  0  0  0  0
  -12.3178   -9.2947    8.3604 C   0  0  0  0  0  0  0  0  0  0  0  0
  -11.3428   -8.3801    9.0363 C   0  0  0  0  0  0  0  0  0  0  0  0
  -10.2159   -8.0269    8.0552 C   0  0  0  0  0  0  0  0  0  0  0  0
   -9.3514   -6.9693    8.6498 C   0  0  0  0  0  0  0  0  0  0  0  0
  -10.1649   -5.6776    8.6674 C   0  0  0  0  0  0  0  0  0  0  0  0
  -11.4072   -5.9275    9.4425 C   0  0  0  0  0  0  0  0  0  0  0  0
  -12.0232   -4.8275   10.0084 C   0  0  0  0  0  0  0  0  0  0  0  0
  -13.1864   -4.9398   10.7523 C   0  0  0  0  0  0  0  0  0  0  0  0
  -13.8080   -3.8355   11.3226 O   0  0  0  0  0  0  0  0  0  0  0  0
  -13.7345   -6.1942   10.9245 C   0  0  0  0  0  0  0  0  0  0  0  0
  -13.1075   -7.3006   10.3503 C   0  0  0  0  0  0  0  0  0  0  0  0
  -11.9507   -7.1837    9.6114 C   0  0  0  0  0  0  0  0  0  0  0  0
   -9.5354   -9.3018    7.7297 C   0  0  0  0  0  0  0  0  0  0  0  0
   -8.3790   -9.2213    6.8137 C   0  0  0  0  0  0  0  0  0  0  0  0
   -8.3274  -10.6094    6.1892 C   0  0  0  0  0  0  0  0  0  0  0  0
   -9.6610  -11.2384    6.4864 C   0  0  0  0  0  0  0  0  0  0  0  0
   -9.8498  -12.4263    6.3567 O   0  0  0  0  0  0  0  0  0  0  0  0
  -13.5091   -3.5882   12.2772 H   0  0  0  0  0  0  0  0  0  0  0  0
  2  1  1  0  0  0
  2  3  1  0  0  0
  3  4  1  0  0  0
  4  5  1  0  0  0
  5  6  1  0  0  0
  6  7  1  0  0  0
  7  8  1  0  0  0
  8  9  1  0  0  0
  9 10  2  0  0  0
 10 11  1  0  0  0
 11 12  1  0  0  0
 11 13  2  0  0  0
 13 14  1  0  0  0
 14 15  2  0  0  0
  6 16  1  0  0  0
 16 17  1  0  0  0
 17 18  1  0  0  0
 18 19  1  0  0  0
 19 20  2  0  0  0
 16  2  1  0  0  0
 19  2  1  0  0  0
 15  5  1  0  0  0
 15  9  1  0  0  0
 12 21  1  0  0  0
M  END
> <minimizedAffinity>
3.51762

> <CNNscore>
0.3500367999

> <CNNaffinity>
5.4400835037

> <CNN_VS>
1.9042294025

> <CNNaffinity_variance>
0.4807961881

$$$$
[H]Oc1c([H])c([H])c2c(c1[H])C([H])([H])C([H])([H])[C@]1([H])[C@]2([H])C([H])([H])C([H])([H])[C@]2(C([H])([H])[H])C(=O)C([H])([H])C([H])([H])[C@]21[H]


 21 24  0  0  0  0  0  0  0  0999 V2000
   -6.9544   -6.8524    5.7474 C   0  0  0  0  0  0  0  0  0  0  0  0
   -6.6050   -7.9102    6.7520 C   0  0  0  0  0  0  0  0  0  0  0  0
   -7.0894   -9.2474    6.3331 C   0  0  0  0  0  0  0  0  0  0  0  0
   -8.5793   -9.2732    6.2461 C   0  0  0  0  0  0  0  0  0  0  0  0
   -9.2100   -8.8445    7.5355 C   0  0  0  0  0  0  0  0  0  0  0  0
   -8.6793   -7.4566    7.9220 C   0  0  0  0  0  0  0  0  0  0  0  0
   -9.4422   -6.9401    9.0927 C   0  0  0  0  0  0  0  0  0  0  0  0
  -10.8504   -6.6099    8.6045 C   0  0  0  0  0  0  0  0  0  0  0  0
  -11.4347   -7.8435    8.0185 C   0  0  0  0  0  0  0  0  0  0  0  0
  -12.8136   -7.9266    7.9828 C   0  0  0  0  0  0  0  0  0  0  0  0
  -13.4690   -9.0293    7.4596 C   0  0  0  0  0  0  0  0  0  0  0  0
  -14.8554   -9.1155    7.4224 O   0  0  0  0  0  0  0  0  0  0  0  0
  -12.7085  -10.0677    6.9628 C   0  0  0  0  0  0  0  0  0  0  0  0
  -11.3166   -9.9774    7.0019 C   0  0  0  0  0  0  0  0  0  0  0  0
  -10.6695   -8.8787    7.5234 C   0  0  0  0  0  0  0  0  0  0  0  0
   -7.2206   -7.6134    8.1271 C   0  0  0  0  0  0  0  0  0  0  0  0
   -6.4757   -6.4066    8.5416 C   0  0  0  0  0  0  0  0  0  0  0  0
   -5.0599   -6.6817    8.0526 C   0  0  0  0  0  0  0  0  0  0  0  0
   -5.1822   -7.8145    7.0706 C   0  0  0  0  0  0  0  0  0  0  0  0
   -4.2182   -8.4432    6.6977 O   0  0  0  0  0  0  0  0  0  0  0  0
  -15.3066   -9.5413    8.2451 H   0  0  0  0  0  0  0  0  0  0  0  0
  2  1  1  0  0  0
  2  3  1  0  0  0
  3  4  1  0  0  0
  4  5  1  0  0  0
  5  6  1  0  0  0
  6  7  1  0  0  0
  7  8  1  0  0  0
  8  9  1  0  0  0
  9 10  2  0  0  0
 10 11  1  0  0  0
 11 12  1  0  0  0
 11 13  2  0  0  0
 13 14  1  0  0  0
 14 15  2  0  0  0
  6 16  1  0  0  0
 16 17  1  0  0  0
 17 18  1  0  0  0
 18 19  1  0  0  0
 19 20  2  0  0  0
 16  2  1  0  0  0
 19  2  1  0  0  0
 15  5  1  0  0  0
 15  9  1  0  0  0
 12 21  1  0  0  0
M  END
> <minimizedAffinity>
-7.87170

> <CNNscore>
0.3419673145

> <CNNaffinity>
5.7049036026

> <CNN_VS>
1.9508905411

> <CNNaffinity_variance>
0.1747969836

$$$$
[H]Oc1c([H])c([H])c2c(c1[H])C([H])([H])C([H])([H])[C@]1([H])[C@]2([H])C([H])([H])C([H])([H])[C@]2(C([H])([H])[H])C(=O)C([H])([H])C([H])([H])[C@]21[H]


 21 24  0  0  0  0  0  0  0  0999 V2000
  -10.2431   -9.6145    6.8471 C   0  0  0  0  0  0  0  0  0  0  0  0
  -10.1528   -8.5944    7.9432 C   0  0  0  0  0  0  0  0  0  0  0  0
  -10.8816   -9.0285    9.1592 C   0  0  0  0  0  0  0  0  0  0  0  0
  -12.3416   -9.1732    8.8844 C   0  0  0  0  0  0  0  0  0  0  0  0
  -12.9204   -7.9103    8.3239 C   0  0  0  0  0  0  0  0  0  0  0  0
  -12.1348   -7.5070    7.0679 C   0  0  0  0  0  0  0  0  0  0  0  0
  -12.8209   -6.3681    6.3959 C   0  0  0  0  0  0  0  0  0  0  0  0
  -14.1138   -6.9115    5.7931 C   0  0  0  0  0  0  0  0  0  0  0  0
  -14.9131   -7.5165    6.8892 C   0  0  0  0  0  0  0  0  0  0  0  0
  -16.2781   -7.6056    6.6923 C   0  0  0  0  0  0  0  0  0  0  0  0
  -17.1228   -8.1511    7.6452 C   0  0  0  0  0  0  0  0  0  0  0  0
  -18.4957   -8.2418    7.4499 O   0  0  0  0  0  0  0  0  0  0  0  0
  -16.5700   -8.6153    8.8209 C   0  0  0  0  0  0  0  0  0  0  0  0
  -15.1911   -8.5224    9.0133 C   0  0  0  0  0  0  0  0  0  0  0  0
  -14.3552   -7.9790    8.0626 C   0  0  0  0  0  0  0  0  0  0  0  0
  -10.7467   -7.2450    7.5140 C   0  0  0  0  0  0  0  0  0  0  0  0
   -9.7892   -6.8050    6.4784 C   0  0  0  0  0  0  0  0  0  0  0  0
   -8.4410   -7.2379    7.0389 C   0  0  0  0  0  0  0  0  0  0  0  0
   -8.7530   -8.2210    8.1337 C   0  0  0  0  0  0  0  0  0  0  0  0
   -7.9228   -8.5547    8.9480 O   0  0  0  0  0  0  0  0  0  0  0  0
  -19.0542   -7.4362    7.7673 H   0  0  0  0  0  0  0  0  0  0  0  0
  2  1  1  0  0  0
  2  3  1  0  0  0
  3  4  1  0  0  0
  4  5  1  0  0  0
  5  6  1  0  0  0
  6  7  1  0  0  0
  7  8  1  0  0  0
  8  9  1  0  0  0
  9 10  2  0  0  0
 10 11  1  0  0  0
 11 12  1  0  0  0
 11 13  2  0  0  0
 13 14  1  0  0  0
 14 15  2  0  0  0
  6 16  1  0  0  0
 16 17  1  0  0  0
 17 18  1  0  0  0
 18 19  1  0  0  0
 19 20  2  0  0  0
 16  2  1  0  0  0
 19  2  1  0  0  0
 15  5  1  0  0  0
 15  9  1  0  0  0
 12 21  1  0  0  0
M  END
> <minimizedAffinity>
-0.72330

> <CNNscore>
0.3375675678

> <CNNaffinity>
5.8951587677

> <CNN_VS>
1.9900144339

> <CNNaffinity_variance>
0.5572742820

$$$$
[H]Oc1c([H])c([H])c2c(c1[H])C([H])([H])C([H])([H])[C@]1([H])[C@]2([H])C([H])([H])C([H])([H])[C@]2(C([H])([H])[H])C(=O)C([H])([H])C([H])([H])[C@]21[H]


 21 24  0  0  0  0  0  0  0  0999 V2000
  -15.2821   -5.8940    4.4898 C   0  0  0  0  0  0  0  0  0  0  0  0
  -16.2501   -7.0364    4.5815 C   0  0  0  0  0  0  0  0  0  0  0  0
  -17.1415   -6.9081    5.7592 C   0  0  0  0  0  0  0  0  0  0  0  0
  -16.3598   -6.9602    7.0297 C   0  0  0  0  0  0  0  0  0  0  0  0
  -15.5274   -8.2031    7.1092 C   0  0  0  0  0  0  0  0  0  0  0  0
  -14.6223   -8.2864    5.8717 C   0  0  0  0  0  0  0  0  0  0  0  0
  -13.6569   -9.4092    6.0357 C   0  0  0  0  0  0  0  0  0  0  0  0
  -12.6645   -8.9971    7.1201 C   0  0  0  0  0  0  0  0  0  0  0  0
  -13.4324   -8.6956    8.3553 C   0  0  0  0  0  0  0  0  0  0  0  0
  -12.7535   -8.7983    9.5546 C   0  0  0  0  0  0  0  0  0  0  0  0
  -13.3673   -8.5411   10.7696 C   0  0  0  0  0  0  0  0  0  0  0  0
  -12.6871   -8.6436   11.9770 O   0  0  0  0  0  0  0  0  0  0  0  0
  -14.6967   -8.1723   10.7660 C   0  0  0  0  0  0  0  0  0  0  0  0
  -15.3763   -8.0705    9.5516 C   0  0  0  0  0  0  0  0  0  0  0  0
  -14.7615   -8.3273    8.3459 C   0  0  0  0  0  0  0  0  0  0  0  0
  -15.5269   -8.3855    4.7029 C   0  0  0  0  0  0  0  0  0  0  0  0
  -14.8864   -8.5096    3.3772 C   0  0  0  0  0  0  0  0  0  0  0  0
  -15.9371   -7.9535    2.4253 C   0  0  0  0  0  0  0  0  0  0  0  0
  -16.9134   -7.2047    3.2904 C   0  0  0  0  0  0  0  0  0  0  0  0
  -18.0003   -6.8659    2.8810 O   0  0  0  0  0  0  0  0  0  0  0  0
  -12.7113   -9.5660   12.4355 H   0  0  0  0  0  0  0  0  0  0  0  0
  2  1  1  0  0  0
  2  3  1  0  0  0
  3  4  1  0  0  0
  4  5  1  0  0  0
  5  6  1  0  0  0
  6  7  1  0  0  0
  7  8  1  0  0  0
  8  9  1  0  0  0
  9 10  2  0  0  0
 10 11  1  0  0  0
 11 12  1  0  0  0
 11 13  2  0  0  0
 13 14  1  0  0  0
 14 15  2  0  0  0
  6 16  1  0  0  0
 16 17  1  0  0  0
 17 18  1  0  0  0
 18 19  1  0  0  0
 19 20  2  0  0  0
 16  2  1  0  0  0
 19  2  1  0  0  0
 15  5  1  0  0  0
 15  9  1  0  0  0
 12 21  1  0  0  0
M  END
> <minimizedAffinity>
-1.79050

> <CNNscore>
0.2722462416

> <CNNaffinity>
5.7828106880

> <CNN_VS>
1.5743484497

> <CNNaffinity_variance>
0.1144209951

$$$$
[H]Oc1c([H])c([H])c2c(c1[H])C([H])([H])C([H])([H])[C@]1([H])[C@]2([H])C([H])([H])C([H])([H])[C@]2(C([H])([H])[H])C(=O)C([H])([H])C([H])([H])[C@]21[H]


 21 24  0  0  0  0  0  0  0  0999 V2000
   -8.9655   -9.6156    8.8936 C   0  0  0  0  0  0  0  0  0  0  0  0
   -9.2823   -9.0164    7.5554 C   0  0  0  0  0  0  0  0  0  0  0  0
   -8.5861   -9.7275    6.4562 C   0  0  0  0  0  0  0  0  0  0  0  0
   -7.1049   -9.6054    6.5942 C   0  0  0  0  0  0  0  0  0  0  0  0
   -6.6792   -8.1712    6.6711 C   0  0  0  0  0  0  0  0  0  0  0  0
   -7.4239   -7.4830    7.8239 C   0  0  0  0  0  0  0  0  0  0  0  0
   -6.8662   -6.1173    8.0320 C   0  0  0  0  0  0  0  0  0  0  0  0
   -5.4679   -6.2850    8.6210 C   0  0  0  0  0  0  0  0  0  0  0  0
   -4.6686   -7.1104    7.6796 C   0  0  0  0  0  0  0  0  0  0  0  0
   -3.2949   -6.9719    7.7375 C   0  0  0  0  0  0  0  0  0  0  0  0
   -2.4493   -7.6902    6.9081 C   0  0  0  0  0  0  0  0  0  0  0  0
   -1.0676   -7.5530    6.9642 O   0  0  0  0  0  0  0  0  0  0  0  0
   -3.0104   -8.5665    6.0021 C   0  0  0  0  0  0  0  0  0  0  0  0
   -4.3982   -8.7016    5.9487 C   0  0  0  0  0  0  0  0  0  0  0  0
   -5.2349   -7.9849    6.7758 C   0  0  0  0  0  0  0  0  0  0  0  0
   -8.8636   -7.5410    7.4800 C   0  0  0  0  0  0  0  0  0  0  0  0
   -9.7991   -6.9086    8.4328 C   0  0  0  0  0  0  0  0  0  0  0  0
  -11.1057   -7.6521    8.1892 C   0  0  0  0  0  0  0  0  0  0  0  0
  -10.7317   -8.8895    7.4203 C   0  0  0  0  0  0  0  0  0  0  0  0
  -11.5598   -9.5600    6.8474 O   0  0  0  0  0  0  0  0  0  0  0  0
   -0.6574   -6.8312    6.3538 H   0  0  0  0  0  0  0  0  0  0  0  0
  2  1  1  0  0  0
  2  3  1  0  0  0
  3  4  1  0  0  0
  4  5  1  0  0  0
  5  6  1  0  0  0
  6  7  1  0  0  0
  7  8  1  0  0  0
  8  9  1  0  0  0
  9 10  2  0  0  0
 10 11  1  0  0  0
 11 12  1  0  0  0
 11 13  2  0  0  0
 13 14  1  0  0  0
 14 15  2  0  0  0
  6 16  1  0  0  0
 16 17  1  0  0  0
 17 18  1  0  0  0
 18 19  1  0  0  0
 19 20  2  0  0  0
 16  2  1  0  0  0
 19  2  1  0  0  0
 15  5  1  0  0  0
 15  9  1  0  0  0
 12 21  1  0  0  0
M  END
> <minimizedAffinity>
-2.93510

> <CNNscore>
0.2580521107

> <CNNaffinity>
5.1227827072

> <CNN_VS>
1.3219448328

> <CNNaffinity_variance>
0.4455200136

$$$$
[H]Oc1c([H])c([H])c2c(c1[H])C([H])([H])C([H])([H])[C@]1([H])[C@]2([H])C([H])([H])C([H])([H])[C@]2(C([H])([H])[H])C(=O)C([H])([H])C([H])([H])[C@]21[H]


 21 24  0  0  0  0  0  0  0  0999 V2000
   -4.9674   -6.0395    5.6282 C   0  0  0  0  0  0  0  0  0  0  0  0
   -3.8444   -5.5529    6.4955 C   0  0  0  0  0  0  0  0  0  0  0  0
   -3.8112   -4.0726    6.5726 C   0  0  0  0  0  0  0  0  0  0  0  0
   -3.5516   -3.4731    5.2305 C   0  0  0  0  0  0  0  0  0  0  0  0
   -2.2942   -4.0154    4.6232 C   0  0  0  0  0  0  0  0  0  0  0  0
   -2.3805   -5.5472    4.5631 C   0  0  0  0  0  0  0  0  0  0  0  0
   -1.2263   -6.0808    3.7869 C   0  0  0  0  0  0  0  0  0  0  0  0
   -1.4492   -5.6990    2.3257 C   0  0  0  0  0  0  0  0  0  0  0  0
   -1.5760   -4.2209    2.2511 C   0  0  0  0  0  0  0  0  0  0  0  0
   -1.2793   -3.6280    1.0387 C   0  0  0  0  0  0  0  0  0  0  0  0
   -1.3622   -2.2578    0.8520 C   0  0  0  0  0  0  0  0  0  0  0  0
   -1.0644   -1.6589   -0.3660 O   0  0  0  0  0  0  0  0  0  0  0  0
   -1.7544   -1.4748    1.9181 C   0  0  0  0  0  0  0  0  0  0  0  0
   -2.0527   -2.0798    3.1396 C   0  0  0  0  0  0  0  0  0  0  0  0
   -1.9686   -3.4429    3.3202 C   0  0  0  0  0  0  0  0  0  0  0  0
   -2.4779   -6.0118    5.9663 C   0  0  0  0  0  0  0  0  0  0  0  0
   -2.5427   -7.4726    6.1783 C   0  0  0  0  0  0  0  0  0  0  0  0
   -3.2577   -7.6027    7.5166 C   0  0  0  0  0  0  0  0  0  0  0  0
   -3.8868   -6.2607    7.7732 C   0  0  0  0  0  0  0  0  0  0  0  0
   -4.3059   -5.9501    8.8647 O   0  0  0  0  0  0  0  0  0  0  0  0
   -0.0839   -1.3742   -0.5049 H   0  0  0  0  0  0  0  0  0  0  0  0
  2  1  1  0  0  0
  2  3  1  0  0  0
  3  4  1  0  0  0
  4  5  1  0  0  0
  5  6  1  0  0  0
  6  7  1  0  0  0
  7  8  1  0  0  0
  8  9  1  0  0  0
  9 10  2  0  0  0
 10 11  1  0  0  0
 11 12  1  0  0  0
 11 13  2  0  0  0
 13 14  1  0  0  0
 14 15  2  0  0  0
  6 16  1  0  0  0
 16 17  1  0  0  0
 17 18  1  0  0  0
 18 19  1  0  0  0
 19 20  2  0  0  0
 16  2  1  0  0  0
 19  2  1  0  0  0
 15  5  1  0  0  0
 15  9  1  0  0  0
 12 21  1  0  0  0
M  END
> <minimizedAffinity>
-4.15445

> <CNNscore>
0.2373361439

> <CNNaffinity>
4.1098546982

> <CNN_VS>
0.9754170775

> <CNNaffinity_variance>
0.0944891497

$$$$
[H]Oc1c([H])c([H])c(C2=C(c3c([H])c([H])c([H])c([H])c3[H])c3c([H])c([H])c([H])c([H])c3C2=O)c([H])c1[H]


 24 27  0  0  0  0  0  0  0  0999 V2000
  -13.7074   -7.8983    8.5769 C   0  0  0  0  0  0  0  0  0  0  0  0
  -13.1451   -7.2926    9.5899 C   0  0  0  0  0  0  0  0  0  0  0  0
  -13.0805   -8.2073   10.7684 C   0  0  0  0  0  0  0  0  0  0  0  0
  -12.5958   -8.0682   12.0551 C   0  0  0  0  0  0  0  0  0  0  0  0
  -12.6501   -9.0759   12.9817 C   0  0  0  0  0  0  0  0  0  0  0  0
  -13.2027  -10.2863   12.6499 C   0  0  0  0  0  0  0  0  0  0  0  0
  -13.6927  -10.4507   11.3745 C   0  0  0  0  0  0  0  0  0  0  0  0
  -13.6318   -9.4226   10.4455 C   0  0  0  0  0  0  0  0  0  0  0  0
  -14.0458   -9.2797    9.0644 C   0  0  0  0  0  0  0  0  0  0  0  0
  -14.5952  -10.1643    8.3902 O   0  0  0  0  0  0  0  0  0  0  0  0
  -14.9179   -6.1408    3.3468 O   0  0  0  0  0  0  0  0  0  0  0  0
  -14.6276   -6.5812    4.6297 C   0  0  0  0  0  0  0  0  0  0  0  0
  -14.0881   -7.8269    4.8228 C   0  0  0  0  0  0  0  0  0  0  0  0
  -13.8014   -8.2571    6.1137 C   0  0  0  0  0  0  0  0  0  0  0  0
  -14.0240   -7.5091    7.2177 C   0  0  0  0  0  0  0  0  0  0  0  0
  -14.5774   -6.2341    7.0151 C   0  0  0  0  0  0  0  0  0  0  0  0
  -14.8681   -5.7906    5.7501 C   0  0  0  0  0  0  0  0  0  0  0  0
  -15.3107   -5.2465    3.1408 H   0  0  0  0  0  0  0  0  0  0  0  0
  -12.6131   -5.9381    9.7052 C   0  0  0  0  0  0  0  0  0  0  0  0
  -13.5127   -5.0158   10.2915 C   0  0  0  0  0  0  0  0  0  0  0  0
  -13.1076   -3.7320   10.4935 C   0  0  0  0  0  0  0  0  0  0  0  0
  -11.8422   -3.3230   10.1371 C   0  0  0  0  0  0  0  0  0  0  0  0
  -10.9727   -4.2051    9.5736 C   0  0  0  0  0  0  0  0  0  0  0  0
  -11.3646   -5.5217    9.3582 C   0  0  0  0  0  0  0  0  0  0  0  0
 11 12  1  0  0  0
 12 13  2  0  0  0
 13 14  1  0  0  0
 14 15  2  0  0  0
 15 16  1  0  0  0
 16 17  2  0  0  0
 15  1  1  0  0  0
  1  2  2  0  0  0
  2 19  1  0  0  0
 19 20  2  0  0  0
 20 21  1  0  0  0
 21 22  2  0  0  0
 22 23  1  0  0  0
 23 24  2  0  0  0
  2  3  1  0  0  0
  3  4  2  0  0  0
  4  5  1  0  0  0
  5  6  2  0  0  0
  6  7  1  0  0  0
  7  8  2  0  0  0
  8  9  1  0  0  0
  9 10  2  0  0  0
 17 12  1  0  0  0
  9  1  1  0  0  0
 24 19  1  0  0  0
  8  3  1  0  0  0
 11 18  1  0  0  0
M  END
> <minimizedAffinity>
14.65701

> <CNNscore>
0.5312785506

> <CNNaffinity>
6.0847787857

> <CNN_VS>
3.2327125072

> <CNNaffinity_variance>
1.5218635798

$$$$
[H]Oc1c([H])c([H])c(C2=C(c3c([H])c([H])c([H])c([H])c3[H])c3c([H])c([H])c([H])c([H])c3C2=O)c([H])c1[H]


 24 27  0  0  0  0  0  0  0  0999 V2000
   -9.0828   -9.3714    5.9389 C   0  0  0  0  0  0  0  0  0  0  0  0
   -8.4953   -8.4311    6.6316 C   0  0  0  0  0  0  0  0  0  0  0  0
   -9.4010   -7.9435    7.7140 C   0  0  0  0  0  0  0  0  0  0  0  0
   -9.2734   -6.9851    8.7014 C   0  0  0  0  0  0  0  0  0  0  0  0
  -10.2688   -6.7098    9.6017 C   0  0  0  0  0  0  0  0  0  0  0  0
  -11.4544   -7.3968    9.5476 C   0  0  0  0  0  0  0  0  0  0  0  0
  -11.6069   -8.3567    8.5733 C   0  0  0  0  0  0  0  0  0  0  0  0
  -10.5915   -8.6260    7.6678 C   0  0  0  0  0  0  0  0  0  0  0  0
  -10.4418   -9.5454    6.5579 C   0  0  0  0  0  0  0  0  0  0  0  0
  -11.3053  -10.3515    6.1792 O   0  0  0  0  0  0  0  0  0  0  0  0
   -7.3393  -12.4104    1.5080 O   0  0  0  0  0  0  0  0  0  0  0  0
   -7.7781  -11.6649    2.5923 C   0  0  0  0  0  0  0  0  0  0  0  0
   -8.6982  -12.1923    3.4614 C   0  0  0  0  0  0  0  0  0  0  0  0
   -9.1304  -11.4351    4.5447 C   0  0  0  0  0  0  0  0  0  0  0  0
   -8.6913  -10.1830    4.8044 C   0  0  0  0  0  0  0  0  0  0  0  0
   -7.7494   -9.6466    3.9111 C   0  0  0  0  0  0  0  0  0  0  0  0
   -7.3103  -10.3765    2.8359 C   0  0  0  0  0  0  0  0  0  0  0  0
   -6.6725  -12.0835    0.8410 H   0  0  0  0  0  0  0  0  0  0  0  0
   -7.1668   -7.8426    6.4910 C   0  0  0  0  0  0  0  0  0  0  0  0
   -6.1316   -8.6176    7.0665 C   0  0  0  0  0  0  0  0  0  0  0  0
   -4.8438   -8.1908    6.9547 C   0  0  0  0  0  0  0  0  0  0  0  0
   -4.5385   -7.0227    6.2932 C   0  0  0  0  0  0  0  0  0  0  0  0
   -5.5291   -6.2736    5.7373 C   0  0  0  0  0  0  0  0  0  0  0  0
   -6.8519   -6.6903    5.8385 C   0  0  0  0  0  0  0  0  0  0  0  0
 11 12  1  0  0  0
 12 13  2  0  0  0
 13 14  1  0  0  0
 14 15  2  0  0  0
 15 16  1  0  0  0
 16 17  2  0  0  0
 15  1  1  0  0  0
  1  2  2  0  0  0
  2 19  1  0  0  0
 19 20  2  0  0  0
 20 21  1  0  0  0
 21 22  2  0  0  0
 22 23  1  0  0  0
 23 24  2  0  0  0
  2  3  1  0  0  0
  3  4  2  0  0  0
  4  5  1  0  0  0
  5  6  2  0  0  0
  6  7  1  0  0  0
  7  8  2  0  0  0
  8  9  1  0  0  0
  9 10  2  0  0  0
 17 12  1  0  0  0
  9  1  1  0  0  0
 24 19  1  0  0  0
  8  3  1  0  0  0
 11 18  1  0  0  0
M  END
> <minimizedAffinity>
9.33836

> <CNNscore>
0.4972203672

> <CNNaffinity>
5.4128990173

> <CNN_VS>
2.6914036274

> <CNNaffinity_variance>
0.7784051299

$$$$
[H]Oc1c([H])c([H])c(C2=C(c3c([H])c([H])c([H])c([H])c3[H])c3c([H])c([H])c([H])c([H])c3C2=O)c([H])c1[H]


 24 27  0  0  0  0  0  0  0  0999 V2000
  -10.6136   -8.4200    8.0650 C   0  0  0  0  0  0  0  0  0  0  0  0
   -9.9880   -7.3145    8.3741 C   0  0  0  0  0  0  0  0  0  0  0  0
  -10.8930   -6.4040    9.1367 C   0  0  0  0  0  0  0  0  0  0  0  0
  -10.7339   -5.1459    9.6861 C   0  0  0  0  0  0  0  0  0  0  0  0
  -11.7365   -4.4969   10.3574 C   0  0  0  0  0  0  0  0  0  0  0  0
  -12.9619   -5.0939   10.5080 C   0  0  0  0  0  0  0  0  0  0  0  0
  -13.1463   -6.3470    9.9700 C   0  0  0  0  0  0  0  0  0  0  0  0
  -12.1232   -6.9934    9.2925 C   0  0  0  0  0  0  0  0  0  0  0  0
  -11.9994   -8.2761    8.6300 C   0  0  0  0  0  0  0  0  0  0  0  0
  -12.9012   -9.1235    8.5441 O   0  0  0  0  0  0  0  0  0  0  0  0
   -8.9951  -13.1662    5.4645 O   0  0  0  0  0  0  0  0  0  0  0  0
   -9.3944  -11.9959    6.0930 C   0  0  0  0  0  0  0  0  0  0  0  0
  -10.6513  -11.4933    5.8747 C   0  0  0  0  0  0  0  0  0  0  0  0
  -11.0400  -10.3192    6.5106 C   0  0  0  0  0  0  0  0  0  0  0  0
  -10.2409   -9.6245    7.3513 C   0  0  0  0  0  0  0  0  0  0  0  0
   -8.9540  -10.1428    7.5713 C   0  0  0  0  0  0  0  0  0  0  0  0
   -8.5506  -11.2992    6.9536 C   0  0  0  0  0  0  0  0  0  0  0  0
   -8.0953  -13.5821    5.5820 H   0  0  0  0  0  0  0  0  0  0  0  0
   -8.6204   -6.8904    8.0894 C   0  0  0  0  0  0  0  0  0  0  0  0
   -7.6867   -7.2536    9.0892 C   0  0  0  0  0  0  0  0  0  0  0  0
   -6.3716   -6.9521    8.9087 C   0  0  0  0  0  0  0  0  0  0  0  0
   -5.9420   -6.3029    7.7732 C   0  0  0  0  0  0  0  0  0  0  0  0
   -6.8347   -5.9517    6.8082 C   0  0  0  0  0  0  0  0  0  0  0  0
   -8.1830   -6.2499    6.9708 C   0  0  0  0  0  0  0  0  0  0  0  0
 11 12  1  0  0  0
 12 13  2  0  0  0
 13 14  1  0  0  0
 14 15  2  0  0  0
 15 16  1  0  0  0
 16 17  2  0  0  0
 15  1  1  0  0  0
  1  2  2  0  0  0
  2 19  1  0  0  0
 19 20  2  0  0  0
 20 21  1  0  0  0
 21 22  2  0  0  0
 22 23  1  0  0  0
 23 24  2  0  0  0
  2  3  1  0  0  0
  3  4  2  0  0  0
  4  5  1  0  0  0
  5  6  2  0  0  0
  6  7  1  0  0  0
  7  8  2  0  0  0
  8  9  1  0  0  0
  9 10  2  0  0  0
 17 12  1  0  0  0
  9  1  1  0  0  0
 24 19  1  0  0  0
  8  3  1  0  0  0
 11 18  1  0  0  0
M  END
> <minimizedAffinity>
2.00458

> <CNNscore>
0.4805551767

> <CNNaffinity>
5.8072123528

> <CNN_VS>
2.7906858921

> <CNNaffinity_variance>
1.1498247385

$$$$
[H]Oc1c([H])c([H])c(C2=C(c3c([H])c([H])c([H])c([H])c3[H])c3c([H])c([H])c([H])c([H])c3C2=O)c([H])c1[H]


 24 27  0  0  0  0  0  0  0  0999 V2000
  -14.0723   -7.1166    6.4789 C   0  0  0  0  0  0  0  0  0  0  0  0
  -13.4123   -7.2830    7.5951 C   0  0  0  0  0  0  0  0  0  0  0  0
  -13.3075   -8.7362    7.9221 C   0  0  0  0  0  0  0  0  0  0  0  0
  -12.7272   -9.4378    8.9618 C   0  0  0  0  0  0  0  0  0  0  0  0
  -12.7630  -10.8048    9.0459 C   0  0  0  0  0  0  0  0  0  0  0  0
  -13.3936  -11.5375    8.0731 C   0  0  0  0  0  0  0  0  0  0  0  0
  -13.9796  -10.8626    7.0268 C   0  0  0  0  0  0  0  0  0  0  0  0
  -13.9364   -9.4782    6.9532 C   0  0  0  0  0  0  0  0  0  0  0  0
  -14.4397   -8.4978    6.0125 C   0  0  0  0  0  0  0  0  0  0  0  0
  -15.0761   -8.7615    4.9808 O   0  0  0  0  0  0  0  0  0  0  0  0
  -15.4478   -2.6754    3.2708 O   0  0  0  0  0  0  0  0  0  0  0  0
  -15.1115   -3.7597    4.0679 C   0  0  0  0  0  0  0  0  0  0  0  0
  -16.0034   -4.2332    4.9954 C   0  0  0  0  0  0  0  0  0  0  0  0
  -15.6547   -5.3209    5.7887 C   0  0  0  0  0  0  0  0  0  0  0  0
  -14.4655   -5.9584    5.7024 C   0  0  0  0  0  0  0  0  0  0  0  0
  -13.5548   -5.4693    4.7513 C   0  0  0  0  0  0  0  0  0  0  0  0
  -13.8787   -4.3973    3.9592 C   0  0  0  0  0  0  0  0  0  0  0  0
  -14.8437   -2.2845    2.5789 H   0  0  0  0  0  0  0  0  0  0  0  0
  -12.8107   -6.3021    8.4934 C   0  0  0  0  0  0  0  0  0  0  0  0
  -13.7464   -5.6169    9.3050 C   0  0  0  0  0  0  0  0  0  0  0  0
  -13.2956   -4.7116   10.2161 C   0  0  0  0  0  0  0  0  0  0  0  0
  -11.9500   -4.4564   10.3567 C   0  0  0  0  0  0  0  0  0  0  0  0
  -11.0457   -5.1122    9.5799 C   0  0  0  0  0  0  0  0  0  0  0  0
  -11.4831   -6.0417    8.6427 C   0  0  0  0  0  0  0  0  0  0  0  0
 11 12  1  0  0  0
 12 13  2  0  0  0
 13 14  1  0  0  0
 14 15  2  0  0  0
 15 16  1  0  0  0
 16 17  2  0  0  0
 15  1  1  0  0  0
  1  2  2  0  0  0
  2 19  1  0  0  0
 19 20  2  0  0  0
 20 21  1  0  0  0
 21 22  2  0  0  0
 22 23  1  0  0  0
 23 24  2  0  0  0
  2  3  1  0  0  0
  3  4  2  0  0  0
  4  5  1  0  0  0
  5  6  2  0  0  0
  6  7  1  0  0  0
  7  8  2  0  0  0
  8  9  1  0  0  0
  9 10  2  0  0  0
 17 12  1  0  0  0
  9  1  1  0  0  0
 24 19  1  0  0  0
  8  3  1  0  0  0
 11 18  1  0  0  0
M  END
> <minimizedAffinity>
4.25184

> <CNNscore>
0.4366756082

> <CNNaffinity>
5.9968476295

> <CNN_VS>
2.6186771393

> <CNNaffinity_variance>
1.3245166540

$$$$
[H]Oc1c([H])c([H])c(C2=C(c3c([H])c([H])c([H])c([H])c3[H])c3c([H])c([H])c([H])c([H])c3C2=O)c([H])c1[H]


 24 27  0  0  0  0  0  0  0  0999 V2000
  -15.8726   -7.7380    7.5025 C   0  0  0  0  0  0  0  0  0  0  0  0
  -14.9491   -6.8873    7.1383 C   0  0  0  0  0  0  0  0  0  0  0  0
  -13.8846   -6.8013    8.1819 C   0  0  0  0  0  0  0  0  0  0  0  0
  -12.7155   -6.0725    8.2905 C   0  0  0  0  0  0  0  0  0  0  0  0
  -11.8803   -6.1659    9.3726 C   0  0  0  0  0  0  0  0  0  0  0  0
  -12.1890   -7.0093   10.4089 C   0  0  0  0  0  0  0  0  0  0  0  0
  -13.3481   -7.7465   10.3253 C   0  0  0  0  0  0  0  0  0  0  0  0
  -14.1852   -7.6429    9.2243 C   0  0  0  0  0  0  0  0  0  0  0  0
  -15.4384   -8.2622    8.8431 C   0  0  0  0  0  0  0  0  0  0  0  0
  -16.0559   -9.0970    9.5217 O   0  0  0  0  0  0  0  0  0  0  0  0
  -20.7997   -9.4763    5.3554 O   0  0  0  0  0  0  0  0  0  0  0  0
  -19.5847   -9.0586    5.8782 C   0  0  0  0  0  0  0  0  0  0  0  0
  -18.5221   -8.8239    5.0440 C   0  0  0  0  0  0  0  0  0  0  0  0
  -17.3091   -8.4055    5.5801 C   0  0  0  0  0  0  0  0  0  0  0  0
  -17.1041   -8.2087    6.9019 C   0  0  0  0  0  0  0  0  0  0  0  0
  -18.1952   -8.4511    7.7527 C   0  0  0  0  0  0  0  0  0  0  0  0
  -19.4002   -8.8649    7.2445 C   0  0  0  0  0  0  0  0  0  0  0  0
  -21.6091   -9.6634    5.9089 H   0  0  0  0  0  0  0  0  0  0  0  0
  -14.8360   -6.0731    5.9320 C   0  0  0  0  0  0  0  0  0  0  0  0
  -14.4262   -6.7971    4.7868 C   0  0  0  0  0  0  0  0  0  0  0  0
  -14.3322   -6.1506    3.5926 C   0  0  0  0  0  0  0  0  0  0  0  0
  -14.6289   -4.8104    3.4861 C   0  0  0  0  0  0  0  0  0  0  0  0
  -15.0240   -4.1091    4.5833 C   0  0  0  0  0  0  0  0  0  0  0  0
  -15.1277   -4.7489    5.8135 C   0  0  0  0  0  0  0  0  0  0  0  0
 11 12  1  0  0  0
 12 13  2  0  0  0
 13 14  1  0  0  0
 14 15  2  0  0  0
 15 16  1  0  0  0
 16 17  2  0  0  0
 15  1  1  0  0  0
  1  2  2  0  0  0
  2 19  1  0  0  0
 19 20  2  0  0  0
 20 21  1  0  0  0
 21 22  2  0  0  0
 22 23  1  0  0  0
 23 24  2  0  0  0
  2  3  1  0  0  0
  3  4  2  0  0  0
  4  5  1  0  0  0
  5  6  2  0  0  0
  6  7  1  0  0  0
  7  8  2  0  0  0
  8  9  1  0  0  0
  9 10  2  0  0  0
 17 12  1  0  0  0
  9  1  1  0  0  0
 24 19  1  0  0  0
  8  3  1  0  0  0
 11 18  1  0  0  0
M  END
> <minimizedAffinity>
-0.99670

> <CNNscore>
0.3971386254

> <CNNaffinity>
5.9902396202

> <CNN_VS>
2.3789556026

> <CNNaffinity_variance>
0.9515497088

$$$$
[H]Oc1c([H])c([H])c(C2=C(c3c([H])c([H])c([H])c([H])c3[H])c3c([H])c([H])c([H])c([H])c3C2=O)c([H])c1[H]


 24 27  0  0  0  0  0  0  0  0999 V2000
   -9.8560   -8.0013    7.7108 C   0  0  0  0  0  0  0  0  0  0  0  0
   -8.8933   -8.6845    7.1489 C   0  0  0  0  0  0  0  0  0  0  0  0
   -7.5721   -8.0537    7.4423 C   0  0  0  0  0  0  0  0  0  0  0  0
   -6.2710   -8.3665    7.0972 C   0  0  0  0  0  0  0  0  0  0  0  0
   -5.1963   -7.6165    7.4967 C   0  0  0  0  0  0  0  0  0  0  0  0
   -5.3859   -6.5017    8.2726 C   0  0  0  0  0  0  0  0  0  0  0  0
   -6.6723   -6.1683    8.6301 C   0  0  0  0  0  0  0  0  0  0  0  0
   -7.7518   -6.9360    8.2193 C   0  0  0  0  0  0  0  0  0  0  0  0
   -9.1848   -6.8573    8.4188 C   0  0  0  0  0  0  0  0  0  0  0  0
   -9.7656   -5.9789    9.0743 O   0  0  0  0  0  0  0  0  0  0  0  0
  -15.4507   -8.6522    8.1393 O   0  0  0  0  0  0  0  0  0  0  0  0
  -14.0775   -8.4943    8.0229 C   0  0  0  0  0  0  0  0  0  0  0  0
  -13.5648   -7.5269    7.1975 C   0  0  0  0  0  0  0  0  0  0  0  0
  -12.1863   -7.3784    7.0893 C   0  0  0  0  0  0  0  0  0  0  0  0
  -11.2969   -8.1430    7.7618 C   0  0  0  0  0  0  0  0  0  0  0  0
  -11.8268   -9.1331    8.6056 C   0  0  0  0  0  0  0  0  0  0  0  0
  -13.1833   -9.2967    8.7264 C   0  0  0  0  0  0  0  0  0  0  0  0
  -15.8850   -9.3364    8.7221 H   0  0  0  0  0  0  0  0  0  0  0  0
   -8.9434   -9.8940    6.3330 C   0  0  0  0  0  0  0  0  0  0  0  0
   -9.5472  -10.9986    6.9802 C   0  0  0  0  0  0  0  0  0  0  0  0
   -9.6923  -12.1679    6.2986 C   0  0  0  0  0  0  0  0  0  0  0  0
   -9.2619  -12.2880    4.9963 C   0  0  0  0  0  0  0  0  0  0  0  0
   -8.6813  -11.2295    4.3685 C   0  0  0  0  0  0  0  0  0  0  0  0
   -8.5232  -10.0250    5.0450 C   0  0  0  0  0  0  0  0  0  0  0  0
 11 12  1  0  0  0
 12 13  2  0  0  0
 13 14  1  0  0  0
 14 15  2  0  0  0
 15 16  1  0  0  0
 16 17  2  0  0  0
 15  1  1  0  0  0
  1  2  2  0  0  0
  2 19  1  0  0  0
 19 20  2  0  0  0
 20 21  1  0  0  0
 21 22  2  0  0  0
 22 23  1  0  0  0
 23 24  2  0  0  0
  2  3  1  0  0  0
  3  4  2  0  0  0
  4  5  1  0  0  0
  5  6  2  0  0  0
  6  7  1  0  0  0
  7  8  2  0  0  0
  8  9  1  0  0  0
  9 10  2  0  0  0
 17 12  1  0  0  0
  9  1  1  0  0  0
 24 19  1  0  0  0
  8  3  1  0  0  0
 11 18  1  0  0  0
M  END
> <minimizedAffinity>
5.34147

> <CNNscore>
0.3870426118

> <CNNaffinity>
5.6712350845

> <CNN_VS>
2.1950097084

> <CNNaffinity_variance>
0.9230067134

$$$$
[H]Oc1c([H])c([H])c(C2=C(c3c([H])c([H])c([H])c([H])c3[H])c3c([H])c([H])c([H])c([H])c3C2=O)c([H])c1[H]


 24 27  0  0  0  0  0  0  0  0999 V2000
  -11.3019   -7.2371    8.5518 C   0  0  0  0  0  0  0  0  0  0  0  0
  -11.8887   -8.1034    7.7679 C   0  0  0  0  0  0  0  0  0  0  0  0
  -10.9134   -9.1437    7.3249 C   0  0  0  0  0  0  0  0  0  0  0  0
  -11.0133  -10.2566    6.5117 C   0  0  0  0  0  0  0  0  0  0  0  0
   -9.9510  -11.0802    6.2469 C   0  0  0  0  0  0  0  0  0  0  0  0
   -8.7226  -10.8167    6.7967 C   0  0  0  0  0  0  0  0  0  0  0  0
   -8.5965   -9.7140    7.6104 C   0  0  0  0  0  0  0  0  0  0  0  0
   -9.6797   -8.8880    7.8707 C   0  0  0  0  0  0  0  0  0  0  0  0
   -9.8715   -7.6875    8.6590 C   0  0  0  0  0  0  0  0  0  0  0  0
   -8.9881   -7.1206    9.3200 O   0  0  0  0  0  0  0  0  0  0  0  0
  -12.8893   -2.4744   11.1412 O   0  0  0  0  0  0  0  0  0  0  0  0
  -12.5002   -3.6495   10.5152 C   0  0  0  0  0  0  0  0  0  0  0  0
  -13.3180   -4.7495   10.5496 C   0  0  0  0  0  0  0  0  0  0  0  0
  -12.9168   -5.9219    9.9183 C   0  0  0  0  0  0  0  0  0  0  0  0
  -11.7454   -6.0509    9.2556 C   0  0  0  0  0  0  0  0  0  0  0  0
  -10.9106   -4.9217    9.2237 C   0  0  0  0  0  0  0  0  0  0  0  0
  -11.2872   -3.7557    9.8404 C   0  0  0  0  0  0  0  0  0  0  0  0
  -12.3400   -1.6411   11.1520 H   0  0  0  0  0  0  0  0  0  0  0  0
  -13.2718   -8.1763    7.3065 C   0  0  0  0  0  0  0  0  0  0  0  0
  -14.1915   -8.5685    8.3084 C   0  0  0  0  0  0  0  0  0  0  0  0
  -15.5174   -8.6251    8.0054 C   0  0  0  0  0  0  0  0  0  0  0  0
  -15.9712   -8.3075    6.7449 C   0  0  0  0  0  0  0  0  0  0  0  0
  -15.0920   -7.9291    5.7777 C   0  0  0  0  0  0  0  0  0  0  0  0
  -13.7330   -7.8637    6.0646 C   0  0  0  0  0  0  0  0  0  0  0  0
 11 12  1  0  0  0
 12 13  2  0  0  0
 13 14  1  0  0  0
 14 15  2  0  0  0
 15 16  1  0  0  0
 16 17  2  0  0  0
 15  1  1  0  0  0
  1  2  2  0  0  0
  2 19  1  0  0  0
 19 20  2  0  0  0
 20 21  1  0  0  0
 21 22  2  0  0  0
 22 23  1  0  0  0
 23 24  2  0  0  0
  2  3  1  0  0  0
  3  4  2  0  0  0
  4  5  1  0  0  0
  5  6  2  0  0  0
  6  7  1  0  0  0
  7  8  2  0  0  0
  8  9  1  0  0  0
  9 10  2  0  0  0
 17 12  1  0  0  0
  9  1  1  0  0  0
 24 19  1  0  0  0
  8  3  1  0  0  0
 11 18  1  0  0  0
M  END
> <minimizedAffinity>
-1.07245

> <CNNscore>
0.3854783475

> <CNNaffinity>
5.6913795471

> <CNN_VS>
2.1939036846

> <CNNaffinity_variance>
0.8313535452

$$$$
[H]Oc1c([H])c([H])c(C2=C(c3c([H])c([H])c([H])c([H])c3[H])c3c([H])c([H])c([H])c([H])c3C2=O)c([H])c1[H]


 24 27  0  0  0  0  0  0  0  0999 V2000
  -12.7639   -7.0563    8.9200 C   0  0  0  0  0  0  0  0  0  0  0  0
  -11.4813   -6.9519    9.1507 C   0  0  0  0  0  0  0  0  0  0  0  0
  -11.2452   -6.3776   10.5087 C   0  0  0  0  0  0  0  0  0  0  0  0
  -10.1050   -6.0686   11.2258 C   0  0  0  0  0  0  0  0  0  0  0  0
  -10.1431   -5.5363   12.4876 C   0  0  0  0  0  0  0  0  0  0  0  0
  -11.3483   -5.2874   13.0929 C   0  0  0  0  0  0  0  0  0  0  0  0
  -12.4990   -5.5862   12.3999 C   0  0  0  0  0  0  0  0  0  0  0  0
  -12.4469   -6.1249   11.1229 C   0  0  0  0  0  0  0  0  0  0  0  0
  -13.4443   -6.5381   10.1566 C   0  0  0  0  0  0  0  0  0  0  0  0
  -14.6713   -6.4730   10.3269 O   0  0  0  0  0  0  0  0  0  0  0  0
  -15.6276   -9.0025    4.4569 O   0  0  0  0  0  0  0  0  0  0  0  0
  -14.9317   -8.5159    5.5537 C   0  0  0  0  0  0  0  0  0  0  0  0
  -15.5690   -8.3597    6.7576 C   0  0  0  0  0  0  0  0  0  0  0  0
  -14.8606   -7.8710    7.8499 C   0  0  0  0  0  0  0  0  0  0  0  0
  -13.5525   -7.5327    7.8018 C   0  0  0  0  0  0  0  0  0  0  0  0
  -12.9039   -7.6937    6.5663 C   0  0  0  0  0  0  0  0  0  0  0  0
  -13.5844   -8.1737    5.4763 C   0  0  0  0  0  0  0  0  0  0  0  0
  -15.2212   -9.1386    3.5554 H   0  0  0  0  0  0  0  0  0  0  0  0
  -10.3382   -7.2996    8.3121 C   0  0  0  0  0  0  0  0  0  0  0  0
  -10.0684   -8.6880    8.2558 C   0  0  0  0  0  0  0  0  0  0  0  0
   -9.0538   -9.1345    7.4658 C   0  0  0  0  0  0  0  0  0  0  0  0
   -8.2923   -8.2579    6.7261 C   0  0  0  0  0  0  0  0  0  0  0  0
   -8.5471   -6.9222    6.7754 C   0  0  0  0  0  0  0  0  0  0  0  0
   -9.5790   -6.4433    7.5751 C   0  0  0  0  0  0  0  0  0  0  0  0
 11 12  1  0  0  0
 12 13  2  0  0  0
 13 14  1  0  0  0
 14 15  2  0  0  0
 15 16  1  0  0  0
 16 17  2  0  0  0
 15  1  1  0  0  0
  1  2  2  0  0  0
  2 19  1  0  0  0
 19 20  2  0  0  0
 20 21  1  0  0  0
 21 22  2  0  0  0
 22 23  1  0  0  0
 23 24  2  0  0  0
  2  3  1  0  0  0
  3  4  2  0  0  0
  4  5  1  0  0  0
  5  6  2  0  0  0
  6  7  1  0  0  0
  7  8  2  0  0  0
  8  9  1  0  0  0
  9 10  2  0  0  0
 17 12  1  0  0  0
  9  1  1  0  0  0
 24 19  1  0  0  0
  8  3  1  0  0  0
 11 18  1  0  0  0
M  END
> <minimizedAffinity>
-0.51122

> <CNNscore>
0.3427047431

> <CNNaffinity>
5.8551893234

> <CNN_VS>
2.0066010952

> <CNNaffinity_variance>
0.5720018744

$$$$
[H]Oc1c([H])c([H])c(C2=C(c3c([H])c([H])c([H])c([H])c3[H])c3c([H])c([H])c([H])c([H])c3C2=O)c([H])c1[H]


 24 27  0  0  0  0  0  0  0  0999 V2000
  -14.2397   -8.0466    7.5229 C   0  0  0  0  0  0  0  0  0  0  0  0
  -13.1837   -8.2584    8.2640 C   0  0  0  0  0  0  0  0  0  0  0  0
  -13.5791   -8.4121    9.6957 C   0  0  0  0  0  0  0  0  0  0  0  0
  -12.8700   -8.6449   10.8587 C   0  0  0  0  0  0  0  0  0  0  0  0
  -13.4703   -8.7491   12.0859 C   0  0  0  0  0  0  0  0  0  0  0  0
  -14.8310   -8.6218   12.1989 C   0  0  0  0  0  0  0  0  0  0  0  0
  -15.5605   -8.3894   11.0554 C   0  0  0  0  0  0  0  0  0  0  0  0
  -14.9408   -8.2860    9.8189 C   0  0  0  0  0  0  0  0  0  0  0  0
  -15.4091   -8.0527    8.4677 C   0  0  0  0  0  0  0  0  0  0  0  0
  -16.5946   -7.8842    8.1438 O   0  0  0  0  0  0  0  0  0  0  0  0
  -15.1438   -7.4452    1.9795 O   0  0  0  0  0  0  0  0  0  0  0  0
  -14.9130   -7.5857    3.3400 C   0  0  0  0  0  0  0  0  0  0  0  0
  -14.9481   -6.4872    4.1598 C   0  0  0  0  0  0  0  0  0  0  0  0
  -14.7151   -6.6409    5.5222 C   0  0  0  0  0  0  0  0  0  0  0  0
  -14.4511   -7.8315    6.1058 C   0  0  0  0  0  0  0  0  0  0  0  0
  -14.4154   -8.9539    5.2619 C   0  0  0  0  0  0  0  0  0  0  0  0
  -14.6419   -8.8241    3.9153 C   0  0  0  0  0  0  0  0  0  0  0  0
  -15.1321   -8.2044    1.3315 H   0  0  0  0  0  0  0  0  0  0  0  0
  -11.7743   -8.3562    7.8964 C   0  0  0  0  0  0  0  0  0  0  0  0
  -11.0352   -7.1729    8.1349 C   0  0  0  0  0  0  0  0  0  0  0  0
   -9.6992   -7.1621    7.8745 C   0  0  0  0  0  0  0  0  0  0  0  0
   -9.0628   -8.2808    7.3853 C   0  0  0  0  0  0  0  0  0  0  0  0
   -9.7678   -9.4215    7.1545 C   0  0  0  0  0  0  0  0  0  0  0  0
  -11.1335   -9.4557    7.4138 C   0  0  0  0  0  0  0  0  0  0  0  0
 11 12  1  0  0  0
 12 13  2  0  0  0
 13 14  1  0  0  0
 14 15  2  0  0  0
 15 16  1  0  0  0
 16 17  2  0  0  0
 15  1  1  0  0  0
  1  2  2  0  0  0
  2 19  1  0  0  0
 19 20  2  0  0  0
 20 21  1  0  0  0
 21 22  2  0  0  0
 22 23  1  0  0  0
 23 24  2  0  0  0
  2  3  1  0  0  0
  3  4  2  0  0  0
  4  5  1  0  0  0
  5  6  2  0  0  0
  6  7  1  0  0  0
  7  8  2  0  0  0
  8  9  1  0  0  0
  9 10  2  0  0  0
 17 12  1  0  0  0
  9  1  1  0  0  0
 24 19  1  0  0  0
  8  3  1  0  0  0
 11 18  1  0  0  0
M  END
> <minimizedAffinity>
-0.03234

> <CNNscore>
0.3164677322

> <CNNaffinity>
5.9135870934

> <CNN_VS>
1.8714594841

> <CNNaffinity_variance>
0.5846197009

$$$$
[H]Oc1c([H])c([H])c(C2=C(c3c([H])c([H])c([H])c([H])c3[H])c3c([H])c([H])c([H])c([H])c3C2=O)c([H])c1[H]


 24 27  0  0  0  0  0  0  0  0999 V2000
  -14.3156   -8.0770    8.8861 C   0  0  0  0  0  0  0  0  0  0  0  0
  -13.8670   -6.9282    8.4151 C   0  0  0  0  0  0  0  0  0  0  0  0
  -14.5524   -6.5811    7.1577 C   0  0  0  0  0  0  0  0  0  0  0  0
  -14.4717   -5.5253    6.2721 C   0  0  0  0  0  0  0  0  0  0  0  0
  -15.2679   -5.4806    5.1472 C   0  0  0  0  0  0  0  0  0  0  0  0
  -16.1699   -6.4845    4.8674 C   0  0  0  0  0  0  0  0  0  0  0  0
  -16.2639   -7.5456    5.7401 C   0  0  0  0  0  0  0  0  0  0  0  0
  -15.4537   -7.5775    6.8714 C   0  0  0  0  0  0  0  0  0  0  0  0
  -15.3378   -8.5487    7.9423 C   0  0  0  0  0  0  0  0  0  0  0  0
  -16.0302   -9.5977    7.9886 O   0  0  0  0  0  0  0  0  0  0  0  0
  -12.9958  -10.8163   13.6204 O   0  0  0  0  0  0  0  0  0  0  0  0
  -13.2819  -10.1748   12.4264 C   0  0  0  0  0  0  0  0  0  0  0  0
  -12.6794  -10.4936   11.2423 C   0  0  0  0  0  0  0  0  0  0  0  0
  -13.0134   -9.8081   10.0778 C   0  0  0  0  0  0  0  0  0  0  0  0
  -13.9482   -8.7984   10.0696 C   0  0  0  0  0  0  0  0  0  0  0  0
  -14.5432   -8.4949   11.2799 C   0  0  0  0  0  0  0  0  0  0  0  0
  -14.2254   -9.1643   12.4491 C   0  0  0  0  0  0  0  0  0  0  0  0
  -13.4885  -11.6370   13.9454 H   0  0  0  0  0  0  0  0  0  0  0  0
  -12.8221   -6.0593    8.9567 C   0  0  0  0  0  0  0  0  0  0  0  0
  -13.1601   -4.9257    9.7068 C   0  0  0  0  0  0  0  0  0  0  0  0
  -12.1919   -4.0874   10.2015 C   0  0  0  0  0  0  0  0  0  0  0  0
  -10.8736   -4.3347    9.9778 C   0  0  0  0  0  0  0  0  0  0  0  0
  -10.4824   -5.4430    9.2416 C   0  0  0  0  0  0  0  0  0  0  0  0
  -11.4802   -6.2569    8.7632 C   0  0  0  0  0  0  0  0  0  0  0  0
 11 12  1  0  0  0
 12 13  2  0  0  0
 13 14  1  0  0  0
 14 15  2  0  0  0
 15 16  1  0  0  0
 16 17  2  0  0  0
 15  1  1  0  0  0
  1  2  2  0  0  0
  2  3  1  0  0  0
  3  4  2  0  0  0
  4  5  1  0  0  0
  5  6  2  0  0  0
  6  7  1  0  0  0
  7  8  2  0  0  0
  8  9  1  0  0  0
  9 10  2  0  0  0
  2 19  1  0  0  0
 19 20  2  0  0  0
 20 21  1  0  0  0
 21 22  2  0  0  0
 22 23  1  0  0  0
 23 24  2  0  0  0
 17 12  1  0  0  0
  9  1  1  0  0  0
 24 19  1  0  0  0
  8  3  1  0  0  0
 11 18  1  0  0  0
M  END
> <minimizedAffinity>
10.23878

> <CNNscore>
0.5509151220

> <CNNaffinity>
6.1267738342

> <CNN_VS>
3.3753323555

> <CNNaffinity_variance>
1.6056978703

$$$$
[H]Oc1c([H])c([H])c(C2=C(c3c([H])c([H])c([H])c([H])c3[H])c3c([H])c([H])c([H])c([H])c3C2=O)c([H])c1[H]


 24 27  0  0  0  0  0  0  0  0999 V2000
  -13.7804   -7.8389    8.7909 C   0  0  0  0  0  0  0  0  0  0  0  0
  -13.3019   -7.1871    9.8345 C   0  0  0  0  0  0  0  0  0  0  0  0
  -13.1814   -8.0862   10.9958 C   0  0  0  0  0  0  0  0  0  0  0  0
  -12.7522   -7.9308   12.2984 C   0  0  0  0  0  0  0  0  0  0  0  0
  -12.7580   -8.9921   13.1787 C   0  0  0  0  0  0  0  0  0  0  0  0
  -13.1905  -10.2421   12.7911 C   0  0  0  0  0  0  0  0  0  0  0  0
  -13.6222  -10.4156   11.4949 C   0  0  0  0  0  0  0  0  0  0  0  0
  -13.6110   -9.3350   10.6176 C   0  0  0  0  0  0  0  0  0  0  0  0
  -14.0010   -9.2250    9.2250 C   0  0  0  0  0  0  0  0  0  0  0  0
  -14.4462  -10.1975    8.5632 O   0  0  0  0  0  0  0  0  0  0  0  0
  -14.9058   -6.2040    3.5260 O   0  0  0  0  0  0  0  0  0  0  0  0
  -14.6217   -6.5505    4.8368 C   0  0  0  0  0  0  0  0  0  0  0  0
  -14.3468   -5.6328    5.8109 C   0  0  0  0  0  0  0  0  0  0  0  0
  -14.0689   -6.0494    7.1096 C   0  0  0  0  0  0  0  0  0  0  0  0
  -14.0596   -7.3795    7.4616 C   0  0  0  0  0  0  0  0  0  0  0  0
  -14.3406   -8.2881    6.4583 C   0  0  0  0  0  0  0  0  0  0  0  0
  -14.6196   -7.8947    5.1608 C   0  0  0  0  0  0  0  0  0  0  0  0
  -15.8404   -6.0216    3.1867 H   0  0  0  0  0  0  0  0  0  0  0  0
  -12.9430   -5.7736    9.9483 C   0  0  0  0  0  0  0  0  0  0  0  0
  -11.6977   -5.3190    9.4960 C   0  0  0  0  0  0  0  0  0  0  0  0
  -11.3367   -4.0000    9.6175 C   0  0  0  0  0  0  0  0  0  0  0  0
  -12.1802   -3.0945   10.1811 C   0  0  0  0  0  0  0  0  0  0  0  0
  -13.4257   -3.4897   10.6458 C   0  0  0  0  0  0  0  0  0  0  0  0
  -13.7497   -4.8174   10.5070 C   0  0  0  0  0  0  0  0  0  0  0  0
 11 12  1  0  0  0
 12 13  2  0  0  0
 13 14  1  0  0  0
 14 15  2  0  0  0
 15 16  1  0  0  0
 16 17  2  0  0  0
 15  1  1  0  0  0
  1  2  2  0  0  0
  2  3  1  0  0  0
  3  4  2  0  0  0
  4  5  1  0  0  0
  5  6  2  0  0  0
  6  7  1  0  0  0
  7  8  2  0  0  0
  8  9  1  0  0  0
  9 10  2  0  0  0
  2 19  1  0  0  0
 19 20  2  0  0  0
 20 21  1  0  0  0
 21 22  2  0  0  0
 22 23  1  0  0  0
 23 24  2  0  0  0
 17 12  1  0  0  0
  9  1  1  0  0  0
 24 19  1  0  0  0
  8  3  1  0  0  0
 11 18  1  0  0  0
M  END
> <minimizedAffinity>
16.11964

> <CNNscore>
0.5380424857

> <CNNaffinity>
6.0756072998

> <CNN_VS>
3.2689349651

> <CNNaffinity_variance>
1.5264339447

$$$$
[H]Oc1c([H])c([H])c(C2=C(c3c([H])c([H])c([H])c([H])c3[H])c3c([H])c([H])c([H])c([H])c3C2=O)c([H])c1[H]


 24 27  0  0  0  0  0  0  0  0999 V2000
  -12.2066   -6.9646    7.0161 C   0  0  0  0  0  0  0  0  0  0  0  0
  -11.7466   -7.3789    8.1820 C   0  0  0  0  0  0  0  0  0  0  0  0
  -10.2769   -7.2792    8.2238 C   0  0  0  0  0  0  0  0  0  0  0  0
   -9.3147   -7.5701    9.1697 C   0  0  0  0  0  0  0  0  0  0  0  0
   -7.9767   -7.3640    8.9072 C   0  0  0  0  0  0  0  0  0  0  0  0
   -7.5534   -6.8617    7.6955 C   0  0  0  0  0  0  0  0  0  0  0  0
   -8.4998   -6.5657    6.7399 C   0  0  0  0  0  0  0  0  0  0  0  0
   -9.8467   -6.7791    7.0189 C   0  0  0  0  0  0  0  0  0  0  0  0
  -11.0382   -6.5644    6.2204 C   0  0  0  0  0  0  0  0  0  0  0  0
  -11.0003   -6.1086    5.0487 O   0  0  0  0  0  0  0  0  0  0  0  0
  -17.5325   -6.7678    5.2120 O   0  0  0  0  0  0  0  0  0  0  0  0
  -16.2097   -6.7695    5.6232 C   0  0  0  0  0  0  0  0  0  0  0  0
  -15.2941   -5.8464    5.2034 C   0  0  0  0  0  0  0  0  0  0  0  0
  -13.9791   -5.9060    5.6559 C   0  0  0  0  0  0  0  0  0  0  0  0
  -13.5529   -6.8795    6.5300 C   0  0  0  0  0  0  0  0  0  0  0  0
  -14.4980   -7.8014    6.9396 C   0  0  0  0  0  0  0  0  0  0  0  0
  -15.8106   -7.7598    6.5017 C   0  0  0  0  0  0  0  0  0  0  0  0
  -18.2677   -6.2726    5.6979 H   0  0  0  0  0  0  0  0  0  0  0  0
  -12.4882   -7.9125    9.3244 C   0  0  0  0  0  0  0  0  0  0  0  0
  -12.5507   -9.2939    9.5473 C   0  0  0  0  0  0  0  0  0  0  0  0
  -13.2624   -9.8114   10.6012 C   0  0  0  0  0  0  0  0  0  0  0  0
  -13.9280   -8.9956   11.4616 C   0  0  0  0  0  0  0  0  0  0  0  0
  -13.9001   -7.6198   11.2882 C   0  0  0  0  0  0  0  0  0  0  0  0
  -13.1780   -7.1409   10.2223 C   0  0  0  0  0  0  0  0  0  0  0  0
 11 12  1  0  0  0
 12 13  2  0  0  0
 13 14  1  0  0  0
 14 15  2  0  0  0
 15 16  1  0  0  0
 16 17  2  0  0  0
 15  1  1  0  0  0
  1  2  2  0  0  0
  2  3  1  0  0  0
  3  4  2  0  0  0
  4  5  1  0  0  0
  5  6  2  0  0  0
  6  7  1  0  0  0
  7  8  2  0  0  0
  8  9  1  0  0  0
  9 10  2  0  0  0
  2 19  1  0  0  0
 19 20  2  0  0  0
 20 21  1  0  0  0
 21 22  2  0  0  0
 22 23  1  0  0  0
 23 24  2  0  0  0
 17 12  1  0  0  0
  9  1  1  0  0  0
 24 19  1  0  0  0
  8  3  1  0  0  0
 11 18  1  0  0  0
M  END
> <minimizedAffinity>
8.61066

> <CNNscore>
0.4788492620

> <CNNaffinity>
5.9367165565

> <CNN_VS>
2.8427922726

> <CNNaffinity_variance>
1.2653005123

$$$$
[H]Oc1c([H])c([H])c(C2=C(c3c([H])c([H])c([H])c([H])c3[H])c3c([H])c([H])c([H])c([H])c3C2=O)c([H])c1[H]


 24 27  0  0  0  0  0  0  0  0999 V2000
  -11.1450   -7.2349    8.5580 C   0  0  0  0  0  0  0  0  0  0  0  0
  -11.7772   -8.1282    7.8197 C   0  0  0  0  0  0  0  0  0  0  0  0
  -10.8421   -9.1642    7.3466 C   0  0  0  0  0  0  0  0  0  0  0  0
  -10.9670  -10.2954    6.5654 C   0  0  0  0  0  0  0  0  0  0  0  0
   -9.8747  -11.0899    6.2878 C   0  0  0  0  0  0  0  0  0  0  0  0
   -8.6234  -10.7847    6.7788 C   0  0  0  0  0  0  0  0  0  0  0  0
   -8.4803   -9.6598    7.5601 C   0  0  0  0  0  0  0  0  0  0  0  0
   -9.5918   -8.8671    7.8317 C   0  0  0  0  0  0  0  0  0  0  0  0
   -9.7365   -7.6498    8.6068 C   0  0  0  0  0  0  0  0  0  0  0  0
   -8.7714   -7.0978    9.1950 O   0  0  0  0  0  0  0  0  0  0  0  0
  -12.9502   -2.5606   11.1174 O   0  0  0  0  0  0  0  0  0  0  0  0
  -12.5551   -3.7379   10.5036 C   0  0  0  0  0  0  0  0  0  0  0  0
  -13.3205   -4.8696   10.4920 C   0  0  0  0  0  0  0  0  0  0  0  0
  -12.8628   -6.0203    9.8565 C   0  0  0  0  0  0  0  0  0  0  0  0
  -11.6418   -6.0662    9.2237 C   0  0  0  0  0  0  0  0  0  0  0  0
  -10.8864   -4.9087    9.2496 C   0  0  0  0  0  0  0  0  0  0  0  0
  -11.3232   -3.7540    9.8759 C   0  0  0  0  0  0  0  0  0  0  0  0
  -13.4704   -1.8328   10.6467 H   0  0  0  0  0  0  0  0  0  0  0  0
  -13.1872   -8.1664    7.4321 C   0  0  0  0  0  0  0  0  0  0  0  0
  -13.6067   -7.5961    6.2234 C   0  0  0  0  0  0  0  0  0  0  0  0
  -14.9297   -7.6028    5.8568 C   0  0  0  0  0  0  0  0  0  0  0  0
  -15.8732   -8.1658    6.6580 C   0  0  0  0  0  0  0  0  0  0  0  0
  -15.5137   -8.7450    7.8658 C   0  0  0  0  0  0  0  0  0  0  0  0
  -14.1810   -8.7176    8.1975 C   0  0  0  0  0  0  0  0  0  0  0  0
 11 12  1  0  0  0
 12 13  2  0  0  0
 13 14  1  0  0  0
 14 15  2  0  0  0
 15 16  1  0  0  0
 16 17  2  0  0  0
 15  1  1  0  0  0
  1  2  2  0  0  0
  2  3  1  0  0  0
  3  4  2  0  0  0
  4  5  1  0  0  0
  5  6  2  0  0  0
  6  7  1  0  0  0
  7  8  2  0  0  0
  8  9  1  0  0  0
  9 10  2  0  0  0
  2 19  1  0  0  0
 19 20  2  0  0  0
 20 21  1  0  0  0
 21 22  2  0  0  0
 22 23  1  0  0  0
 23 24  2  0  0  0
 17 12  1  0  0  0
  9  1  1  0  0  0
 24 19  1  0  0  0
  8  3  1  0  0  0
 11 18  1  0  0  0
M  END
> <minimizedAffinity>
-1.61945

> <CNNscore>
0.3732474446

> <CNNaffinity>
5.6746587753

> <CNN_VS>
2.1180520058

> <CNNaffinity_variance>
0.7538510561

$$$$
[H]Oc1c([H])c([H])c(C2=C(c3c([H])c([H])c([H])c([H])c3[H])c3c([H])c([H])c([H])c([H])c3C2=O)c([H])c1[H]


 24 27  0  0  0  0  0  0  0  0999 V2000
  -11.3794   -7.6255    8.4771 C   0  0  0  0  0  0  0  0  0  0  0  0
  -12.5864   -7.0925    8.5206 C   0  0  0  0  0  0  0  0  0  0  0  0
  -12.6705   -6.0880    9.5956 C   0  0  0  0  0  0  0  0  0  0  0  0
  -13.6669   -5.2571   10.0665 C   0  0  0  0  0  0  0  0  0  0  0  0
  -13.4362   -4.4001   11.1219 C   0  0  0  0  0  0  0  0  0  0  0  0
  -12.2067   -4.3422   11.7422 C   0  0  0  0  0  0  0  0  0  0  0  0
  -11.2006   -5.1642   11.2854 C   0  0  0  0  0  0  0  0  0  0  0  0
  -11.4482   -6.0243   10.2194 C   0  0  0  0  0  0  0  0  0  0  0  0
  -10.5970   -6.9836    9.5421 C   0  0  0  0  0  0  0  0  0  0  0  0
   -9.3981   -7.1800    9.8679 O   0  0  0  0  0  0  0  0  0  0  0  0
   -9.1072  -11.4974    5.0853 O   0  0  0  0  0  0  0  0  0  0  0  0
   -9.7189  -10.5680    5.9105 C   0  0  0  0  0  0  0  0  0  0  0  0
  -11.0624  -10.5571    6.1592 C   0  0  0  0  0  0  0  0  0  0  0  0
  -11.6131   -9.5936    6.9992 C   0  0  0  0  0  0  0  0  0  0  0  0
  -10.8417   -8.6283    7.6047 C   0  0  0  0  0  0  0  0  0  0  0  0
   -9.4859   -8.6606    7.3372 C   0  0  0  0  0  0  0  0  0  0  0  0
   -8.9183   -9.6101    6.5050 C   0  0  0  0  0  0  0  0  0  0  0  0
   -8.7409  -12.3804    5.4140 H   0  0  0  0  0  0  0  0  0  0  0  0
  -13.7561   -7.4006    7.6979 C   0  0  0  0  0  0  0  0  0  0  0  0
  -14.8484   -8.0855    8.2456 C   0  0  0  0  0  0  0  0  0  0  0  0
  -15.9432   -8.4029    7.4804 C   0  0  0  0  0  0  0  0  0  0  0  0
  -15.9992   -8.0598    6.1658 C   0  0  0  0  0  0  0  0  0  0  0  0
  -14.9458   -7.3806    5.5720 C   0  0  0  0  0  0  0  0  0  0  0  0
  -13.8685   -7.0818    6.3702 C   0  0  0  0  0  0  0  0  0  0  0  0
 11 12  1  0  0  0
 12 13  2  0  0  0
 13 14  1  0  0  0
 14 15  2  0  0  0
 15 16  1  0  0  0
 16 17  2  0  0  0
 15  1  1  0  0  0
  1  2  2  0  0  0
  2  3  1  0  0  0
  3  4  2  0  0  0
  4  5  1  0  0  0
  5  6  2  0  0  0
  6  7  1  0  0  0
  7  8  2  0  0  0
  8  9  1  0  0  0
  9 10  2  0  0  0
  2 19  1  0  0  0
 19 20  2  0  0  0
 20 21  1  0  0  0
 21 22  2  0  0  0
 22 23  1  0  0  0
 23 24  2  0  0  0
 17 12  1  0  0  0
  9  1  1  0  0  0
 24 19  1  0  0  0
  8  3  1  0  0  0
 11 18  1  0  0  0
M  END
> <minimizedAffinity>
-0.45240

> <CNNscore>
0.3279096186

> <CNNaffinity>
5.6236166954

> <CNN_VS>
1.8440380096

> <CNNaffinity_variance>
0.8444800377

$$$$
[H]Oc1c([H])c([H])c(C2=C(c3c([H])c([H])c([H])c([H])c3[H])c3c([H])c([H])c([H])c([H])c3C2=O)c([H])c1[H]


 24 27  0  0  0  0  0  0  0  0999 V2000
   -2.7444   -4.7696    6.3335 C   0  0  0  0  0  0  0  0  0  0  0  0
   -3.6952   -5.3730    7.0225 C   0  0  0  0  0  0  0  0  0  0  0  0
   -3.6708   -4.9371    8.4300 C   0  0  0  0  0  0  0  0  0  0  0  0
   -4.4180   -5.2423    9.5497 C   0  0  0  0  0  0  0  0  0  0  0  0
   -4.1456   -4.6535   10.7665 C   0  0  0  0  0  0  0  0  0  0  0  0
   -3.1215   -3.7420   10.9081 C   0  0  0  0  0  0  0  0  0  0  0  0
   -2.3655   -3.4255    9.8014 C   0  0  0  0  0  0  0  0  0  0  0  0
   -2.6518   -4.0280    8.5797 C   0  0  0  0  0  0  0  0  0  0  0  0
   -2.0360   -3.8907    7.2738 C   0  0  0  0  0  0  0  0  0  0  0  0
   -1.0604   -3.1269    7.0574 O   0  0  0  0  0  0  0  0  0  0  0  0
   -1.4514   -5.0391    0.8641 O   0  0  0  0  0  0  0  0  0  0  0  0
   -1.7420   -5.0235    2.2185 C   0  0  0  0  0  0  0  0  0  0  0  0
   -1.3409   -6.0037    3.0815 C   0  0  0  0  0  0  0  0  0  0  0  0
   -1.6677   -5.9266    4.4324 C   0  0  0  0  0  0  0  0  0  0  0  0
   -2.3955   -4.8784    4.9470 C   0  0  0  0  0  0  0  0  0  0  0  0
   -2.7895   -3.8998    4.0536 C   0  0  0  0  0  0  0  0  0  0  0  0
   -2.4749   -3.9575    2.7068 C   0  0  0  0  0  0  0  0  0  0  0  0
   -0.6214   -4.6211    0.4663 H   0  0  0  0  0  0  0  0  0  0  0  0
   -4.6645   -6.3707    6.5700 C   0  0  0  0  0  0  0  0  0  0  0  0
   -5.7458   -5.9947    5.7629 C   0  0  0  0  0  0  0  0  0  0  0  0
   -6.6770   -6.9151    5.3498 C   0  0  0  0  0  0  0  0  0  0  0  0
   -6.5756   -8.2217    5.7125 C   0  0  0  0  0  0  0  0  0  0  0  0
   -5.5249   -8.6492    6.5105 C   0  0  0  0  0  0  0  0  0  0  0  0
   -4.6146   -7.6987    6.9037 C   0  0  0  0  0  0  0  0  0  0  0  0
 11 12  1  0  0  0
 12 13  2  0  0  0
 13 14  1  0  0  0
 14 15  2  0  0  0
 15 16  1  0  0  0
 16 17  2  0  0  0
 15  1  1  0  0  0
  1  2  2  0  0  0
  2  3  1  0  0  0
  3  4  2  0  0  0
  4  5  1  0  0  0
  5  6  2  0  0  0
  6  7  1  0  0  0
  7  8  2  0  0  0
  8  9  1  0  0  0
  9 10  2  0  0  0
  2 19  1  0  0  0
 19 20  2  0  0  0
 20 21  1  0  0  0
 21 22  2  0  0  0
 22 23  1  0  0  0
 23 24  2  0  0  0
 17 12  1  0  0  0
  9  1  1  0  0  0
 24 19  1  0  0  0
  8  3  1  0  0  0
 11 18  1  0  0  0
M  END
> <minimizedAffinity>
-5.66340

> <CNNscore>
0.3071379066

> <CNNaffinity>
4.5005388260

> <CNN_VS>
1.3822860718

> <CNNaffinity_variance>
0.0379961319

$$$$
[H]Oc1c([H])c([H])c(C2=C(c3c([H])c([H])c([H])c([H])c3[H])c3c([H])c([H])c([H])c([H])c3C2=O)c([H])c1[H]


 24 27  0  0  0  0  0  0  0  0999 V2000
  -13.9180   -7.1825    6.7057 C   0  0  0  0  0  0  0  0  0  0  0  0
  -13.5656   -7.4737    7.9442 C   0  0  0  0  0  0  0  0  0  0  0  0
  -12.1148   -7.2909    8.1263 C   0  0  0  0  0  0  0  0  0  0  0  0
  -11.2459   -7.4501    9.1870 C   0  0  0  0  0  0  0  0  0  0  0  0
   -9.8985   -7.1937    9.0449 C   0  0  0  0  0  0  0  0  0  0  0  0
   -9.3725   -6.7704    7.8432 C   0  0  0  0  0  0  0  0  0  0  0  0
  -10.2249   -6.6061    6.7741 C   0  0  0  0  0  0  0  0  0  0  0  0
  -11.5826   -6.8690    6.9323 C   0  0  0  0  0  0  0  0  0  0  0  0
  -12.6914   -6.7860    6.0011 C   0  0  0  0  0  0  0  0  0  0  0  0
  -12.5504   -6.4268    4.8040 O   0  0  0  0  0  0  0  0  0  0  0  0
  -18.9570   -7.4683    4.2188 O   0  0  0  0  0  0  0  0  0  0  0  0
  -17.7265   -7.3416    4.8422 C   0  0  0  0  0  0  0  0  0  0  0  0
  -17.2857   -6.1740    5.3983 C   0  0  0  0  0  0  0  0  0  0  0  0
  -16.0368   -6.1153    6.0099 C   0  0  0  0  0  0  0  0  0  0  0  0
  -15.2077   -7.2112    6.0797 C   0  0  0  0  0  0  0  0  0  0  0  0
  -15.6763   -8.3802    5.5098 C   0  0  0  0  0  0  0  0  0  0  0  0
  -16.9150   -8.4597    4.8970 C   0  0  0  0  0  0  0  0  0  0  0  0
  -19.8026   -7.7390    4.7021 H   0  0  0  0  0  0  0  0  0  0  0  0
  -14.3991   -7.9511    9.0475 C   0  0  0  0  0  0  0  0  0  0  0  0
  -15.5925   -8.6376    8.7899 C   0  0  0  0  0  0  0  0  0  0  0  0
  -16.3974   -9.0710    9.8142 C   0  0  0  0  0  0  0  0  0  0  0  0
  -16.0578   -8.8466   11.1116 C   0  0  0  0  0  0  0  0  0  0  0  0
  -14.8871   -8.1720   11.4242 C   0  0  0  0  0  0  0  0  0  0  0  0
  -14.1092   -7.7538   10.3720 C   0  0  0  0  0  0  0  0  0  0  0  0
 11 12  1  0  0  0
 12 13  2  0  0  0
 13 14  1  0  0  0
 14 15  2  0  0  0
 15 16  1  0  0  0
 16 17  2  0  0  0
 15  1  1  0  0  0
  1  2  2  0  0  0
  2  3  1  0  0  0
  3  4  2  0  0  0
  4  5  1  0  0  0
  5  6  2  0  0  0
  6  7  1  0  0  0
  7  8  2  0  0  0
  8  9  1  0  0  0
  9 10  2  0  0  0
  2 19  1  0  0  0
 19 20  2  0  0  0
 20 21  1  0  0  0
 21 22  2  0  0  0
 22 23  1  0  0  0
 23 24  2  0  0  0
 17 12  1  0  0  0
  9  1  1  0  0  0
 24 19  1  0  0  0
  8  3  1  0  0  0
 11 18  1  0  0  0
M  END
> <minimizedAffinity>
6.75069

> <CNNscore>
0.2884309590

> <CNNaffinity>
5.8201341629

> <CNN_VS>
1.6787068844

> <CNNaffinity_variance>
0.6488658786

$$$$
[H]Oc1c([H])c([H])c(C2=C(c3c([H])c([H])c([H])c([H])c3[H])c3c([H])c([H])c([H])c([H])c3C2=O)c([H])c1[H]


 24 27  0  0  0  0  0  0  0  0999 V2000
  -14.3347   -8.1469    7.6192 C   0  0  0  0  0  0  0  0  0  0  0  0
  -13.2668   -8.3531    8.3674 C   0  0  0  0  0  0  0  0  0  0  0  0
  -13.6452   -8.4809    9.7859 C   0  0  0  0  0  0  0  0  0  0  0  0
  -12.9472   -8.6960   10.9571 C   0  0  0  0  0  0  0  0  0  0  0  0
  -13.6006   -8.7682   12.1693 C   0  0  0  0  0  0  0  0  0  0  0  0
  -14.9692   -8.6293   12.2549 C   0  0  0  0  0  0  0  0  0  0  0  0
  -15.6818   -8.4142   11.0963 C   0  0  0  0  0  0  0  0  0  0  0  0
  -15.0088   -8.3433    9.8799 C   0  0  0  0  0  0  0  0  0  0  0  0
  -15.4888   -8.1295    8.5282 C   0  0  0  0  0  0  0  0  0  0  0  0
  -16.7054   -7.9638    8.2553 O   0  0  0  0  0  0  0  0  0  0  0  0
  -14.7796   -7.6214    2.0349 O   0  0  0  0  0  0  0  0  0  0  0  0
  -14.6757   -7.6929    3.4144 C   0  0  0  0  0  0  0  0  0  0  0  0
  -14.7452   -6.5976    4.2282 C   0  0  0  0  0  0  0  0  0  0  0  0
  -14.6328   -6.7401    5.6082 C   0  0  0  0  0  0  0  0  0  0  0  0
  -14.4504   -7.9682    6.2012 C   0  0  0  0  0  0  0  0  0  0  0  0
  -14.3834   -9.0605    5.3566 C   0  0  0  0  0  0  0  0  0  0  0  0
  -14.4930   -8.9405    3.9819 C   0  0  0  0  0  0  0  0  0  0  0  0
  -15.6565   -7.6903    1.5366 H   0  0  0  0  0  0  0  0  0  0  0  0
  -11.8629   -8.4269    7.9630 C   0  0  0  0  0  0  0  0  0  0  0  0
  -11.0407   -7.2957    8.0438 C   0  0  0  0  0  0  0  0  0  0  0  0
   -9.7277   -7.3428    7.6457 C   0  0  0  0  0  0  0  0  0  0  0  0
   -9.1859   -8.4920    7.1612 C   0  0  0  0  0  0  0  0  0  0  0  0
   -9.9543   -9.6421    7.0596 C   0  0  0  0  0  0  0  0  0  0  0  0
  -11.2632   -9.5546    7.4671 C   0  0  0  0  0  0  0  0  0  0  0  0
 11 12  1  0  0  0
 12 13  2  0  0  0
 13 14  1  0  0  0
 14 15  2  0  0  0
 15 16  1  0  0  0
 16 17  2  0  0  0
 15  1  1  0  0  0
  1  2  2  0  0  0
  2  3  1  0  0  0
  3  4  2  0  0  0
  4  5  1  0  0  0
  5  6  2  0  0  0
  6  7  1  0  0  0
  7  8  2  0  0  0
  8  9  1  0  0  0
  9 10  2  0  0  0
  2 19  1  0  0  0
 19 20  2  0  0  0
 20 21  1  0  0  0
 21 22  2  0  0  0
 22 23  1  0  0  0
 23 24  2  0  0  0
 17 12  1  0  0  0
  9  1  1  0  0  0
 24 19  1  0  0  0
  8  3  1  0  0  0
 11 18  1  0  0  0
M  END
> <minimizedAffinity>
0.59952

> <CNNscore>
0.2811948359

> <CNNaffinity>
5.8581457138

> <CNN_VS>
1.6472803354

> <CNNaffinity_variance>
0.5773971081

$$$$
[H]Oc1c([H])c([H])c(C2=C(c3c([H])c([H])c([H])c([H])c3[H])c3c([H])c([H])c([H])c([H])c3C2=O)c([H])c1[H]


 24 27  0  0  0  0  0  0  0  0999 V2000
   -9.4960   -6.6350    7.9827 C   0  0  0  0  0  0  0  0  0  0  0  0
  -10.2700   -7.7014    8.0628 C   0  0  0  0  0  0  0  0  0  0  0  0
  -11.4747   -7.4082    8.8592 C   0  0  0  0  0  0  0  0  0  0  0  0
  -12.5792   -8.1398    9.2467 C   0  0  0  0  0  0  0  0  0  0  0  0
  -13.5721   -7.5714   10.0165 C   0  0  0  0  0  0  0  0  0  0  0  0
  -13.4981   -6.2571   10.4250 C   0  0  0  0  0  0  0  0  0  0  0  0
  -12.4031   -5.5121   10.0476 C   0  0  0  0  0  0  0  0  0  0  0  0
  -11.4085   -6.0993    9.2707 C   0  0  0  0  0  0  0  0  0  0  0  0
  -10.1686   -5.5688    8.7372 C   0  0  0  0  0  0  0  0  0  0  0  0
   -9.7959   -4.3831    8.9299 O   0  0  0  0  0  0  0  0  0  0  0  0
   -4.4835   -5.9344    5.5244 O   0  0  0  0  0  0  0  0  0  0  0  0
   -5.7425   -6.1028    6.0771 C   0  0  0  0  0  0  0  0  0  0  0  0
   -6.8894   -6.1226    5.3348 C   0  0  0  0  0  0  0  0  0  0  0  0
   -8.1238   -6.2956    5.9543 C   0  0  0  0  0  0  0  0  0  0  0  0
   -8.2395   -6.4516    7.3165 C   0  0  0  0  0  0  0  0  0  0  0  0
   -7.0650   -6.4278    8.0451 C   0  0  0  0  0  0  0  0  0  0  0  0
   -5.8276   -6.2571    7.4485 C   0  0  0  0  0  0  0  0  0  0  0  0
   -3.9029   -6.7015    5.2137 H   0  0  0  0  0  0  0  0  0  0  0  0
  -10.0496   -9.0390    7.5131 C   0  0  0  0  0  0  0  0  0  0  0  0
   -8.7943   -9.6515    7.6183 C   0  0  0  0  0  0  0  0  0  0  0  0
   -8.5652  -10.8964    7.0867 C   0  0  0  0  0  0  0  0  0  0  0  0
   -9.5530  -11.5727    6.4418 C   0  0  0  0  0  0  0  0  0  0  0  0
  -10.8152  -11.0135    6.3087 C   0  0  0  0  0  0  0  0  0  0  0  0
  -11.0047   -9.7667    6.8531 C   0  0  0  0  0  0  0  0  0  0  0  0
 11 12  1  0  0  0
 12 13  2  0  0  0
 13 14  1  0  0  0
 14 15  2  0  0  0
 15 16  1  0  0  0
 16 17  2  0  0  0
 15  1  1  0  0  0
  1  2  2  0  0  0
  2  3  1  0  0  0
  3  4  2  0  0  0
  4  5  1  0  0  0
  5  6  2  0  0  0
  6  7  1  0  0  0
  7  8  2  0  0  0
  8  9  1  0  0  0
  9 10  2  0  0  0
  2 19  1  0  0  0
 19 20  2  0  0  0
 20 21  1  0  0  0
 21 22  2  0  0  0
 22 23  1  0  0  0
 23 24  2  0  0  0
 17 12  1  0  0  0
  9  1  1  0  0  0
 24 19  1  0  0  0
  8  3  1  0  0  0
 11 18  1  0  0  0
M  END
> <minimizedAffinity>
-3.90047

> <CNNscore>
0.2780182064

> <CNNaffinity>
5.5167231560

> <CNN_VS>
1.5337494612

> <CNNaffinity_variance>
0.2376484424

$$$$
[H]Oc1c([H])c([H])c(C2=C(c3c([H])c([H])c([H])c([H])c3[H])C(=O)c3c([H])c([H])c([H])c([H])c32)c([H])c1[H]


 24 27  0  0  0  0  0  0  0  0999 V2000
  -14.4418   -8.0677    7.5541 C   0  0  0  0  0  0  0  0  0  0  0  0
  -13.4606   -8.1819    6.6731 C   0  0  0  0  0  0  0  0  0  0  0  0
  -14.0430   -7.8699    5.3453 C   0  0  0  0  0  0  0  0  0  0  0  0
  -13.4101   -7.8747    4.2634 O   0  0  0  0  0  0  0  0  0  0  0  0
  -15.4552   -7.5611    5.5144 C   0  0  0  0  0  0  0  0  0  0  0  0
  -16.4812   -7.2122    4.6763 C   0  0  0  0  0  0  0  0  0  0  0  0
  -17.7411   -6.9868    5.1799 C   0  0  0  0  0  0  0  0  0  0  0  0
  -17.9863   -7.1088    6.5265 C   0  0  0  0  0  0  0  0  0  0  0  0
  -16.9542   -7.4605    7.3779 C   0  0  0  0  0  0  0  0  0  0  0  0
  -15.6987   -7.6823    6.8614 C   0  0  0  0  0  0  0  0  0  0  0  0
  -14.0605   -8.9435   13.1440 O   0  0  0  0  0  0  0  0  0  0  0  0
  -14.1649   -8.7171   11.7697 C   0  0  0  0  0  0  0  0  0  0  0  0
  -15.2283   -8.0564   11.1952 C   0  0  0  0  0  0  0  0  0  0  0  0
  -15.3078   -7.8425    9.8225 C   0  0  0  0  0  0  0  0  0  0  0  0
  -14.3109   -8.2916    8.9869 C   0  0  0  0  0  0  0  0  0  0  0  0
  -13.2439   -8.9539    9.5500 C   0  0  0  0  0  0  0  0  0  0  0  0
  -13.1751   -9.1601   10.9095 C   0  0  0  0  0  0  0  0  0  0  0  0
  -14.7544   -8.6327   13.7846 H   0  0  0  0  0  0  0  0  0  0  0  0
  -12.0592   -8.5036    6.8917 C   0  0  0  0  0  0  0  0  0  0  0  0
  -11.1353   -7.5732    7.3135 C   0  0  0  0  0  0  0  0  0  0  0  0
   -9.8147   -7.8868    7.5393 C   0  0  0  0  0  0  0  0  0  0  0  0
   -9.3705   -9.1765    7.3438 C   0  0  0  0  0  0  0  0  0  0  0  0
  -10.2709  -10.1331    6.9218 C   0  0  0  0  0  0  0  0  0  0  0  0
  -11.6007   -9.7855    6.7019 C   0  0  0  0  0  0  0  0  0  0  0  0
 11 12  1  0  0  0
 12 13  2  0  0  0
 13 14  1  0  0  0
 14 15  2  0  0  0
 15 16  1  0  0  0
 16 17  2  0  0  0
 15  1  1  0  0  0
  1  2  2  0  0  0
  2  3  1  0  0  0
  3  4  2  0  0  0
  3  5  1  0  0  0
  5  6  2  0  0  0
  6  7  1  0  0  0
  7  8  2  0  0  0
  8  9  1  0  0  0
  9 10  2  0  0  0
  2 19  1  0  0  0
 19 20  2  0  0  0
 20 21  1  0  0  0
 21 22  2  0  0  0
 22 23  1  0  0  0
 23 24  2  0  0  0
 17 12  1  0  0  0
 10  1  1  0  0  0
 24 19  1  0  0  0
 10  5  1  0  0  0
 11 18  1  0  0  0
M  END
> <minimizedAffinity>
1.93397

> <CNNscore>
0.4465522170

> <CNNaffinity>
6.1940574646

> <CNN_VS>
2.7659699917

> <CNNaffinity_variance>
1.7640721798

$$$$
[H]Oc1c([H])c([H])c(C2=C(c3c([H])c([H])c([H])c([H])c3[H])C(=O)c3c([H])c([H])c([H])c([H])c32)c([H])c1[H]


 24 27  0  0  0  0  0  0  0  0999 V2000
  -16.1644   -7.7635    6.3716 C   0  0  0  0  0  0  0  0  0  0  0  0
  -15.8767   -6.7023    5.6348 C   0  0  0  0  0  0  0  0  0  0  0  0
  -14.4203   -6.4640    5.7830 C   0  0  0  0  0  0  0  0  0  0  0  0
  -13.7827   -5.5392    5.2268 O   0  0  0  0  0  0  0  0  0  0  0  0
  -13.8686   -7.4755    6.6721 C   0  0  0  0  0  0  0  0  0  0  0  0
  -12.6237   -7.7581    7.1694 C   0  0  0  0  0  0  0  0  0  0  0  0
  -12.4429   -8.8237    8.0201 C   0  0  0  0  0  0  0  0  0  0  0  0
  -13.5059   -9.6160    8.3815 C   0  0  0  0  0  0  0  0  0  0  0  0
  -14.7653   -9.3359    7.8823 C   0  0  0  0  0  0  0  0  0  0  0  0
  -14.9323   -8.2678    7.0318 C   0  0  0  0  0  0  0  0  0  0  0  0
  -21.3054  -10.1106    6.8417 O   0  0  0  0  0  0  0  0  0  0  0  0
  -20.0413   -9.5310    6.7111 C   0  0  0  0  0  0  0  0  0  0  0  0
  -19.3887   -9.4148    5.5037 C   0  0  0  0  0  0  0  0  0  0  0  0
  -18.1295   -8.8316    5.4002 C   0  0  0  0  0  0  0  0  0  0  0  0
  -17.4906   -8.3465    6.5183 C   0  0  0  0  0  0  0  0  0  0  0  0
  -18.1331   -8.4580    7.7303 C   0  0  0  0  0  0  0  0  0  0  0  0
  -19.3789   -9.0367    7.8214 C   0  0  0  0  0  0  0  0  0  0  0  0
  -21.8051  -10.4695    6.0608 H   0  0  0  0  0  0  0  0  0  0  0  0
  -16.7502   -5.9033    4.7898 C   0  0  0  0  0  0  0  0  0  0  0  0
  -16.6518   -5.8873    3.4161 C   0  0  0  0  0  0  0  0  0  0  0  0
  -17.4939   -5.1462    2.6194 C   0  0  0  0  0  0  0  0  0  0  0  0
  -18.4854   -4.3795    3.1920 C   0  0  0  0  0  0  0  0  0  0  0  0
  -18.6113   -4.3737    4.5660 C   0  0  0  0  0  0  0  0  0  0  0  0
  -17.7444   -5.1341    5.3457 C   0  0  0  0  0  0  0  0  0  0  0  0
 11 12  1  0  0  0
 12 13  2  0  0  0
 13 14  1  0  0  0
 14 15  2  0  0  0
 15 16  1  0  0  0
 16 17  2  0  0  0
 15  1  1  0  0  0
  1  2  2  0  0  0
  2  3  1  0  0  0
  3  4  2  0  0  0
  3  5  1  0  0  0
  5  6  2  0  0  0
  6  7  1  0  0  0
  7  8  2  0  0  0
  8  9  1  0  0  0
  9 10  2  0  0  0
  2 19  1  0  0  0
 19 20  2  0  0  0
 20 21  1  0  0  0
 21 22  2  0  0  0
 22 23  1  0  0  0
 23 24  2  0  0  0
 17 12  1  0  0  0
 10  1  1  0  0  0
 24 19  1  0  0  0
 10  5  1  0  0  0
 11 18  1  0  0  0
M  END
> <minimizedAffinity>
-0.09623

> <CNNscore>
0.3438045382

> <CNNaffinity>
5.8507871628

> <CNN_VS>
2.0115270615

> <CNNaffinity_variance>
0.4256750643

$$$$
[H]Oc1c([H])c([H])c(C2=C(c3c([H])c([H])c([H])c([H])c3[H])C(=O)c3c([H])c([H])c([H])c([H])c32)c([H])c1[H]


 24 27  0  0  0  0  0  0  0  0999 V2000
  -13.7594   -7.4646    7.4253 C   0  0  0  0  0  0  0  0  0  0  0  0
  -14.6652   -7.8410    8.3139 C   0  0  0  0  0  0  0  0  0  0  0  0
  -15.9892   -7.6823    7.6646 C   0  0  0  0  0  0  0  0  0  0  0  0
  -17.0903   -7.9440    8.2034 O   0  0  0  0  0  0  0  0  0  0  0  0
  -15.7907   -7.1785    6.3138 C   0  0  0  0  0  0  0  0  0  0  0  0
  -16.6131   -6.8442    5.2702 C   0  0  0  0  0  0  0  0  0  0  0  0
  -16.0809   -6.3795    4.0901 C   0  0  0  0  0  0  0  0  0  0  0  0
  -14.7213   -6.2443    3.9432 C   0  0  0  0  0  0  0  0  0  0  0  0
  -13.8858   -6.5806    4.9933 C   0  0  0  0  0  0  0  0  0  0  0  0
  -14.4308   -7.0451    6.1678 C   0  0  0  0  0  0  0  0  0  0  0  0
   -8.1746   -7.3765    8.4062 O   0  0  0  0  0  0  0  0  0  0  0  0
   -9.5510   -7.3837    8.1687 C   0  0  0  0  0  0  0  0  0  0  0  0
  -10.4034   -6.4188    8.6581 C   0  0  0  0  0  0  0  0  0  0  0  0
  -11.7715   -6.4480    8.4058 C   0  0  0  0  0  0  0  0  0  0  0  0
  -12.3204   -7.4571    7.6481 C   0  0  0  0  0  0  0  0  0  0  0  0
  -11.4781   -8.4273    7.1546 C   0  0  0  0  0  0  0  0  0  0  0  0
  -10.1259   -8.3887    7.4102 C   0  0  0  0  0  0  0  0  0  0  0  0
   -7.7351   -6.6649    8.9436 H   0  0  0  0  0  0  0  0  0  0  0  0
  -14.4758   -8.3572    9.6603 C   0  0  0  0  0  0  0  0  0  0  0  0
  -13.3816   -9.1098   10.0257 C   0  0  0  0  0  0  0  0  0  0  0  0
  -13.1961   -9.5785   11.3060 C   0  0  0  0  0  0  0  0  0  0  0  0
  -14.1266   -9.2985   12.2830 C   0  0  0  0  0  0  0  0  0  0  0  0
  -15.2344   -8.5463   11.9500 C   0  0  0  0  0  0  0  0  0  0  0  0
  -15.3944   -8.0860   10.6462 C   0  0  0  0  0  0  0  0  0  0  0  0
 11 12  1  0  0  0
 12 13  2  0  0  0
 13 14  1  0  0  0
 14 15  2  0  0  0
 15 16  1  0  0  0
 16 17  2  0  0  0
 15  1  1  0  0  0
  1  2  2  0  0  0
  2  3  1  0  0  0
  3  4  2  0  0  0
  3  5  1  0  0  0
  5  6  2  0  0  0
  6  7  1  0  0  0
  7  8  2  0  0  0
  8  9  1  0  0  0
  9 10  2  0  0  0
  2 19  1  0  0  0
 19 20  2  0  0  0
 20 21  1  0  0  0
 21 22  2  0  0  0
 22 23  1  0  0  0
 23 24  2  0  0  0
 17 12  1  0  0  0
 10  1  1  0  0  0
 24 19  1  0  0  0
 10  5  1  0  0  0
 11 18  1  0  0  0
M  END
> <minimizedAffinity>
-0.03153

> <CNNscore>
0.3430556953

> <CNNaffinity>
5.9309210777

> <CNN_VS>
2.0346362591

> <CNNaffinity_variance>
0.3624278307

$$$$
[H]Oc1c([H])c([H])c(C2=C(c3c([H])c([H])c([H])c([H])c3[H])C(=O)c3c([H])c([H])c([H])c([H])c32)c([H])c1[H]


 24 27  0  0  0  0  0  0  0  0999 V2000
  -10.3024   -7.6799    8.1706 C   0  0  0  0  0  0  0  0  0  0  0  0
   -9.5457   -6.6047    8.0181 C   0  0  0  0  0  0  0  0  0  0  0  0
  -10.2209   -5.5029    8.7462 C   0  0  0  0  0  0  0  0  0  0  0  0
   -9.7952   -4.3267    8.8258 O   0  0  0  0  0  0  0  0  0  0  0  0
  -11.4443   -6.0173    9.3435 C   0  0  0  0  0  0  0  0  0  0  0  0
  -12.4512   -5.4871   10.1065 C   0  0  0  0  0  0  0  0  0  0  0  0
  -13.5006   -6.2771   10.5146 C   0  0  0  0  0  0  0  0  0  0  0  0
  -13.5527   -7.6044   10.1628 C   0  0  0  0  0  0  0  0  0  0  0  0
  -12.5388   -8.1455    9.3928 C   0  0  0  0  0  0  0  0  0  0  0  0
  -11.4945   -7.3449    8.9920 C   0  0  0  0  0  0  0  0  0  0  0  0
   -9.2610  -12.7717    5.9016 O   0  0  0  0  0  0  0  0  0  0  0  0
   -9.5324  -11.5201    6.4590 C   0  0  0  0  0  0  0  0  0  0  0  0
  -10.7542  -10.8947    6.3438 C   0  0  0  0  0  0  0  0  0  0  0  0
  -10.9995   -9.6475    6.9100 C   0  0  0  0  0  0  0  0  0  0  0  0
  -10.0133   -8.9932    7.6122 C   0  0  0  0  0  0  0  0  0  0  0  0
   -8.7881   -9.6085    7.7330 C   0  0  0  0  0  0  0  0  0  0  0  0
   -8.5561  -10.8427    7.1689 C   0  0  0  0  0  0  0  0  0  0  0  0
   -9.9446  -13.2818    5.3908 H   0  0  0  0  0  0  0  0  0  0  0  0
   -8.2744   -6.4636    7.3259 C   0  0  0  0  0  0  0  0  0  0  0  0
   -7.0629   -6.4565    7.9811 C   0  0  0  0  0  0  0  0  0  0  0  0
   -5.8614   -6.3439    7.3203 C   0  0  0  0  0  0  0  0  0  0  0  0
   -5.8390   -6.2325    5.9470 C   0  0  0  0  0  0  0  0  0  0  0  0
   -7.0356   -6.2367    5.2601 C   0  0  0  0  0  0  0  0  0  0  0  0
   -8.2353   -6.3523    5.9565 C   0  0  0  0  0  0  0  0  0  0  0  0
 11 12  1  0  0  0
 12 13  2  0  0  0
 13 14  1  0  0  0
 14 15  2  0  0  0
 15 16  1  0  0  0
 16 17  2  0  0  0
 15  1  1  0  0  0
  1  2  2  0  0  0
  2  3  1  0  0  0
  3  4  2  0  0  0
  3  5  1  0  0  0
  5  6  2  0  0  0
  6  7  1  0  0  0
  7  8  2  0  0  0
  8  9  1  0  0  0
  9 10  2  0  0  0
  2 19  1  0  0  0
 19 20  2  0  0  0
 20 21  1  0  0  0
 21 22  2  0  0  0
 22 23  1  0  0  0
 23 24  2  0  0  0
 17 12  1  0  0  0
 10  1  1  0  0  0
 24 19  1  0  0  0
 10  5  1  0  0  0
 11 18  1  0  0  0
M  END
> <minimizedAffinity>
-2.55224

> <CNNscore>
0.3303151727

> <CNNaffinity>
5.7817358971

> <CNN_VS>
1.9097950459

> <CNNaffinity_variance>
0.6321310997

$$$$
[H]Oc1c([H])c([H])c(C2=C(c3c([H])c([H])c([H])c([H])c3[H])C(=O)c3c([H])c([H])c([H])c([H])c32)c([H])c1[H]


 24 27  0  0  0  0  0  0  0  0999 V2000
  -10.1995   -7.2453    8.4976 C   0  0  0  0  0  0  0  0  0  0  0  0
  -10.8021   -8.3832    8.1914 C   0  0  0  0  0  0  0  0  0  0  0  0
  -12.1753   -8.2996    8.7454 C   0  0  0  0  0  0  0  0  0  0  0  0
  -13.0449   -9.1973    8.6504 O   0  0  0  0  0  0  0  0  0  0  0  0
  -12.3354   -7.0136    9.4077 C   0  0  0  0  0  0  0  0  0  0  0  0
  -13.3494   -6.3876   10.0837 C   0  0  0  0  0  0  0  0  0  0  0  0
  -13.1606   -5.1293   10.6059 C   0  0  0  0  0  0  0  0  0  0  0  0
  -11.9556   -4.4858   10.4573 C   0  0  0  0  0  0  0  0  0  0  0  0
  -10.9280   -5.1125    9.7754 C   0  0  0  0  0  0  0  0  0  0  0  0
  -11.1302   -6.3706    9.2571 C   0  0  0  0  0  0  0  0  0  0  0  0
   -4.8165   -6.0119    7.2085 O   0  0  0  0  0  0  0  0  0  0  0  0
   -6.1385   -6.3168    7.5406 C   0  0  0  0  0  0  0  0  0  0  0  0
   -6.4997   -6.8866    8.7415 C   0  0  0  0  0  0  0  0  0  0  0  0
   -7.8249   -7.1794    9.0486 C   0  0  0  0  0  0  0  0  0  0  0  0
   -8.8280   -6.9035    8.1478 C   0  0  0  0  0  0  0  0  0  0  0  0
   -8.4784   -6.3348    6.9442 C   0  0  0  0  0  0  0  0  0  0  0  0
   -7.1641   -6.0490    6.6505 C   0  0  0  0  0  0  0  0  0  0  0  0
   -4.0614   -6.1895    7.8303 H   0  0  0  0  0  0  0  0  0  0  0  0
  -10.2988   -9.5167    7.4316 C   0  0  0  0  0  0  0  0  0  0  0  0
  -11.0317  -10.1419    6.4472 C   0  0  0  0  0  0  0  0  0  0  0  0
  -10.5436  -11.2006    5.7165 C   0  0  0  0  0  0  0  0  0  0  0  0
   -9.2727  -11.6755    5.9577 C   0  0  0  0  0  0  0  0  0  0  0  0
   -8.5118  -11.0710    6.9371 C   0  0  0  0  0  0  0  0  0  0  0  0
   -9.0330  -10.0016    7.6597 C   0  0  0  0  0  0  0  0  0  0  0  0
 11 12  1  0  0  0
 12 13  2  0  0  0
 13 14  1  0  0  0
 14 15  2  0  0  0
 15 16  1  0  0  0
 16 17  2  0  0  0
 15  1  1  0  0  0
  1  2  2  0  0  0
  2  3  1  0  0  0
  3  4  2  0  0  0
  3  5  1  0  0  0
  5  6  2  0  0  0
  6  7  1  0  0  0
  7  8  2  0  0  0
  8  9  1  0  0  0
  9 10  2  0  0  0
  2 19  1  0  0  0
 19 20  2  0  0  0
 20 21  1  0  0  0
 21 22  2  0  0  0
 22 23  1  0  0  0
 23 24  2  0  0  0
 17 12  1  0  0  0
 10  1  1  0  0  0
 24 19  1  0  0  0
 10  5  1  0  0  0
 11 18  1  0  0  0
M  END
> <minimizedAffinity>
-2.42384

> <CNNscore>
0.3242515326

> <CNNaffinity>
5.5579094887

> <CNN_VS>
1.8021606207

> <CNNaffinity_variance>
0.3692047000

$$$$
[H]Oc1c([H])c([H])c(C2=C(c3c([H])c([H])c([H])c([H])c3[H])C(=O)c3c([H])c([H])c([H])c([H])c32)c([H])c1[H]


 24 27  0  0  0  0  0  0  0  0999 V2000
  -13.3244   -8.4098    8.2637 C   0  0  0  0  0  0  0  0  0  0  0  0
  -14.3710   -8.1669    7.4907 C   0  0  0  0  0  0  0  0  0  0  0  0
  -15.5513   -8.0887    8.3855 C   0  0  0  0  0  0  0  0  0  0  0  0
  -16.7263   -7.8693    8.0083 O   0  0  0  0  0  0  0  0  0  0  0  0
  -15.1145   -8.3067    9.7566 C   0  0  0  0  0  0  0  0  0  0  0  0
  -15.7327   -8.3517   10.9784 C   0  0  0  0  0  0  0  0  0  0  0  0
  -14.9999   -8.5919   12.1172 C   0  0  0  0  0  0  0  0  0  0  0  0
  -13.6420   -8.7898   12.0444 C   0  0  0  0  0  0  0  0  0  0  0  0
  -13.0121   -8.7452   10.8135 C   0  0  0  0  0  0  0  0  0  0  0  0
  -13.7564   -8.5032    9.6824 C   0  0  0  0  0  0  0  0  0  0  0  0
   -7.9533   -8.9388    6.5226 O   0  0  0  0  0  0  0  0  0  0  0  0
   -9.2747   -8.7935    6.9513 C   0  0  0  0  0  0  0  0  0  0  0  0
   -9.7652   -7.6259    7.4929 C   0  0  0  0  0  0  0  0  0  0  0  0
  -11.0870   -7.5064    7.9113 C   0  0  0  0  0  0  0  0  0  0  0  0
  -11.9552   -8.5675    7.7939 C   0  0  0  0  0  0  0  0  0  0  0  0
  -11.4756   -9.7396    7.2548 C   0  0  0  0  0  0  0  0  0  0  0  0
  -10.1661   -9.8470    6.8439 C   0  0  0  0  0  0  0  0  0  0  0  0
   -7.2936   -8.1977    6.5841 H   0  0  0  0  0  0  0  0  0  0  0  0
  -14.4260   -7.9637    6.0516 C   0  0  0  0  0  0  0  0  0  0  0  0
  -14.4192   -9.0037    5.1487 C   0  0  0  0  0  0  0  0  0  0  0  0
  -14.4925   -8.8076    3.7888 C   0  0  0  0  0  0  0  0  0  0  0  0
  -14.5774   -7.5293    3.2814 C   0  0  0  0  0  0  0  0  0  0  0  0
  -14.5871   -6.4648    4.1592 C   0  0  0  0  0  0  0  0  0  0  0  0
  -14.5118   -6.6949    5.5300 C   0  0  0  0  0  0  0  0  0  0  0  0
 11 12  1  0  0  0
 12 13  2  0  0  0
 13 14  1  0  0  0
 14 15  2  0  0  0
 15 16  1  0  0  0
 16 17  2  0  0  0
 15  1  1  0  0  0
  1  2  2  0  0  0
  2  3  1  0  0  0
  3  4  2  0  0  0
  3  5  1  0  0  0
  5  6  2  0  0  0
  6  7  1  0  0  0
  7  8  2  0  0  0
  8  9  1  0  0  0
  9 10  2  0  0  0
  2 19  1  0  0  0
 19 20  2  0  0  0
 20 21  1  0  0  0
 21 22  2  0  0  0
 22 23  1  0  0  0
 23 24  2  0  0  0
 17 12  1  0  0  0
 10  1  1  0  0  0
 24 19  1  0  0  0
 10  5  1  0  0  0
 11 18  1  0  0  0
M  END
> <minimizedAffinity>
-1.14997

> <CNNscore>
0.2553508580

> <CNNaffinity>
5.8060312271

> <CNN_VS>
1.4825750589

> <CNNaffinity_variance>
0.2870468795

$$$$
[H]Oc1c([H])c([H])c(C2=C(c3c([H])c([H])c([H])c([H])c3[H])C(=O)c3c([H])c([H])c([H])c([H])c32)c([H])c1[H]


 24 27  0  0  0  0  0  0  0  0999 V2000
  -11.7924   -8.0727    7.9403 C   0  0  0  0  0  0  0  0  0  0  0  0
  -11.1696   -7.2143    8.7323 C   0  0  0  0  0  0  0  0  0  0  0  0
   -9.7370   -7.5982    8.7321 C   0  0  0  0  0  0  0  0  0  0  0  0
   -8.8346   -7.0092    9.3724 O   0  0  0  0  0  0  0  0  0  0  0  0
   -9.5636   -8.7593    7.8719 C   0  0  0  0  0  0  0  0  0  0  0  0
   -8.5025   -9.5386    7.4927 C   0  0  0  0  0  0  0  0  0  0  0  0
   -8.6925  -10.5998    6.6387 C   0  0  0  0  0  0  0  0  0  0  0  0
   -9.9457  -10.8916    6.1564 C   0  0  0  0  0  0  0  0  0  0  0  0
  -11.0210  -10.1081    6.5354 C   0  0  0  0  0  0  0  0  0  0  0  0
  -10.8173   -9.0492    7.3894 C   0  0  0  0  0  0  0  0  0  0  0  0
  -17.3275   -8.0274    6.7071 O   0  0  0  0  0  0  0  0  0  0  0  0
  -15.9623   -8.0263    7.0022 C   0  0  0  0  0  0  0  0  0  0  0  0
  -15.0329   -7.3336    6.2582 C   0  0  0  0  0  0  0  0  0  0  0  0
  -13.6778   -7.3477    6.5742 C   0  0  0  0  0  0  0  0  0  0  0  0
  -13.2205   -8.0651    7.6558 C   0  0  0  0  0  0  0  0  0  0  0  0
  -14.1403   -8.7619    8.4059 C   0  0  0  0  0  0  0  0  0  0  0  0
  -15.4788   -8.7409    8.0845 C   0  0  0  0  0  0  0  0  0  0  0  0
  -17.7021   -7.5198    5.9388 H   0  0  0  0  0  0  0  0  0  0  0  0
  -11.7063   -6.0736    9.4575 C   0  0  0  0  0  0  0  0  0  0  0  0
  -11.0840   -4.8452    9.4855 C   0  0  0  0  0  0  0  0  0  0  0  0
  -11.6060   -3.7628   10.1557 C   0  0  0  0  0  0  0  0  0  0  0  0
  -12.7989   -3.8838   10.8348 C   0  0  0  0  0  0  0  0  0  0  0  0
  -13.4483   -5.1012   10.8262 C   0  0  0  0  0  0  0  0  0  0  0  0
  -12.8953   -6.1780   10.1390 C   0  0  0  0  0  0  0  0  0  0  0  0
 11 12  1  0  0  0
 12 13  2  0  0  0
 13 14  1  0  0  0
 14 15  2  0  0  0
 15 16  1  0  0  0
 16 17  2  0  0  0
 15  1  1  0  0  0
  1  2  2  0  0  0
  2  3  1  0  0  0
  3  4  2  0  0  0
  3  5  1  0  0  0
  5  6  2  0  0  0
  6  7  1  0  0  0
  7  8  2  0  0  0
  8  9  1  0  0  0
  9 10  2  0  0  0
  2 19  1  0  0  0
 19 20  2  0  0  0
 20 21  1  0  0  0
 21 22  2  0  0  0
 22 23  1  0  0  0
 23 24  2  0  0  0
 17 12  1  0  0  0
 10  1  1  0  0  0
 24 19  1  0  0  0
 10  5  1  0  0  0
 11 18  1  0  0  0
M  END
> <minimizedAffinity>
-5.09654

> <CNNscore>
0.2380049080

> <CNNaffinity>
5.6907944679

> <CNN_VS>
1.3544369936

> <CNNaffinity_variance>
0.2733233273

$$$$
[H]Oc1c([H])c([H])c(C2=C(c3c([H])c([H])c([H])c([H])c3[H])C(=O)c3c([H])c([H])c([H])c([H])c32)c([H])c1[H]


 24 27  0  0  0  0  0  0  0  0999 V2000
   -4.5320   -5.7613    7.6942 C   0  0  0  0  0  0  0  0  0  0  0  0
   -4.1329   -5.2199    8.8341 C   0  0  0  0  0  0  0  0  0  0  0  0
   -2.9812   -4.3439    8.5084 C   0  0  0  0  0  0  0  0  0  0  0  0
   -2.3388   -3.6615    9.3407 O   0  0  0  0  0  0  0  0  0  0  0  0
   -2.7309   -4.4129    7.0764 C   0  0  0  0  0  0  0  0  0  0  0  0
   -1.8271   -3.8431    6.2188 C   0  0  0  0  0  0  0  0  0  0  0  0
   -1.8670   -4.1357    4.8755 C   0  0  0  0  0  0  0  0  0  0  0  0
   -2.8109   -5.0014    4.3777 C   0  0  0  0  0  0  0  0  0  0  0  0
   -3.7265   -5.5796    5.2386 C   0  0  0  0  0  0  0  0  0  0  0  0
   -3.6764   -5.2778    6.5797 C   0  0  0  0  0  0  0  0  0  0  0  0
   -8.9084   -9.3137    7.0721 O   0  0  0  0  0  0  0  0  0  0  0  0
   -7.8402   -8.4275    7.2283 C   0  0  0  0  0  0  0  0  0  0  0  0
   -7.9881   -7.0585    7.1946 C   0  0  0  0  0  0  0  0  0  0  0  0
   -6.9071   -6.1968    7.3543 C   0  0  0  0  0  0  0  0  0  0  0  0
   -5.6401   -6.6954    7.5537 C   0  0  0  0  0  0  0  0  0  0  0  0
   -5.4805   -8.0620    7.5883 C   0  0  0  0  0  0  0  0  0  0  0  0
   -6.5568   -8.9056    7.4293 C   0  0  0  0  0  0  0  0  0  0  0  0
   -9.8404   -8.9978    6.9307 H   0  0  0  0  0  0  0  0  0  0  0  0
   -4.6873   -5.3719   10.1701 C   0  0  0  0  0  0  0  0  0  0  0  0
   -5.5458   -6.3934   10.5117 C   0  0  0  0  0  0  0  0  0  0  0  0
   -6.0514   -6.5455   11.7823 C   0  0  0  0  0  0  0  0  0  0  0  0
   -5.7014   -5.6545   12.7735 C   0  0  0  0  0  0  0  0  0  0  0  0
   -4.8426   -4.6198   12.4644 C   0  0  0  0  0  0  0  0  0  0  0  0
   -4.3473   -4.4920   11.1698 C   0  0  0  0  0  0  0  0  0  0  0  0
 11 12  1  0  0  0
 12 13  2  0  0  0
 13 14  1  0  0  0
 14 15  2  0  0  0
 15 16  1  0  0  0
 16 17  2  0  0  0
 15  1  1  0  0  0
  1  2  2  0  0  0
  2  3  1  0  0  0
  3  4  2  0  0  0
  3  5  1  0  0  0
  5  6  2  0  0  0
  6  7  1  0  0  0
  7  8  2  0  0  0
  8  9  1  0  0  0
  9 10  2  0  0  0
  2 19  1  0  0  0
 19 20  2  0  0  0
 20 21  1  0  0  0
 21 22  2  0  0  0
 22 23  1  0  0  0
 23 24  2  0  0  0
 17 12  1  0  0  0
 10  1  1  0  0  0
 24 19  1  0  0  0
 10  5  1  0  0  0
 11 18  1  0  0  0
M  END
> <minimizedAffinity>
-3.55308

> <CNNscore>
0.1904604584

> <CNNaffinity>
4.5715966225

> <CNN_VS>
0.8707084060

> <CNNaffinity_variance>
0.2046855688

$$$$
[H]Oc1c([H])c([H])c(C2=C(c3c([H])c([H])c([H])c([H])c3[H])C(=O)c3c([H])c([H])c([H])c([H])c32)c([H])c1[H]


 24 27  0  0  0  0  0  0  0  0999 V2000
  -16.0042   -6.9810    5.5693 C   0  0  0  0  0  0  0  0  0  0  0  0
  -17.3213   -7.0226    5.4449 C   0  0  0  0  0  0  0  0  0  0  0  0
  -17.7130   -5.8216    4.6677 C   0  0  0  0  0  0  0  0  0  0  0  0
  -18.8880   -5.5223    4.3502 O   0  0  0  0  0  0  0  0  0  0  0  0
  -16.5142   -5.0634    4.3420 C   0  0  0  0  0  0  0  0  0  0  0  0
  -16.2529   -3.9010    3.6655 C   0  0  0  0  0  0  0  0  0  0  0  0
  -14.9604   -3.4477    3.5404 C   0  0  0  0  0  0  0  0  0  0  0  0
  -13.9174   -4.1526    4.0914 C   0  0  0  0  0  0  0  0  0  0  0  0
  -14.1749   -5.3272    4.7753 C   0  0  0  0  0  0  0  0  0  0  0  0
  -15.4719   -5.7700    4.8924 C   0  0  0  0  0  0  0  0  0  0  0  0
  -12.9524  -10.8403    8.3894 O   0  0  0  0  0  0  0  0  0  0  0  0
  -13.7060   -9.8820    7.7076 C   0  0  0  0  0  0  0  0  0  0  0  0
  -14.5332   -8.9835    8.3447 C   0  0  0  0  0  0  0  0  0  0  0  0
  -15.2728   -8.0372    7.6420 C   0  0  0  0  0  0  0  0  0  0  0  0
  -15.1977   -7.9707    6.2695 C   0  0  0  0  0  0  0  0  0  0  0  0
  -14.3749   -8.8643    5.6224 C   0  0  0  0  0  0  0  0  0  0  0  0
  -13.6473   -9.7965    6.3273 C   0  0  0  0  0  0  0  0  0  0  0  0
  -12.9724  -10.9209    9.3800 H   0  0  0  0  0  0  0  0  0  0  0  0
  -18.2593   -8.0310    5.9123 C   0  0  0  0  0  0  0  0  0  0  0  0
  -18.5957   -8.1815    7.2394 C   0  0  0  0  0  0  0  0  0  0  0  0
  -19.4996   -9.1232    7.6746 C   0  0  0  0  0  0  0  0  0  0  0  0
  -20.1088   -9.9632    6.7679 C   0  0  0  0  0  0  0  0  0  0  0  0
  -19.7941   -9.8382    5.4303 C   0  0  0  0  0  0  0  0  0  0  0  0
  -18.8758   -8.8758    5.0203 C   0  0  0  0  0  0  0  0  0  0  0  0
 11 12  1  0  0  0
 12 13  2  0  0  0
 13 14  1  0  0  0
 14 15  2  0  0  0
 15 16  1  0  0  0
 16 17  2  0  0  0
 15  1  1  0  0  0
  1  2  2  0  0  0
  2  3  1  0  0  0
  3  4  2  0  0  0
  3  5  1  0  0  0
  5  6  2  0  0  0
  6  7  1  0  0  0
  7  8  2  0  0  0
  8  9  1  0  0  0
  9 10  2  0  0  0
  2 19  1  0  0  0
 19 20  2  0  0  0
 20 21  1  0  0  0
 21 22  2  0  0  0
 22 23  1  0  0  0
 23 24  2  0  0  0
 17 12  1  0  0  0
 10  1  1  0  0  0
 24 19  1  0  0  0
 10  5  1  0  0  0
 11 18  1  0  0  0
M  END
> <minimizedAffinity>
-3.15852

> <CNNscore>
0.1873845756

> <CNNaffinity>
5.4676618576

> <CNN_VS>
1.0245554447

> <CNNaffinity_variance>
0.2115878314

$$$$
