[H]Oc1c([H])c([H])c(N2c3c([H])c([H])c([H])c([H])c3C([H])([H])C(=O)C23C([H])([H])C([H])([H])C([H])(C([H])([H])C([H])([H])C([H])([H])[H])C3([H])[H])c([H])c1[H]


 26 29  0  0  0  0  0  0  0  0999 V2000
  -13.7132   -9.1933   11.0914 C   0  0  0  0  0  0  0  0  0  0  0  0
  -13.5946   -7.7432   11.3465 C   0  0  0  0  0  0  0  0  0  0  0  0
  -13.6685   -7.0578    9.9663 C   0  0  0  0  0  0  0  0  0  0  0  0
  -13.7497   -8.1734    8.9589 C   0  0  0  0  0  0  0  0  0  0  0  0
  -13.3478   -9.4403    9.6285 C   0  0  0  0  0  0  0  0  0  0  0  0
  -13.0140   -7.9188    7.7415 N   0  0  0  0  0  0  0  0  0  0  0  0
  -13.7626   -7.3478    6.6390 C   0  0  0  0  0  0  0  0  0  0  0  0
  -13.1866   -6.4033    5.8152 C   0  0  0  0  0  0  0  0  0  0  0  0
  -13.9323   -5.8673    4.7699 C   0  0  0  0  0  0  0  0  0  0  0  0
  -15.2442   -6.2666    4.5426 C   0  0  0  0  0  0  0  0  0  0  0  0
  -15.8419   -7.2225    5.3685 C   0  0  0  0  0  0  0  0  0  0  0  0
  -15.0818   -7.7292    6.3863 C   0  0  0  0  0  0  0  0  0  0  0  0
  -15.6379   -8.7450    7.3064 C   0  0  0  0  0  0  0  0  0  0  0  0
  -15.2263   -8.3261    8.6648 C   0  0  0  0  0  0  0  0  0  0  0  0
  -16.0883   -8.1209    9.4908 O   0  0  0  0  0  0  0  0  0  0  0  0
  -11.6400   -8.1407    7.5146 C   0  0  0  0  0  0  0  0  0  0  0  0
  -11.1793   -9.3650    7.0830 C   0  0  0  0  0  0  0  0  0  0  0  0
   -9.8127   -9.5580    6.8488 C   0  0  0  0  0  0  0  0  0  0  0  0
   -8.8864   -8.5553    7.0344 C   0  0  0  0  0  0  0  0  0  0  0  0
   -7.5285   -8.7461    6.8021 O   0  0  0  0  0  0  0  0  0  0  0  0
   -9.3392   -7.3192    7.4681 C   0  0  0  0  0  0  0  0  0  0  0  0
  -10.6772   -7.1381    7.6952 C   0  0  0  0  0  0  0  0  0  0  0  0
   -7.2155   -9.6614    6.4838 H   0  0  0  0  0  0  0  0  0  0  0  0
  -12.9520  -10.1367   11.9393 C   0  0  0  0  0  0  0  0  0  0  0  0
  -12.2102  -10.8600   14.2394 C   0  0  0  0  0  0  0  0  0  0  0  0
  -13.0933   -9.9870   13.4020 C   0  0  0  0  0  0  0  0  0  0  0  0
 25 26  1  0  0  0
 26 24  1  0  0  0
 24  1  1  0  0  0
  1  2  1  0  0  0
  2  3  1  0  0  0
  3  4  1  0  0  0
  4  5  1  0  0  0
  4  6  1  0  0  0
  6  7  1  0  0  0
  7  8  2  0  0  0
  8  9  1  0  0  0
  9 10  2  0  0  0
 10 11  1  0  0  0
 11 12  2  0  0  0
 12 13  1  0  0  0
 13 14  1  0  0  0
 14 15  2  0  0  0
  6 16  1  0  0  0
 16 17  2  0  0  0
 17 18  1  0  0  0
 18 19  2  0  0  0
 19 20  1  0  0  0
 19 21  1  0  0  0
 21 22  2  0  0  0
  5  1  1  0  0  0
 12  7  1  0  0  0
 22 16  1  0  0  0
 14  4  1  0  0  0
 20 23  1  0  0  0
M  END
> <minimizedAffinity>
3.52139

> <CNNscore>
0.5200381875

> <CNNaffinity>
6.4727201462

> <CNN_VS>
3.3660616875

> <CNNaffinity_variance>
0.6297093630

$$$$
[H]Oc1c([H])c([H])c(N2c3c([H])c([H])c([H])c([H])c3C([H])([H])C(=O)C23C([H])([H])C([H])([H])C([H])(C([H])([H])C([H])([H])C([H])([H])[H])C3([H])[H])c([H])c1[H]


 26 29  0  0  0  0  0  0  0  0999 V2000
   -9.6109  -10.8812    5.4443 C   0  0  0  0  0  0  0  0  0  0  0  0
   -9.5678  -11.5515    6.7599 C   0  0  0  0  0  0  0  0  0  0  0  0
  -10.0127  -10.4960    7.7934 C   0  0  0  0  0  0  0  0  0  0  0  0
  -10.2195   -9.2235    7.0161 C   0  0  0  0  0  0  0  0  0  0  0  0
   -9.5650   -9.3735    5.6879 C   0  0  0  0  0  0  0  0  0  0  0  0
   -9.8038   -8.0322    7.7205 N   0  0  0  0  0  0  0  0  0  0  0  0
  -10.8302   -7.3260    8.4619 C   0  0  0  0  0  0  0  0  0  0  0  0
  -10.5420   -6.7475    9.6805 C   0  0  0  0  0  0  0  0  0  0  0  0
  -11.5496   -6.0831   10.3729 C   0  0  0  0  0  0  0  0  0  0  0  0
  -12.8378   -5.9928    9.8588 C   0  0  0  0  0  0  0  0  0  0  0  0
  -13.1455   -6.5738    8.6255 C   0  0  0  0  0  0  0  0  0  0  0  0
  -12.1329   -7.2192    7.9708 C   0  0  0  0  0  0  0  0  0  0  0  0
  -12.3736   -7.8612    6.6602 C   0  0  0  0  0  0  0  0  0  0  0  0
  -11.7046   -9.1795    6.7289 C   0  0  0  0  0  0  0  0  0  0  0  0
  -12.3724  -10.1746    6.5524 O   0  0  0  0  0  0  0  0  0  0  0  0
   -8.5024   -7.4931    7.7877 C   0  0  0  0  0  0  0  0  0  0  0  0
   -8.0784   -6.5441    6.8837 C   0  0  0  0  0  0  0  0  0  0  0  0
   -6.7875   -6.0109    6.9793 C   0  0  0  0  0  0  0  0  0  0  0  0
   -5.9018   -6.4014    7.9595 C   0  0  0  0  0  0  0  0  0  0  0  0
   -4.6191   -5.8724    8.0551 O   0  0  0  0  0  0  0  0  0  0  0  0
   -6.3183   -7.3553    8.8746 C   0  0  0  0  0  0  0  0  0  0  0  0
   -7.5822   -7.8722    8.7747 C   0  0  0  0  0  0  0  0  0  0  0  0
   -4.3318   -5.1725    7.3735 H   0  0  0  0  0  0  0  0  0  0  0  0
   -8.5966  -11.2311    4.4259 C   0  0  0  0  0  0  0  0  0  0  0  0
   -8.0008  -11.6186    2.0054 C   0  0  0  0  0  0  0  0  0  0  0  0
   -9.0276  -11.2029    3.0134 C   0  0  0  0  0  0  0  0  0  0  0  0
 25 26  1  0  0  0
 26 24  1  0  0  0
 24  1  1  0  0  0
  1  2  1  0  0  0
  2  3  1  0  0  0
  3  4  1  0  0  0
  4  5  1  0  0  0
  4  6  1  0  0  0
  6  7  1  0  0  0
  7  8  2  0  0  0
  8  9  1  0  0  0
  9 10  2  0  0  0
 10 11  1  0  0  0
 11 12  2  0  0  0
 12 13  1  0  0  0
 13 14  1  0  0  0
 14 15  2  0  0  0
  6 16  1  0  0  0
 16 17  2  0  0  0
 17 18  1  0  0  0
 18 19  2  0  0  0
 19 20  1  0  0  0
 19 21  1  0  0  0
 21 22  2  0  0  0
  5  1  1  0  0  0
 12  7  1  0  0  0
 22 16  1  0  0  0
 14  4  1  0  0  0
 20 23  1  0  0  0
M  END
> <minimizedAffinity>
5.03748

> <CNNscore>
0.4838949442

> <CNNaffinity>
6.0473294258

> <CNN_VS>
2.9262721539

> <CNNaffinity_variance>
0.3796557486

$$$$
[H]Oc1c([H])c([H])c(N2c3c([H])c([H])c([H])c([H])c3C([H])([H])C(=O)C23C([H])([H])C([H])([H])C([H])(C([H])([H])C([H])([H])C([H])([H])[H])C3([H])[H])c([H])c1[H]


 26 29  0  0  0  0  0  0  0  0999 V2000
  -14.6481   -7.0882    5.0271 C   0  0  0  0  0  0  0  0  0  0  0  0
  -14.7131   -8.5594    4.9115 C   0  0  0  0  0  0  0  0  0  0  0  0
  -14.3805   -9.1144    6.3119 C   0  0  0  0  0  0  0  0  0  0  0  0
  -14.0583   -7.9146    7.1620 C   0  0  0  0  0  0  0  0  0  0  0  0
  -13.8133   -6.7545    6.2625 C   0  0  0  0  0  0  0  0  0  0  0  0
  -12.9862   -8.1353    8.1055 N   0  0  0  0  0  0  0  0  0  0  0  0
  -13.3729   -8.5346    9.4445 C   0  0  0  0  0  0  0  0  0  0  0  0
  -12.6238   -9.4573   10.1446 C   0  0  0  0  0  0  0  0  0  0  0  0
  -13.0240   -9.8272   11.4249 C   0  0  0  0  0  0  0  0  0  0  0  0
  -14.1627   -9.2840   12.0084 C   0  0  0  0  0  0  0  0  0  0  0  0
  -14.9322   -8.3481   11.3119 C   0  0  0  0  0  0  0  0  0  0  0  0
  -14.5114   -8.0063   10.0562 C   0  0  0  0  0  0  0  0  0  0  0  0
  -15.2682   -7.0231    9.2511 C   0  0  0  0  0  0  0  0  0  0  0  0
  -15.3468   -7.5942    7.8881 C   0  0  0  0  0  0  0  0  0  0  0  0
  -16.4413   -7.7838    7.4048 O   0  0  0  0  0  0  0  0  0  0  0  0
  -11.6014   -8.0299    7.8608 C   0  0  0  0  0  0  0  0  0  0  0  0
  -10.9174   -6.8662    8.1354 C   0  0  0  0  0  0  0  0  0  0  0  0
   -9.5396   -6.7895    7.8996 C   0  0  0  0  0  0  0  0  0  0  0  0
   -8.8203   -7.8500    7.3939 C   0  0  0  0  0  0  0  0  0  0  0  0
   -7.4516   -7.7746    7.1592 O   0  0  0  0  0  0  0  0  0  0  0  0
   -9.4986   -9.0259    7.1145 C   0  0  0  0  0  0  0  0  0  0  0  0
  -10.8461   -9.0934    7.3476 C   0  0  0  0  0  0  0  0  0  0  0  0
   -6.9712   -6.9021    7.3710 H   0  0  0  0  0  0  0  0  0  0  0  0
  -14.1429   -6.2991    3.8824 C   0  0  0  0  0  0  0  0  0  0  0  0
  -15.8536   -4.4758    4.2187 C   0  0  0  0  0  0  0  0  0  0  0  0
  -14.4443   -4.8531    3.8801 C   0  0  0  0  0  0  0  0  0  0  0  0
 25 26  1  0  0  0
 26 24  1  0  0  0
 24  1  1  0  0  0
  1  2  1  0  0  0
  2  3  1  0  0  0
  3  4  1  0  0  0
  4  5  1  0  0  0
  4  6  1  0  0  0
  6  7  1  0  0  0
  7  8  2  0  0  0
  8  9  1  0  0  0
  9 10  2  0  0  0
 10 11  1  0  0  0
 11 12  2  0  0  0
 12 13  1  0  0  0
 13 14  1  0  0  0
 14 15  2  0  0  0
  6 16  1  0  0  0
 16 17  2  0  0  0
 17 18  1  0  0  0
 18 19  2  0  0  0
 19 20  1  0  0  0
 19 21  1  0  0  0
 21 22  2  0  0  0
  5  1  1  0  0  0
 12  7  1  0  0  0
 22 16  1  0  0  0
 14  4  1  0  0  0
 20 23  1  0  0  0
M  END
> <minimizedAffinity>
0.17359

> <CNNscore>
0.4776110649

> <CNNaffinity>
6.5790696144

> <CNN_VS>
3.1422364712

> <CNNaffinity_variance>
0.4086268544

$$$$
[H]Oc1c([H])c([H])c(N2c3c([H])c([H])c([H])c([H])c3C([H])([H])C(=O)C23C([H])([H])C([H])([H])C([H])(C([H])([H])C([H])([H])C([H])([H])[H])C3([H])[H])c([H])c1[H]


 26 29  0  0  0  0  0  0  0  0999 V2000
  -12.6528   -7.2530    8.6657 C   0  0  0  0  0  0  0  0  0  0  0  0
  -14.0184   -7.3145    9.2256 C   0  0  0  0  0  0  0  0  0  0  0  0
  -14.9517   -7.6473    8.0432 C   0  0  0  0  0  0  0  0  0  0  0  0
  -14.0701   -7.6854    6.8237 C   0  0  0  0  0  0  0  0  0  0  0  0
  -12.7767   -7.0301    7.1592 C   0  0  0  0  0  0  0  0  0  0  0  0
  -14.6885   -7.1417    5.6361 N   0  0  0  0  0  0  0  0  0  0  0  0
  -15.3427   -8.0886    4.7544 C   0  0  0  0  0  0  0  0  0  0  0  0
  -16.5187   -7.7546    4.1157 C   0  0  0  0  0  0  0  0  0  0  0  0
  -17.1279   -8.6870    3.2816 C   0  0  0  0  0  0  0  0  0  0  0  0
  -16.5729   -9.9455    3.0818 C   0  0  0  0  0  0  0  0  0  0  0  0
  -15.3817  -10.2989    3.7218 C   0  0  0  0  0  0  0  0  0  0  0  0
  -14.8088   -9.3599    4.5345 C   0  0  0  0  0  0  0  0  0  0  0  0
  -13.5474   -9.6528    5.2492 C   0  0  0  0  0  0  0  0  0  0  0  0
  -13.7394   -9.1489    6.6275 C   0  0  0  0  0  0  0  0  0  0  0  0
  -13.6244   -9.9285    7.5475 O   0  0  0  0  0  0  0  0  0  0  0  0
  -14.7484   -5.7863    5.2515 C   0  0  0  0  0  0  0  0  0  0  0  0
  -15.7012   -4.9402    5.7749 C   0  0  0  0  0  0  0  0  0  0  0  0
  -15.7318   -3.5943    5.3909 C   0  0  0  0  0  0  0  0  0  0  0  0
  -14.8310   -3.0656    4.4926 C   0  0  0  0  0  0  0  0  0  0  0  0
  -14.8609   -1.7288    4.1103 O   0  0  0  0  0  0  0  0  0  0  0  0
  -13.8678   -3.9081    3.9602 C   0  0  0  0  0  0  0  0  0  0  0  0
  -13.8442   -5.2232    4.3405 C   0  0  0  0  0  0  0  0  0  0  0  0
  -15.5761   -1.1258    4.5127 H   0  0  0  0  0  0  0  0  0  0  0  0
  -11.6939   -6.2703    9.2163 C   0  0  0  0  0  0  0  0  0  0  0  0
  -12.9737   -4.7368   10.7572 C   0  0  0  0  0  0  0  0  0  0  0  0
  -11.9328   -5.8016   10.5965 C   0  0  0  0  0  0  0  0  0  0  0  0
 25 26  1  0  0  0
 26 24  1  0  0  0
 24  1  1  0  0  0
  1  2  1  0  0  0
  2  3  1  0  0  0
  3  4  1  0  0  0
  4  5  1  0  0  0
  4  6  1  0  0  0
  6  7  1  0  0  0
  7  8  2  0  0  0
  8  9  1  0  0  0
  9 10  2  0  0  0
 10 11  1  0  0  0
 11 12  2  0  0  0
 12 13  1  0  0  0
 13 14  1  0  0  0
 14 15  2  0  0  0
  6 16  1  0  0  0
 16 17  2  0  0  0
 17 18  1  0  0  0
 18 19  2  0  0  0
 19 20  1  0  0  0
 19 21  1  0  0  0
 21 22  2  0  0  0
  5  1  1  0  0  0
 12  7  1  0  0  0
 22 16  1  0  0  0
 14  4  1  0  0  0
 20 23  1  0  0  0
M  END
> <minimizedAffinity>
1.40407

> <CNNscore>
0.4652521908

> <CNNaffinity>
6.6840400696

> <CNN_VS>
3.1097643375

> <CNNaffinity_variance>
0.5782662630

$$$$
[H]Oc1c([H])c([H])c(N2c3c([H])c([H])c([H])c([H])c3C([H])([H])C(=O)C23C([H])([H])C([H])([H])C([H])(C([H])([H])C([H])([H])C([H])([H])[H])C3([H])[H])c([H])c1[H]


 26 29  0  0  0  0  0  0  0  0999 V2000
  -14.6067   -3.1031    4.4491 C   0  0  0  0  0  0  0  0  0  0  0  0
  -13.9749   -3.9673    3.4312 C   0  0  0  0  0  0  0  0  0  0  0  0
  -14.6509   -5.3478    3.5618 C   0  0  0  0  0  0  0  0  0  0  0  0
  -15.6023   -5.2298    4.7224 C   0  0  0  0  0  0  0  0  0  0  0  0
  -15.2466   -4.0107    5.4985 C   0  0  0  0  0  0  0  0  0  0  0  0
  -15.6797   -6.4186    5.5403 N   0  0  0  0  0  0  0  0  0  0  0  0
  -16.7417   -7.3541    5.2254 C   0  0  0  0  0  0  0  0  0  0  0  0
  -16.5253   -8.7139    5.3080 C   0  0  0  0  0  0  0  0  0  0  0  0
  -17.5612   -9.5875    4.9919 C   0  0  0  0  0  0  0  0  0  0  0  0
  -18.8066   -9.1144    4.5957 C   0  0  0  0  0  0  0  0  0  0  0  0
  -19.0415   -7.7395    4.5072 C   0  0  0  0  0  0  0  0  0  0  0  0
  -18.0027   -6.9083    4.8246 C   0  0  0  0  0  0  0  0  0  0  0  0
  -18.1670   -5.4400    4.7573 C   0  0  0  0  0  0  0  0  0  0  0  0
  -16.9462   -4.9283    4.0954 C   0  0  0  0  0  0  0  0  0  0  0  0
  -17.0694   -4.2867    3.0753 O   0  0  0  0  0  0  0  0  0  0  0  0
  -14.8196   -6.7830    6.5966 C   0  0  0  0  0  0  0  0  0  0  0  0
  -15.3195   -7.1449    7.8281 C   0  0  0  0  0  0  0  0  0  0  0  0
  -14.4476   -7.5186    8.8576 C   0  0  0  0  0  0  0  0  0  0  0  0
  -13.0802   -7.5414    8.6906 C   0  0  0  0  0  0  0  0  0  0  0  0
  -12.2132   -7.9123    9.7128 O   0  0  0  0  0  0  0  0  0  0  0  0
  -12.5665   -7.1796    7.4553 C   0  0  0  0  0  0  0  0  0  0  0  0
  -13.4256   -6.8152    6.4533 C   0  0  0  0  0  0  0  0  0  0  0  0
  -12.6101   -8.1749   10.6131 H   0  0  0  0  0  0  0  0  0  0  0  0
  -13.7844   -2.0839    5.1372 C   0  0  0  0  0  0  0  0  0  0  0  0
  -14.2217   -1.0495    7.3961 C   0  0  0  0  0  0  0  0  0  0  0  0
  -14.5039   -1.0626    5.9253 C   0  0  0  0  0  0  0  0  0  0  0  0
 25 26  1  0  0  0
 26 24  1  0  0  0
 24  1  1  0  0  0
  1  2  1  0  0  0
  2  3  1  0  0  0
  3  4  1  0  0  0
  4  5  1  0  0  0
  4  6  1  0  0  0
  6  7  1  0  0  0
  7  8  2  0  0  0
  8  9  1  0  0  0
  9 10  2  0  0  0
 10 11  1  0  0  0
 11 12  2  0  0  0
 12 13  1  0  0  0
 13 14  1  0  0  0
 14 15  2  0  0  0
  6 16  1  0  0  0
 16 17  2  0  0  0
 17 18  1  0  0  0
 18 19  2  0  0  0
 19 20  1  0  0  0
 19 21  1  0  0  0
 21 22  2  0  0  0
  5  1  1  0  0  0
 12  7  1  0  0  0
 22 16  1  0  0  0
 14  4  1  0  0  0
 20 23  1  0  0  0
M  END
> <minimizedAffinity>
3.57018

> <CNNscore>
0.4587937891

> <CNNaffinity>
6.6184272766

> <CNN_VS>
3.0364933014

> <CNNaffinity_variance>
0.9353622198

$$$$
[H]Oc1c([H])c([H])c(N2c3c([H])c([H])c([H])c([H])c3C([H])([H])C(=O)C23C([H])([H])C([H])([H])C([H])(C([H])([H])C([H])([H])C([H])([H])[H])C3([H])[H])c([H])c1[H]


 26 29  0  0  0  0  0  0  0  0999 V2000
  -14.2776   -4.7232    3.7640 C   0  0  0  0  0  0  0  0  0  0  0  0
  -14.1817   -5.7888    2.7455 C   0  0  0  0  0  0  0  0  0  0  0  0
  -15.2276   -6.8525    3.1383 C   0  0  0  0  0  0  0  0  0  0  0  0
  -15.8319   -6.3747    4.4316 C   0  0  0  0  0  0  0  0  0  0  0  0
  -14.9497   -5.3194    4.9999 C   0  0  0  0  0  0  0  0  0  0  0  0
  -16.1228   -7.4346    5.3697 N   0  0  0  0  0  0  0  0  0  0  0  0
  -17.4715   -7.9663    5.3493 C   0  0  0  0  0  0  0  0  0  0  0  0
  -17.6962   -9.3148    5.5334 C   0  0  0  0  0  0  0  0  0  0  0  0
  -19.0008   -9.7973    5.5008 C   0  0  0  0  0  0  0  0  0  0  0  0
  -20.0783   -8.9458    5.2865 C   0  0  0  0  0  0  0  0  0  0  0  0
  -19.8671   -7.5771    5.0983 C   0  0  0  0  0  0  0  0  0  0  0  0
  -18.5732   -7.1355    5.1362 C   0  0  0  0  0  0  0  0  0  0  0  0
  -18.2620   -5.7020    4.9464 C   0  0  0  0  0  0  0  0  0  0  0  0
  -17.1030   -5.6601    4.0271 C   0  0  0  0  0  0  0  0  0  0  0  0
  -17.2162   -5.0544    2.9842 O   0  0  0  0  0  0  0  0  0  0  0  0
  -15.2315   -8.0281    6.2874 C   0  0  0  0  0  0  0  0  0  0  0  0
  -15.3969   -7.8663    7.6453 C   0  0  0  0  0  0  0  0  0  0  0  0
  -14.5093   -8.4780    8.5384 C   0  0  0  0  0  0  0  0  0  0  0  0
  -13.4534   -9.2526    8.1105 C   0  0  0  0  0  0  0  0  0  0  0  0
  -12.5709   -9.8605    8.9970 O   0  0  0  0  0  0  0  0  0  0  0  0
  -13.2780   -9.4223    6.7462 C   0  0  0  0  0  0  0  0  0  0  0  0
  -14.1502   -8.8209    5.8789 C   0  0  0  0  0  0  0  0  0  0  0  0
  -12.7167   -9.7238    9.9956 H   0  0  0  0  0  0  0  0  0  0  0  0
  -13.0472   -4.0173    4.1836 C   0  0  0  0  0  0  0  0  0  0  0  0
  -10.6321   -4.6643    3.8479 C   0  0  0  0  0  0  0  0  0  0  0  0
  -11.8886   -4.0893    3.2702 C   0  0  0  0  0  0  0  0  0  0  0  0
 25 26  1  0  0  0
 26 24  1  0  0  0
 24  1  1  0  0  0
  1  2  1  0  0  0
  2  3  1  0  0  0
  3  4  1  0  0  0
  4  5  1  0  0  0
  4  6  1  0  0  0
  6  7  1  0  0  0
  7  8  2  0  0  0
  8  9  1  0  0  0
  9 10  2  0  0  0
 10 11  1  0  0  0
 11 12  2  0  0  0
 12 13  1  0  0  0
 13 14  1  0  0  0
 14 15  2  0  0  0
  6 16  1  0  0  0
 16 17  2  0  0  0
 17 18  1  0  0  0
 18 19  2  0  0  0
 19 20  1  0  0  0
 19 21  1  0  0  0
 21 22  2  0  0  0
  5  1  1  0  0  0
 12  7  1  0  0  0
 22 16  1  0  0  0
 14  4  1  0  0  0
 20 23  1  0  0  0
M  END
> <minimizedAffinity>
12.58562

> <CNNscore>
0.4422201514

> <CNNaffinity>
6.5068726540

> <CNN_VS>
2.8774702549

> <CNNaffinity_variance>
0.9179657102

$$$$
[H]Oc1c([H])c([H])c(N2c3c([H])c([H])c([H])c([H])c3C([H])([H])C(=O)C23C([H])([H])C([H])([H])C([H])(C([H])([H])C([H])([H])C([H])([H])[H])C3([H])[H])c([H])c1[H]


 26 29  0  0  0  0  0  0  0  0999 V2000
   -7.3041   -7.7897    7.3692 C   0  0  0  0  0  0  0  0  0  0  0  0
   -7.2387   -8.5392    8.6403 C   0  0  0  0  0  0  0  0  0  0  0  0
   -8.6857   -8.9681    8.9599 C   0  0  0  0  0  0  0  0  0  0  0  0
   -9.5400   -8.3664    7.8762 C   0  0  0  0  0  0  0  0  0  0  0  0
   -8.7451   -7.3183    7.1799 C   0  0  0  0  0  0  0  0  0  0  0  0
  -10.8234   -7.8895    8.3383 N   0  0  0  0  0  0  0  0  0  0  0  0
  -11.9389   -8.8073    8.2147 C   0  0  0  0  0  0  0  0  0  0  0  0
  -12.9081   -8.8686    9.1943 C   0  0  0  0  0  0  0  0  0  0  0  0
  -13.9627   -9.7651    9.0521 C   0  0  0  0  0  0  0  0  0  0  0  0
  -14.0557  -10.5973    7.9427 C   0  0  0  0  0  0  0  0  0  0  0  0
  -13.0817  -10.5471    6.9417 C   0  0  0  0  0  0  0  0  0  0  0  0
  -12.0588   -9.6554    7.1120 C   0  0  0  0  0  0  0  0  0  0  0  0
  -10.9867   -9.5385    6.0997 C   0  0  0  0  0  0  0  0  0  0  0  0
   -9.7194   -9.4744    6.8612 C   0  0  0  0  0  0  0  0  0  0  0  0
   -8.8726  -10.3126    6.6428 O   0  0  0  0  0  0  0  0  0  0  0  0
  -11.1071   -6.6370    8.9209 C   0  0  0  0  0  0  0  0  0  0  0  0
  -10.2323   -5.5802    8.7960 C   0  0  0  0  0  0  0  0  0  0  0  0
  -10.5421   -4.3411    9.3690 C   0  0  0  0  0  0  0  0  0  0  0  0
  -11.7095   -4.1258   10.0681 C   0  0  0  0  0  0  0  0  0  0  0  0
  -12.0179   -2.8952   10.6378 O   0  0  0  0  0  0  0  0  0  0  0  0
  -12.5970   -5.1822   10.1994 C   0  0  0  0  0  0  0  0  0  0  0  0
  -12.2871   -6.3912    9.6363 C   0  0  0  0  0  0  0  0  0  0  0  0
  -11.3530   -2.1314   10.5303 H   0  0  0  0  0  0  0  0  0  0  0  0
   -6.3954   -6.6404    7.1650 C   0  0  0  0  0  0  0  0  0  0  0  0
   -3.9653   -6.1782    7.6599 C   0  0  0  0  0  0  0  0  0  0  0  0
   -5.3467   -6.4261    8.1829 C   0  0  0  0  0  0  0  0  0  0  0  0
 25 26  1  0  0  0
 26 24  1  0  0  0
 24  1  1  0  0  0
  1  2  1  0  0  0
  2  3  1  0  0  0
  3  4  1  0  0  0
  4  5  1  0  0  0
  4  6  1  0  0  0
  6  7  1  0  0  0
  7  8  2  0  0  0
  8  9  1  0  0  0
  9 10  2  0  0  0
 10 11  1  0  0  0
 11 12  2  0  0  0
 12 13  1  0  0  0
 13 14  1  0  0  0
 14 15  2  0  0  0
  6 16  1  0  0  0
 16 17  2  0  0  0
 17 18  1  0  0  0
 18 19  2  0  0  0
 19 20  1  0  0  0
 19 21  1  0  0  0
 21 22  2  0  0  0
  5  1  1  0  0  0
 12  7  1  0  0  0
 22 16  1  0  0  0
 14  4  1  0  0  0
 20 23  1  0  0  0
M  END
> <minimizedAffinity>
-0.03573

> <CNNscore>
0.4335598946

> <CNNaffinity>
6.1794443130

> <CNN_VS>
2.6791591644

> <CNNaffinity_variance>
0.5534552336

$$$$
[H]Oc1c([H])c([H])c(N2c3c([H])c([H])c([H])c([H])c3C([H])([H])C(=O)C23C([H])([H])C([H])([H])C([H])(C([H])([H])C([H])([H])C([H])([H])[H])C3([H])[H])c([H])c1[H]


 26 29  0  0  0  0  0  0  0  0999 V2000
  -15.1086   -6.5664    3.2453 C   0  0  0  0  0  0  0  0  0  0  0  0
  -14.8279   -8.0050    3.0619 C   0  0  0  0  0  0  0  0  0  0  0  0
  -15.8605   -8.7568    3.9272 C   0  0  0  0  0  0  0  0  0  0  0  0
  -16.6501   -7.6919    4.6403 C   0  0  0  0  0  0  0  0  0  0  0  0
  -15.9033   -6.4083    4.5406 C   0  0  0  0  0  0  0  0  0  0  0  0
  -17.0054   -8.0358    5.9981 N   0  0  0  0  0  0  0  0  0  0  0  0
  -18.3114   -8.6339    6.1948 C   0  0  0  0  0  0  0  0  0  0  0  0
  -18.4891   -9.6402    7.1213 C   0  0  0  0  0  0  0  0  0  0  0  0
  -19.7525  -10.2007    7.2823 C   0  0  0  0  0  0  0  0  0  0  0  0
  -20.8352   -9.7647    6.5275 C   0  0  0  0  0  0  0  0  0  0  0  0
  -20.6712   -8.7461    5.5848 C   0  0  0  0  0  0  0  0  0  0  0  0
  -19.4172   -8.2168    5.4512 C   0  0  0  0  0  0  0  0  0  0  0  0
  -19.1573   -7.1352    4.4765 C   0  0  0  0  0  0  0  0  0  0  0  0
  -17.8930   -7.4993    3.7988 C   0  0  0  0  0  0  0  0  0  0  0  0
  -17.9012   -7.6295    2.5945 O   0  0  0  0  0  0  0  0  0  0  0  0
  -16.2110   -7.8774    7.1524 C   0  0  0  0  0  0  0  0  0  0  0  0
  -16.5745   -8.4525    8.3502 C   0  0  0  0  0  0  0  0  0  0  0  0
  -15.7622   -8.2955    9.4794 C   0  0  0  0  0  0  0  0  0  0  0  0
  -14.5884   -7.5751    9.4460 C   0  0  0  0  0  0  0  0  0  0  0  0
  -13.7809   -7.4184   10.5674 O   0  0  0  0  0  0  0  0  0  0  0  0
  -14.2129   -6.9926    8.2458 C   0  0  0  0  0  0  0  0  0  0  0  0
  -15.0125   -7.1505    7.1456 C   0  0  0  0  0  0  0  0  0  0  0  0
  -14.0739   -7.8541   11.4400 H   0  0  0  0  0  0  0  0  0  0  0  0
  -13.9801   -5.6100    3.2582 C   0  0  0  0  0  0  0  0  0  0  0  0
  -14.7862   -3.3914    4.1481 C   0  0  0  0  0  0  0  0  0  0  0  0
  -13.9536   -4.6193    4.3534 C   0  0  0  0  0  0  0  0  0  0  0  0
 25 26  1  0  0  0
 26 24  1  0  0  0
 24  1  1  0  0  0
  1  2  1  0  0  0
  2  3  1  0  0  0
  3  4  1  0  0  0
  4  5  1  0  0  0
  4  6  1  0  0  0
  6  7  1  0  0  0
  7  8  2  0  0  0
  8  9  1  0  0  0
  9 10  2  0  0  0
 10 11  1  0  0  0
 11 12  2  0  0  0
 12 13  1  0  0  0
 13 14  1  0  0  0
 14 15  2  0  0  0
  6 16  1  0  0  0
 16 17  2  0  0  0
 17 18  1  0  0  0
 18 19  2  0  0  0
 19 20  1  0  0  0
 19 21  1  0  0  0
 21 22  2  0  0  0
  5  1  1  0  0  0
 12  7  1  0  0  0
 22 16  1  0  0  0
 14  4  1  0  0  0
 20 23  1  0  0  0
M  END
> <minimizedAffinity>
6.34462

> <CNNscore>
0.4157439470

> <CNNaffinity>
6.2345962524

> <CNN_VS>
2.5919957161

> <CNNaffinity_variance>
0.4244514406

$$$$
[H]Oc1c([H])c([H])c(N2c3c([H])c([H])c([H])c([H])c3C([H])([H])C(=O)C23C([H])([H])C([H])([H])C([H])(C([H])([H])C([H])([H])C([H])([H])[H])C3([H])[H])c([H])c1[H]


 26 29  0  0  0  0  0  0  0  0999 V2000
  -13.4001   -6.6556   10.6283 C   0  0  0  0  0  0  0  0  0  0  0  0
  -13.2562   -5.4530    9.7828 C   0  0  0  0  0  0  0  0  0  0  0  0
  -13.4274   -5.9306    8.3258 C   0  0  0  0  0  0  0  0  0  0  0  0
  -13.5874   -7.4255    8.4010 C   0  0  0  0  0  0  0  0  0  0  0  0
  -13.1437   -7.8776    9.7477 C   0  0  0  0  0  0  0  0  0  0  0  0
  -12.9413   -8.1391    7.3232 N   0  0  0  0  0  0  0  0  0  0  0  0
  -13.7657   -8.4662    6.1764 C   0  0  0  0  0  0  0  0  0  0  0  0
  -13.2468   -8.4049    4.8998 C   0  0  0  0  0  0  0  0  0  0  0  0
  -14.0643   -8.7167    3.8179 C   0  0  0  0  0  0  0  0  0  0  0  0
  -15.3912   -9.0879    4.0014 C   0  0  0  0  0  0  0  0  0  0  0  0
  -15.9316   -9.1546    5.2885 C   0  0  0  0  0  0  0  0  0  0  0  0
  -15.1017   -8.8421    6.3297 C   0  0  0  0  0  0  0  0  0  0  0  0
  -15.5940   -8.8875    7.7237 C   0  0  0  0  0  0  0  0  0  0  0  0
  -15.0822   -7.6593    8.3716 C   0  0  0  0  0  0  0  0  0  0  0  0
  -15.8806   -6.8868    8.8544 O   0  0  0  0  0  0  0  0  0  0  0  0
  -11.5886   -8.5314    7.2520 C   0  0  0  0  0  0  0  0  0  0  0  0
  -10.5739   -7.6337    7.5013 C   0  0  0  0  0  0  0  0  0  0  0  0
   -9.2385   -8.0491    7.4406 C   0  0  0  0  0  0  0  0  0  0  0  0
   -8.8852   -9.3454    7.1361 C   0  0  0  0  0  0  0  0  0  0  0  0
   -7.5587   -9.7590    7.0754 O   0  0  0  0  0  0  0  0  0  0  0  0
   -9.8982  -10.2570    6.8840 C   0  0  0  0  0  0  0  0  0  0  0  0
  -11.2020   -9.8432    6.9451 C   0  0  0  0  0  0  0  0  0  0  0  0
   -6.8288   -9.0744    7.2639 H   0  0  0  0  0  0  0  0  0  0  0  0
  -12.5836   -6.7726   11.8563 C   0  0  0  0  0  0  0  0  0  0  0  0
  -11.1698   -5.5224   13.5303 C   0  0  0  0  0  0  0  0  0  0  0  0
  -11.5907   -5.7076   12.1050 C   0  0  0  0  0  0  0  0  0  0  0  0
 25 26  1  0  0  0
 26 24  1  0  0  0
 24  1  1  0  0  0
  1  2  1  0  0  0
  2  3  1  0  0  0
  3  4  1  0  0  0
  4  5  1  0  0  0
  4  6  1  0  0  0
  6  7  1  0  0  0
  7  8  2  0  0  0
  8  9  1  0  0  0
  9 10  2  0  0  0
 10 11  1  0  0  0
 11 12  2  0  0  0
 12 13  1  0  0  0
 13 14  1  0  0  0
 14 15  2  0  0  0
  6 16  1  0  0  0
 16 17  2  0  0  0
 17 18  1  0  0  0
 18 19  2  0  0  0
 19 20  1  0  0  0
 19 21  1  0  0  0
 21 22  2  0  0  0
  5  1  1  0  0  0
 12  7  1  0  0  0
 22 16  1  0  0  0
 14  4  1  0  0  0
 20 23  1  0  0  0
M  END
> <minimizedAffinity>
-0.49205

> <CNNscore>
0.4096141160

> <CNNaffinity>
6.2105722427

> <CNN_VS>
2.5439381599

> <CNNaffinity_variance>
0.3584000468

$$$$
[H]OC(=O)c1c([H])c([H])c2c(c1[H])C([H])(c1c([H])c([H])c([H])c(C([H])(C([H])([H])[H])C([H])([H])C([H])([H])[H])c1[H])C(=O)N2[H]


 25 27  0  0  0  0  0  0  0  0999 V2000
   -8.5089   -8.3309    6.4822 C   0  0  0  0  0  0  0  0  0  0  0  0
   -7.2781   -8.1652    7.2641 C   0  0  0  0  0  0  0  0  0  0  0  0
   -6.0897   -8.4847    6.9565 O   0  0  0  0  0  0  0  0  0  0  0  0
   -7.6186   -7.5584    8.4938 N   0  0  0  0  0  0  0  0  0  0  0  0
   -9.0269   -7.3431    8.4965 C   0  0  0  0  0  0  0  0  0  0  0  0
   -9.7949   -6.7630    9.5232 C   0  0  0  0  0  0  0  0  0  0  0  0
  -11.1525   -6.6396    9.3393 C   0  0  0  0  0  0  0  0  0  0  0  0
  -11.7075   -7.0876    8.1594 C   0  0  0  0  0  0  0  0  0  0  0  0
  -10.9523   -7.6523    7.1626 C   0  0  0  0  0  0  0  0  0  0  0  0
   -9.5791   -7.7881    7.3242 C   0  0  0  0  0  0  0  0  0  0  0  0
   -6.9521   -7.3037    9.2829 H   0  0  0  0  0  0  0  0  0  0  0  0
   -8.8314  -11.4662    4.3884 C   0  0  0  0  0  0  0  0  0  0  0  0
   -9.1991  -12.3683    5.3647 C   0  0  0  0  0  0  0  0  0  0  0  0
   -9.3510  -12.0008    6.6984 C   0  0  0  0  0  0  0  0  0  0  0  0
   -9.1168  -10.6642    7.0353 C   0  0  0  0  0  0  0  0  0  0  0  0
   -8.7482   -9.7401    6.0827 C   0  0  0  0  0  0  0  0  0  0  0  0
   -8.6119  -10.1494    4.7854 C   0  0  0  0  0  0  0  0  0  0  0  0
   -8.6727  -11.8718    2.9683 C   0  0  0  0  0  0  0  0  0  0  0  0
   -8.1393  -13.2724    2.8635 C   0  0  0  0  0  0  0  0  0  0  0  0
   -7.6094  -11.4416    0.8077 C   0  0  0  0  0  0  0  0  0  0  0  0
   -7.7335  -10.9396    2.2326 C   0  0  0  0  0  0  0  0  0  0  0  0
  -13.1370   -6.9597    7.9615 C   0  0  0  0  0  0  0  0  0  0  0  0
  -13.8928   -6.2825    8.8974 O   0  0  0  0  0  0  0  0  0  0  0  0
  -13.6717   -7.4587    6.9538 O   0  0  0  0  0  0  0  0  0  0  0  0
  -13.8682   -6.6338    9.8598 H   0  0  0  0  0  0  0  0  0  0  0  0
 20 21  1  0  0  0
 21 18  1  0  0  0
 18 19  1  0  0  0
 18 12  1  0  0  0
 12 13  2  0  0  0
 13 14  1  0  0  0
 14 15  2  0  0  0
 15 16  1  0  0  0
 16 17  2  0  0  0
 16  1  1  0  0  0
  1  2  1  0  0  0
  2  3  2  0  0  0
  2  4  1  0  0  0
  4  5  1  0  0  0
  5  6  2  0  0  0
  6  7  1  0  0  0
  7  8  2  0  0  0
  8  9  1  0  0  0
  9 10  2  0  0  0
  8 22  1  0  0  0
 22 23  1  0  0  0
 22 24  2  0  0  0
 17 12  1  0  0  0
 10  1  1  0  0  0
 10  5  1  0  0  0
  4 11  1  0  0  0
 23 25  1  0  0  0
M  END
> <minimizedAffinity>
8.48053

> <CNNscore>
0.5368176699

> <CNNaffinity>
5.6412534714

> <CNN_VS>
3.0283246040

> <CNNaffinity_variance>
1.6636450291

$$$$
[H]OC(=O)c1c([H])c([H])c2c(c1[H])C([H])(c1c([H])c([H])c([H])c(C([H])(C([H])([H])[H])C([H])([H])C([H])([H])[H])c1[H])C(=O)N2[H]


 25 27  0  0  0  0  0  0  0  0999 V2000
  -14.9917   -6.3640    4.2733 C   0  0  0  0  0  0  0  0  0  0  0  0
  -14.9276   -4.9314    3.9614 C   0  0  0  0  0  0  0  0  0  0  0  0
  -13.9079   -4.2066    3.7517 O   0  0  0  0  0  0  0  0  0  0  0  0
  -16.2486   -4.4317    3.9233 N   0  0  0  0  0  0  0  0  0  0  0  0
  -17.1308   -5.5150    4.2029 C   0  0  0  0  0  0  0  0  0  0  0  0
  -18.5359   -5.4704    4.2672 C   0  0  0  0  0  0  0  0  0  0  0  0
  -19.2182   -6.6302    4.5528 C   0  0  0  0  0  0  0  0  0  0  0  0
  -18.5015   -7.7888    4.7645 C   0  0  0  0  0  0  0  0  0  0  0  0
  -17.1313   -7.8246    4.7002 C   0  0  0  0  0  0  0  0  0  0  0  0
  -16.4192   -6.6667    4.4134 C   0  0  0  0  0  0  0  0  0  0  0  0
  -16.5435   -3.4294    3.7230 H   0  0  0  0  0  0  0  0  0  0  0  0
  -13.9936   -7.8929    7.5875 C   0  0  0  0  0  0  0  0  0  0  0  0
  -12.7208   -7.3774    7.7144 C   0  0  0  0  0  0  0  0  0  0  0  0
  -12.1582   -6.5394    6.7562 C   0  0  0  0  0  0  0  0  0  0  0  0
  -12.9307   -6.2239    5.6343 C   0  0  0  0  0  0  0  0  0  0  0  0
  -14.2050   -6.7234    5.4794 C   0  0  0  0  0  0  0  0  0  0  0  0
  -14.7140   -7.5427    6.4482 C   0  0  0  0  0  0  0  0  0  0  0  0
  -14.5821   -8.7865    8.6180 C   0  0  0  0  0  0  0  0  0  0  0  0
  -15.7853   -8.1537    9.2575 C   0  0  0  0  0  0  0  0  0  0  0  0
  -12.3666   -9.7381    9.0300 C   0  0  0  0  0  0  0  0  0  0  0  0
  -13.5751   -9.1148    9.6999 C   0  0  0  0  0  0  0  0  0  0  0  0
  -19.2160   -9.0126    5.0656 C   0  0  0  0  0  0  0  0  0  0  0  0
  -18.5428  -10.2172    5.0280 O   0  0  0  0  0  0  0  0  0  0  0  0
  -20.4263   -8.9702    5.3550 O   0  0  0  0  0  0  0  0  0  0  0  0
  -18.0962  -10.4747    4.1422 H   0  0  0  0  0  0  0  0  0  0  0  0
 20 21  1  0  0  0
 21 18  1  0  0  0
 18 19  1  0  0  0
 18 12  1  0  0  0
 12 13  2  0  0  0
 13 14  1  0  0  0
 14 15  2  0  0  0
 15 16  1  0  0  0
 16 17  2  0  0  0
 16  1  1  0  0  0
  1  2  1  0  0  0
  2  3  2  0  0  0
  2  4  1  0  0  0
  4  5  1  0  0  0
  5  6  2  0  0  0
  6  7  1  0  0  0
  7  8  2  0  0  0
  8  9  1  0  0  0
  9 10  2  0  0  0
  8 22  1  0  0  0
 22 23  1  0  0  0
 22 24  2  0  0  0
 17 12  1  0  0  0
 10  1  1  0  0  0
 10  5  1  0  0  0
  4 11  1  0  0  0
 23 25  1  0  0  0
M  END
> <minimizedAffinity>
1.08624

> <CNNscore>
0.5076861978

> <CNNaffinity>
6.1449227333

> <CNN_VS>
3.1196925640

> <CNNaffinity_variance>
1.4555498362

$$$$
[H]OC(=O)c1c([H])c([H])c2c(c1[H])C([H])(c1c([H])c([H])c([H])c(C([H])(C([H])([H])[H])C([H])([H])C([H])([H])[H])c1[H])C(=O)N2[H]


 25 27  0  0  0  0  0  0  0  0999 V2000
  -13.8005   -5.7401    9.8055 C   0  0  0  0  0  0  0  0  0  0  0  0
  -12.8601   -4.6213    9.9381 C   0  0  0  0  0  0  0  0  0  0  0  0
  -12.7301   -3.5980    9.1999 O   0  0  0  0  0  0  0  0  0  0  0  0
  -12.0614   -4.8533   11.0802 N   0  0  0  0  0  0  0  0  0  0  0  0
  -12.4805   -6.0853   11.6601 C   0  0  0  0  0  0  0  0  0  0  0  0
  -11.9582   -6.7023   12.8121 C   0  0  0  0  0  0  0  0  0  0  0  0
  -12.4986   -7.8999   13.2191 C   0  0  0  0  0  0  0  0  0  0  0  0
  -13.5285   -8.4487   12.4849 C   0  0  0  0  0  0  0  0  0  0  0  0
  -14.0327   -7.8414   11.3625 C   0  0  0  0  0  0  0  0  0  0  0  0
  -13.5039   -6.6312   10.9310 C   0  0  0  0  0  0  0  0  0  0  0  0
  -11.2843   -4.2279   11.4501 H   0  0  0  0  0  0  0  0  0  0  0  0
  -12.8663   -8.2210    7.1055 C   0  0  0  0  0  0  0  0  0  0  0  0
  -13.5294   -7.6655    6.0313 C   0  0  0  0  0  0  0  0  0  0  0  0
  -14.2813   -6.4997    6.1427 C   0  0  0  0  0  0  0  0  0  0  0  0
  -14.3515   -5.8888    7.3984 C   0  0  0  0  0  0  0  0  0  0  0  0
  -13.7003   -6.4197    8.4899 C   0  0  0  0  0  0  0  0  0  0  0  0
  -12.9739   -7.5668    8.3303 C   0  0  0  0  0  0  0  0  0  0  0  0
  -12.0671   -9.4661    6.9727 C   0  0  0  0  0  0  0  0  0  0  0  0
  -11.6765   -9.7066    5.5421 C   0  0  0  0  0  0  0  0  0  0  0  0
  -14.0686  -10.1592    8.1963 C   0  0  0  0  0  0  0  0  0  0  0  0
  -12.8379  -10.6693    7.4731 C   0  0  0  0  0  0  0  0  0  0  0  0
  -14.1008   -9.7101   12.9098 C   0  0  0  0  0  0  0  0  0  0  0  0
  -13.2641  -10.7628   13.2221 O   0  0  0  0  0  0  0  0  0  0  0  0
  -15.3369   -9.8357   12.9903 O   0  0  0  0  0  0  0  0  0  0  0  0
  -12.6257  -11.0851   12.4880 H   0  0  0  0  0  0  0  0  0  0  0  0
 20 21  1  0  0  0
 21 18  1  0  0  0
 18 19  1  0  0  0
 18 12  1  0  0  0
 12 13  2  0  0  0
 13 14  1  0  0  0
 14 15  2  0  0  0
 15 16  1  0  0  0
 16 17  2  0  0  0
 16  1  1  0  0  0
  1  2  1  0  0  0
  2  3  2  0  0  0
  2  4  1  0  0  0
  4  5  1  0  0  0
  5  6  2  0  0  0
  6  7  1  0  0  0
  7  8  2  0  0  0
  8  9  1  0  0  0
  9 10  2  0  0  0
  8 22  1  0  0  0
 22 23  1  0  0  0
 22 24  2  0  0  0
 17 12  1  0  0  0
 10  1  1  0  0  0
 10  5  1  0  0  0
  4 11  1  0  0  0
 23 25  1  0  0  0
M  END
> <minimizedAffinity>
16.43588

> <CNNscore>
0.4632026255

> <CNNaffinity>
5.7037096024

> <CNN_VS>
2.6419732571

> <CNNaffinity_variance>
1.3469829559

$$$$
[H]OC(=O)c1c([H])c([H])c2c(c1[H])C([H])(c1c([H])c([H])c([H])c(C([H])(C([H])([H])[H])C([H])([H])C([H])([H])[H])c1[H])C(=O)N2[H]


 25 27  0  0  0  0  0  0  0  0999 V2000
   -5.4204   -7.9875    8.0557 C   0  0  0  0  0  0  0  0  0  0  0  0
   -5.8963   -6.7337    8.6517 C   0  0  0  0  0  0  0  0  0  0  0  0
   -6.8694   -6.5471    9.4438 O   0  0  0  0  0  0  0  0  0  0  0  0
   -5.0657   -5.6872    8.1923 N   0  0  0  0  0  0  0  0  0  0  0  0
   -4.0874   -6.2572    7.3275 C   0  0  0  0  0  0  0  0  0  0  0  0
   -3.0584   -5.5800    6.6470 C   0  0  0  0  0  0  0  0  0  0  0  0
   -2.2054   -6.3091    5.8513 C   0  0  0  0  0  0  0  0  0  0  0  0
   -2.3907   -7.6716    5.7512 C   0  0  0  0  0  0  0  0  0  0  0  0
   -3.3964   -8.3251    6.4177 C   0  0  0  0  0  0  0  0  0  0  0  0
   -4.2709   -7.6112    7.2275 C   0  0  0  0  0  0  0  0  0  0  0  0
   -5.1467   -4.6559    8.4405 H   0  0  0  0  0  0  0  0  0  0  0  0
   -7.2879   -9.6790    5.2328 C   0  0  0  0  0  0  0  0  0  0  0  0
   -8.4571  -10.0103    5.8849 C   0  0  0  0  0  0  0  0  0  0  0  0
   -8.6739   -9.7049    7.2253 C   0  0  0  0  0  0  0  0  0  0  0  0
   -7.6553   -9.0384    7.9133 C   0  0  0  0  0  0  0  0  0  0  0  0
   -6.4765   -8.6945    7.2892 C   0  0  0  0  0  0  0  0  0  0  0  0
   -6.3105   -9.0161    5.9709 C   0  0  0  0  0  0  0  0  0  0  0  0
   -7.0694  -10.0111    3.8015 C   0  0  0  0  0  0  0  0  0  0  0  0
   -6.5910   -8.8103    3.0359 C   0  0  0  0  0  0  0  0  0  0  0  0
   -7.9434  -11.5170    2.0834 C   0  0  0  0  0  0  0  0  0  0  0  0
   -8.3400  -10.5223    3.1562 C   0  0  0  0  0  0  0  0  0  0  0  0
   -1.4947   -8.4435    4.9142 C   0  0  0  0  0  0  0  0  0  0  0  0
   -1.0780   -9.6899    5.3367 O   0  0  0  0  0  0  0  0  0  0  0  0
   -1.1085   -7.9801    3.8250 O   0  0  0  0  0  0  0  0  0  0  0  0
   -0.5837   -9.7376    6.2333 H   0  0  0  0  0  0  0  0  0  0  0  0
 20 21  1  0  0  0
 21 18  1  0  0  0
 18 19  1  0  0  0
 18 12  1  0  0  0
 12 13  2  0  0  0
 13 14  1  0  0  0
 14 15  2  0  0  0
 15 16  1  0  0  0
 16 17  2  0  0  0
 16  1  1  0  0  0
  1  2  1  0  0  0
  2  3  2  0  0  0
  2  4  1  0  0  0
  4  5  1  0  0  0
  5  6  2  0  0  0
  6  7  1  0  0  0
  7  8  2  0  0  0
  8  9  1  0  0  0
  9 10  2  0  0  0
  8 22  1  0  0  0
 22 23  1  0  0  0
 22 24  2  0  0  0
 17 12  1  0  0  0
 10  1  1  0  0  0
 10  5  1  0  0  0
  4 11  1  0  0  0
 23 25  1  0  0  0
M  END
> <minimizedAffinity>
6.19935

> <CNNscore>
0.4561689794

> <CNNaffinity>
4.7628831863

> <CNN_VS>
2.1726796627

> <CNNaffinity_variance>
0.8941691518

$$$$
[H]OC(=O)c1c([H])c([H])c2c(c1[H])C([H])(c1c([H])c([H])c([H])c(C([H])(C([H])([H])[H])C([H])([H])C([H])([H])[H])c1[H])C(=O)N2[H]


 25 27  0  0  0  0  0  0  0  0999 V2000
  -14.0343   -8.2545    7.8083 C   0  0  0  0  0  0  0  0  0  0  0  0
  -13.7178   -9.6631    7.5450 C   0  0  0  0  0  0  0  0  0  0  0  0
  -13.3103  -10.5525    8.3524 O   0  0  0  0  0  0  0  0  0  0  0  0
  -13.9439   -9.9139    6.1731 N   0  0  0  0  0  0  0  0  0  0  0  0
  -14.3921   -8.6996    5.5778 C   0  0  0  0  0  0  0  0  0  0  0  0
  -14.7348   -8.4915    4.2288 C   0  0  0  0  0  0  0  0  0  0  0  0
  -15.1490   -7.2384    3.8413 C   0  0  0  0  0  0  0  0  0  0  0  0
  -15.2125   -6.2368    4.7866 C   0  0  0  0  0  0  0  0  0  0  0  0
  -14.8767   -6.4471    6.1004 C   0  0  0  0  0  0  0  0  0  0  0  0
  -14.4555   -7.7038    6.5167 C   0  0  0  0  0  0  0  0  0  0  0  0
  -13.8075  -10.8386    5.6651 H   0  0  0  0  0  0  0  0  0  0  0  0
  -10.5230   -7.0678    8.5704 C   0  0  0  0  0  0  0  0  0  0  0  0
  -10.7952   -6.1225    9.5370 C   0  0  0  0  0  0  0  0  0  0  0  0
  -12.0908   -5.8452    9.9630 C   0  0  0  0  0  0  0  0  0  0  0  0
  -13.1362   -6.5637    9.3751 C   0  0  0  0  0  0  0  0  0  0  0  0
  -12.8960   -7.5140    8.4072 C   0  0  0  0  0  0  0  0  0  0  0  0
  -11.6059   -7.7508    8.0220 C   0  0  0  0  0  0  0  0  0  0  0  0
   -9.1351   -7.3539    8.1248 C   0  0  0  0  0  0  0  0  0  0  0  0
   -8.6865   -6.3637    7.0878 C   0  0  0  0  0  0  0  0  0  0  0  0
   -7.6742   -9.3086    7.9566 C   0  0  0  0  0  0  0  0  0  0  0  0
   -9.0209   -8.7478    7.5449 C   0  0  0  0  0  0  0  0  0  0  0  0
  -15.6481   -4.9153    4.3829 C   0  0  0  0  0  0  0  0  0  0  0  0
  -16.9822   -4.6978    4.1025 O   0  0  0  0  0  0  0  0  0  0  0  0
  -14.8208   -3.9893    4.2921 O   0  0  0  0  0  0  0  0  0  0  0  0
  -17.4021   -5.2676    3.3613 H   0  0  0  0  0  0  0  0  0  0  0  0
 20 21  1  0  0  0
 21 18  1  0  0  0
 18 19  1  0  0  0
 18 12  1  0  0  0
 12 13  2  0  0  0
 13 14  1  0  0  0
 14 15  2  0  0  0
 15 16  1  0  0  0
 16 17  2  0  0  0
 16  1  1  0  0  0
  1  2  1  0  0  0
  2  3  2  0  0  0
  2  4  1  0  0  0
  4  5  1  0  0  0
  5  6  2  0  0  0
  6  7  1  0  0  0
  7  8  2  0  0  0
  8  9  1  0  0  0
  9 10  2  0  0  0
  8 22  1  0  0  0
 22 23  1  0  0  0
 22 24  2  0  0  0
 17 12  1  0  0  0
 10  1  1  0  0  0
 10  5  1  0  0  0
  4 11  1  0  0  0
 23 25  1  0  0  0
M  END
> <minimizedAffinity>
-10.77926

> <CNNscore>
0.3896829188

> <CNNaffinity>
6.2894186974

> <CNN_VS>
2.4508790970

> <CNNaffinity_variance>
0.1127054915

$$$$
[H]OC(=O)c1c([H])c([H])c2c(c1[H])C([H])(c1c([H])c([H])c([H])c(C([H])(C([H])([H])[H])C([H])([H])C([H])([H])[H])c1[H])C(=O)N2[H]


 25 27  0  0  0  0  0  0  0  0999 V2000
   -3.6201   -4.3692    8.5348 C   0  0  0  0  0  0  0  0  0  0  0  0
   -2.6775   -3.5845    7.7289 C   0  0  0  0  0  0  0  0  0  0  0  0
   -2.7434   -3.2774    6.4999 O   0  0  0  0  0  0  0  0  0  0  0  0
   -1.6100   -3.1883    8.5654 N   0  0  0  0  0  0  0  0  0  0  0  0
   -1.8644   -3.7056    9.8683 C   0  0  0  0  0  0  0  0  0  0  0  0
   -1.0613   -3.5529   11.0138 C   0  0  0  0  0  0  0  0  0  0  0  0
   -1.4777   -4.1307   12.1907 C   0  0  0  0  0  0  0  0  0  0  0  0
   -2.6627   -4.8353   12.2029 C   0  0  0  0  0  0  0  0  0  0  0  0
   -3.4406   -4.9800   11.0819 C   0  0  0  0  0  0  0  0  0  0  0  0
   -3.0418   -4.4060    9.8813 C   0  0  0  0  0  0  0  0  0  0  0  0
   -0.7636   -2.6083    8.2842 H   0  0  0  0  0  0  0  0  0  0  0  0
   -5.3723   -7.4031    7.1055 C   0  0  0  0  0  0  0  0  0  0  0  0
   -4.2925   -8.2439    6.9349 C   0  0  0  0  0  0  0  0  0  0  0  0
   -2.9952   -7.8663    7.2685 C   0  0  0  0  0  0  0  0  0  0  0  0
   -2.8058   -6.5842    7.7931 C   0  0  0  0  0  0  0  0  0  0  0  0
   -3.8643   -5.7218    7.9749 C   0  0  0  0  0  0  0  0  0  0  0  0
   -5.1204   -6.1387    7.6322 C   0  0  0  0  0  0  0  0  0  0  0  0
   -6.7522   -7.8189    6.7451 C   0  0  0  0  0  0  0  0  0  0  0  0
   -6.7482   -8.7146    5.5391 C   0  0  0  0  0  0  0  0  0  0  0  0
   -8.8528   -6.7174    7.3435 C   0  0  0  0  0  0  0  0  0  0  0  0
   -7.6289   -6.6192    6.4545 C   0  0  0  0  0  0  0  0  0  0  0  0
   -3.1052   -5.4456   13.4403 C   0  0  0  0  0  0  0  0  0  0  0  0
   -3.9890   -4.7649   14.2534 O   0  0  0  0  0  0  0  0  0  0  0  0
   -2.6877   -6.5741   13.7603 O   0  0  0  0  0  0  0  0  0  0  0  0
   -3.6953   -3.8439   14.5939 H   0  0  0  0  0  0  0  0  0  0  0  0
 20 21  1  0  0  0
 21 18  1  0  0  0
 18 19  1  0  0  0
 18 12  1  0  0  0
 12 13  2  0  0  0
 13 14  1  0  0  0
 14 15  2  0  0  0
 15 16  1  0  0  0
 16 17  2  0  0  0
 16  1  1  0  0  0
  1  2  1  0  0  0
  2  3  2  0  0  0
  2  4  1  0  0  0
  4  5  1  0  0  0
  5  6  2  0  0  0
  6  7  1  0  0  0
  7  8  2  0  0  0
  8  9  1  0  0  0
  9 10  2  0  0  0
  8 22  1  0  0  0
 22 23  1  0  0  0
 22 24  2  0  0  0
 17 12  1  0  0  0
 10  1  1  0  0  0
 10  5  1  0  0  0
  4 11  1  0  0  0
 23 25  1  0  0  0
M  END
> <minimizedAffinity>
-4.78118

> <CNNscore>
0.3598907292

> <CNNaffinity>
4.4828577042

> <CNN_VS>
1.6133389473

> <CNNaffinity_variance>
0.0728473514

$$$$
[H]OC(=O)c1c([H])c([H])c2c(c1[H])C([H])(c1c([H])c([H])c([H])c(C([H])(C([H])([H])[H])C([H])([H])C([H])([H])[H])c1[H])C(=O)N2[H]


 25 27  0  0  0  0  0  0  0  0999 V2000
  -14.8503   -7.2021    4.4381 C   0  0  0  0  0  0  0  0  0  0  0  0
  -14.5855   -5.7826    4.1759 C   0  0  0  0  0  0  0  0  0  0  0  0
  -13.4770   -5.2061    3.9572 O   0  0  0  0  0  0  0  0  0  0  0  0
  -15.8194   -5.0948    4.2014 N   0  0  0  0  0  0  0  0  0  0  0  0
  -16.8426   -6.0485    4.4722 C   0  0  0  0  0  0  0  0  0  0  0  0
  -18.2235   -5.8024    4.5867 C   0  0  0  0  0  0  0  0  0  0  0  0
  -19.0602   -6.8611    4.8538 C   0  0  0  0  0  0  0  0  0  0  0  0
  -18.5155   -8.1193    4.9989 C   0  0  0  0  0  0  0  0  0  0  0  0
  -17.1678   -8.3517    4.8860 C   0  0  0  0  0  0  0  0  0  0  0  0
  -16.3020   -7.2991    4.6165 C   0  0  0  0  0  0  0  0  0  0  0  0
  -15.9695   -4.0529    4.0476 H   0  0  0  0  0  0  0  0  0  0  0  0
  -12.9645   -7.3626    7.7147 C   0  0  0  0  0  0  0  0  0  0  0  0
  -12.6773   -8.7108    7.7589 C   0  0  0  0  0  0  0  0  0  0  0  0
  -13.0743   -9.5896    6.7554 C   0  0  0  0  0  0  0  0  0  0  0  0
  -13.7883   -9.0629    5.6748 C   0  0  0  0  0  0  0  0  0  0  0  0
  -14.0903   -7.7209    5.6026 C   0  0  0  0  0  0  0  0  0  0  0  0
  -13.6785   -6.8974    6.6131 C   0  0  0  0  0  0  0  0  0  0  0  0
  -12.5348   -6.4355    8.7928 C   0  0  0  0  0  0  0  0  0  0  0  0
  -11.1923   -6.8293    9.3400 C   0  0  0  0  0  0  0  0  0  0  0  0
  -13.1518   -5.2793   10.8583 C   0  0  0  0  0  0  0  0  0  0  0  0
  -13.5342   -6.4149    9.9300 C   0  0  0  0  0  0  0  0  0  0  0  0
  -19.3930   -9.2373    5.2804 C   0  0  0  0  0  0  0  0  0  0  0  0
  -20.6544   -8.9977    5.7876 O   0  0  0  0  0  0  0  0  0  0  0  0
  -19.0058  -10.4007    5.0640 O   0  0  0  0  0  0  0  0  0  0  0  0
  -20.7115   -8.4874    6.6745 H   0  0  0  0  0  0  0  0  0  0  0  0
 20 21  1  0  0  0
 21 18  1  0  0  0
 18 19  1  0  0  0
 18 12  1  0  0  0
 12 13  2  0  0  0
 13 14  1  0  0  0
 14 15  2  0  0  0
 15 16  1  0  0  0
 16 17  2  0  0  0
 16  1  1  0  0  0
  1  2  1  0  0  0
  2  3  2  0  0  0
  2  4  1  0  0  0
  4  5  1  0  0  0
  5  6  2  0  0  0
  6  7  1  0  0  0
  7  8  2  0  0  0
  8  9  1  0  0  0
  9 10  2  0  0  0
  8 22  1  0  0  0
 22 23  1  0  0  0
 22 24  2  0  0  0
 17 12  1  0  0  0
 10  1  1  0  0  0
 10  5  1  0  0  0
  4 11  1  0  0  0
 23 25  1  0  0  0
M  END
> <minimizedAffinity>
-4.72861

> <CNNscore>
0.3373322189

> <CNNaffinity>
6.0606999397

> <CNN_VS>
2.0444693565

> <CNNaffinity_variance>
0.6043456793

$$$$
[H]OC(=O)c1c([H])c([H])c2c(c1[H])C([H])(c1c([H])c([H])c([H])c(C([H])(C([H])([H])[H])C([H])([H])C([H])([H])[H])c1[H])C(=O)N2[H]


 25 27  0  0  0  0  0  0  0  0999 V2000
  -13.8121   -8.2421    7.7216 C   0  0  0  0  0  0  0  0  0  0  0  0
  -13.6046   -9.6726    7.4677 C   0  0  0  0  0  0  0  0  0  0  0  0
  -13.1772  -10.5682    8.2578 O   0  0  0  0  0  0  0  0  0  0  0  0
  -13.9710   -9.9377    6.1291 N   0  0  0  0  0  0  0  0  0  0  0  0
  -14.4002   -8.7110    5.5454 C   0  0  0  0  0  0  0  0  0  0  0  0
  -14.8533   -8.5106    4.2282 C   0  0  0  0  0  0  0  0  0  0  0  0
  -15.2272   -7.2428    3.8471 C   0  0  0  0  0  0  0  0  0  0  0  0
  -15.1441   -6.2198    4.7676 C   0  0  0  0  0  0  0  0  0  0  0  0
  -14.7012   -6.4227    6.0504 C   0  0  0  0  0  0  0  0  0  0  0  0
  -14.3178   -7.6938    6.4596 C   0  0  0  0  0  0  0  0  0  0  0  0
  -13.9367  -10.8794    5.6354 H   0  0  0  0  0  0  0  0  0  0  0  0
  -10.1906   -7.2056    8.0795 C   0  0  0  0  0  0  0  0  0  0  0  0
  -10.3072   -6.2770    9.0925 C   0  0  0  0  0  0  0  0  0  0  0  0
  -11.5303   -5.9639    9.6780 C   0  0  0  0  0  0  0  0  0  0  0  0
  -12.6664   -6.6277    9.2051 C   0  0  0  0  0  0  0  0  0  0  0  0
  -12.5818   -7.5600    8.1947 C   0  0  0  0  0  0  0  0  0  0  0  0
  -11.3576   -7.8336    7.6511 C   0  0  0  0  0  0  0  0  0  0  0  0
   -8.8786   -7.5303    7.4632 C   0  0  0  0  0  0  0  0  0  0  0  0
   -7.8702   -7.9109    8.5097 C   0  0  0  0  0  0  0  0  0  0  0  0
   -7.1494   -6.8510    5.8719 C   0  0  0  0  0  0  0  0  0  0  0  0
   -8.3377   -6.3574    6.6732 C   0  0  0  0  0  0  0  0  0  0  0  0
  -15.5368   -4.8829    4.3706 C   0  0  0  0  0  0  0  0  0  0  0  0
  -14.6160   -3.8569    4.4416 O   0  0  0  0  0  0  0  0  0  0  0  0
  -16.6962   -4.6693    3.9700 O   0  0  0  0  0  0  0  0  0  0  0  0
  -14.2009   -3.6650    5.3588 H   0  0  0  0  0  0  0  0  0  0  0  0
 20 21  1  0  0  0
 21 18  1  0  0  0
 18 19  1  0  0  0
 18 12  1  0  0  0
 12 13  2  0  0  0
 13 14  1  0  0  0
 14 15  2  0  0  0
 15 16  1  0  0  0
 16 17  2  0  0  0
 16  1  1  0  0  0
  1  2  1  0  0  0
  2  3  2  0  0  0
  2  4  1  0  0  0
  4  5  1  0  0  0
  5  6  2  0  0  0
  6  7  1  0  0  0
  7  8  2  0  0  0
  8  9  1  0  0  0
  9 10  2  0  0  0
  8 22  1  0  0  0
 22 23  1  0  0  0
 22 24  2  0  0  0
 17 12  1  0  0  0
 10  1  1  0  0  0
 10  5  1  0  0  0
  4 11  1  0  0  0
 23 25  1  0  0  0
M  END
> <minimizedAffinity>
-10.33458

> <CNNscore>
0.2723500431

> <CNNaffinity>
6.2399649620

> <CNN_VS>
1.6994547844

> <CNNaffinity_variance>
0.1591169089

$$$$
[H]OC(=O)c1c([H])c([H])c2c(c1[H])C([H])(c1c([H])c([H])c([H])c(C([H])(C([H])([H])[H])C([H])([H])C([H])([H])[H])c1[H])C(=O)N2[H]


 25 27  0  0  0  0  0  0  0  0999 V2000
  -14.6354   -6.6627    4.8314 C   0  0  0  0  0  0  0  0  0  0  0  0
  -14.4886   -5.2702    4.3918 C   0  0  0  0  0  0  0  0  0  0  0  0
  -13.4325   -4.5758    4.2844 O   0  0  0  0  0  0  0  0  0  0  0  0
  -15.7734   -4.7708    4.0820 N   0  0  0  0  0  0  0  0  0  0  0  0
  -16.7135   -5.8152    4.3172 C   0  0  0  0  0  0  0  0  0  0  0  0
  -18.1084   -5.7575    4.1396 C   0  0  0  0  0  0  0  0  0  0  0  0
  -18.8542   -6.8783    4.4221 C   0  0  0  0  0  0  0  0  0  0  0  0
  -18.2085   -8.0122    4.8671 C   0  0  0  0  0  0  0  0  0  0  0  0
  -16.8478   -8.0611    5.0379 C   0  0  0  0  0  0  0  0  0  0  0  0
  -16.0725   -6.9424    4.7595 C   0  0  0  0  0  0  0  0  0  0  0  0
  -16.0086   -3.7931    3.7348 H   0  0  0  0  0  0  0  0  0  0  0  0
  -12.4547   -7.9690    7.6343 C   0  0  0  0  0  0  0  0  0  0  0  0
  -13.0328   -7.3233    8.7071 C   0  0  0  0  0  0  0  0  0  0  0  0
  -14.1195   -6.4661    8.5623 C   0  0  0  0  0  0  0  0  0  0  0  0
  -14.6248   -6.2688    7.2737 C   0  0  0  0  0  0  0  0  0  0  0  0
  -14.0688   -6.8994    6.1826 C   0  0  0  0  0  0  0  0  0  0  0  0
  -13.0022   -7.7325    6.3757 C   0  0  0  0  0  0  0  0  0  0  0  0
  -11.2947   -8.8816    7.8029 C   0  0  0  0  0  0  0  0  0  0  0  0
   -9.9986   -8.1249    7.7361 C   0  0  0  0  0  0  0  0  0  0  0  0
   -9.8691  -10.4957    6.6426 C   0  0  0  0  0  0  0  0  0  0  0  0
  -11.2829   -9.9573    6.7374 C   0  0  0  0  0  0  0  0  0  0  0  0
  -18.9900   -9.1951    5.1659 C   0  0  0  0  0  0  0  0  0  0  0  0
  -18.4456  -10.4428    4.9367 O   0  0  0  0  0  0  0  0  0  0  0  0
  -20.1415   -9.0791    5.6250 O   0  0  0  0  0  0  0  0  0  0  0  0
  -18.1472  -10.6530    3.9790 H   0  0  0  0  0  0  0  0  0  0  0  0
 20 21  1  0  0  0
 21 18  1  0  0  0
 18 19  1  0  0  0
 18 12  1  0  0  0
 12 13  2  0  0  0
 13 14  1  0  0  0
 14 15  2  0  0  0
 15 16  1  0  0  0
 16 17  2  0  0  0
 16  1  1  0  0  0
  1  2  1  0  0  0
  2  3  2  0  0  0
  2  4  1  0  0  0
  4  5  1  0  0  0
  5  6  2  0  0  0
  6  7  1  0  0  0
  7  8  2  0  0  0
  8  9  1  0  0  0
  9 10  2  0  0  0
  8 22  1  0  0  0
 22 23  1  0  0  0
 22 24  2  0  0  0
 17 12  1  0  0  0
 10  1  1  0  0  0
 10  5  1  0  0  0
  4 11  1  0  0  0
 23 25  1  0  0  0
M  END
> <minimizedAffinity>
-5.51436

> <CNNscore>
0.2637046278

> <CNNaffinity>
6.0941805840

> <CNN_VS>
1.6070636511

> <CNNaffinity_variance>
0.7235709429

$$$$
[H]Oc1c([H])c([H])c(N2C([H])([H])C([H])([H])N(S(=O)(=O)c3c([H])c([H])c(C#N)c([H])c3[H])C([H])(C(C([H])([H])[H])(C([H])([H])[H])C([H])([H])C([H])([H])[H])C2([H])[H])c([H])c1[H]


 30 32  0  0  0  0  0  0  0  0999 V2000
   -6.6889   -7.4889    6.3116 C   0  0  0  0  0  0  0  0  0  0  0  0
   -6.5418   -8.4412    5.1826 C   0  0  0  0  0  0  0  0  0  0  0  0
   -7.5458   -9.4501    5.0408 N   0  0  0  0  0  0  0  0  0  0  0  0
   -8.4610   -9.7885    6.0577 C   0  0  0  0  0  0  0  0  0  0  0  0
   -8.2925   -9.0063    7.3198 C   0  0  0  0  0  0  0  0  0  0  0  0
   -7.7601   -7.7075    7.2019 N   0  0  0  0  0  0  0  0  0  0  0  0
   -7.5719  -10.1349    3.7618 C   0  0  0  0  0  0  0  0  0  0  0  0
   -6.8040   -9.6717    2.7136 C   0  0  0  0  0  0  0  0  0  0  0  0
   -6.8390  -10.3270    1.4971 C   0  0  0  0  0  0  0  0  0  0  0  0
   -7.6264  -11.4419    1.2959 C   0  0  0  0  0  0  0  0  0  0  0  0
   -7.6628  -12.1016    0.0744 O   0  0  0  0  0  0  0  0  0  0  0  0
   -8.3880  -11.9022    2.3335 C   0  0  0  0  0  0  0  0  0  0  0  0
   -8.3478  -11.2333    3.5634 C   0  0  0  0  0  0  0  0  0  0  0  0
   -8.3181  -11.8682   -0.6645 H   0  0  0  0  0  0  0  0  0  0  0  0
   -5.3133   -7.3992    6.9940 C   0  0  0  0  0  0  0  0  0  0  0  0
   -4.5436   -8.6378    6.7034 C   0  0  0  0  0  0  0  0  0  0  0  0
   -5.4514   -7.1313    8.4738 C   0  0  0  0  0  0  0  0  0  0  0  0
   -3.1192   -6.6429    6.1892 C   0  0  0  0  0  0  0  0  0  0  0  0
   -4.5518   -6.2096    6.3987 C   0  0  0  0  0  0  0  0  0  0  0  0
   -8.9401   -6.4695    7.2442 S   0  0  0  0  0  0  0  0  0  0  0  0
   -8.9787   -5.8148    5.8751 O   0  0  0  0  0  0  0  0  0  0  0  0
   -8.4992   -5.3927    8.2324 O   0  0  0  0  0  0  0  0  0  0  0  0
  -10.5326   -7.0230    7.7031 C   0  0  0  0  0  0  0  0  0  0  0  0
  -11.3081   -7.8487    6.9185 C   0  0  0  0  0  0  0  0  0  0  0  0
  -12.5610   -8.2807    7.2960 C   0  0  0  0  0  0  0  0  0  0  0  0
  -13.1027   -7.8946    8.5033 C   0  0  0  0  0  0  0  0  0  0  0  0
  -12.3411   -7.0683    9.3022 C   0  0  0  0  0  0  0  0  0  0  0  0
  -11.0781   -6.6363    8.9156 C   0  0  0  0  0  0  0  0  0  0  0  0
  -14.4197   -8.3407    8.9144 C   0  0  0  0  0  0  0  0  0  0  0  0
  -15.4638   -8.6994    9.2610 N   0  0  0  0  0  0  0  0  0  0  0  0
 18 19  1  0  0  0
 19 15  1  0  0  0
 15 16  1  0  0  0
 15 17  1  0  0  0
 15  1  1  0  0  0
  1  2  1  0  0  0
  2  3  1  0  0  0
  3  4  1  0  0  0
  4  5  1  0  0  0
  5  6  1  0  0  0
  6 20  1  0  0  0
 20 21  2  0  0  0
 20 22  2  0  0  0
 20 23  1  0  0  0
 23 24  2  0  0  0
 24 25  1  0  0  0
 25 26  2  0  0  0
 26 27  1  0  0  0
 27 28  2  0  0  0
 26 29  1  0  0  0
 29 30  3  0  0  0
  3  7  1  0  0  0
  7  8  2  0  0  0
  8  9  1  0  0  0
  9 10  2  0  0  0
 10 11  1  0  0  0
 10 12  1  0  0  0
 12 13  2  0  0  0
  6  1  1  0  0  0
 28 23  1  0  0  0
 13  7  1  0  0  0
 11 14  1  0  0  0
M  END
> <minimizedAffinity>
4.94671

> <CNNscore>
0.4985069633

> <CNNaffinity>
6.4865112305

> <CNN_VS>
3.2335710526

> <CNNaffinity_variance>
0.6430908442

$$$$
[H]Oc1c([H])c([H])c(N2C([H])([H])C([H])([H])N(S(=O)(=O)c3c([H])c([H])c(C#N)c([H])c3[H])C([H])(C(C([H])([H])[H])(C([H])([H])[H])C([H])([H])C([H])([H])[H])C2([H])[H])c([H])c1[H]


 30 32  0  0  0  0  0  0  0  0999 V2000
  -14.8670   -7.5188    4.7486 C   0  0  0  0  0  0  0  0  0  0  0  0
  -16.0873   -6.8133    4.2833 C   0  0  0  0  0  0  0  0  0  0  0  0
  -17.0560   -6.4567    5.2734 N   0  0  0  0  0  0  0  0  0  0  0  0
  -17.0781   -6.9984    6.5742 C   0  0  0  0  0  0  0  0  0  0  0  0
  -15.9999   -7.9983    6.8407 C   0  0  0  0  0  0  0  0  0  0  0  0
  -14.8005   -7.8548    6.1163 N   0  0  0  0  0  0  0  0  0  0  0  0
  -18.0506   -5.4853    4.8577 C   0  0  0  0  0  0  0  0  0  0  0  0
  -18.1676   -5.1417    3.5269 C   0  0  0  0  0  0  0  0  0  0  0  0
  -19.1142   -4.2115    3.1404 C   0  0  0  0  0  0  0  0  0  0  0  0
  -19.9548   -3.6093    4.0538 C   0  0  0  0  0  0  0  0  0  0  0  0
  -20.9064   -2.6746    3.6673 O   0  0  0  0  0  0  0  0  0  0  0  0
  -19.8401   -3.9486    5.3729 C   0  0  0  0  0  0  0  0  0  0  0  0
  -18.8788   -4.8918    5.7576 C   0  0  0  0  0  0  0  0  0  0  0  0
  -20.7212   -1.6778    3.6234 H   0  0  0  0  0  0  0  0  0  0  0  0
  -14.6579   -8.7102    3.7982 C   0  0  0  0  0  0  0  0  0  0  0  0
  -13.2405   -9.1527    3.8764 C   0  0  0  0  0  0  0  0  0  0  0  0
  -15.0867   -8.3709    2.3905 C   0  0  0  0  0  0  0  0  0  0  0  0
  -16.9840   -9.4720    4.0038 C   0  0  0  0  0  0  0  0  0  0  0  0
  -15.5488   -9.8668    4.2649 C   0  0  0  0  0  0  0  0  0  0  0  0
  -13.5474   -7.0919    6.9966 S   0  0  0  0  0  0  0  0  0  0  0  0
  -14.0920   -6.7330    8.3674 O   0  0  0  0  0  0  0  0  0  0  0  0
  -13.1846   -5.7769    6.3114 O   0  0  0  0  0  0  0  0  0  0  0  0
  -12.0979   -8.0558    7.1468 C   0  0  0  0  0  0  0  0  0  0  0  0
  -10.8946   -7.5578    7.5975 C   0  0  0  0  0  0  0  0  0  0  0  0
   -9.7605   -8.3317    7.7148 C   0  0  0  0  0  0  0  0  0  0  0  0
   -9.7843   -9.6681    7.3777 C   0  0  0  0  0  0  0  0  0  0  0  0
  -10.9798  -10.1843    6.9248 C   0  0  0  0  0  0  0  0  0  0  0  0
  -12.1201   -9.3983    6.8088 C   0  0  0  0  0  0  0  0  0  0  0  0
   -8.5992  -10.4952    7.4956 C   0  0  0  0  0  0  0  0  0  0  0  0
   -7.6487  -11.1509    7.5708 N   0  0  0  0  0  0  0  0  0  0  0  0
 18 19  1  0  0  0
 19 15  1  0  0  0
 15 16  1  0  0  0
 15 17  1  0  0  0
 15  1  1  0  0  0
  1  2  1  0  0  0
  2  3  1  0  0  0
  3  4  1  0  0  0
  4  5  1  0  0  0
  5  6  1  0  0  0
  6 20  1  0  0  0
 20 21  2  0  0  0
 20 22  2  0  0  0
 20 23  1  0  0  0
 23 24  2  0  0  0
 24 25  1  0  0  0
 25 26  2  0  0  0
 26 27  1  0  0  0
 27 28  2  0  0  0
 26 29  1  0  0  0
 29 30  3  0  0  0
  3  7  1  0  0  0
  7  8  2  0  0  0
  8  9  1  0  0  0
  9 10  2  0  0  0
 10 11  1  0  0  0
 10 12  1  0  0  0
 12 13  2  0  0  0
  6  1  1  0  0  0
 28 23  1  0  0  0
 13  7  1  0  0  0
 11 14  1  0  0  0
M  END
> <minimizedAffinity>
9.91450

> <CNNscore>
0.4364122748

> <CNNaffinity>
6.7333412170

> <CNN_VS>
2.9385128021

> <CNNaffinity_variance>
0.9922714233

$$$$
[H]Oc1c([H])c([H])c(N2C([H])([H])C([H])([H])N(S(=O)(=O)c3c([H])c([H])c(C#N)c([H])c3[H])C([H])(C(C([H])([H])[H])(C([H])([H])[H])C([H])([H])C([H])([H])[H])C2([H])[H])c([H])c1[H]


 30 32  0  0  0  0  0  0  0  0999 V2000
  -10.5007   -9.1360    6.3937 C   0  0  0  0  0  0  0  0  0  0  0  0
  -11.7832   -9.2720    5.6589 C   0  0  0  0  0  0  0  0  0  0  0  0
  -12.9894   -9.1691    6.4207 N   0  0  0  0  0  0  0  0  0  0  0  0
  -13.0354   -9.2658    7.8259 C   0  0  0  0  0  0  0  0  0  0  0  0
  -11.7064   -9.4981    8.4687 C   0  0  0  0  0  0  0  0  0  0  0  0
  -10.5738   -9.0005    7.7952 N   0  0  0  0  0  0  0  0  0  0  0  0
  -14.2022   -8.9615    5.6516 C   0  0  0  0  0  0  0  0  0  0  0  0
  -15.3418   -8.4917    6.2707 C   0  0  0  0  0  0  0  0  0  0  0  0
  -16.4943   -8.3019    5.5314 C   0  0  0  0  0  0  0  0  0  0  0  0
  -16.5411   -8.5705    4.1790 C   0  0  0  0  0  0  0  0  0  0  0  0
  -17.6980   -8.3803    3.4346 O   0  0  0  0  0  0  0  0  0  0  0  0
  -15.4127   -9.0361    3.5639 C   0  0  0  0  0  0  0  0  0  0  0  0
  -14.2485   -9.2262    4.3190 C   0  0  0  0  0  0  0  0  0  0  0  0
  -18.3996   -9.1016    3.3031 H   0  0  0  0  0  0  0  0  0  0  0  0
   -9.5977  -10.2877    5.9202 C   0  0  0  0  0  0  0  0  0  0  0  0
   -8.1758   -9.9172    6.1479 C   0  0  0  0  0  0  0  0  0  0  0  0
   -9.8828  -10.6531    4.4829 C   0  0  0  0  0  0  0  0  0  0  0  0
   -9.3865  -12.7332    6.0144 C   0  0  0  0  0  0  0  0  0  0  0  0
   -9.9114  -11.5294    6.7624 C   0  0  0  0  0  0  0  0  0  0  0  0
   -9.9959   -7.5153    8.4174 S   0  0  0  0  0  0  0  0  0  0  0  0
   -9.5767   -6.6492    7.2432 O   0  0  0  0  0  0  0  0  0  0  0  0
   -8.7375   -7.7748    9.2416 O   0  0  0  0  0  0  0  0  0  0  0  0
  -11.1497   -6.6696    9.4206 C   0  0  0  0  0  0  0  0  0  0  0  0
  -12.2471   -7.2735    9.9952 C   0  0  0  0  0  0  0  0  0  0  0  0
  -13.1464   -6.5941   10.7880 C   0  0  0  0  0  0  0  0  0  0  0  0
  -12.9808   -5.2499   11.0446 C   0  0  0  0  0  0  0  0  0  0  0  0
  -11.8882   -4.6285   10.4781 C   0  0  0  0  0  0  0  0  0  0  0  0
  -10.9848   -5.3195    9.6795 C   0  0  0  0  0  0  0  0  0  0  0  0
  -13.9185   -4.5215   11.8767 C   0  0  0  0  0  0  0  0  0  0  0  0
  -14.6683   -3.9260   12.5266 N   0  0  0  0  0  0  0  0  0  0  0  0
 18 19  1  0  0  0
 19 15  1  0  0  0
 15 16  1  0  0  0
 15 17  1  0  0  0
 15  1  1  0  0  0
  1  2  1  0  0  0
  2  3  1  0  0  0
  3  4  1  0  0  0
  4  5  1  0  0  0
  5  6  1  0  0  0
  6 20  1  0  0  0
 20 21  2  0  0  0
 20 22  2  0  0  0
 20 23  1  0  0  0
 23 24  2  0  0  0
 24 25  1  0  0  0
 25 26  2  0  0  0
 26 27  1  0  0  0
 27 28  2  0  0  0
 26 29  1  0  0  0
 29 30  3  0  0  0
  3  7  1  0  0  0
  7  8  2  0  0  0
  8  9  1  0  0  0
  9 10  2  0  0  0
 10 11  1  0  0  0
 10 12  1  0  0  0
 12 13  2  0  0  0
  6  1  1  0  0  0
 28 23  1  0  0  0
 13  7  1  0  0  0
 11 14  1  0  0  0
M  END
> <minimizedAffinity>
10.40296

> <CNNscore>
0.3791167140

> <CNNaffinity>
6.5595579147

> <CNN_VS>
2.4868381023

> <CNNaffinity_variance>
0.8635234833

$$$$
[H]Oc1c([H])c([H])c(N2C([H])([H])C([H])([H])N(S(=O)(=O)c3c([H])c([H])c(C#N)c([H])c3[H])C([H])(C(C([H])([H])[H])(C([H])([H])[H])C([H])([H])C([H])([H])[H])C2([H])[H])c([H])c1[H]


 30 32  0  0  0  0  0  0  0  0999 V2000
   -6.2064   -6.0427    8.0444 C   0  0  0  0  0  0  0  0  0  0  0  0
   -5.0037   -5.3770    7.4842 C   0  0  0  0  0  0  0  0  0  0  0  0
   -4.8172   -5.4444    6.0676 N   0  0  0  0  0  0  0  0  0  0  0  0
   -5.5060   -6.3461    5.2318 C   0  0  0  0  0  0  0  0  0  0  0  0
   -6.4546   -7.2483    5.9527 C   0  0  0  0  0  0  0  0  0  0  0  0
   -7.0226   -6.7589    7.1450 N   0  0  0  0  0  0  0  0  0  0  0  0
   -3.8482   -4.5152    5.5169 C   0  0  0  0  0  0  0  0  0  0  0  0
   -3.1974   -3.6236    6.3441 C   0  0  0  0  0  0  0  0  0  0  0  0
   -2.2797   -2.7384    5.8102 C   0  0  0  0  0  0  0  0  0  0  0  0
   -1.9911   -2.7184    4.4613 C   0  0  0  0  0  0  0  0  0  0  0  0
   -1.0694   -1.8298    3.9231 O   0  0  0  0  0  0  0  0  0  0  0  0
   -2.6350   -3.6013    3.6401 C   0  0  0  0  0  0  0  0  0  0  0  0
   -3.5637   -4.4954    4.1877 C   0  0  0  0  0  0  0  0  0  0  0  0
   -1.3194   -0.9069    3.5835 H   0  0  0  0  0  0  0  0  0  0  0  0
   -5.7308   -6.8662    9.2534 C   0  0  0  0  0  0  0  0  0  0  0  0
   -4.2791   -7.1530    9.1068 C   0  0  0  0  0  0  0  0  0  0  0  0
   -6.5586   -8.1177    9.4246 C   0  0  0  0  0  0  0  0  0  0  0  0
   -4.5808   -5.8811   11.1874 C   0  0  0  0  0  0  0  0  0  0  0  0
   -5.9293   -6.0281   10.5212 C   0  0  0  0  0  0  0  0  0  0  0  0
   -8.6109   -6.1516    6.9566 S   0  0  0  0  0  0  0  0  0  0  0  0
   -8.7251   -5.5696    5.5592 O   0  0  0  0  0  0  0  0  0  0  0  0
   -8.8227   -4.9959    7.9311 O   0  0  0  0  0  0  0  0  0  0  0  0
   -9.8617   -7.3409    7.2284 C   0  0  0  0  0  0  0  0  0  0  0  0
   -9.7068   -8.6843    6.9635 C   0  0  0  0  0  0  0  0  0  0  0  0
  -10.7014   -9.6115    7.1873 C   0  0  0  0  0  0  0  0  0  0  0  0
  -11.9216   -9.2231    7.6975 C   0  0  0  0  0  0  0  0  0  0  0  0
  -12.0951   -7.8825    7.9689 C   0  0  0  0  0  0  0  0  0  0  0  0
  -11.0879   -6.9525    7.7410 C   0  0  0  0  0  0  0  0  0  0  0  0
  -12.9779  -10.1868    7.9383 C   0  0  0  0  0  0  0  0  0  0  0  0
  -13.8333  -10.9408    8.1351 N   0  0  0  0  0  0  0  0  0  0  0  0
 18 19  1  0  0  0
 19 15  1  0  0  0
 15 16  1  0  0  0
 15 17  1  0  0  0
 15  1  1  0  0  0
  1  2  1  0  0  0
  2  3  1  0  0  0
  3  4  1  0  0  0
  4  5  1  0  0  0
  5  6  1  0  0  0
  6 20  1  0  0  0
 20 21  2  0  0  0
 20 22  2  0  0  0
 20 23  1  0  0  0
 23 24  2  0  0  0
 24 25  1  0  0  0
 25 26  2  0  0  0
 26 27  1  0  0  0
 27 28  2  0  0  0
 26 29  1  0  0  0
 29 30  3  0  0  0
  3  7  1  0  0  0
  7  8  2  0  0  0
  8  9  1  0  0  0
  9 10  2  0  0  0
 10 11  1  0  0  0
 10 12  1  0  0  0
 12 13  2  0  0  0
  6  1  1  0  0  0
 28 23  1  0  0  0
 13  7  1  0  0  0
 11 14  1  0  0  0
M  END
> <minimizedAffinity>
0.87274

> <CNNscore>
0.3485563695

> <CNNaffinity>
5.7926607132

> <CNN_VS>
2.0190687180

> <CNNaffinity_variance>
0.8005326986

$$$$
[H]Oc1c([H])c([H])c(N2C([H])([H])C([H])([H])N(S(=O)(=O)c3c([H])c([H])c(C#N)c([H])c3[H])C([H])(C(C([H])([H])[H])(C([H])([H])[H])C([H])([H])C([H])([H])[H])C2([H])[H])c([H])c1[H]


 30 32  0  0  0  0  0  0  0  0999 V2000
   -5.6874   -7.2472    6.9207 C   0  0  0  0  0  0  0  0  0  0  0  0
   -6.9121   -7.7890    7.5607 C   0  0  0  0  0  0  0  0  0  0  0  0
   -8.1381   -7.0904    7.3265 N   0  0  0  0  0  0  0  0  0  0  0  0
   -8.2037   -5.7813    6.8087 C   0  0  0  0  0  0  0  0  0  0  0  0
   -6.8713   -5.1653    6.5281 C   0  0  0  0  0  0  0  0  0  0  0  0
   -5.8170   -6.0407    6.2027 N   0  0  0  0  0  0  0  0  0  0  0  0
   -9.3486   -7.8151    7.6659 C   0  0  0  0  0  0  0  0  0  0  0  0
   -9.4224   -9.1760    7.4535 C   0  0  0  0  0  0  0  0  0  0  0  0
  -10.5813   -9.8576    7.7747 C   0  0  0  0  0  0  0  0  0  0  0  0
  -11.6785   -9.2123    8.3069 C   0  0  0  0  0  0  0  0  0  0  0  0
  -12.8436   -9.8954    8.6302 O   0  0  0  0  0  0  0  0  0  0  0  0
  -11.6071   -7.8637    8.5180 C   0  0  0  0  0  0  0  0  0  0  0  0
  -10.4298   -7.1795    8.1901 C   0  0  0  0  0  0  0  0  0  0  0  0
  -13.6085  -10.0308    7.9772 H   0  0  0  0  0  0  0  0  0  0  0  0
   -4.5989   -7.2179    8.0072 C   0  0  0  0  0  0  0  0  0  0  0  0
   -3.5414   -8.2052    7.6641 C   0  0  0  0  0  0  0  0  0  0  0  0
   -5.1872   -7.4456    9.3794 C   0  0  0  0  0  0  0  0  0  0  0  0
   -4.2219   -5.2206    9.3865 C   0  0  0  0  0  0  0  0  0  0  0  0
   -3.9659   -5.8220    8.0238 C   0  0  0  0  0  0  0  0  0  0  0  0
   -5.5018   -6.1508    4.5248 S   0  0  0  0  0  0  0  0  0  0  0  0
   -6.8313   -6.0830    3.7950 O   0  0  0  0  0  0  0  0  0  0  0  0
   -4.9030   -7.5210    4.2178 O   0  0  0  0  0  0  0  0  0  0  0  0
   -4.4115   -4.9238    3.9260 C   0  0  0  0  0  0  0  0  0  0  0  0
   -3.1071   -4.7905    4.3499 C   0  0  0  0  0  0  0  0  0  0  0  0
   -2.2575   -3.8200    3.8650 C   0  0  0  0  0  0  0  0  0  0  0  0
   -2.6885   -2.9211    2.9130 C   0  0  0  0  0  0  0  0  0  0  0  0
   -3.9910   -3.0391    2.4765 C   0  0  0  0  0  0  0  0  0  0  0  0
   -4.8429   -4.0202    2.9696 C   0  0  0  0  0  0  0  0  0  0  0  0
   -1.8063   -1.8945    2.3932 C   0  0  0  0  0  0  0  0  0  0  0  0
   -1.0890   -1.0893    1.9735 N   0  0  0  0  0  0  0  0  0  0  0  0
 18 19  1  0  0  0
 19 15  1  0  0  0
 15 16  1  0  0  0
 15 17  1  0  0  0
 15  1  1  0  0  0
  1  2  1  0  0  0
  2  3  1  0  0  0
  3  4  1  0  0  0
  4  5  1  0  0  0
  5  6  1  0  0  0
  6 20  1  0  0  0
 20 21  2  0  0  0
 20 22  2  0  0  0
 20 23  1  0  0  0
 23 24  2  0  0  0
 24 25  1  0  0  0
 25 26  2  0  0  0
 26 27  1  0  0  0
 27 28  2  0  0  0
 26 29  1  0  0  0
 29 30  3  0  0  0
  3  7  1  0  0  0
  7  8  2  0  0  0
  8  9  1  0  0  0
  9 10  2  0  0  0
 10 11  1  0  0  0
 10 12  1  0  0  0
 12 13  2  0  0  0
  6  1  1  0  0  0
 28 23  1  0  0  0
 13  7  1  0  0  0
 11 14  1  0  0  0
M  END
> <minimizedAffinity>
9.95493

> <CNNscore>
0.3483097553

> <CNNaffinity>
5.6074533463

> <CNN_VS>
1.9531307220

> <CNNaffinity_variance>
1.1674025059

$$$$
[H]Oc1c([H])c([H])c(N2C([H])([H])C([H])([H])N(S(=O)(=O)c3c([H])c([H])c(C#N)c([H])c3[H])C([H])(C(C([H])([H])[H])(C([H])([H])[H])C([H])([H])C([H])([H])[H])C2([H])[H])c([H])c1[H]


 30 32  0  0  0  0  0  0  0  0999 V2000
  -11.8411   -8.7012    7.5842 C   0  0  0  0  0  0  0  0  0  0  0  0
  -10.3593   -8.6171    7.6021 C   0  0  0  0  0  0  0  0  0  0  0  0
   -9.7689   -7.3692    7.2275 N   0  0  0  0  0  0  0  0  0  0  0  0
  -10.4669   -6.3466    6.5545 C   0  0  0  0  0  0  0  0  0  0  0  0
  -11.8922   -6.6756    6.2482 C   0  0  0  0  0  0  0  0  0  0  0  0
  -12.5438   -7.5710    7.1187 N   0  0  0  0  0  0  0  0  0  0  0  0
   -8.3704   -7.2057    7.5784 C   0  0  0  0  0  0  0  0  0  0  0  0
   -7.8961   -7.6969    8.7769 C   0  0  0  0  0  0  0  0  0  0  0  0
   -6.5636   -7.5320    9.1054 C   0  0  0  0  0  0  0  0  0  0  0  0
   -5.6835   -6.8843    8.2631 C   0  0  0  0  0  0  0  0  0  0  0  0
   -4.3445   -6.7177    8.5916 O   0  0  0  0  0  0  0  0  0  0  0  0
   -6.1519   -6.3969    7.0751 C   0  0  0  0  0  0  0  0  0  0  0  0
   -7.5032   -6.5674    6.7486 C   0  0  0  0  0  0  0  0  0  0  0  0
   -3.9922   -5.9125    9.0987 H   0  0  0  0  0  0  0  0  0  0  0  0
  -12.1991  -10.0076    6.8552 C   0  0  0  0  0  0  0  0  0  0  0  0
  -10.9507  -10.6509    6.3668 C   0  0  0  0  0  0  0  0  0  0  0  0
  -13.2003   -9.7632    5.7513 C   0  0  0  0  0  0  0  0  0  0  0  0
  -14.2969  -10.4968    8.0357 C   0  0  0  0  0  0  0  0  0  0  0  0
  -12.8681  -10.9557    7.8567 C   0  0  0  0  0  0  0  0  0  0  0  0
  -13.5463   -6.8059    8.2749 S   0  0  0  0  0  0  0  0  0  0  0  0
  -14.6720   -7.7633    8.6226 O   0  0  0  0  0  0  0  0  0  0  0  0
  -14.1953   -5.5790    7.6394 O   0  0  0  0  0  0  0  0  0  0  0  0
  -12.7042   -6.3004    9.7199 C   0  0  0  0  0  0  0  0  0  0  0  0
  -11.3376   -6.3860    9.8752 C   0  0  0  0  0  0  0  0  0  0  0  0
  -10.6869   -5.9791   11.0197 C   0  0  0  0  0  0  0  0  0  0  0  0
  -11.3940   -5.4573   12.0817 C   0  0  0  0  0  0  0  0  0  0  0  0
  -12.7627   -5.3637   11.9446 C   0  0  0  0  0  0  0  0  0  0  0  0
  -13.4129   -5.7759   10.7875 C   0  0  0  0  0  0  0  0  0  0  0  0
  -10.7236   -5.0249   13.2925 C   0  0  0  0  0  0  0  0  0  0  0  0
  -10.1763   -4.6957   14.2574 N   0  0  0  0  0  0  0  0  0  0  0  0
 18 19  1  0  0  0
 19 15  1  0  0  0
 15 16  1  0  0  0
 15 17  1  0  0  0
 15  1  1  0  0  0
  1  2  1  0  0  0
  2  3  1  0  0  0
  3  4  1  0  0  0
  4  5  1  0  0  0
  5  6  1  0  0  0
  6 20  1  0  0  0
 20 21  2  0  0  0
 20 22  2  0  0  0
 20 23  1  0  0  0
 23 24  2  0  0  0
 24 25  1  0  0  0
 25 26  2  0  0  0
 26 27  1  0  0  0
 27 28  2  0  0  0
 26 29  1  0  0  0
 29 30  3  0  0  0
  3  7  1  0  0  0
  7  8  2  0  0  0
  8  9  1  0  0  0
  9 10  2  0  0  0
 10 11  1  0  0  0
 10 12  1  0  0  0
 12 13  2  0  0  0
  6  1  1  0  0  0
 28 23  1  0  0  0
 13  7  1  0  0  0
 11 14  1  0  0  0
M  END
> <minimizedAffinity>
3.61317

> <CNNscore>
0.3413417637

> <CNNaffinity>
6.1723513603

> <CNN_VS>
2.1068813801

> <CNNaffinity_variance>
0.4929271340

$$$$
[H]Oc1c([H])c([H])c(N2C([H])([H])C([H])([H])N(S(=O)(=O)c3c([H])c([H])c(C#N)c([H])c3[H])C([H])(C(C([H])([H])[H])(C([H])([H])[H])C([H])([H])C([H])([H])[H])C2([H])[H])c([H])c1[H]


 30 32  0  0  0  0  0  0  0  0999 V2000
  -12.9661   -7.2194    8.1574 C   0  0  0  0  0  0  0  0  0  0  0  0
  -11.4867   -7.3149    8.2313 C   0  0  0  0  0  0  0  0  0  0  0  0
  -10.8596   -8.3635    7.4876 N   0  0  0  0  0  0  0  0  0  0  0  0
  -11.5543   -9.4726    6.9646 C   0  0  0  0  0  0  0  0  0  0  0  0
  -13.0191   -9.4740    7.2605 C   0  0  0  0  0  0  0  0  0  0  0  0
  -13.6396   -8.2206    7.4281 N   0  0  0  0  0  0  0  0  0  0  0  0
   -9.4271   -8.2294    7.2985 C   0  0  0  0  0  0  0  0  0  0  0  0
   -8.6219   -9.3494    7.2970 C   0  0  0  0  0  0  0  0  0  0  0  0
   -7.2577   -9.2119    7.1216 C   0  0  0  0  0  0  0  0  0  0  0  0
   -6.6697   -7.9762    6.9461 C   0  0  0  0  0  0  0  0  0  0  0  0
   -5.2993   -7.8362    6.7696 O   0  0  0  0  0  0  0  0  0  0  0  0
   -7.4662   -6.8653    6.9473 C   0  0  0  0  0  0  0  0  0  0  0  0
   -8.8476   -7.0119    7.1257 C   0  0  0  0  0  0  0  0  0  0  0  0
   -4.6497   -7.7088    7.5386 H   0  0  0  0  0  0  0  0  0  0  0  0
  -13.4689   -7.0482    9.6010 C   0  0  0  0  0  0  0  0  0  0  0  0
  -12.4677   -7.6245   10.5372 C   0  0  0  0  0  0  0  0  0  0  0  0
  -14.8446   -7.6459    9.7773 C   0  0  0  0  0  0  0  0  0  0  0  0
  -12.5508   -5.1972   10.9293 C   0  0  0  0  0  0  0  0  0  0  0  0
  -13.5969   -5.5498    9.8970 C   0  0  0  0  0  0  0  0  0  0  0  0
  -14.4817   -7.6746    6.0425 S   0  0  0  0  0  0  0  0  0  0  0  0
  -13.7617   -8.2099    4.8179 O   0  0  0  0  0  0  0  0  0  0  0  0
  -14.3935   -6.1523    5.9720 O   0  0  0  0  0  0  0  0  0  0  0  0
  -16.1674   -8.1333    6.0107 C   0  0  0  0  0  0  0  0  0  0  0  0
  -16.8117   -8.5909    4.8817 C   0  0  0  0  0  0  0  0  0  0  0  0
  -18.1412   -8.9531    4.8731 C   0  0  0  0  0  0  0  0  0  0  0  0
  -18.8991   -8.8702    6.0215 C   0  0  0  0  0  0  0  0  0  0  0  0
  -18.2714   -8.4145    7.1613 C   0  0  0  0  0  0  0  0  0  0  0  0
  -16.9301   -8.0508    7.1633 C   0  0  0  0  0  0  0  0  0  0  0  0
  -20.2991   -9.2477    6.0281 C   0  0  0  0  0  0  0  0  0  0  0  0
  -21.4164   -9.5478    6.0534 N   0  0  0  0  0  0  0  0  0  0  0  0
 18 19  1  0  0  0
 19 15  1  0  0  0
 15 16  1  0  0  0
 15 17  1  0  0  0
 15  1  1  0  0  0
  1  2  1  0  0  0
  2  3  1  0  0  0
  3  4  1  0  0  0
  4  5  1  0  0  0
  5  6  1  0  0  0
  6 20  1  0  0  0
 20 21  2  0  0  0
 20 22  2  0  0  0
 20 23  1  0  0  0
 23 24  2  0  0  0
 24 25  1  0  0  0
 25 26  2  0  0  0
 26 27  1  0  0  0
 27 28  2  0  0  0
 26 29  1  0  0  0
 29 30  3  0  0  0
  3  7  1  0  0  0
  7  8  2  0  0  0
  8  9  1  0  0  0
  9 10  2  0  0  0
 10 11  1  0  0  0
 10 12  1  0  0  0
 12 13  2  0  0  0
  6  1  1  0  0  0
 28 23  1  0  0  0
 13  7  1  0  0  0
 11 14  1  0  0  0
M  END
> <minimizedAffinity>
-5.42267

> <CNNscore>
0.3198675513

> <CNNaffinity>
6.7560338974

> <CNN_VS>
2.1610360146

> <CNNaffinity_variance>
0.1167935729

$$$$
[H]Oc1c([H])c([H])c(N2C([H])([H])C([H])([H])N(S(=O)(=O)c3c([H])c([H])c(C#N)c([H])c3[H])C([H])(C(C([H])([H])[H])(C([H])([H])[H])C([H])([H])C([H])([H])[H])C2([H])[H])c([H])c1[H]


 30 32  0  0  0  0  0  0  0  0999 V2000
  -10.1465   -8.8036    6.9921 C   0  0  0  0  0  0  0  0  0  0  0  0
  -11.4871   -9.0234    6.3941 C   0  0  0  0  0  0  0  0  0  0  0  0
  -12.6217   -8.5975    7.1538 N   0  0  0  0  0  0  0  0  0  0  0  0
  -12.5690   -8.2867    8.5274 C   0  0  0  0  0  0  0  0  0  0  0  0
  -11.2163   -8.4489    9.1415 C   0  0  0  0  0  0  0  0  0  0  0  0
  -10.1038   -8.2697    8.2964 N   0  0  0  0  0  0  0  0  0  0  0  0
  -13.8702   -8.5055    6.4201 C   0  0  0  0  0  0  0  0  0  0  0  0
  -14.9864   -7.9607    7.0201 C   0  0  0  0  0  0  0  0  0  0  0  0
  -16.1731   -7.8818    6.3156 C   0  0  0  0  0  0  0  0  0  0  0  0
  -16.2773   -8.3360    5.0170 C   0  0  0  0  0  0  0  0  0  0  0  0
  -17.4687   -8.2575    4.3076 O   0  0  0  0  0  0  0  0  0  0  0  0
  -15.1722   -8.8762    4.4209 C   0  0  0  0  0  0  0  0  0  0  0  0
  -13.9731   -8.9530    5.1406 C   0  0  0  0  0  0  0  0  0  0  0  0
  -18.1669   -8.9939    4.3098 H   0  0  0  0  0  0  0  0  0  0  0  0
   -9.3693  -10.1207    6.8268 C   0  0  0  0  0  0  0  0  0  0  0  0
   -8.5039  -10.3286    8.0179 C   0  0  0  0  0  0  0  0  0  0  0  0
   -8.5938  -10.1412    5.5310 C   0  0  0  0  0  0  0  0  0  0  0  0
   -9.6556  -12.4764    6.1921 C   0  0  0  0  0  0  0  0  0  0  0  0
  -10.3763  -11.2742    6.7574 C   0  0  0  0  0  0  0  0  0  0  0  0
   -9.3725   -6.7291    8.4323 S   0  0  0  0  0  0  0  0  0  0  0  0
   -9.3916   -6.3312    9.8972 O   0  0  0  0  0  0  0  0  0  0  0  0
  -10.2251   -5.7041    7.6888 O   0  0  0  0  0  0  0  0  0  0  0  0
   -7.7453   -6.6582    7.7999 C   0  0  0  0  0  0  0  0  0  0  0  0
   -7.4528   -6.4477    6.4699 C   0  0  0  0  0  0  0  0  0  0  0  0
   -6.1636   -6.3899    5.9865 C   0  0  0  0  0  0  0  0  0  0  0  0
   -5.0880   -6.5444    6.8346 C   0  0  0  0  0  0  0  0  0  0  0  0
   -5.3612   -6.7559    8.1693 C   0  0  0  0  0  0  0  0  0  0  0  0
   -6.6637   -6.8130    8.6505 C   0  0  0  0  0  0  0  0  0  0  0  0
   -3.7259   -6.4862    6.3409 C   0  0  0  0  0  0  0  0  0  0  0  0
   -2.6393   -6.4198    5.9486 N   0  0  0  0  0  0  0  0  0  0  0  0
 18 19  1  0  0  0
 19 15  1  0  0  0
 15 16  1  0  0  0
 15 17  1  0  0  0
 15  1  1  0  0  0
  1  2  1  0  0  0
  2  3  1  0  0  0
  3  4  1  0  0  0
  4  5  1  0  0  0
  5  6  1  0  0  0
  6 20  1  0  0  0
 20 21  2  0  0  0
 20 22  2  0  0  0
 20 23  1  0  0  0
 23 24  2  0  0  0
 24 25  1  0  0  0
 25 26  2  0  0  0
 26 27  1  0  0  0
 27 28  2  0  0  0
 26 29  1  0  0  0
 29 30  3  0  0  0
  3  7  1  0  0  0
  7  8  2  0  0  0
  8  9  1  0  0  0
  9 10  2  0  0  0
 10 11  1  0  0  0
 10 12  1  0  0  0
 12 13  2  0  0  0
  6  1  1  0  0  0
 28 23  1  0  0  0
 13  7  1  0  0  0
 11 14  1  0  0  0
M  END
> <minimizedAffinity>
1.21548

> <CNNscore>
0.3137625158

> <CNNaffinity>
6.4807877541

> <CNN_VS>
2.0334281921

> <CNNaffinity_variance>
0.3426077962

$$$$
[H]Oc1c([H])c([H])c(N2C([H])([H])C([H])([H])N(S(=O)(=O)c3c([H])c([H])c(C#N)c([H])c3[H])C([H])(C(C([H])([H])[H])(C([H])([H])[H])C([H])([H])C([H])([H])[H])C2([H])[H])c([H])c1[H]


 30 32  0  0  0  0  0  0  0  0999 V2000
   -8.5598   -8.4787    6.8393 C   0  0  0  0  0  0  0  0  0  0  0  0
   -9.7225   -8.1967    7.7178 C   0  0  0  0  0  0  0  0  0  0  0  0
   -9.5246   -7.2714    8.7904 N   0  0  0  0  0  0  0  0  0  0  0  0
   -8.2544   -6.8685    9.2490 C   0  0  0  0  0  0  0  0  0  0  0  0
   -7.1112   -7.5006    8.5231 C   0  0  0  0  0  0  0  0  0  0  0  0
   -7.3325   -7.8763    7.1837 N   0  0  0  0  0  0  0  0  0  0  0  0
  -10.7332   -6.7576    9.4077 C   0  0  0  0  0  0  0  0  0  0  0  0
  -10.8567   -5.4087    9.6687 C   0  0  0  0  0  0  0  0  0  0  0  0
  -12.0093   -4.9287   10.2618 C   0  0  0  0  0  0  0  0  0  0  0  0
  -13.0514   -5.7653   10.6047 C   0  0  0  0  0  0  0  0  0  0  0  0
  -14.2101   -5.2847   11.2006 O   0  0  0  0  0  0  0  0  0  0  0  0
  -12.9306   -7.1022   10.3467 C   0  0  0  0  0  0  0  0  0  0  0  0
  -11.7599   -7.5818    9.7457 C   0  0  0  0  0  0  0  0  0  0  0  0
  -14.3285   -5.2088   12.2055 H   0  0  0  0  0  0  0  0  0  0  0  0
   -8.4871  -10.0072    6.6822 C   0  0  0  0  0  0  0  0  0  0  0  0
   -7.4772  -10.5469    7.6308 C   0  0  0  0  0  0  0  0  0  0  0  0
   -8.2108  -10.3990    5.2501 C   0  0  0  0  0  0  0  0  0  0  0  0
   -9.8545  -12.0465    6.6118 C   0  0  0  0  0  0  0  0  0  0  0  0
   -9.8532  -10.5991    7.0467 C   0  0  0  0  0  0  0  0  0  0  0  0
   -6.7202   -6.7593    6.0416 S   0  0  0  0  0  0  0  0  0  0  0  0
   -7.8561   -5.8380    5.6348 O   0  0  0  0  0  0  0  0  0  0  0  0
   -6.2956   -7.5130    4.7839 O   0  0  0  0  0  0  0  0  0  0  0  0
   -5.3562   -5.8317    6.6177 C   0  0  0  0  0  0  0  0  0  0  0  0
   -5.1419   -5.5362    7.9465 C   0  0  0  0  0  0  0  0  0  0  0  0
   -4.0587   -4.8069    8.3864 C   0  0  0  0  0  0  0  0  0  0  0  0
   -3.1226   -4.3316    7.4931 C   0  0  0  0  0  0  0  0  0  0  0  0
   -3.3202   -4.6175    6.1590 C   0  0  0  0  0  0  0  0  0  0  0  0
   -4.4149   -5.3537    5.7218 C   0  0  0  0  0  0  0  0  0  0  0  0
   -1.9776   -3.5627    7.9407 C   0  0  0  0  0  0  0  0  0  0  0  0
   -1.0755   -2.9399    8.3113 N   0  0  0  0  0  0  0  0  0  0  0  0
 18 19  1  0  0  0
 19 15  1  0  0  0
 15 16  1  0  0  0
 15 17  1  0  0  0
 15  1  1  0  0  0
  1  2  1  0  0  0
  2  3  1  0  0  0
  3  4  1  0  0  0
  4  5  1  0  0  0
  5  6  1  0  0  0
  6 20  1  0  0  0
 20 21  2  0  0  0
 20 22  2  0  0  0
 20 23  1  0  0  0
 23 24  2  0  0  0
 24 25  1  0  0  0
 25 26  2  0  0  0
 26 27  1  0  0  0
 27 28  2  0  0  0
 26 29  1  0  0  0
 29 30  3  0  0  0
  3  7  1  0  0  0
  7  8  2  0  0  0
  8  9  1  0  0  0
  9 10  2  0  0  0
 10 11  1  0  0  0
 10 12  1  0  0  0
 12 13  2  0  0  0
  6  1  1  0  0  0
 28 23  1  0  0  0
 13  7  1  0  0  0
 11 14  1  0  0  0
M  END
> <minimizedAffinity>
1.84771

> <CNNscore>
0.3127892315

> <CNNaffinity>
5.9816737175

> <CNN_VS>
1.8710031509

> <CNNaffinity_variance>
0.3584259450

$$$$
[H]Oc1c([H])c(C([H])([H])C([H])([H])C([H])([H])[H])c([H])c2oc(-c3nc(C4(C([H])([H])[H])C([H])([H])C5([H])C([H])([H])C([H])(C5([H])[H])C4([H])[H])sc3[H])c([H])c(=O)c12


 29 33  0  0  0  0  0  0  0  0999 V2000
  -12.8671  -10.3140   13.1153 C   0  0  0  0  0  0  0  0  0  0  0  0
  -13.9714   -9.6097   13.6156 C   0  0  0  0  0  0  0  0  0  0  0  0
  -14.7764   -8.9173   12.7682 C   0  0  0  0  0  0  0  0  0  0  0  0
  -15.9014   -8.1953   13.1873 O   0  0  0  0  0  0  0  0  0  0  0  0
  -14.4808   -8.9214   11.4284 C   0  0  0  0  0  0  0  0  0  0  0  0
  -13.4089   -9.5885   10.8828 C   0  0  0  0  0  0  0  0  0  0  0  0
  -12.5980  -10.2920   11.7586 C   0  0  0  0  0  0  0  0  0  0  0  0
  -13.1392   -9.5888    9.5756 O   0  0  0  0  0  0  0  0  0  0  0  0
  -13.8884   -8.9591    8.7321 C   0  0  0  0  0  0  0  0  0  0  0  0
  -14.9945   -8.2707    9.2358 C   0  0  0  0  0  0  0  0  0  0  0  0
  -15.3227   -8.2261   10.5621 C   0  0  0  0  0  0  0  0  0  0  0  0
  -16.3244   -7.5993   11.0081 O   0  0  0  0  0  0  0  0  0  0  0  0
  -16.0882   -8.2427   14.1694 H   0  0  0  0  0  0  0  0  0  0  0  0
  -13.6498   -8.9210    7.2531 C   0  0  0  0  0  0  0  0  0  0  0  0
  -12.6310   -9.5208    6.5720 C   0  0  0  0  0  0  0  0  0  0  0  0
  -13.1104   -9.2747    4.9405 S   0  0  0  0  0  0  0  0  0  0  0  0
  -14.5664   -8.4324    5.2048 C   0  0  0  0  0  0  0  0  0  0  0  0
  -14.5961   -8.3875    6.5204 N   0  0  0  0  0  0  0  0  0  0  0  0
  -15.6355   -7.9198    4.2771 C   0  0  0  0  0  0  0  0  0  0  0  0
  -15.5773   -8.8709    3.0667 C   0  0  0  0  0  0  0  0  0  0  0  0
  -15.1659   -6.5567    3.8218 C   0  0  0  0  0  0  0  0  0  0  0  0
  -16.3200   -5.6482    3.5336 C   0  0  0  0  0  0  0  0  0  0  0  0
  -17.5164   -6.3771    2.9385 C   0  0  0  0  0  0  0  0  0  0  0  0
  -17.8505   -6.8182    4.3311 C   0  0  0  0  0  0  0  0  0  0  0  0
  -16.9990   -7.9756    4.8247 C   0  0  0  0  0  0  0  0  0  0  0  0
  -17.1317   -5.5582    4.8287 C   0  0  0  0  0  0  0  0  0  0  0  0
  -12.0632  -11.0730   14.0696 C   0  0  0  0  0  0  0  0  0  0  0  0
  -13.4126  -13.0607   13.3573 C   0  0  0  0  0  0  0  0  0  0  0  0
  -12.2690  -12.5319   14.1417 C   0  0  0  0  0  0  0  0  0  0  0  0
 28 29  1  0  0  0
 29 27  1  0  0  0
 27  1  1  0  0  0
  1  2  2  0  0  0
  2  3  1  0  0  0
  3  4  1  0  0  0
  3  5  2  0  0  0
  5  6  1  0  0  0
  6  7  2  0  0  0
  6  8  1  0  0  0
  8  9  1  0  0  0
  9 10  2  0  0  0
 10 11  1  0  0  0
 11 12  2  0  0  0
  9 14  1  0  0  0
 14 15  2  0  0  0
 15 16  1  0  0  0
 16 17  1  0  0  0
 17 18  2  0  0  0
 17 19  1  0  0  0
 19 20  1  0  0  0
 19 21  1  0  0  0
 21 22  1  0  0  0
 22 23  1  0  0  0
 23 24  1  0  0  0
 24 25  1  0  0  0
 24 26  1  0  0  0
  7  1  1  0  0  0
 18 14  1  0  0  0
 25 19  1  0  0  0
 11  5  1  0  0  0
 26 22  1  0  0  0
  4 13  1  0  0  0
M  END
> <minimizedAffinity>
22.36830

> <CNNscore>
0.4678044915

> <CNNaffinity>
6.5965795517

> <CNN_VS>
3.0859096050

> <CNNaffinity_variance>
0.4566779137

$$$$
[H]Oc1c([H])c(C([H])([H])C([H])([H])C([H])([H])[H])c([H])c2oc(-c3nc(C4(C([H])([H])[H])C([H])([H])C5([H])C([H])([H])C([H])(C5([H])[H])C4([H])[H])sc3[H])c([H])c(=O)c12


 29 33  0  0  0  0  0  0  0  0999 V2000
  -14.2958   -4.2345    3.5810 C   0  0  0  0  0  0  0  0  0  0  0  0
  -15.5059   -3.9269    2.9431 C   0  0  0  0  0  0  0  0  0  0  0  0
  -16.6691   -4.4611    3.3986 C   0  0  0  0  0  0  0  0  0  0  0  0
  -17.9186   -4.1983    2.8222 O   0  0  0  0  0  0  0  0  0  0  0  0
  -16.6277   -5.3022    4.4817 C   0  0  0  0  0  0  0  0  0  0  0  0
  -15.4707   -5.6435    5.1424 C   0  0  0  0  0  0  0  0  0  0  0  0
  -14.2926   -5.0897    4.6683 C   0  0  0  0  0  0  0  0  0  0  0  0
  -15.4483   -6.4576    6.1999 O   0  0  0  0  0  0  0  0  0  0  0  0
  -16.5325   -6.9731    6.6775 C   0  0  0  0  0  0  0  0  0  0  0  0
  -17.7359   -6.6518    6.0454 C   0  0  0  0  0  0  0  0  0  0  0  0
  -17.8270   -5.8302    4.9567 C   0  0  0  0  0  0  0  0  0  0  0  0
  -18.9201   -5.5469    4.3909 O   0  0  0  0  0  0  0  0  0  0  0  0
  -17.8989   -3.5611    2.0506 H   0  0  0  0  0  0  0  0  0  0  0  0
  -16.5830   -7.8885    7.8629 C   0  0  0  0  0  0  0  0  0  0  0  0
  -17.3447   -9.0124    7.9982 C   0  0  0  0  0  0  0  0  0  0  0  0
  -16.7292   -9.6766    9.4584 S   0  0  0  0  0  0  0  0  0  0  0  0
  -15.5469   -8.5051    9.8176 C   0  0  0  0  0  0  0  0  0  0  0  0
  -15.6961   -7.6778    8.8042 N   0  0  0  0  0  0  0  0  0  0  0  0
  -14.5118   -8.3952   10.9052 C   0  0  0  0  0  0  0  0  0  0  0  0
  -13.8949   -6.9981   10.7040 C   0  0  0  0  0  0  0  0  0  0  0  0
  -13.4547   -9.4238   10.5724 C   0  0  0  0  0  0  0  0  0  0  0  0
  -12.7973   -9.9529   11.8086 C   0  0  0  0  0  0  0  0  0  0  0  0
  -12.6458   -8.9009   12.8981 C   0  0  0  0  0  0  0  0  0  0  0  0
  -14.0884   -9.1366   13.2277 C   0  0  0  0  0  0  0  0  0  0  0  0
  -15.0515   -8.4534   12.2718 C   0  0  0  0  0  0  0  0  0  0  0  0
  -13.9137  -10.5534   12.6672 C   0  0  0  0  0  0  0  0  0  0  0  0
  -13.0845   -3.5974    3.0714 C   0  0  0  0  0  0  0  0  0  0  0  0
  -10.7830   -4.4687    3.5433 C   0  0  0  0  0  0  0  0  0  0  0  0
  -11.9694   -4.4668    2.6514 C   0  0  0  0  0  0  0  0  0  0  0  0
 28 29  1  0  0  0
 29 27  1  0  0  0
 27  1  1  0  0  0
  1  2  2  0  0  0
  2  3  1  0  0  0
  3  4  1  0  0  0
  3  5  2  0  0  0
  5  6  1  0  0  0
  6  7  2  0  0  0
  6  8  1  0  0  0
  8  9  1  0  0  0
  9 10  2  0  0  0
 10 11  1  0  0  0
 11 12  2  0  0  0
  9 14  1  0  0  0
 14 15  2  0  0  0
 15 16  1  0  0  0
 16 17  1  0  0  0
 17 18  2  0  0  0
 17 19  1  0  0  0
 19 20  1  0  0  0
 19 21  1  0  0  0
 21 22  1  0  0  0
 22 23  1  0  0  0
 23 24  1  0  0  0
 24 25  1  0  0  0
 24 26  1  0  0  0
  7  1  1  0  0  0
 18 14  1  0  0  0
 25 19  1  0  0  0
 11  5  1  0  0  0
 26 22  1  0  0  0
  4 13  1  0  0  0
M  END
> <minimizedAffinity>
30.11329

> <CNNscore>
0.4587453902

> <CNNaffinity>
6.6269292831

> <CNN_VS>
3.0400731564

> <CNNaffinity_variance>
1.9682203531

$$$$
[H]Oc1c([H])c(C([H])([H])C([H])([H])C([H])([H])[H])c([H])c2oc(-c3nc(C4(C([H])([H])[H])C([H])([H])C5([H])C([H])([H])C([H])(C5([H])[H])C4([H])[H])sc3[H])c([H])c(=O)c12


 29 33  0  0  0  0  0  0  0  0999 V2000
  -16.6845   -8.3171    6.5351 C   0  0  0  0  0  0  0  0  0  0  0  0
  -16.5653   -6.9511    6.2422 C   0  0  0  0  0  0  0  0  0  0  0  0
  -15.3363   -6.3771    6.1668 C   0  0  0  0  0  0  0  0  0  0  0  0
  -15.1323   -5.0227    5.8725 O   0  0  0  0  0  0  0  0  0  0  0  0
  -14.2301   -7.1581    6.3870 C   0  0  0  0  0  0  0  0  0  0  0  0
  -14.2869   -8.5000    6.6836 C   0  0  0  0  0  0  0  0  0  0  0  0
  -15.5466   -9.0723    6.7551 C   0  0  0  0  0  0  0  0  0  0  0  0
  -13.2004   -9.2479    6.8878 O   0  0  0  0  0  0  0  0  0  0  0  0
  -12.0120   -8.7473    6.8078 C   0  0  0  0  0  0  0  0  0  0  0  0
  -11.9003   -7.3890    6.5024 C   0  0  0  0  0  0  0  0  0  0  0  0
  -12.9716   -6.5674    6.2877 C   0  0  0  0  0  0  0  0  0  0  0  0
  -12.8602   -5.3396    6.0136 O   0  0  0  0  0  0  0  0  0  0  0  0
  -15.9683   -4.5011    5.6967 H   0  0  0  0  0  0  0  0  0  0  0  0
  -10.7498   -9.5272    7.0186 C   0  0  0  0  0  0  0  0  0  0  0  0
  -10.5620  -10.8592    6.7901 C   0  0  0  0  0  0  0  0  0  0  0  0
   -8.8639  -11.0129    7.0022 S   0  0  0  0  0  0  0  0  0  0  0  0
   -8.4834   -9.3935    7.3652 C   0  0  0  0  0  0  0  0  0  0  0  0
   -9.6747   -8.8355    7.3057 N   0  0  0  0  0  0  0  0  0  0  0  0
   -7.1819   -8.6779    7.6106 C   0  0  0  0  0  0  0  0  0  0  0  0
   -6.7588   -9.1301    9.0211 C   0  0  0  0  0  0  0  0  0  0  0  0
   -7.5272   -7.2073    7.6766 C   0  0  0  0  0  0  0  0  0  0  0  0
   -6.3931   -6.3567    7.1963 C   0  0  0  0  0  0  0  0  0  0  0  0
   -5.0284   -6.9259    7.5573 C   0  0  0  0  0  0  0  0  0  0  0  0
   -5.1886   -7.8582    6.3951 C   0  0  0  0  0  0  0  0  0  0  0  0
   -6.1005   -9.0389    6.6820 C   0  0  0  0  0  0  0  0  0  0  0  0
   -6.0996   -6.8001    5.7606 C   0  0  0  0  0  0  0  0  0  0  0  0
  -18.0294   -8.8857    6.5617 C   0  0  0  0  0  0  0  0  0  0  0  0
  -19.7803  -10.0174    5.1716 C   0  0  0  0  0  0  0  0  0  0  0  0
  -18.3557   -9.9374    5.5803 C   0  0  0  0  0  0  0  0  0  0  0  0
 28 29  1  0  0  0
 29 27  1  0  0  0
 27  1  1  0  0  0
  1  2  2  0  0  0
  2  3  1  0  0  0
  3  4  1  0  0  0
  3  5  2  0  0  0
  5  6  1  0  0  0
  6  7  2  0  0  0
  6  8  1  0  0  0
  8  9  1  0  0  0
  9 10  2  0  0  0
 10 11  1  0  0  0
 11 12  2  0  0  0
  9 14  1  0  0  0
 14 15  2  0  0  0
 15 16  1  0  0  0
 16 17  1  0  0  0
 17 18  2  0  0  0
 17 19  1  0  0  0
 19 20  1  0  0  0
 19 21  1  0  0  0
 21 22  1  0  0  0
 22 23  1  0  0  0
 23 24  1  0  0  0
 24 25  1  0  0  0
 24 26  1  0  0  0
  7  1  1  0  0  0
 18 14  1  0  0  0
 25 19  1  0  0  0
 11  5  1  0  0  0
 26 22  1  0  0  0
  4 13  1  0  0  0
M  END
> <minimizedAffinity>
9.08401

> <CNNscore>
0.4041356444

> <CNNaffinity>
6.7593259811

> <CNN_VS>
2.7316844463

> <CNNaffinity_variance>
2.3864235878

$$$$
[H]Oc1c([H])c(C([H])([H])C([H])([H])C([H])([H])[H])c([H])c2oc(-c3nc(C4(C([H])([H])[H])C([H])([H])C5([H])C([H])([H])C([H])(C5([H])[H])C4([H])[H])sc3[H])c([H])c(=O)c12


 29 33  0  0  0  0  0  0  0  0999 V2000
  -20.4217  -11.0272    5.9009 C   0  0  0  0  0  0  0  0  0  0  0  0
  -19.9453  -11.7684    4.8102 C   0  0  0  0  0  0  0  0  0  0  0  0
  -18.7686  -11.4307    4.2213 C   0  0  0  0  0  0  0  0  0  0  0  0
  -18.2214  -12.1238    3.1337 O   0  0  0  0  0  0  0  0  0  0  0  0
  -18.0708  -10.3564    4.7124 C   0  0  0  0  0  0  0  0  0  0  0  0
  -18.4921   -9.5904    5.7743 C   0  0  0  0  0  0  0  0  0  0  0  0
  -19.6926   -9.9477    6.3663 C   0  0  0  0  0  0  0  0  0  0  0  0
  -17.7976   -8.5524    6.2451 O   0  0  0  0  0  0  0  0  0  0  0  0
  -16.6652   -8.2076    5.7272 C   0  0  0  0  0  0  0  0  0  0  0  0
  -16.1901   -8.9587    4.6496 C   0  0  0  0  0  0  0  0  0  0  0  0
  -16.8542  -10.0281    4.1168 C   0  0  0  0  0  0  0  0  0  0  0  0
  -16.4170  -10.7002    3.1409 O   0  0  0  0  0  0  0  0  0  0  0  0
  -18.7555  -12.9130    2.8276 H   0  0  0  0  0  0  0  0  0  0  0  0
  -15.8302   -7.0595    6.2071 C   0  0  0  0  0  0  0  0  0  0  0  0
  -16.0313   -5.7353    5.9472 C   0  0  0  0  0  0  0  0  0  0  0  0
  -14.8798   -4.9973    6.9872 S   0  0  0  0  0  0  0  0  0  0  0  0
  -14.2098   -6.3947    7.6927 C   0  0  0  0  0  0  0  0  0  0  0  0
  -14.9027   -7.3382    7.0898 N   0  0  0  0  0  0  0  0  0  0  0  0
  -13.1809   -6.6042    8.7714 C   0  0  0  0  0  0  0  0  0  0  0  0
  -13.6583   -7.8672    9.5130 C   0  0  0  0  0  0  0  0  0  0  0  0
  -13.3255   -5.4289    9.7116 C   0  0  0  0  0  0  0  0  0  0  0  0
  -12.0212   -5.0813   10.3582 C   0  0  0  0  0  0  0  0  0  0  0  0
  -11.1582   -6.3008   10.6493 C   0  0  0  0  0  0  0  0  0  0  0  0
  -10.7660   -6.2803    9.2031 C   0  0  0  0  0  0  0  0  0  0  0  0
  -11.8203   -6.8630    8.2774 C   0  0  0  0  0  0  0  0  0  0  0  0
  -11.0447   -4.7724    9.2201 C   0  0  0  0  0  0  0  0  0  0  0  0
  -21.6715  -11.4635    6.5178 C   0  0  0  0  0  0  0  0  0  0  0  0
  -21.1013  -11.6631    8.9496 C   0  0  0  0  0  0  0  0  0  0  0  0
  -21.5898  -12.3234    7.7135 C   0  0  0  0  0  0  0  0  0  0  0  0
 28 29  1  0  0  0
 29 27  1  0  0  0
 27  1  1  0  0  0
  1  2  2  0  0  0
  2  3  1  0  0  0
  3  4  1  0  0  0
  3  5  2  0  0  0
  5  6  1  0  0  0
  6  7  2  0  0  0
  6  8  1  0  0  0
  8  9  1  0  0  0
  9 10  2  0  0  0
 10 11  1  0  0  0
 11 12  2  0  0  0
  9 14  1  0  0  0
 14 15  2  0  0  0
 15 16  1  0  0  0
 16 17  1  0  0  0
 17 18  2  0  0  0
 17 19  1  0  0  0
 19 20  1  0  0  0
 19 21  1  0  0  0
 21 22  1  0  0  0
 22 23  1  0  0  0
 23 24  1  0  0  0
 24 25  1  0  0  0
 24 26  1  0  0  0
  7  1  1  0  0  0
 18 14  1  0  0  0
 25 19  1  0  0  0
 11  5  1  0  0  0
 26 22  1  0  0  0
  4 13  1  0  0  0
M  END
> <minimizedAffinity>
32.26432

> <CNNscore>
0.3399209678

> <CNNaffinity>
6.2852034569

> <CNN_VS>
2.1364724636

> <CNNaffinity_variance>
1.3048566580

$$$$
[H]Oc1c([H])c(C([H])([H])C([H])([H])C([H])([H])[H])c([H])c2oc(-c3nc(C4(C([H])([H])[H])C([H])([H])C5([H])C([H])([H])C([H])(C5([H])[H])C4([H])[H])sc3[H])c([H])c(=O)c12


 29 33  0  0  0  0  0  0  0  0999 V2000
   -7.4167   -7.0533    7.7553 C   0  0  0  0  0  0  0  0  0  0  0  0
   -6.9681   -8.3668    7.5567 C   0  0  0  0  0  0  0  0  0  0  0  0
   -7.8653   -9.3723    7.3840 C   0  0  0  0  0  0  0  0  0  0  0  0
   -7.4986  -10.7079    7.1734 O   0  0  0  0  0  0  0  0  0  0  0  0
   -9.2038   -9.0729    7.4138 C   0  0  0  0  0  0  0  0  0  0  0  0
   -9.7007   -7.8055    7.6106 C   0  0  0  0  0  0  0  0  0  0  0  0
   -8.7744   -6.7899    7.7831 C   0  0  0  0  0  0  0  0  0  0  0  0
  -11.0065   -7.5294    7.6293 O   0  0  0  0  0  0  0  0  0  0  0  0
  -11.8937   -8.4517    7.4510 C   0  0  0  0  0  0  0  0  0  0  0  0
  -11.4395   -9.7556    7.2404 C   0  0  0  0  0  0  0  0  0  0  0  0
  -10.1184  -10.1057    7.2152 C   0  0  0  0  0  0  0  0  0  0  0  0
   -9.7176  -11.2884    7.0256 O   0  0  0  0  0  0  0  0  0  0  0  0
   -6.5118  -10.8711    7.1364 H   0  0  0  0  0  0  0  0  0  0  0  0
  -13.3732   -8.2137    7.4535 C   0  0  0  0  0  0  0  0  0  0  0  0
  -14.1881   -8.1324    8.5449 C   0  0  0  0  0  0  0  0  0  0  0  0
  -15.6654   -7.6122    7.8385 S   0  0  0  0  0  0  0  0  0  0  0  0
  -15.1767   -7.5242    6.2098 C   0  0  0  0  0  0  0  0  0  0  0  0
  -13.9182   -7.9000    6.3039 N   0  0  0  0  0  0  0  0  0  0  0  0
  -15.8741   -7.0721    4.9547 C   0  0  0  0  0  0  0  0  0  0  0  0
  -15.1957   -7.8781    3.8307 C   0  0  0  0  0  0  0  0  0  0  0  0
  -15.4996   -5.6181    4.7770 C   0  0  0  0  0  0  0  0  0  0  0  0
  -16.5870   -4.8528    4.0899 C   0  0  0  0  0  0  0  0  0  0  0  0
  -17.3213   -5.6752    3.0406 C   0  0  0  0  0  0  0  0  0  0  0  0
  -18.0884   -6.2974    4.1675 C   0  0  0  0  0  0  0  0  0  0  0  0
  -17.3134   -7.3706    4.9130 C   0  0  0  0  0  0  0  0  0  0  0  0
  -17.8383   -5.0076    4.9586 C   0  0  0  0  0  0  0  0  0  0  0  0
   -6.4048   -6.0094    7.8935 C   0  0  0  0  0  0  0  0  0  0  0  0
   -4.7522   -5.8229    6.0192 C   0  0  0  0  0  0  0  0  0  0  0  0
   -5.0454   -6.2929    7.3962 C   0  0  0  0  0  0  0  0  0  0  0  0
 28 29  1  0  0  0
 29 27  1  0  0  0
 27  1  1  0  0  0
  1  2  2  0  0  0
  2  3  1  0  0  0
  3  4  1  0  0  0
  3  5  2  0  0  0
  5  6  1  0  0  0
  6  7  2  0  0  0
  6  8  1  0  0  0
  8  9  1  0  0  0
  9 10  2  0  0  0
 10 11  1  0  0  0
 11 12  2  0  0  0
  9 14  1  0  0  0
 14 15  2  0  0  0
 15 16  1  0  0  0
 16 17  1  0  0  0
 17 18  2  0  0  0
 17 19  1  0  0  0
 19 20  1  0  0  0
 19 21  1  0  0  0
 21 22  1  0  0  0
 22 23  1  0  0  0
 23 24  1  0  0  0
 24 25  1  0  0  0
 24 26  1  0  0  0
  7  1  1  0  0  0
 18 14  1  0  0  0
 25 19  1  0  0  0
 11  5  1  0  0  0
 26 22  1  0  0  0
  4 13  1  0  0  0
M  END
> <minimizedAffinity>
-8.35957

> <CNNscore>
0.3121133149

> <CNNaffinity>
7.2283639908

> <CNN_VS>
2.2560687065

> <CNNaffinity_variance>
0.5495709181

$$$$
[H]Oc1c([H])c(C([H])([H])C([H])([H])C([H])([H])[H])c([H])c2oc(-c3nc(C4(C([H])([H])[H])C([H])([H])C5([H])C([H])([H])C([H])(C5([H])[H])C4([H])[H])sc3[H])c([H])c(=O)c12


 29 33  0  0  0  0  0  0  0  0999 V2000
  -17.6587   -8.1988    6.9143 C   0  0  0  0  0  0  0  0  0  0  0  0
  -17.6986   -7.5404    5.6770 C   0  0  0  0  0  0  0  0  0  0  0  0
  -16.6062   -6.8677    5.2299 C   0  0  0  0  0  0  0  0  0  0  0  0
  -16.5631   -6.1913    4.0038 O   0  0  0  0  0  0  0  0  0  0  0  0
  -15.4800   -6.8459    6.0132 C   0  0  0  0  0  0  0  0  0  0  0  0
  -15.3859   -7.4679    7.2363 C   0  0  0  0  0  0  0  0  0  0  0  0
  -16.5066   -8.1517    7.6785 C   0  0  0  0  0  0  0  0  0  0  0  0
  -14.2799   -7.4436    7.9831 O   0  0  0  0  0  0  0  0  0  0  0  0
  -13.2126   -6.8316    7.5883 C   0  0  0  0  0  0  0  0  0  0  0  0
  -13.2550   -6.1892    6.3488 C   0  0  0  0  0  0  0  0  0  0  0  0
  -14.3562   -6.1715    5.5390 C   0  0  0  0  0  0  0  0  0  0  0  0
  -14.3852   -5.5862    4.4202 O   0  0  0  0  0  0  0  0  0  0  0  0
  -17.4002   -6.2566    3.4591 H   0  0  0  0  0  0  0  0  0  0  0  0
  -11.9359   -6.7682    8.3704 C   0  0  0  0  0  0  0  0  0  0  0  0
  -11.8065   -6.5534    9.7115 C   0  0  0  0  0  0  0  0  0  0  0  0
  -10.1313   -6.8504    9.9519 S   0  0  0  0  0  0  0  0  0  0  0  0
   -9.6862   -7.2298    8.3527 C   0  0  0  0  0  0  0  0  0  0  0  0
  -10.8411   -7.1035    7.7331 N   0  0  0  0  0  0  0  0  0  0  0  0
   -8.3923   -7.6820    7.7301 C   0  0  0  0  0  0  0  0  0  0  0  0
   -7.6012   -8.2970    8.9002 C   0  0  0  0  0  0  0  0  0  0  0  0
   -7.6803   -6.4198    7.2985 C   0  0  0  0  0  0  0  0  0  0  0  0
   -6.8229   -6.6592    6.0953 C   0  0  0  0  0  0  0  0  0  0  0  0
   -6.1839   -8.0406    6.0858 C   0  0  0  0  0  0  0  0  0  0  0  0
   -7.4994   -8.5680    5.5993 C   0  0  0  0  0  0  0  0  0  0  0  0
   -8.5395   -8.7174    6.6965 C   0  0  0  0  0  0  0  0  0  0  0  0
   -7.7552   -7.1804    4.9983 C   0  0  0  0  0  0  0  0  0  0  0  0
  -18.8496   -8.9393    7.3222 C   0  0  0  0  0  0  0  0  0  0  0  0
  -20.8092  -10.3920    6.7491 C   0  0  0  0  0  0  0  0  0  0  0  0
  -19.5818   -9.6958    6.2891 C   0  0  0  0  0  0  0  0  0  0  0  0
 28 29  1  0  0  0
 29 27  1  0  0  0
 27  1  1  0  0  0
  1  2  2  0  0  0
  2  3  1  0  0  0
  3  4  1  0  0  0
  3  5  2  0  0  0
  5  6  1  0  0  0
  6  7  2  0  0  0
  6  8  1  0  0  0
  8  9  1  0  0  0
  9 10  2  0  0  0
 10 11  1  0  0  0
 11 12  2  0  0  0
  9 14  1  0  0  0
 14 15  2  0  0  0
 15 16  1  0  0  0
 16 17  1  0  0  0
 17 18  2  0  0  0
 17 19  1  0  0  0
 19 20  1  0  0  0
 19 21  1  0  0  0
 21 22  1  0  0  0
 22 23  1  0  0  0
 23 24  1  0  0  0
 24 25  1  0  0  0
 24 26  1  0  0  0
  7  1  1  0  0  0
 18 14  1  0  0  0
 25 19  1  0  0  0
 11  5  1  0  0  0
 26 22  1  0  0  0
  4 13  1  0  0  0
M  END
> <minimizedAffinity>
-1.16510

> <CNNscore>
0.2836945057

> <CNNaffinity>
6.8037581444

> <CNN_VS>
1.9301887751

> <CNNaffinity_variance>
1.1639149189

$$$$
[H]Oc1c([H])c(C([H])([H])C([H])([H])C([H])([H])[H])c([H])c2oc(-c3nc(C4(C([H])([H])[H])C([H])([H])C5([H])C([H])([H])C([H])(C5([H])[H])C4([H])[H])sc3[H])c([H])c(=O)c12


 29 33  0  0  0  0  0  0  0  0999 V2000
  -16.2738   -7.7968    4.6727 C   0  0  0  0  0  0  0  0  0  0  0  0
  -17.0294   -7.7308    5.8519 C   0  0  0  0  0  0  0  0  0  0  0  0
  -16.4452   -7.9975    7.0491 C   0  0  0  0  0  0  0  0  0  0  0  0
  -17.1282   -7.9465    8.2712 O   0  0  0  0  0  0  0  0  0  0  0  0
  -15.1152   -8.3336    7.0724 C   0  0  0  0  0  0  0  0  0  0  0  0
  -14.3273   -8.4196    5.9484 C   0  0  0  0  0  0  0  0  0  0  0  0
  -14.9359   -8.1429    4.7349 C   0  0  0  0  0  0  0  0  0  0  0  0
  -13.0324   -8.7406    5.9888 O   0  0  0  0  0  0  0  0  0  0  0  0
  -12.4322   -8.9840    7.1068 C   0  0  0  0  0  0  0  0  0  0  0  0
  -13.1878   -8.9033    8.2788 C   0  0  0  0  0  0  0  0  0  0  0  0
  -14.5171   -8.5857    8.3059 C   0  0  0  0  0  0  0  0  0  0  0  0
  -15.1923   -8.5168    9.3711 O   0  0  0  0  0  0  0  0  0  0  0  0
  -18.0889   -7.6739    8.2037 H   0  0  0  0  0  0  0  0  0  0  0  0
  -10.9826   -9.3439    7.2277 C   0  0  0  0  0  0  0  0  0  0  0  0
  -10.4269  -10.5771    7.0481 C   0  0  0  0  0  0  0  0  0  0  0  0
   -8.7484  -10.2130    7.0949 S   0  0  0  0  0  0  0  0  0  0  0  0
   -8.8378   -8.5298    7.3363 C   0  0  0  0  0  0  0  0  0  0  0  0
  -10.1417   -8.3491    7.3697 N   0  0  0  0  0  0  0  0  0  0  0  0
   -7.7921   -7.4496    7.4129 C   0  0  0  0  0  0  0  0  0  0  0  0
   -8.6010   -6.1453    7.5454 C   0  0  0  0  0  0  0  0  0  0  0  0
   -7.1106   -7.4405    6.0633 C   0  0  0  0  0  0  0  0  0  0  0  0
   -5.6809   -7.0116    6.1748 C   0  0  0  0  0  0  0  0  0  0  0  0
   -5.4596   -5.9526    7.2454 C   0  0  0  0  0  0  0  0  0  0  0  0
   -5.4962   -7.0630    8.2509 C   0  0  0  0  0  0  0  0  0  0  0  0
   -6.9000   -7.5430    8.5781 C   0  0  0  0  0  0  0  0  0  0  0  0
   -5.0092   -7.9963    7.1357 C   0  0  0  0  0  0  0  0  0  0  0  0
  -16.9468   -7.4592    3.4213 C   0  0  0  0  0  0  0  0  0  0  0  0
  -17.1157   -4.9768    3.7173 C   0  0  0  0  0  0  0  0  0  0  0  0
  -17.7983   -6.2551    3.3964 C   0  0  0  0  0  0  0  0  0  0  0  0
 28 29  1  0  0  0
 29 27  1  0  0  0
 27  1  1  0  0  0
  1  2  2  0  0  0
  2  3  1  0  0  0
  3  4  1  0  0  0
  3  5  2  0  0  0
  5  6  1  0  0  0
  6  7  2  0  0  0
  6  8  1  0  0  0
  8  9  1  0  0  0
  9 10  2  0  0  0
 10 11  1  0  0  0
 11 12  2  0  0  0
  9 14  1  0  0  0
 14 15  2  0  0  0
 15 16  1  0  0  0
 16 17  1  0  0  0
 17 18  2  0  0  0
 17 19  1  0  0  0
 19 20  1  0  0  0
 19 21  1  0  0  0
 21 22  1  0  0  0
 22 23  1  0  0  0
 23 24  1  0  0  0
 24 25  1  0  0  0
 24 26  1  0  0  0
  7  1  1  0  0  0
 18 14  1  0  0  0
 25 19  1  0  0  0
 11  5  1  0  0  0
 26 22  1  0  0  0
  4 13  1  0  0  0
M  END
> <minimizedAffinity>
-8.95630

> <CNNscore>
0.2561629415

> <CNNaffinity>
7.0420188904

> <CNN_VS>
1.8039042950

> <CNNaffinity_variance>
0.1868413687

$$$$
[H]Oc1c([H])c(C([H])([H])C([H])([H])C([H])([H])[H])c([H])c2oc(-c3nc(C4(C([H])([H])[H])C([H])([H])C5([H])C([H])([H])C([H])(C5([H])[H])C4([H])[H])sc3[H])c([H])c(=O)c12


 29 33  0  0  0  0  0  0  0  0999 V2000
  -16.2602   -6.0282    4.3113 C   0  0  0  0  0  0  0  0  0  0  0  0
  -16.4905   -7.3624    3.9467 C   0  0  0  0  0  0  0  0  0  0  0  0
  -15.6889   -8.3469    4.4301 C   0  0  0  0  0  0  0  0  0  0  0  0
  -15.8568   -9.7027    4.1199 O   0  0  0  0  0  0  0  0  0  0  0  0
  -14.6587   -8.0048    5.2691 C   0  0  0  0  0  0  0  0  0  0  0  0
  -14.3822   -6.7140    5.6554 C   0  0  0  0  0  0  0  0  0  0  0  0
  -15.2092   -5.7208    5.1565 C   0  0  0  0  0  0  0  0  0  0  0  0
  -13.3803   -6.3984    6.4788 O   0  0  0  0  0  0  0  0  0  0  0  0
  -12.6050   -7.3045    6.9763 C   0  0  0  0  0  0  0  0  0  0  0  0
  -12.8486   -8.6328    6.6196 C   0  0  0  0  0  0  0  0  0  0  0  0
  -13.8529   -9.0220    5.7779 C   0  0  0  0  0  0  0  0  0  0  0  0
  -14.0641  -10.2259    5.4599 O   0  0  0  0  0  0  0  0  0  0  0  0
  -16.6355   -9.9034    3.5240 H   0  0  0  0  0  0  0  0  0  0  0  0
  -11.4667   -7.0240    7.9097 C   0  0  0  0  0  0  0  0  0  0  0  0
  -11.5540   -6.6357    9.2148 C   0  0  0  0  0  0  0  0  0  0  0  0
   -9.9149   -6.7392    9.7194 S   0  0  0  0  0  0  0  0  0  0  0  0
   -9.2102   -7.2665    8.2618 C   0  0  0  0  0  0  0  0  0  0  0  0
  -10.2672   -7.3281    7.4790 N   0  0  0  0  0  0  0  0  0  0  0  0
   -7.8074   -7.6652    7.8883 C   0  0  0  0  0  0  0  0  0  0  0  0
   -7.1588   -8.0728    9.2248 C   0  0  0  0  0  0  0  0  0  0  0  0
   -7.1335   -6.3990    7.4101 C   0  0  0  0  0  0  0  0  0  0  0  0
   -6.0890   -6.6908    6.3785 C   0  0  0  0  0  0  0  0  0  0  0  0
   -5.3558   -8.0009    6.6287 C   0  0  0  0  0  0  0  0  0  0  0  0
   -6.5404   -8.6962    6.0297 C   0  0  0  0  0  0  0  0  0  0  0  0
   -7.7203   -8.8175    6.9790 C   0  0  0  0  0  0  0  0  0  0  0  0
   -6.8042   -7.4125    5.2332 C   0  0  0  0  0  0  0  0  0  0  0  0
  -17.1803   -5.0195    3.7928 C   0  0  0  0  0  0  0  0  0  0  0  0
  -19.4328   -4.2182    4.5430 C   0  0  0  0  0  0  0  0  0  0  0  0
  -18.6276   -5.2844    3.8966 C   0  0  0  0  0  0  0  0  0  0  0  0
 28 29  1  0  0  0
 29 27  1  0  0  0
 27  1  1  0  0  0
  1  2  2  0  0  0
  2  3  1  0  0  0
  3  4  1  0  0  0
  3  5  2  0  0  0
  5  6  1  0  0  0
  6  7  2  0  0  0
  6  8  1  0  0  0
  8  9  1  0  0  0
  9 10  2  0  0  0
 10 11  1  0  0  0
 11 12  2  0  0  0
  9 14  1  0  0  0
 14 15  2  0  0  0
 15 16  1  0  0  0
 16 17  1  0  0  0
 17 18  2  0  0  0
 17 19  1  0  0  0
 19 20  1  0  0  0
 19 21  1  0  0  0
 21 22  1  0  0  0
 22 23  1  0  0  0
 23 24  1  0  0  0
 24 25  1  0  0  0
 24 26  1  0  0  0
  7  1  1  0  0  0
 18 14  1  0  0  0
 25 19  1  0  0  0
 11  5  1  0  0  0
 26 22  1  0  0  0
  4 13  1  0  0  0
M  END
> <minimizedAffinity>
-6.35830

> <CNNscore>
0.2332736105

> <CNNaffinity>
6.6737732887

> <CNN_VS>
1.5568151474

> <CNNaffinity_variance>
0.3641360402

$$$$
[H]Oc1c([H])c(C([H])([H])C([H])([H])C([H])([H])[H])c([H])c2oc(-c3nc(C4(C([H])([H])[H])C([H])([H])C5([H])C([H])([H])C([H])(C5([H])[H])C4([H])[H])sc3[H])c([H])c(=O)c12


 29 33  0  0  0  0  0  0  0  0999 V2000
   -5.9465   -6.4663    6.0705 C   0  0  0  0  0  0  0  0  0  0  0  0
   -5.4696   -7.7590    6.3301 C   0  0  0  0  0  0  0  0  0  0  0  0
   -6.2747   -8.6717    6.9339 C   0  0  0  0  0  0  0  0  0  0  0  0
   -5.8766   -9.9838    7.2210 O   0  0  0  0  0  0  0  0  0  0  0  0
   -7.5480   -8.2981    7.2825 C   0  0  0  0  0  0  0  0  0  0  0  0
   -8.0665   -7.0441    7.0582 C   0  0  0  0  0  0  0  0  0  0  0  0
   -7.2350   -6.1245    6.4399 C   0  0  0  0  0  0  0  0  0  0  0  0
   -9.3105   -6.6985    7.3968 O   0  0  0  0  0  0  0  0  0  0  0  0
  -10.1159   -7.5400    7.9560 C   0  0  0  0  0  0  0  0  0  0  0  0
   -9.6387   -8.8299    8.1994 C   0  0  0  0  0  0  0  0  0  0  0  0
   -8.3755   -9.2455    7.8827 C   0  0  0  0  0  0  0  0  0  0  0  0
   -7.9527  -10.4140    8.1085 O   0  0  0  0  0  0  0  0  0  0  0  0
   -4.9484  -10.2145    6.9262 H   0  0  0  0  0  0  0  0  0  0  0  0
  -11.5248   -7.2236    8.3570 C   0  0  0  0  0  0  0  0  0  0  0  0
  -11.9231   -6.4339    9.3959 C   0  0  0  0  0  0  0  0  0  0  0  0
  -13.6147   -6.3194    9.1177 S   0  0  0  0  0  0  0  0  0  0  0  0
  -13.7277   -7.2698    7.7094 C   0  0  0  0  0  0  0  0  0  0  0  0
  -12.4695   -7.6188    7.5395 N   0  0  0  0  0  0  0  0  0  0  0  0
  -14.8715   -7.6055    6.7899 C   0  0  0  0  0  0  0  0  0  0  0  0
  -15.9603   -8.1648    7.7252 C   0  0  0  0  0  0  0  0  0  0  0  0
  -14.3792   -8.7384    5.9179 C   0  0  0  0  0  0  0  0  0  0  0  0
  -15.0212   -8.7075    4.5662 C   0  0  0  0  0  0  0  0  0  0  0  0
  -16.4665   -8.2317    4.6051 C   0  0  0  0  0  0  0  0  0  0  0  0
  -15.9301   -6.8351    4.6903 C   0  0  0  0  0  0  0  0  0  0  0  0
  -15.4425   -6.4529    6.0774 C   0  0  0  0  0  0  0  0  0  0  0  0
  -14.6818   -7.3437    3.9587 C   0  0  0  0  0  0  0  0  0  0  0  0
   -5.0489   -5.5425    5.3822 C   0  0  0  0  0  0  0  0  0  0  0  0
   -2.6010   -5.4734    4.8515 C   0  0  0  0  0  0  0  0  0  0  0  0
   -3.6670   -5.4182    5.8827 C   0  0  0  0  0  0  0  0  0  0  0  0
 28 29  1  0  0  0
 29 27  1  0  0  0
 27  1  1  0  0  0
  1  2  2  0  0  0
  2  3  1  0  0  0
  3  4  1  0  0  0
  3  5  2  0  0  0
  5  6  1  0  0  0
  6  7  2  0  0  0
  6  8  1  0  0  0
  8  9  1  0  0  0
  9 10  2  0  0  0
 10 11  1  0  0  0
 11 12  2  0  0  0
  9 14  1  0  0  0
 14 15  2  0  0  0
 15 16  1  0  0  0
 16 17  1  0  0  0
 17 18  2  0  0  0
 17 19  1  0  0  0
 19 20  1  0  0  0
 19 21  1  0  0  0
 21 22  1  0  0  0
 22 23  1  0  0  0
 23 24  1  0  0  0
 24 25  1  0  0  0
 24 26  1  0  0  0
  7  1  1  0  0  0
 18 14  1  0  0  0
 25 19  1  0  0  0
 11  5  1  0  0  0
 26 22  1  0  0  0
  4 13  1  0  0  0
M  END
> <minimizedAffinity>
-7.36756

> <CNNscore>
0.2289875597

> <CNNaffinity>
6.8242139816

> <CNN_VS>
1.5626600981

> <CNNaffinity_variance>
0.2699984014

$$$$
[H]Oc1c([H])c([H])c2c(c1[H])C([H])([H])C([H])([H])[C@@]1([H])[C@]2([H])C([H])([H])[C@@]1([H])C([H])([H])[C@@]([H])(C([H])([H])[H])C([H])([H])C([H])([H])C([H])=C([H])[H]


 21 23  0  0  0  0  0  0  0  0999 V2000
   -6.4317   -8.0392    5.5528 C   0  0  0  0  0  0  0  0  0  0  0  0
   -4.9392   -8.1995    5.9021 C   0  0  0  0  0  0  0  0  0  0  0  0
   -4.9691   -6.6669    6.0259 C   0  0  0  0  0  0  0  0  0  0  0  0
   -6.3954   -6.8850    6.5239 C   0  0  0  0  0  0  0  0  0  0  0  0
   -6.4157   -7.2943    7.9425 C   0  0  0  0  0  0  0  0  0  0  0  0
   -5.7043   -6.3269    8.8586 C   0  0  0  0  0  0  0  0  0  0  0  0
   -4.3786   -5.9876    8.3330 C   0  0  0  0  0  0  0  0  0  0  0  0
   -3.4180   -5.4751    9.2349 C   0  0  0  0  0  0  0  0  0  0  0  0
   -2.1763   -5.1407    8.7734 C   0  0  0  0  0  0  0  0  0  0  0  0
   -1.2268   -4.6368    9.6512 O   0  0  0  0  0  0  0  0  0  0  0  0
   -1.8314   -5.2894    7.4473 C   0  0  0  0  0  0  0  0  0  0  0  0
   -2.7612   -5.7866    6.5697 C   0  0  0  0  0  0  0  0  0  0  0  0
   -4.0486   -6.1383    7.0246 C   0  0  0  0  0  0  0  0  0  0  0  0
   -0.5751   -5.2133   10.1628 H   0  0  0  0  0  0  0  0  0  0  0  0
   -7.2673   -9.2091    5.8831 C   0  0  0  0  0  0  0  0  0  0  0  0
   -8.8477  -10.7344    4.7303 C   0  0  0  0  0  0  0  0  0  0  0  0
   -7.4672  -10.2196    4.7963 C   0  0  0  0  0  0  0  0  0  0  0  0
   -6.9943   -9.6173    3.4821 C   0  0  0  0  0  0  0  0  0  0  0  0
   -7.7142  -10.2368    2.3311 C   0  0  0  0  0  0  0  0  0  0  0  0
   -7.9397  -11.6879    2.5519 C   0  0  0  0  0  0  0  0  0  0  0  0
   -7.7325  -12.6329    1.6559 C   0  0  0  0  0  0  0  0  0  0  0  0
 16 17  1  0  0  0
 17 15  1  0  0  0
 15  1  1  0  0  0
  1  2  1  0  0  0
  2  3  1  0  0  0
  3  4  1  0  0  0
  4  5  1  0  0  0
  5  6  1  0  0  0
  6  7  1  0  0  0
  7  8  2  0  0  0
  8  9  1  0  0  0
  9 10  1  0  0  0
  9 11  2  0  0  0
 11 12  1  0  0  0
 12 13  2  0  0  0
 17 18  1  0  0  0
 18 19  1  0  0  0
 19 20  1  0  0  0
 20 21  2  0  0  0
  4  1  1  0  0  0
 13  7  1  0  0  0
 13  3  1  0  0  0
 10 14  1  0  0  0
M  END
> <minimizedAffinity>
4.99951

> <CNNscore>
0.5298716426

> <CNNaffinity>
5.1130108833

> <CNN_VS>
2.7092394829

> <CNNaffinity_variance>
0.9422404170

$$$$
[H]Oc1c([H])c([H])c2c(c1[H])C([H])([H])C([H])([H])[C@@]1([H])[C@]2([H])C([H])([H])[C@@]1([H])C([H])([H])[C@@]([H])(C([H])([H])[H])C([H])([H])C([H])([H])C([H])=C([H])[H]


 21 23  0  0  0  0  0  0  0  0999 V2000
  -15.5150   -7.9700    7.0725 C   0  0  0  0  0  0  0  0  0  0  0  0
  -14.4253   -6.8861    6.9583 C   0  0  0  0  0  0  0  0  0  0  0  0
  -13.8205   -7.5931    8.1828 C   0  0  0  0  0  0  0  0  0  0  0  0
  -14.3910   -8.8579    7.5467 C   0  0  0  0  0  0  0  0  0  0  0  0
  -13.5222   -9.3560    6.4616 C   0  0  0  0  0  0  0  0  0  0  0  0
  -12.0987   -9.6094    6.8983 C   0  0  0  0  0  0  0  0  0  0  0  0
  -11.5661   -8.4610    7.6374 C   0  0  0  0  0  0  0  0  0  0  0  0
  -10.1620   -8.3252    7.7316 C   0  0  0  0  0  0  0  0  0  0  0  0
   -9.6353   -7.2704    8.4219 C   0  0  0  0  0  0  0  0  0  0  0  0
   -8.2581   -7.1287    8.5197 O   0  0  0  0  0  0  0  0  0  0  0  0
  -10.4373   -6.3302    9.0322 C   0  0  0  0  0  0  0  0  0  0  0  0
  -11.8001   -6.4590    8.9425 C   0  0  0  0  0  0  0  0  0  0  0  0
  -12.3649   -7.5399    8.2348 C   0  0  0  0  0  0  0  0  0  0  0  0
   -7.6995   -6.6128    7.8561 H   0  0  0  0  0  0  0  0  0  0  0  0
  -16.1840   -8.3025    5.8006 C   0  0  0  0  0  0  0  0  0  0  0  0
  -15.2625   -8.1443    3.5030 C   0  0  0  0  0  0  0  0  0  0  0  0
  -15.8781   -7.4197    4.6304 C   0  0  0  0  0  0  0  0  0  0  0  0
  -17.1469   -6.6782    4.2382 C   0  0  0  0  0  0  0  0  0  0  0  0
  -16.8218   -5.3149    3.7261 C   0  0  0  0  0  0  0  0  0  0  0  0
  -15.8499   -4.6226    4.6102 C   0  0  0  0  0  0  0  0  0  0  0  0
  -14.7479   -4.0232    4.2039 C   0  0  0  0  0  0  0  0  0  0  0  0
 16 17  1  0  0  0
 17 15  1  0  0  0
 15  1  1  0  0  0
  1  2  1  0  0  0
  2  3  1  0  0  0
  3  4  1  0  0  0
  4  5  1  0  0  0
  5  6  1  0  0  0
  6  7  1  0  0  0
  7  8  2  0  0  0
  8  9  1  0  0  0
  9 10  1  0  0  0
  9 11  2  0  0  0
 11 12  1  0  0  0
 12 13  2  0  0  0
 17 18  1  0  0  0
 18 19  1  0  0  0
 19 20  1  0  0  0
 20 21  2  0  0  0
  4  1  1  0  0  0
 13  7  1  0  0  0
 13  3  1  0  0  0
 10 14  1  0  0  0
M  END
> <minimizedAffinity>
-9.37081

> <CNNscore>
0.5148436427

> <CNNaffinity>
6.5415697098

> <CNN_VS>
3.3678855896

> <CNNaffinity_variance>
0.2293545008

$$$$
[H]Oc1c([H])c([H])c2c(c1[H])C([H])([H])C([H])([H])[C@@]1([H])[C@]2([H])C([H])([H])[C@@]1([H])C([H])([H])[C@@]([H])(C([H])([H])[H])C([H])([H])C([H])([H])C([H])=C([H])[H]


 21 23  0  0  0  0  0  0  0  0999 V2000
  -14.0866   -7.9649    8.0018 C   0  0  0  0  0  0  0  0  0  0  0  0
  -12.9226   -7.1289    7.4347 C   0  0  0  0  0  0  0  0  0  0  0  0
  -12.0908   -7.8579    8.5032 C   0  0  0  0  0  0  0  0  0  0  0  0
  -13.0363   -9.0242    8.2285 C   0  0  0  0  0  0  0  0  0  0  0  0
  -12.6499   -9.7566    7.0058 C   0  0  0  0  0  0  0  0  0  0  0  0
  -11.2252  -10.2573    7.0288 C   0  0  0  0  0  0  0  0  0  0  0  0
  -10.3022   -9.1904    7.4269 C   0  0  0  0  0  0  0  0  0  0  0  0
   -8.9380   -9.3298    7.0826 C   0  0  0  0  0  0  0  0  0  0  0  0
   -8.0516   -8.3564    7.4478 C   0  0  0  0  0  0  0  0  0  0  0  0
   -6.7105   -8.4845    7.1142 O   0  0  0  0  0  0  0  0  0  0  0  0
   -8.4508   -7.2370    8.1457 C   0  0  0  0  0  0  0  0  0  0  0  0
   -9.7738   -7.0987    8.4812 C   0  0  0  0  0  0  0  0  0  0  0  0
  -10.7057   -8.0911    8.1141 C   0  0  0  0  0  0  0  0  0  0  0  0
   -6.3110   -8.1354    6.2557 H   0  0  0  0  0  0  0  0  0  0  0  0
  -15.1679   -8.2428    7.0376 C   0  0  0  0  0  0  0  0  0  0  0  0
  -15.1934   -8.4518    4.5660 C   0  0  0  0  0  0  0  0  0  0  0  0
  -15.0888   -7.5380    5.7188 C   0  0  0  0  0  0  0  0  0  0  0  0
  -16.1331   -6.4324    5.6972 C   0  0  0  0  0  0  0  0  0  0  0  0
  -15.7945   -5.4099    4.6644 C   0  0  0  0  0  0  0  0  0  0  0  0
  -16.9899   -5.0256    3.8715 C   0  0  0  0  0  0  0  0  0  0  0  0
  -18.2400   -5.2476    4.2275 C   0  0  0  0  0  0  0  0  0  0  0  0
 16 17  1  0  0  0
 17 15  1  0  0  0
 15  1  1  0  0  0
  1  2  1  0  0  0
  2  3  1  0  0  0
  3  4  1  0  0  0
  4  5  1  0  0  0
  5  6  1  0  0  0
  6  7  1  0  0  0
  7  8  2  0  0  0
  8  9  1  0  0  0
  9 10  1  0  0  0
  9 11  2  0  0  0
 11 12  1  0  0  0
 12 13  2  0  0  0
 17 18  1  0  0  0
 18 19  1  0  0  0
 19 20  1  0  0  0
 20 21  2  0  0  0
  4  1  1  0  0  0
 13  7  1  0  0  0
 13  3  1  0  0  0
 10 14  1  0  0  0
M  END
> <minimizedAffinity>
-8.65507

> <CNNscore>
0.4937282801

> <CNNaffinity>
6.3785810471

> <CNN_VS>
3.1492857933

> <CNNaffinity_variance>
0.2443671525

$$$$
[H]Oc1c([H])c([H])c2c(c1[H])C([H])([H])C([H])([H])[C@@]1([H])[C@]2([H])C([H])([H])[C@@]1([H])C([H])([H])[C@@]([H])(C([H])([H])[H])C([H])([H])C([H])([H])C([H])=C([H])[H]


 21 23  0  0  0  0  0  0  0  0999 V2000
  -15.0708   -8.1186    6.6872 C   0  0  0  0  0  0  0  0  0  0  0  0
  -13.9827   -7.0278    6.6460 C   0  0  0  0  0  0  0  0  0  0  0  0
  -13.4574   -7.7307    7.9089 C   0  0  0  0  0  0  0  0  0  0  0  0
  -13.9756   -8.9992    7.2365 C   0  0  0  0  0  0  0  0  0  0  0  0
  -13.0325   -9.4920    6.2127 C   0  0  0  0  0  0  0  0  0  0  0  0
  -11.6401   -9.7362    6.7445 C   0  0  0  0  0  0  0  0  0  0  0  0
  -11.1658   -8.5843    7.5172 C   0  0  0  0  0  0  0  0  0  0  0  0
   -9.7722   -8.4395    7.7056 C   0  0  0  0  0  0  0  0  0  0  0  0
   -9.2998   -7.3812    8.4292 C   0  0  0  0  0  0  0  0  0  0  0  0
   -7.9334   -7.2308    8.6195 O   0  0  0  0  0  0  0  0  0  0  0  0
  -10.1471   -6.4461    8.9835 C   0  0  0  0  0  0  0  0  0  0  0  0
  -11.4999   -6.5836    8.8023 C   0  0  0  0  0  0  0  0  0  0  0  0
  -12.0089   -7.6682    8.0588 C   0  0  0  0  0  0  0  0  0  0  0  0
   -7.3346   -6.7114    7.9947 H   0  0  0  0  0  0  0  0  0  0  0  0
  -15.6504   -8.4556    5.3733 C   0  0  0  0  0  0  0  0  0  0  0  0
  -16.6366   -7.0952    3.5484 C   0  0  0  0  0  0  0  0  0  0  0  0
  -16.8066   -7.6211    4.9157 C   0  0  0  0  0  0  0  0  0  0  0  0
  -18.0843   -8.4282    5.0873 C   0  0  0  0  0  0  0  0  0  0  0  0
  -18.5627   -8.3610    6.4991 C   0  0  0  0  0  0  0  0  0  0  0  0
  -19.7253   -9.2583    6.7195 C   0  0  0  0  0  0  0  0  0  0  0  0
  -20.3356   -9.9540    5.7802 C   0  0  0  0  0  0  0  0  0  0  0  0
 16 17  1  0  0  0
 17 15  1  0  0  0
 15  1  1  0  0  0
  1  2  1  0  0  0
  2  3  1  0  0  0
  3  4  1  0  0  0
  4  5  1  0  0  0
  5  6  1  0  0  0
  6  7  1  0  0  0
  7  8  2  0  0  0
  8  9  1  0  0  0
  9 10  1  0  0  0
  9 11  2  0  0  0
 11 12  1  0  0  0
 12 13  2  0  0  0
 17 18  1  0  0  0
 18 19  1  0  0  0
 19 20  1  0  0  0
 20 21  2  0  0  0
  4  1  1  0  0  0
 13  7  1  0  0  0
 13  3  1  0  0  0
 10 14  1  0  0  0
M  END
> <minimizedAffinity>
-5.76885

> <CNNscore>
0.4513326585

> <CNNaffinity>
6.2968521118

> <CNN_VS>
2.8419749737

> <CNNaffinity_variance>
0.4412797093

$$$$
[H]Oc1c([H])c([H])c2c(c1[H])C([H])([H])C([H])([H])[C@@]1([H])[C@]2([H])C([H])([H])[C@@]1([H])C([H])([H])[C@@]([H])(C([H])([H])[H])C([H])([H])C([H])([H])C([H])=C([H])[H]


 21 23  0  0  0  0  0  0  0  0999 V2000
  -13.5890   -8.0772    7.8823 C   0  0  0  0  0  0  0  0  0  0  0  0
  -12.4160   -7.2002    7.4025 C   0  0  0  0  0  0  0  0  0  0  0  0
  -11.6056   -8.0004    8.4358 C   0  0  0  0  0  0  0  0  0  0  0  0
  -12.5396   -9.1471    8.0579 C   0  0  0  0  0  0  0  0  0  0  0  0
  -12.1223   -9.7903    6.7959 C   0  0  0  0  0  0  0  0  0  0  0  0
  -10.6962  -10.2875    6.8163 C   0  0  0  0  0  0  0  0  0  0  0  0
   -9.7872   -9.2488    7.3098 C   0  0  0  0  0  0  0  0  0  0  0  0
   -8.4150   -9.3599    6.9880 C   0  0  0  0  0  0  0  0  0  0  0  0
   -7.5413   -8.4123    7.4412 C   0  0  0  0  0  0  0  0  0  0  0  0
   -6.1924   -8.5129    7.1304 O   0  0  0  0  0  0  0  0  0  0  0  0
   -7.9611   -7.3460    8.2069 C   0  0  0  0  0  0  0  0  0  0  0  0
   -9.2920   -7.2353    8.5207 C   0  0  0  0  0  0  0  0  0  0  0  0
  -10.2110   -8.2019    8.0632 C   0  0  0  0  0  0  0  0  0  0  0  0
   -5.7750   -8.1030    6.3080 H   0  0  0  0  0  0  0  0  0  0  0  0
  -14.6468   -8.2894    6.8763 C   0  0  0  0  0  0  0  0  0  0  0  0
  -14.8262   -6.4957    5.1722 C   0  0  0  0  0  0  0  0  0  0  0  0
  -15.3836   -7.0720    6.4101 C   0  0  0  0  0  0  0  0  0  0  0  0
  -16.8608   -7.4151    6.2930 C   0  0  0  0  0  0  0  0  0  0  0  0
  -17.0920   -8.3640    5.1648 C   0  0  0  0  0  0  0  0  0  0  0  0
  -18.1977   -7.9023    4.2876 C   0  0  0  0  0  0  0  0  0  0  0  0
  -18.1266   -6.8890    3.4468 C   0  0  0  0  0  0  0  0  0  0  0  0
 16 17  1  0  0  0
 17 15  1  0  0  0
 15  1  1  0  0  0
  1  2  1  0  0  0
  2  3  1  0  0  0
  3  4  1  0  0  0
  4  5  1  0  0  0
  5  6  1  0  0  0
  6  7  1  0  0  0
  7  8  2  0  0  0
  8  9  1  0  0  0
  9 10  1  0  0  0
  9 11  2  0  0  0
 11 12  1  0  0  0
 12 13  2  0  0  0
 17 18  1  0  0  0
 18 19  1  0  0  0
 19 20  1  0  0  0
 20 21  2  0  0  0
  4  1  1  0  0  0
 13  7  1  0  0  0
 13  3  1  0  0  0
 10 14  1  0  0  0
M  END
> <minimizedAffinity>
-8.32255

> <CNNscore>
0.4120681882

> <CNNaffinity>
6.2896428108

> <CNN_VS>
2.5917618275

> <CNNaffinity_variance>
0.1841537952

$$$$
[H]Oc1c([H])c([H])c2c(c1[H])C([H])([H])C([H])([H])[C@@]1([H])[C@]2([H])C([H])([H])[C@@]1([H])C([H])([H])[C@@]([H])(C([H])([H])[H])C([H])([H])C([H])([H])C([H])=C([H])[H]


 21 23  0  0  0  0  0  0  0  0999 V2000
  -12.3738   -8.8897    7.8521 C   0  0  0  0  0  0  0  0  0  0  0  0
  -12.6924   -7.9846    6.6460 C   0  0  0  0  0  0  0  0  0  0  0  0
  -13.7687   -9.0404    6.3428 C   0  0  0  0  0  0  0  0  0  0  0  0
  -13.8565   -9.1691    7.8612 C   0  0  0  0  0  0  0  0  0  0  0  0
  -14.6673   -8.0842    8.4495 C   0  0  0  0  0  0  0  0  0  0  0  0
  -16.0590   -7.9906    7.8701 C   0  0  0  0  0  0  0  0  0  0  0  0
  -16.0177   -8.0054    6.4049 C   0  0  0  0  0  0  0  0  0  0  0  0
  -17.1323   -7.4904    5.7040 C   0  0  0  0  0  0  0  0  0  0  0  0
  -17.1275   -7.4990    4.3378 C   0  0  0  0  0  0  0  0  0  0  0  0
  -18.2171   -6.9956    3.6411 O   0  0  0  0  0  0  0  0  0  0  0  0
  -16.0621   -7.9978    3.6196 C   0  0  0  0  0  0  0  0  0  0  0  0
  -14.9790   -8.4980    4.2968 C   0  0  0  0  0  0  0  0  0  0  0  0
  -14.9629   -8.4987    5.7067 C   0  0  0  0  0  0  0  0  0  0  0  0
  -18.3029   -6.0312    3.3562 H   0  0  0  0  0  0  0  0  0  0  0  0
  -11.7844   -8.1864    9.0070 C   0  0  0  0  0  0  0  0  0  0  0  0
  -11.2015   -5.8814    9.7145 C   0  0  0  0  0  0  0  0  0  0  0  0
  -11.0053   -6.9427    8.7094 C   0  0  0  0  0  0  0  0  0  0  0  0
   -9.5439   -7.3200    8.5214 C   0  0  0  0  0  0  0  0  0  0  0  0
   -9.0246   -6.7829    7.2297 C   0  0  0  0  0  0  0  0  0  0  0  0
   -7.7637   -7.4586    6.8309 C   0  0  0  0  0  0  0  0  0  0  0  0
   -7.5416   -8.7562    6.9063 C   0  0  0  0  0  0  0  0  0  0  0  0
 16 17  1  0  0  0
 17 15  1  0  0  0
 15  1  1  0  0  0
  1  2  1  0  0  0
  2  3  1  0  0  0
  3  4  1  0  0  0
  4  5  1  0  0  0
  5  6  1  0  0  0
  6  7  1  0  0  0
  7  8  2  0  0  0
  8  9  1  0  0  0
  9 10  1  0  0  0
  9 11  2  0  0  0
 11 12  1  0  0  0
 12 13  2  0  0  0
 17 18  1  0  0  0
 18 19  1  0  0  0
 19 20  1  0  0  0
 20 21  2  0  0  0
  4  1  1  0  0  0
 13  7  1  0  0  0
 13  3  1  0  0  0
 10 14  1  0  0  0
M  END
> <minimizedAffinity>
-8.41576

> <CNNscore>
0.3878238499

> <CNNaffinity>
6.5007705688

> <CNN_VS>
2.5211539268

> <CNNaffinity_variance>
0.1244200915

$$$$
[H]Oc1c([H])c([H])c2c(c1[H])C([H])([H])C([H])([H])[C@@]1([H])[C@]2([H])C([H])([H])[C@@]1([H])C([H])([H])[C@@]([H])(C([H])([H])[H])C([H])([H])C([H])([H])C([H])=C([H])[H]


 21 23  0  0  0  0  0  0  0  0999 V2000
  -15.4020   -7.9845    6.8186 C   0  0  0  0  0  0  0  0  0  0  0  0
  -14.2857   -6.9261    6.7234 C   0  0  0  0  0  0  0  0  0  0  0  0
  -13.7589   -7.6003    8.0013 C   0  0  0  0  0  0  0  0  0  0  0  0
  -14.3222   -8.8760    7.3806 C   0  0  0  0  0  0  0  0  0  0  0  0
  -13.4095   -9.4287    6.3597 C   0  0  0  0  0  0  0  0  0  0  0  0
  -12.0157   -9.6931    6.8780 C   0  0  0  0  0  0  0  0  0  0  0  0
  -11.4980   -8.5294    7.6035 C   0  0  0  0  0  0  0  0  0  0  0  0
  -10.0980   -8.4167    7.7654 C   0  0  0  0  0  0  0  0  0  0  0  0
   -9.5855   -7.3481    8.4451 C   0  0  0  0  0  0  0  0  0  0  0  0
   -8.2126   -7.2290    8.6090 O   0  0  0  0  0  0  0  0  0  0  0  0
  -10.3980   -6.3718    8.9802 C   0  0  0  0  0  0  0  0  0  0  0  0
  -11.7569   -6.4781    8.8247 C   0  0  0  0  0  0  0  0  0  0  0  0
  -12.3071   -7.5727    8.1266 C   0  0  0  0  0  0  0  0  0  0  0  0
   -7.6103   -6.7476    7.9577 H   0  0  0  0  0  0  0  0  0  0  0  0
  -16.0120   -8.3495    5.5260 C   0  0  0  0  0  0  0  0  0  0  0  0
  -14.8623   -8.7219    3.3597 C   0  0  0  0  0  0  0  0  0  0  0  0
  -15.4123   -7.7295    4.3019 C   0  0  0  0  0  0  0  0  0  0  0  0
  -16.4480   -6.8158    3.6649 C   0  0  0  0  0  0  0  0  0  0  0  0
  -16.2870   -5.4160    4.1563 C   0  0  0  0  0  0  0  0  0  0  0  0
  -17.5088   -4.9449    4.8567 C   0  0  0  0  0  0  0  0  0  0  0  0
  -18.7382   -5.0505    4.3919 C   0  0  0  0  0  0  0  0  0  0  0  0
 16 17  1  0  0  0
 17 15  1  0  0  0
 15  1  1  0  0  0
  1  2  1  0  0  0
  2  3  1  0  0  0
  3  4  1  0  0  0
  4  5  1  0  0  0
  5  6  1  0  0  0
  6  7  1  0  0  0
  7  8  2  0  0  0
  8  9  1  0  0  0
  9 10  1  0  0  0
  9 11  2  0  0  0
 11 12  1  0  0  0
 12 13  2  0  0  0
 17 18  1  0  0  0
 18 19  1  0  0  0
 19 20  1  0  0  0
 20 21  2  0  0  0
  4  1  1  0  0  0
 13  7  1  0  0  0
 13  3  1  0  0  0
 10 14  1  0  0  0
M  END
> <minimizedAffinity>
-9.14457

> <CNNscore>
0.3837102056

> <CNNaffinity>
6.3194956779

> <CNN_VS>
2.4248549938

> <CNNaffinity_variance>
0.1491713077

$$$$
[H]Oc1c([H])c([H])c2c(c1[H])C([H])([H])C([H])([H])[C@@]1([H])[C@]2([H])C([H])([H])[C@@]1([H])C([H])([H])[C@@]([H])(C([H])([H])[H])C([H])([H])C([H])([H])C([H])=C([H])[H]


 21 23  0  0  0  0  0  0  0  0999 V2000
  -12.5377   -9.3692    6.8379 C   0  0  0  0  0  0  0  0  0  0  0  0
  -12.8674   -8.1746    5.9216 C   0  0  0  0  0  0  0  0  0  0  0  0
  -14.1608   -8.9565    5.6373 C   0  0  0  0  0  0  0  0  0  0  0  0
  -14.0252   -9.4140    7.0872 C   0  0  0  0  0  0  0  0  0  0  0  0
  -14.5069   -8.3817    8.0268 C   0  0  0  0  0  0  0  0  0  0  0  0
  -15.9297   -7.9473    7.7664 C   0  0  0  0  0  0  0  0  0  0  0  0
  -16.1294   -7.6329    6.3486 C   0  0  0  0  0  0  0  0  0  0  0  0
  -17.2228   -6.8076    5.9991 C   0  0  0  0  0  0  0  0  0  0  0  0
  -17.4406   -6.5043    4.6849 C   0  0  0  0  0  0  0  0  0  0  0  0
  -18.5115   -5.6949    4.3321 O   0  0  0  0  0  0  0  0  0  0  0  0
  -16.6211   -6.9820    3.6850 C   0  0  0  0  0  0  0  0  0  0  0  0
  -15.5591   -7.7828    4.0209 C   0  0  0  0  0  0  0  0  0  0  0  0
  -15.3158   -8.1083    5.3711 C   0  0  0  0  0  0  0  0  0  0  0  0
  -18.4556   -4.6894    4.2655 H   0  0  0  0  0  0  0  0  0  0  0  0
  -11.6456   -9.0468    7.9676 C   0  0  0  0  0  0  0  0  0  0  0  0
   -9.9539  -10.4051    6.7650 C   0  0  0  0  0  0  0  0  0  0  0  0
  -10.1951   -9.3747    7.7922 C   0  0  0  0  0  0  0  0  0  0  0  0
   -9.4352   -8.0838    7.5286 C   0  0  0  0  0  0  0  0  0  0  0  0
   -7.9939   -8.2409    7.8819 C   0  0  0  0  0  0  0  0  0  0  0  0
   -7.1397   -8.2727    6.6676 C   0  0  0  0  0  0  0  0  0  0  0  0
   -5.8220   -8.2246    6.6653 C   0  0  0  0  0  0  0  0  0  0  0  0
 16 17  1  0  0  0
 17 15  1  0  0  0
 15  1  1  0  0  0
  1  2  1  0  0  0
  2  3  1  0  0  0
  3  4  1  0  0  0
  4  5  1  0  0  0
  5  6  1  0  0  0
  6  7  1  0  0  0
  7  8  2  0  0  0
  8  9  1  0  0  0
  9 10  1  0  0  0
  9 11  2  0  0  0
 11 12  1  0  0  0
 12 13  2  0  0  0
 17 18  1  0  0  0
 18 19  1  0  0  0
 19 20  1  0  0  0
 20 21  2  0  0  0
  4  1  1  0  0  0
 13  7  1  0  0  0
 13  3  1  0  0  0
 10 14  1  0  0  0
M  END
> <minimizedAffinity>
-7.68017

> <CNNscore>
0.3115868568

> <CNNaffinity>
6.2593917847

> <CNN_VS>
1.9503442049

> <CNNaffinity_variance>
0.1195613891

$$$$
[H]Oc1c([H])c([H])c2c(c1[H])C([H])([H])C([H])([H])[C@@]1([H])[C@]2([H])C([H])([H])[C@@]1([H])C([H])([H])[C@@]([H])(C([H])([H])[H])C([H])([H])C([H])([H])C([H])=C([H])[H]


 21 23  0  0  0  0  0  0  0  0999 V2000
  -13.0450   -7.2424    7.7319 C   0  0  0  0  0  0  0  0  0  0  0  0
  -14.5813   -7.1216    7.7546 C   0  0  0  0  0  0  0  0  0  0  0  0
  -14.3946   -6.5274    6.3485 C   0  0  0  0  0  0  0  0  0  0  0  0
  -13.2229   -7.5013    6.2561 C   0  0  0  0  0  0  0  0  0  0  0  0
  -13.6807   -8.8688    5.9383 C   0  0  0  0  0  0  0  0  0  0  0  0
  -14.5043   -8.9497    4.6749 C   0  0  0  0  0  0  0  0  0  0  0  0
  -15.5571   -7.9297    4.6707 C   0  0  0  0  0  0  0  0  0  0  0  0
  -16.6701   -8.1278    3.8216 C   0  0  0  0  0  0  0  0  0  0  0  0
  -17.6634   -7.1903    3.7886 C   0  0  0  0  0  0  0  0  0  0  0  0
  -18.7598   -7.3760    2.9582 O   0  0  0  0  0  0  0  0  0  0  0  0
  -17.6113   -6.0512    4.5629 C   0  0  0  0  0  0  0  0  0  0  0  0
  -16.5328   -5.8562    5.3879 C   0  0  0  0  0  0  0  0  0  0  0  0
  -15.4966   -6.8111    5.4378 C   0  0  0  0  0  0  0  0  0  0  0  0
  -19.6027   -7.8533    3.2418 H   0  0  0  0  0  0  0  0  0  0  0  0
  -12.5030   -8.3250    8.5746 C   0  0  0  0  0  0  0  0  0  0  0  0
  -10.5676   -9.4418    7.4972 C   0  0  0  0  0  0  0  0  0  0  0  0
  -11.0177   -8.5139    8.5516 C   0  0  0  0  0  0  0  0  0  0  0  0
  -10.3569   -7.1469    8.4616 C   0  0  0  0  0  0  0  0  0  0  0  0
   -8.8992   -7.2858    8.1746 C   0  0  0  0  0  0  0  0  0  0  0  0
   -8.4929   -6.4456    7.0195 C   0  0  0  0  0  0  0  0  0  0  0  0
   -7.5507   -6.7549    6.1504 C   0  0  0  0  0  0  0  0  0  0  0  0
 16 17  1  0  0  0
 17 15  1  0  0  0
 15  1  1  0  0  0
  1  2  1  0  0  0
  2  3  1  0  0  0
  3  4  1  0  0  0
  4  5  1  0  0  0
  5  6  1  0  0  0
  6  7  1  0  0  0
  7  8  2  0  0  0
  8  9  1  0  0  0
  9 10  1  0  0  0
  9 11  2  0  0  0
 11 12  1  0  0  0
 12 13  2  0  0  0
 17 18  1  0  0  0
 18 19  1  0  0  0
 19 20  1  0  0  0
 20 21  2  0  0  0
  4  1  1  0  0  0
 13  7  1  0  0  0
 13  3  1  0  0  0
 10 14  1  0  0  0
M  END
> <minimizedAffinity>
-8.23577

> <CNNscore>
0.3041408360

> <CNNaffinity>
6.3636302948

> <CNN_VS>
1.9354398251

> <CNNaffinity_variance>
0.1265574694

$$$$
[H]Oc1c([H])c([H])c(N([H])C(=Nc2c([H])c([H])c(C([H])([H])[H])c([H])c2[H])N([H])c2c([H])c([H])c([H])c(C(=O)C([H])([H])[H])c2[H])c([H])c1C([H])([H])[H]


 31 33  0  0  0  0  0  0  0  0999 V2000
  -13.6569   -8.5607    7.3464 C   0  0  0  0  0  0  0  0  0  0  0  0
  -12.7601   -9.4649    7.1762 N   0  0  0  0  0  0  0  0  0  0  0  0
  -11.3736   -9.3363    7.2579 C   0  0  0  0  0  0  0  0  0  0  0  0
  -10.4872  -10.1144    6.5462 C   0  0  0  0  0  0  0  0  0  0  0  0
   -9.1335   -9.9016    6.7185 C   0  0  0  0  0  0  0  0  0  0  0  0
   -8.6815   -8.9399    7.5762 C   0  0  0  0  0  0  0  0  0  0  0  0
   -7.2133   -8.7459    7.7306 C   0  0  0  0  0  0  0  0  0  0  0  0
   -9.5514   -8.1531    8.2951 C   0  0  0  0  0  0  0  0  0  0  0  0
  -10.8959   -8.3538    8.1337 C   0  0  0  0  0  0  0  0  0  0  0  0
  -13.2056   -7.2596    7.6568 N   0  0  0  0  0  0  0  0  0  0  0  0
  -12.8161   -6.7209    6.8233 H   0  0  0  0  0  0  0  0  0  0  0  0
  -12.8249   -4.6482   10.2053 C   0  0  0  0  0  0  0  0  0  0  0  0
  -13.2460   -5.3215   11.3532 C   0  0  0  0  0  0  0  0  0  0  0  0
  -13.6485   -6.6277   11.2840 C   0  0  0  0  0  0  0  0  0  0  0  0
  -13.6397   -7.2861   10.0762 C   0  0  0  0  0  0  0  0  0  0  0  0
  -13.2335   -6.6606    8.9250 C   0  0  0  0  0  0  0  0  0  0  0  0
  -12.8256   -5.3265    9.0142 C   0  0  0  0  0  0  0  0  0  0  0  0
  -13.2935   -2.1819    9.8730 C   0  0  0  0  0  0  0  0  0  0  0  0
  -12.4086   -3.2656   10.3301 C   0  0  0  0  0  0  0  0  0  0  0  0
  -11.2961   -2.9995   10.8273 O   0  0  0  0  0  0  0  0  0  0  0  0
  -15.0042   -8.9300    7.1774 N   0  0  0  0  0  0  0  0  0  0  0  0
  -15.3625   -9.7219    7.7902 H   0  0  0  0  0  0  0  0  0  0  0  0
  -15.9453   -8.3635    6.2750 C   0  0  0  0  0  0  0  0  0  0  0  0
  -17.2709   -8.1865    6.5787 C   0  0  0  0  0  0  0  0  0  0  0  0
  -18.1350   -7.6377    5.6429 C   0  0  0  0  0  0  0  0  0  0  0  0
  -17.7320   -7.2458    4.3855 C   0  0  0  0  0  0  0  0  0  0  0  0
  -18.6174   -6.6965    3.4604 O   0  0  0  0  0  0  0  0  0  0  0  0
  -16.3978   -7.4243    4.0819 C   0  0  0  0  0  0  0  0  0  0  0  0
  -15.8960   -7.0156    2.7251 C   0  0  0  0  0  0  0  0  0  0  0  0
  -15.5334   -7.9651    4.9962 C   0  0  0  0  0  0  0  0  0  0  0  0
  -18.2541   -6.4305    2.5554 H   0  0  0  0  0  0  0  0  0  0  0  0
 18 19  1  0  0  0
 19 20  2  0  0  0
 19 12  1  0  0  0
 12 13  2  0  0  0
 13 14  1  0  0  0
 14 15  2  0  0  0
 15 16  1  0  0  0
 16 10  1  0  0  0
 10  1  1  0  0  0
  1 21  1  0  0  0
 21 23  1  0  0  0
 23 24  2  0  0  0
 24 25  1  0  0  0
 25 26  2  0  0  0
 26 27  1  0  0  0
 26 28  1  0  0  0
 28 29  1  0  0  0
 28 30  2  0  0  0
  1  2  2  0  0  0
  2  3  1  0  0  0
  3  4  2  0  0  0
  4  5  1  0  0  0
  5  6  2  0  0  0
  6  7  1  0  0  0
  6  8  1  0  0  0
  8  9  2  0  0  0
 16 17  2  0  0  0
 17 12  1  0  0  0
 30 23  1  0  0  0
  9  3  1  0  0  0
 10 11  1  0  0  0
 21 22  1  0  0  0
 27 31  1  0  0  0
M  END
> <minimizedAffinity>
0.01853

> <CNNscore>
0.5590127110

> <CNNaffinity>
7.2913894653

> <CNN_VS>
4.0759792328

> <CNNaffinity_variance>
0.7228645086

$$$$
[H]Oc1c([H])c([H])c(N([H])C(=Nc2c([H])c([H])c(C([H])([H])[H])c([H])c2[H])N([H])c2c([H])c([H])c([H])c(C(=O)C([H])([H])[H])c2[H])c([H])c1C([H])([H])[H]


 31 33  0  0  0  0  0  0  0  0999 V2000
  -11.7397   -7.1607    8.1065 C   0  0  0  0  0  0  0  0  0  0  0  0
  -10.5042   -6.9030    8.3471 N   0  0  0  0  0  0  0  0  0  0  0  0
   -9.3738   -7.3895    7.6903 C   0  0  0  0  0  0  0  0  0  0  0  0
   -8.9400   -8.6943    7.7732 C   0  0  0  0  0  0  0  0  0  0  0  0
   -7.7984   -9.0570    7.0857 C   0  0  0  0  0  0  0  0  0  0  0  0
   -7.1130   -8.1424    6.3384 C   0  0  0  0  0  0  0  0  0  0  0  0
   -5.8872   -8.5782    5.6142 C   0  0  0  0  0  0  0  0  0  0  0  0
   -7.5312   -6.8352    6.2434 C   0  0  0  0  0  0  0  0  0  0  0  0
   -8.6612   -6.4623    6.9202 C   0  0  0  0  0  0  0  0  0  0  0  0
  -12.0150   -8.0492    7.0447 N   0  0  0  0  0  0  0  0  0  0  0  0
  -11.2602   -8.7845    6.8824 H   0  0  0  0  0  0  0  0  0  0  0  0
  -14.8869   -6.6623    5.2313 C   0  0  0  0  0  0  0  0  0  0  0  0
  -15.4123   -7.8081    4.6319 C   0  0  0  0  0  0  0  0  0  0  0  0
  -14.8232   -9.0275    4.8292 C   0  0  0  0  0  0  0  0  0  0  0  0
  -13.7048   -9.1296    5.6235 C   0  0  0  0  0  0  0  0  0  0  0  0
  -13.1571   -8.0282    6.2304 C   0  0  0  0  0  0  0  0  0  0  0  0
  -13.7717   -6.7908    6.0180 C   0  0  0  0  0  0  0  0  0  0  0  0
  -17.0156   -5.3191    4.9544 C   0  0  0  0  0  0  0  0  0  0  0  0
  -15.5462   -5.3941    4.9916 C   0  0  0  0  0  0  0  0  0  0  0  0
  -14.8610   -4.3666    4.8173 O   0  0  0  0  0  0  0  0  0  0  0  0
  -12.7093   -6.5674    8.9361 N   0  0  0  0  0  0  0  0  0  0  0  0
  -13.7003   -6.5199    8.5535 H   0  0  0  0  0  0  0  0  0  0  0  0
  -12.5135   -6.0200   10.2334 C   0  0  0  0  0  0  0  0  0  0  0  0
  -13.4433   -5.2405   10.8726 C   0  0  0  0  0  0  0  0  0  0  0  0
  -13.1785   -4.7297   12.1346 C   0  0  0  0  0  0  0  0  0  0  0  0
  -12.0009   -4.9644   12.8092 C   0  0  0  0  0  0  0  0  0  0  0  0
  -11.7555   -4.4411   14.0771 O   0  0  0  0  0  0  0  0  0  0  0  0
  -11.0667   -5.7494   12.1648 C   0  0  0  0  0  0  0  0  0  0  0  0
   -9.7609   -6.0425   12.8497 C   0  0  0  0  0  0  0  0  0  0  0  0
  -11.3148   -6.2601   10.9185 C   0  0  0  0  0  0  0  0  0  0  0  0
  -10.8694   -4.6533   14.5150 H   0  0  0  0  0  0  0  0  0  0  0  0
 18 19  1  0  0  0
 19 20  2  0  0  0
 19 12  1  0  0  0
 12 13  2  0  0  0
 13 14  1  0  0  0
 14 15  2  0  0  0
 15 16  1  0  0  0
 16 10  1  0  0  0
 10  1  1  0  0  0
  1 21  1  0  0  0
 21 23  1  0  0  0
 23 24  2  0  0  0
 24 25  1  0  0  0
 25 26  2  0  0  0
 26 27  1  0  0  0
 26 28  1  0  0  0
 28 29  1  0  0  0
 28 30  2  0  0  0
  1  2  2  0  0  0
  2  3  1  0  0  0
  3  4  2  0  0  0
  4  5  1  0  0  0
  5  6  2  0  0  0
  6  7  1  0  0  0
  6  8  1  0  0  0
  8  9  2  0  0  0
 16 17  2  0  0  0
 17 12  1  0  0  0
 30 23  1  0  0  0
  9  3  1  0  0  0
 10 11  1  0  0  0
 21 22  1  0  0  0
 27 31  1  0  0  0
M  END
> <minimizedAffinity>
-2.16831

> <CNNscore>
0.5198265910

> <CNNaffinity>
6.7121553421

> <CNN_VS>
3.4891567230

> <CNNaffinity_variance>
0.2733334005

$$$$
[H]Oc1c([H])c([H])c(N([H])C(=Nc2c([H])c([H])c(C([H])([H])[H])c([H])c2[H])N([H])c2c([H])c([H])c([H])c(C(=O)C([H])([H])[H])c2[H])c([H])c1C([H])([H])[H]


 31 33  0  0  0  0  0  0  0  0999 V2000
  -13.2683   -8.5949    6.5989 C   0  0  0  0  0  0  0  0  0  0  0  0
  -12.3560   -9.4969    6.5291 N   0  0  0  0  0  0  0  0  0  0  0  0
  -11.0242   -9.4155    6.9358 C   0  0  0  0  0  0  0  0  0  0  0  0
  -10.1123  -10.4372    6.7870 C   0  0  0  0  0  0  0  0  0  0  0  0
   -8.8218  -10.2435    7.2392 C   0  0  0  0  0  0  0  0  0  0  0  0
   -8.4556   -9.0640    7.8216 C   0  0  0  0  0  0  0  0  0  0  0  0
   -7.0534   -8.8997    8.2946 C   0  0  0  0  0  0  0  0  0  0  0  0
   -9.3521   -8.0323    7.9785 C   0  0  0  0  0  0  0  0  0  0  0  0
  -10.6347   -8.2113    7.5348 C   0  0  0  0  0  0  0  0  0  0  0  0
  -12.8997   -7.3509    7.1552 N   0  0  0  0  0  0  0  0  0  0  0  0
  -12.4212   -6.6894    6.4695 H   0  0  0  0  0  0  0  0  0  0  0  0
  -13.8781   -7.6052   10.6818 C   0  0  0  0  0  0  0  0  0  0  0  0
  -13.5694   -6.3252   11.1452 C   0  0  0  0  0  0  0  0  0  0  0  0
  -13.0459   -5.3871   10.2974 C   0  0  0  0  0  0  0  0  0  0  0  0
  -12.8205   -5.7034    8.9778 C   0  0  0  0  0  0  0  0  0  0  0  0
  -13.1098   -6.9495    8.4828 C   0  0  0  0  0  0  0  0  0  0  0  0
  -13.6439   -7.8953    9.3628 C   0  0  0  0  0  0  0  0  0  0  0  0
  -13.5711   -9.6055   12.2040 C   0  0  0  0  0  0  0  0  0  0  0  0
  -14.4300   -8.5635   11.6184 C   0  0  0  0  0  0  0  0  0  0  0  0
  -15.6372   -8.5000   11.9256 O   0  0  0  0  0  0  0  0  0  0  0  0
  -14.5420   -8.9064    6.0881 N   0  0  0  0  0  0  0  0  0  0  0  0
  -14.8203   -9.9328    6.0928 H   0  0  0  0  0  0  0  0  0  0  0  0
  -15.5035   -8.0008    5.5623 C   0  0  0  0  0  0  0  0  0  0  0  0
  -16.8275   -8.3173    5.3962 C   0  0  0  0  0  0  0  0  0  0  0  0
  -17.7074   -7.3860    4.8649 C   0  0  0  0  0  0  0  0  0  0  0  0
  -17.3222   -6.1205    4.4812 C   0  0  0  0  0  0  0  0  0  0  0  0
  -18.2232   -5.2003    3.9494 O   0  0  0  0  0  0  0  0  0  0  0  0
  -15.9897   -5.8038    4.6495 C   0  0  0  0  0  0  0  0  0  0  0  0
  -15.5072   -4.4372    4.2499 C   0  0  0  0  0  0  0  0  0  0  0  0
  -15.1099   -6.7136    5.1726 C   0  0  0  0  0  0  0  0  0  0  0  0
  -17.8725   -4.2887    3.6887 H   0  0  0  0  0  0  0  0  0  0  0  0
 18 19  1  0  0  0
 19 20  2  0  0  0
 19 12  1  0  0  0
 12 13  2  0  0  0
 13 14  1  0  0  0
 14 15  2  0  0  0
 15 16  1  0  0  0
 16 10  1  0  0  0
 10  1  1  0  0  0
  1 21  1  0  0  0
 21 23  1  0  0  0
 23 24  2  0  0  0
 24 25  1  0  0  0
 25 26  2  0  0  0
 26 27  1  0  0  0
 26 28  1  0  0  0
 28 29  1  0  0  0
 28 30  2  0  0  0
  1  2  2  0  0  0
  2  3  1  0  0  0
  3  4  2  0  0  0
  4  5  1  0  0  0
  5  6  2  0  0  0
  6  7  1  0  0  0
  6  8  1  0  0  0
  8  9  2  0  0  0
 16 17  2  0  0  0
 17 12  1  0  0  0
 30 23  1  0  0  0
  9  3  1  0  0  0
 10 11  1  0  0  0
 21 22  1  0  0  0
 27 31  1  0  0  0
M  END
> <minimizedAffinity>
-4.73862

> <CNNscore>
0.4551538825

> <CNNaffinity>
7.0037231445

> <CNN_VS>
3.1877717972

> <CNNaffinity_variance>
0.0976994783

$$$$
[H]Oc1c([H])c([H])c(N([H])C(=Nc2c([H])c([H])c(C([H])([H])[H])c([H])c2[H])N([H])c2c([H])c([H])c([H])c(C(=O)C([H])([H])[H])c2[H])c([H])c1C([H])([H])[H]


 31 33  0  0  0  0  0  0  0  0999 V2000
  -15.5743   -7.3066    7.2544 C   0  0  0  0  0  0  0  0  0  0  0  0
  -16.7191   -7.1317    6.6981 N   0  0  0  0  0  0  0  0  0  0  0  0
  -17.0008   -6.8846    5.3545 C   0  0  0  0  0  0  0  0  0  0  0  0
  -16.7962   -5.6698    4.7380 C   0  0  0  0  0  0  0  0  0  0  0  0
  -17.1240   -5.5419    3.4025 C   0  0  0  0  0  0  0  0  0  0  0  0
  -17.6400   -6.5970    2.7060 C   0  0  0  0  0  0  0  0  0  0  0  0
  -17.9792   -6.4131    1.2679 C   0  0  0  0  0  0  0  0  0  0  0  0
  -17.8511   -7.8177    3.3044 C   0  0  0  0  0  0  0  0  0  0  0  0
  -17.5306   -7.9580    4.6279 C   0  0  0  0  0  0  0  0  0  0  0  0
  -14.4384   -7.2450    6.4185 N   0  0  0  0  0  0  0  0  0  0  0  0
  -14.5669   -6.6413    5.5492 H   0  0  0  0  0  0  0  0  0  0  0  0
  -11.0448   -7.7744    7.7078 C   0  0  0  0  0  0  0  0  0  0  0  0
  -10.7539   -9.0426    7.2024 C   0  0  0  0  0  0  0  0  0  0  0  0
  -11.6711   -9.7135    6.4399 C   0  0  0  0  0  0  0  0  0  0  0  0
  -12.8902   -9.1377    6.1668 C   0  0  0  0  0  0  0  0  0  0  0  0
  -13.2153   -7.8937    6.6445 C   0  0  0  0  0  0  0  0  0  0  0  0
  -12.2665   -7.2228    7.4215 C   0  0  0  0  0  0  0  0  0  0  0  0
  -10.4196   -5.9829    9.3848 C   0  0  0  0  0  0  0  0  0  0  0  0
  -10.0409   -7.1046    8.5103 C   0  0  0  0  0  0  0  0  0  0  0  0
   -8.8541   -7.4845    8.4557 O   0  0  0  0  0  0  0  0  0  0  0  0
  -15.5434   -7.5102    8.6465 N   0  0  0  0  0  0  0  0  0  0  0  0
  -16.2145   -6.9264    9.2293 H   0  0  0  0  0  0  0  0  0  0  0  0
  -14.7116   -8.4107    9.3664 C   0  0  0  0  0  0  0  0  0  0  0  0
  -14.1263   -9.5145    8.8010 C   0  0  0  0  0  0  0  0  0  0  0  0
  -13.3356  -10.3567    9.5686 C   0  0  0  0  0  0  0  0  0  0  0  0
  -13.0928  -10.1470   10.9080 C   0  0  0  0  0  0  0  0  0  0  0  0
  -12.2950  -11.0063   11.6606 O   0  0  0  0  0  0  0  0  0  0  0  0
  -13.6822   -9.0356   11.4751 C   0  0  0  0  0  0  0  0  0  0  0  0
  -13.4547   -8.7517   12.9337 C   0  0  0  0  0  0  0  0  0  0  0  0
  -14.4654   -8.1956   10.7291 C   0  0  0  0  0  0  0  0  0  0  0  0
  -12.1585  -10.7925   12.6392 H   0  0  0  0  0  0  0  0  0  0  0  0
 18 19  1  0  0  0
 19 20  2  0  0  0
 19 12  1  0  0  0
 12 13  2  0  0  0
 13 14  1  0  0  0
 14 15  2  0  0  0
 15 16  1  0  0  0
 16 10  1  0  0  0
 10  1  1  0  0  0
  1 21  1  0  0  0
 21 23  1  0  0  0
 23 24  2  0  0  0
 24 25  1  0  0  0
 25 26  2  0  0  0
 26 27  1  0  0  0
 26 28  1  0  0  0
 28 29  1  0  0  0
 28 30  2  0  0  0
  1  2  2  0  0  0
  2  3  1  0  0  0
  3  4  2  0  0  0
  4  5  1  0  0  0
  5  6  2  0  0  0
  6  7  1  0  0  0
  6  8  1  0  0  0
  8  9  2  0  0  0
 16 17  2  0  0  0
 17 12  1  0  0  0
 30 23  1  0  0  0
  9  3  1  0  0  0
 10 11  1  0  0  0
 21 22  1  0  0  0
 27 31  1  0  0  0
M  END
> <minimizedAffinity>
6.73525

> <CNNscore>
0.4506280422

> <CNNaffinity>
6.7253584862

> <CNN_VS>
3.0306351185

> <CNNaffinity_variance>
0.7597813010

$$$$
[H]Oc1c([H])c([H])c(N([H])C(=Nc2c([H])c([H])c(C([H])([H])[H])c([H])c2[H])N([H])c2c([H])c([H])c([H])c(C(=O)C([H])([H])[H])c2[H])c([H])c1C([H])([H])[H]


 31 33  0  0  0  0  0  0  0  0999 V2000
  -11.4928   -7.1076    8.4349 C   0  0  0  0  0  0  0  0  0  0  0  0
  -10.2205   -7.0793    8.6120 N   0  0  0  0  0  0  0  0  0  0  0  0
   -9.2162   -7.5285    7.7545 C   0  0  0  0  0  0  0  0  0  0  0  0
   -8.8627   -8.8524    7.6134 C   0  0  0  0  0  0  0  0  0  0  0  0
   -7.8429   -9.1755    6.7398 C   0  0  0  0  0  0  0  0  0  0  0  0
   -7.1976   -8.2039    6.0297 C   0  0  0  0  0  0  0  0  0  0  0  0
   -6.1039   -8.5986    5.0996 C   0  0  0  0  0  0  0  0  0  0  0  0
   -7.5370   -6.8768    6.1571 C   0  0  0  0  0  0  0  0  0  0  0  0
   -8.5460   -6.5427    7.0199 C   0  0  0  0  0  0  0  0  0  0  0  0
  -11.9599   -7.6607    7.2230 N   0  0  0  0  0  0  0  0  0  0  0  0
  -11.3140   -8.3957    6.7996 H   0  0  0  0  0  0  0  0  0  0  0  0
  -14.7845   -7.9659    4.9019 C   0  0  0  0  0  0  0  0  0  0  0  0
  -15.5133   -6.8143    5.2036 C   0  0  0  0  0  0  0  0  0  0  0  0
  -15.0717   -5.9444    6.1634 C   0  0  0  0  0  0  0  0  0  0  0  0
  -13.9013   -6.2028    6.8384 C   0  0  0  0  0  0  0  0  0  0  0  0
  -13.1559   -7.3230    6.5723 C   0  0  0  0  0  0  0  0  0  0  0  0
  -13.6219   -8.2005    5.5889 C   0  0  0  0  0  0  0  0  0  0  0  0
  -14.4917   -9.1386    2.6766 C   0  0  0  0  0  0  0  0  0  0  0  0
  -15.2938   -8.8562    3.8780 C   0  0  0  0  0  0  0  0  0  0  0  0
  -16.4158   -9.3819    4.0210 O   0  0  0  0  0  0  0  0  0  0  0  0
  -12.3122   -6.6197    9.4696 N   0  0  0  0  0  0  0  0  0  0  0  0
  -12.1534   -5.6117    9.7692 H   0  0  0  0  0  0  0  0  0  0  0  0
  -13.3322   -7.3248   10.1648 C   0  0  0  0  0  0  0  0  0  0  0  0
  -14.6475   -7.3278    9.7766 C   0  0  0  0  0  0  0  0  0  0  0  0
  -15.5915   -8.0295   10.5115 C   0  0  0  0  0  0  0  0  0  0  0  0
  -15.2806   -8.7480   11.6446 C   0  0  0  0  0  0  0  0  0  0  0  0
  -16.2453   -9.4461   12.3682 O   0  0  0  0  0  0  0  0  0  0  0  0
  -13.9567   -8.7443   12.0335 C   0  0  0  0  0  0  0  0  0  0  0  0
  -13.5536   -9.5107   13.2623 C   0  0  0  0  0  0  0  0  0  0  0  0
  -13.0140   -8.0556   11.3174 C   0  0  0  0  0  0  0  0  0  0  0  0
  -15.9476   -9.9529   13.1907 H   0  0  0  0  0  0  0  0  0  0  0  0
 18 19  1  0  0  0
 19 20  2  0  0  0
 19 12  1  0  0  0
 12 13  2  0  0  0
 13 14  1  0  0  0
 14 15  2  0  0  0
 15 16  1  0  0  0
 16 10  1  0  0  0
 10  1  1  0  0  0
  1 21  1  0  0  0
 21 23  1  0  0  0
 23 24  2  0  0  0
 24 25  1  0  0  0
 25 26  2  0  0  0
 26 27  1  0  0  0
 26 28  1  0  0  0
 28 29  1  0  0  0
 28 30  2  0  0  0
  1  2  2  0  0  0
  2  3  1  0  0  0
  3  4  2  0  0  0
  4  5  1  0  0  0
  5  6  2  0  0  0
  6  7  1  0  0  0
  6  8  1  0  0  0
  8  9  2  0  0  0
 16 17  2  0  0  0
 17 12  1  0  0  0
 30 23  1  0  0  0
  9  3  1  0  0  0
 10 11  1  0  0  0
 21 22  1  0  0  0
 27 31  1  0  0  0
M  END
> <minimizedAffinity>
2.79528

> <CNNscore>
0.4297286868

> <CNNaffinity>
6.8639383316

> <CNN_VS>
2.9496312141

> <CNNaffinity_variance>
1.2528728247

$$$$
[H]Oc1c([H])c([H])c(N([H])C(=Nc2c([H])c([H])c(C([H])([H])[H])c([H])c2[H])N([H])c2c([H])c([H])c([H])c(C(=O)C([H])([H])[H])c2[H])c([H])c1C([H])([H])[H]


 31 33  0  0  0  0  0  0  0  0999 V2000
  -13.6210   -9.2287    6.3605 C   0  0  0  0  0  0  0  0  0  0  0  0
  -13.6986   -8.5771    5.2559 N   0  0  0  0  0  0  0  0  0  0  0  0
  -14.7088   -7.7160    4.8270 C   0  0  0  0  0  0  0  0  0  0  0  0
  -15.7746   -8.1106    4.0486 C   0  0  0  0  0  0  0  0  0  0  0  0
  -16.7085   -7.1637    3.6762 C   0  0  0  0  0  0  0  0  0  0  0  0
  -16.5796   -5.8628    4.0710 C   0  0  0  0  0  0  0  0  0  0  0  0
  -17.6104   -4.8761    3.6455 C   0  0  0  0  0  0  0  0  0  0  0  0
  -15.5224   -5.4502    4.8487 C   0  0  0  0  0  0  0  0  0  0  0  0
  -14.5894   -6.3788    5.2246 C   0  0  0  0  0  0  0  0  0  0  0  0
  -14.6841   -9.0696    7.2755 N   0  0  0  0  0  0  0  0  0  0  0  0
  -15.6236   -9.4286    6.9217 H   0  0  0  0  0  0  0  0  0  0  0  0
  -13.4445   -6.8951    9.9577 C   0  0  0  0  0  0  0  0  0  0  0  0
  -14.2836   -7.2558   11.0133 C   0  0  0  0  0  0  0  0  0  0  0  0
  -15.2474   -8.2116   10.8390 C   0  0  0  0  0  0  0  0  0  0  0  0
  -15.3940   -8.8242    9.6161 C   0  0  0  0  0  0  0  0  0  0  0  0
  -14.5903   -8.4985    8.5534 C   0  0  0  0  0  0  0  0  0  0  0  0
  -13.6112   -7.5202    8.7493 C   0  0  0  0  0  0  0  0  0  0  0  0
  -12.8192   -4.4556   10.2238 C   0  0  0  0  0  0  0  0  0  0  0  0
  -12.4397   -5.8774   10.1919 C   0  0  0  0  0  0  0  0  0  0  0  0
  -11.2513   -6.2134   10.3666 O   0  0  0  0  0  0  0  0  0  0  0  0
  -12.5078  -10.0677    6.5526 N   0  0  0  0  0  0  0  0  0  0  0  0
  -12.6704  -11.1117    6.4319 H   0  0  0  0  0  0  0  0  0  0  0  0
  -11.1841   -9.6770    6.8932 C   0  0  0  0  0  0  0  0  0  0  0  0
  -10.1192  -10.5411    6.8988 C   0  0  0  0  0  0  0  0  0  0  0  0
   -8.8562  -10.0916    7.2543 C   0  0  0  0  0  0  0  0  0  0  0  0
   -8.5952   -8.7879    7.6137 C   0  0  0  0  0  0  0  0  0  0  0  0
   -7.3180   -8.3575    7.9675 O   0  0  0  0  0  0  0  0  0  0  0  0
   -9.6677   -7.9197    7.6070 C   0  0  0  0  0  0  0  0  0  0  0  0
   -9.4472   -6.4826    7.9893 C   0  0  0  0  0  0  0  0  0  0  0  0
  -10.9203   -8.3500    7.2584 C   0  0  0  0  0  0  0  0  0  0  0  0
   -7.1974   -7.3862    8.2206 H   0  0  0  0  0  0  0  0  0  0  0  0
 18 19  1  0  0  0
 19 20  2  0  0  0
 19 12  1  0  0  0
 12 13  2  0  0  0
 13 14  1  0  0  0
 14 15  2  0  0  0
 15 16  1  0  0  0
 16 10  1  0  0  0
 10  1  1  0  0  0
  1 21  1  0  0  0
 21 23  1  0  0  0
 23 24  2  0  0  0
 24 25  1  0  0  0
 25 26  2  0  0  0
 26 27  1  0  0  0
 26 28  1  0  0  0
 28 29  1  0  0  0
 28 30  2  0  0  0
  1  2  2  0  0  0
  2  3  1  0  0  0
  3  4  2  0  0  0
  4  5  1  0  0  0
  5  6  2  0  0  0
  6  7  1  0  0  0
  6  8  1  0  0  0
  8  9  2  0  0  0
 16 17  2  0  0  0
 17 12  1  0  0  0
 30 23  1  0  0  0
  9  3  1  0  0  0
 10 11  1  0  0  0
 21 22  1  0  0  0
 27 31  1  0  0  0
M  END
> <minimizedAffinity>
-7.13702

> <CNNscore>
0.4074042141

> <CNNaffinity>
6.9077553749

> <CNN_VS>
2.8142485619

> <CNNaffinity_variance>
0.0822740644

$$$$
[H]Oc1c([H])c([H])c(N([H])C(=Nc2c([H])c([H])c(C([H])([H])[H])c([H])c2[H])N([H])c2c([H])c([H])c([H])c(C(=O)C([H])([H])[H])c2[H])c([H])c1C([H])([H])[H]


 31 33  0  0  0  0  0  0  0  0999 V2000
  -13.6589   -8.5604    7.0535 C   0  0  0  0  0  0  0  0  0  0  0  0
  -14.1323   -7.6731    7.8531 N   0  0  0  0  0  0  0  0  0  0  0  0
  -13.5864   -7.2041    9.0480 C   0  0  0  0  0  0  0  0  0  0  0  0
  -13.2891   -8.0104   10.1247 C   0  0  0  0  0  0  0  0  0  0  0  0
  -12.7609   -7.4291   11.2608 C   0  0  0  0  0  0  0  0  0  0  0  0
  -12.5371   -6.0832   11.3170 C   0  0  0  0  0  0  0  0  0  0  0  0
  -11.9665   -5.5000   12.5626 C   0  0  0  0  0  0  0  0  0  0  0  0
  -12.8274   -5.2623   10.2519 C   0  0  0  0  0  0  0  0  0  0  0  0
  -13.3516   -5.8256    9.1197 C   0  0  0  0  0  0  0  0  0  0  0  0
  -12.4277   -9.1528    7.4084 N   0  0  0  0  0  0  0  0  0  0  0  0
  -12.4899  -10.1947    7.6261 H   0  0  0  0  0  0  0  0  0  0  0  0
   -8.7870   -8.7415    7.5957 C   0  0  0  0  0  0  0  0  0  0  0  0
   -8.6694   -7.3512    7.6332 C   0  0  0  0  0  0  0  0  0  0  0  0
   -9.7847   -6.5587    7.6002 C   0  0  0  0  0  0  0  0  0  0  0  0
  -11.0330   -7.1322    7.5296 C   0  0  0  0  0  0  0  0  0  0  0  0
  -11.1919   -8.4941    7.4906 C   0  0  0  0  0  0  0  0  0  0  0  0
  -10.0420   -9.2882    7.5252 C   0  0  0  0  0  0  0  0  0  0  0  0
   -6.3300   -9.0169    7.0480 C   0  0  0  0  0  0  0  0  0  0  0  0
   -7.5764   -9.5375    7.6326 C   0  0  0  0  0  0  0  0  0  0  0  0
   -7.5970  -10.6662    8.1629 O   0  0  0  0  0  0  0  0  0  0  0  0
  -14.4168   -8.8915    5.9150 N   0  0  0  0  0  0  0  0  0  0  0  0
  -14.3485   -9.8957    5.5716 H   0  0  0  0  0  0  0  0  0  0  0  0
  -15.2663   -8.0317    5.1666 C   0  0  0  0  0  0  0  0  0  0  0  0
  -16.4075   -8.4584    4.5370 C   0  0  0  0  0  0  0  0  0  0  0  0
  -17.1824   -7.5644    3.8132 C   0  0  0  0  0  0  0  0  0  0  0  0
  -16.8675   -6.2298    3.6830 C   0  0  0  0  0  0  0  0  0  0  0  0
  -17.6605   -5.3487    2.9507 O   0  0  0  0  0  0  0  0  0  0  0  0
  -15.7193   -5.8022    4.3176 C   0  0  0  0  0  0  0  0  0  0  0  0
  -15.3219   -4.3561    4.2135 C   0  0  0  0  0  0  0  0  0  0  0  0
  -14.9446   -6.6742    5.0354 C   0  0  0  0  0  0  0  0  0  0  0  0
  -17.3705   -4.3818    2.8965 H   0  0  0  0  0  0  0  0  0  0  0  0
 18 19  1  0  0  0
 19 20  2  0  0  0
 19 12  1  0  0  0
 12 13  2  0  0  0
 13 14  1  0  0  0
 14 15  2  0  0  0
 15 16  1  0  0  0
 16 10  1  0  0  0
 10  1  1  0  0  0
  1 21  1  0  0  0
 21 23  1  0  0  0
 23 24  2  0  0  0
 24 25  1  0  0  0
 25 26  2  0  0  0
 26 27  1  0  0  0
 26 28  1  0  0  0
 28 29  1  0  0  0
 28 30  2  0  0  0
  1  2  2  0  0  0
  2  3  1  0  0  0
  3  4  2  0  0  0
  4  5  1  0  0  0
  5  6  2  0  0  0
  6  7  1  0  0  0
  6  8  1  0  0  0
  8  9  2  0  0  0
 16 17  2  0  0  0
 17 12  1  0  0  0
 30 23  1  0  0  0
  9  3  1  0  0  0
 10 11  1  0  0  0
 21 22  1  0  0  0
 27 31  1  0  0  0
M  END
> <minimizedAffinity>
-7.69362

> <CNNscore>
0.4056701064

> <CNNaffinity>
7.0404291153

> <CNN_VS>
2.8560917377

> <CNNaffinity_variance>
0.1036542878

$$$$
[H]Oc1c([H])c([H])c(N([H])C(=Nc2c([H])c([H])c(C([H])([H])[H])c([H])c2[H])N([H])c2c([H])c([H])c([H])c(C(=O)C([H])([H])[H])c2[H])c([H])c1C([H])([H])[H]


 31 33  0  0  0  0  0  0  0  0999 V2000
  -10.9038   -8.8273    7.6123 C   0  0  0  0  0  0  0  0  0  0  0  0
   -9.7783   -9.4224    7.4394 N   0  0  0  0  0  0  0  0  0  0  0  0
   -8.4951   -8.8767    7.4757 C   0  0  0  0  0  0  0  0  0  0  0  0
   -7.9526   -8.2641    8.5839 C   0  0  0  0  0  0  0  0  0  0  0  0
   -6.6735   -7.7505    8.4964 C   0  0  0  0  0  0  0  0  0  0  0  0
   -5.9600   -7.8474    7.3361 C   0  0  0  0  0  0  0  0  0  0  0  0
   -4.5846   -7.2790    7.2875 C   0  0  0  0  0  0  0  0  0  0  0  0
   -6.4849   -8.4558    6.2194 C   0  0  0  0  0  0  0  0  0  0  0  0
   -7.7519   -8.9690    6.2926 C   0  0  0  0  0  0  0  0  0  0  0  0
  -10.8631   -7.4407    7.8740 N   0  0  0  0  0  0  0  0  0  0  0  0
  -10.2140   -6.8926    7.2298 H   0  0  0  0  0  0  0  0  0  0  0  0
  -11.5476   -5.9011   11.1328 C   0  0  0  0  0  0  0  0  0  0  0  0
  -12.8555   -5.4478   10.9529 C   0  0  0  0  0  0  0  0  0  0  0  0
  -13.5046   -5.6532    9.7658 C   0  0  0  0  0  0  0  0  0  0  0  0
  -12.8674   -6.3108    8.7392 C   0  0  0  0  0  0  0  0  0  0  0  0
  -11.5827   -6.7716    8.8752 C   0  0  0  0  0  0  0  0  0  0  0  0
  -10.9349   -6.5532   10.0946 C   0  0  0  0  0  0  0  0  0  0  0  0
  -11.7009   -5.2504   13.5753 C   0  0  0  0  0  0  0  0  0  0  0  0
  -10.9029   -5.6590   12.4080 C   0  0  0  0  0  0  0  0  0  0  0  0
   -9.6677   -5.7991   12.5105 O   0  0  0  0  0  0  0  0  0  0  0  0
  -12.0782   -9.5935    7.4941 N   0  0  0  0  0  0  0  0  0  0  0  0
  -12.0236  -10.6042    7.8202 H   0  0  0  0  0  0  0  0  0  0  0  0
  -13.3354   -9.1686    6.9844 C   0  0  0  0  0  0  0  0  0  0  0  0
  -14.3953   -8.8203    7.7820 C   0  0  0  0  0  0  0  0  0  0  0  0
  -15.5977   -8.4264    7.2140 C   0  0  0  0  0  0  0  0  0  0  0  0
  -15.8011   -8.3604    5.8534 C   0  0  0  0  0  0  0  0  0  0  0  0
  -17.0179   -7.9618    5.3038 O   0  0  0  0  0  0  0  0  0  0  0  0
  -14.7335   -8.7106    5.0524 C   0  0  0  0  0  0  0  0  0  0  0  0
  -14.8925   -8.6586    3.5584 C   0  0  0  0  0  0  0  0  0  0  0  0
  -13.5405   -9.1017    5.5997 C   0  0  0  0  0  0  0  0  0  0  0  0
  -17.0981   -7.9358    4.2964 H   0  0  0  0  0  0  0  0  0  0  0  0
 18 19  1  0  0  0
 19 20  2  0  0  0
 19 12  1  0  0  0
 12 13  2  0  0  0
 13 14  1  0  0  0
 14 15  2  0  0  0
 15 16  1  0  0  0
 16 10  1  0  0  0
 10  1  1  0  0  0
  1 21  1  0  0  0
 21 23  1  0  0  0
 23 24  2  0  0  0
 24 25  1  0  0  0
 25 26  2  0  0  0
 26 27  1  0  0  0
 26 28  1  0  0  0
 28 29  1  0  0  0
 28 30  2  0  0  0
  1  2  2  0  0  0
  2  3  1  0  0  0
  3  4  2  0  0  0
  4  5  1  0  0  0
  5  6  2  0  0  0
  6  7  1  0  0  0
  6  8  1  0  0  0
  8  9  2  0  0  0
 16 17  2  0  0  0
 17 12  1  0  0  0
 30 23  1  0  0  0
  9  3  1  0  0  0
 10 11  1  0  0  0
 21 22  1  0  0  0
 27 31  1  0  0  0
M  END
> <minimizedAffinity>
-6.26230

> <CNNscore>
0.3706119955

> <CNNaffinity>
6.6436057091

> <CNN_VS>
2.4621999264

> <CNNaffinity_variance>
0.0577834062

$$$$
[H]Oc1c([H])c([H])c(N([H])C(=Nc2c([H])c([H])c(C([H])([H])[H])c([H])c2[H])N([H])c2c([H])c([H])c([H])c(C(=O)C([H])([H])[H])c2[H])c([H])c1C([H])([H])[H]


 31 33  0  0  0  0  0  0  0  0999 V2000
  -13.1182   -9.0750    7.1840 C   0  0  0  0  0  0  0  0  0  0  0  0
  -11.9947   -9.1250    6.5627 N   0  0  0  0  0  0  0  0  0  0  0  0
  -10.7110   -8.9449    7.0778 C   0  0  0  0  0  0  0  0  0  0  0  0
   -9.8073   -9.9682    7.2621 C   0  0  0  0  0  0  0  0  0  0  0  0
   -8.5673   -9.6687    7.7913 C   0  0  0  0  0  0  0  0  0  0  0  0
   -8.2421   -8.3852    8.1252 C   0  0  0  0  0  0  0  0  0  0  0  0
   -6.8937   -8.1089    8.6931 C   0  0  0  0  0  0  0  0  0  0  0  0
   -9.1311   -7.3503    7.9481 C   0  0  0  0  0  0  0  0  0  0  0  0
  -10.3639   -7.6335    7.4245 C   0  0  0  0  0  0  0  0  0  0  0  0
  -13.0743   -8.8036    8.5686 N   0  0  0  0  0  0  0  0  0  0  0  0
  -13.0492   -9.6735    9.1846 H   0  0  0  0  0  0  0  0  0  0  0  0
  -12.0626   -6.1003   10.8332 C   0  0  0  0  0  0  0  0  0  0  0  0
  -12.8997   -5.0645   10.4153 C   0  0  0  0  0  0  0  0  0  0  0  0
  -13.7921   -5.2608    9.3964 C   0  0  0  0  0  0  0  0  0  0  0  0
  -13.8682   -6.4865    8.7765 C   0  0  0  0  0  0  0  0  0  0  0  0
  -13.0634   -7.5300    9.1568 C   0  0  0  0  0  0  0  0  0  0  0  0
  -12.1579   -7.3119   10.1992 C   0  0  0  0  0  0  0  0  0  0  0  0
  -11.6362   -5.5741   13.2732 C   0  0  0  0  0  0  0  0  0  0  0  0
  -11.1343   -5.8429   11.9159 C   0  0  0  0  0  0  0  0  0  0  0  0
   -9.9075   -5.8508   11.6908 O   0  0  0  0  0  0  0  0  0  0  0  0
  -14.2941   -9.2598    6.4334 N   0  0  0  0  0  0  0  0  0  0  0  0
  -14.6699  -10.2527    6.3716 H   0  0  0  0  0  0  0  0  0  0  0  0
  -15.0398   -8.2655    5.7433 C   0  0  0  0  0  0  0  0  0  0  0  0
  -16.3372   -8.4417    5.3353 C   0  0  0  0  0  0  0  0  0  0  0  0
  -16.9994   -7.4307    4.6550 C   0  0  0  0  0  0  0  0  0  0  0  0
  -16.4165   -6.2198    4.3535 C   0  0  0  0  0  0  0  0  0  0  0  0
  -17.1005   -5.2174    3.6687 O   0  0  0  0  0  0  0  0  0  0  0  0
  -15.1113   -6.0440    4.7652 C   0  0  0  0  0  0  0  0  0  0  0  0
  -14.4195   -4.7432    4.4664 C   0  0  0  0  0  0  0  0  0  0  0  0
  -14.4452   -7.0339    5.4376 C   0  0  0  0  0  0  0  0  0  0  0  0
  -16.6120   -4.3526    3.4804 H   0  0  0  0  0  0  0  0  0  0  0  0
 18 19  1  0  0  0
 19 20  2  0  0  0
 19 12  1  0  0  0
 12 13  2  0  0  0
 13 14  1  0  0  0
 14 15  2  0  0  0
 15 16  1  0  0  0
 16 10  1  0  0  0
 10  1  1  0  0  0
  1 21  1  0  0  0
 21 23  1  0  0  0
 23 24  2  0  0  0
 24 25  1  0  0  0
 25 26  2  0  0  0
 26 27  1  0  0  0
 26 28  1  0  0  0
 28 29  1  0  0  0
 28 30  2  0  0  0
  1  2  2  0  0  0
  2  3  1  0  0  0
  3  4  2  0  0  0
  4  5  1  0  0  0
  5  6  2  0  0  0
  6  7  1  0  0  0
  6  8  1  0  0  0
  8  9  2  0  0  0
 16 17  2  0  0  0
 17 12  1  0  0  0
 30 23  1  0  0  0
  9  3  1  0  0  0
 10 11  1  0  0  0
 21 22  1  0  0  0
 27 31  1  0  0  0
M  END
> <minimizedAffinity>
-6.19583

> <CNNscore>
0.3630158305

> <CNNaffinity>
6.9462327957

> <CNN_VS>
2.5215923786

> <CNNaffinity_variance>
0.1755802929

$$$$
[H]OC(=O)c1c([H])c([H])c(/C(=C(\c2c([H])c([H])c(F)c([H])c2[H])N([H])c2c([H])c([H])c(F)c([H])c2[H])c2c([H])c([H])c(O[H])c([H])c2[H])c([H])c1[H]


 36 39  0  0  0  0  0  0  0  0999 V2000
  -13.5549   -7.7477    8.1605 C   0  0  0  0  0  0  0  0  0  0  0  0
  -12.7506   -8.2548    7.2721 C   0  0  0  0  0  0  0  0  0  0  0  0
  -19.1316   -8.3031    7.7954 O   0  0  0  0  0  0  0  0  0  0  0  0
  -17.7480   -8.1174    7.8721 C   0  0  0  0  0  0  0  0  0  0  0  0
  -17.1573   -7.0517    7.2114 C   0  0  0  0  0  0  0  0  0  0  0  0
  -15.7750   -6.8999    7.3128 C   0  0  0  0  0  0  0  0  0  0  0  0
  -15.0351   -7.7524    8.0220 C   0  0  0  0  0  0  0  0  0  0  0  0
  -15.6628   -8.8175    8.6784 C   0  0  0  0  0  0  0  0  0  0  0  0
  -17.0134   -9.0156    8.6147 C   0  0  0  0  0  0  0  0  0  0  0  0
  -19.5786   -9.0753    8.2689 H   0  0  0  0  0  0  0  0  0  0  0  0
  -11.3000   -8.2672    7.3424 C   0  0  0  0  0  0  0  0  0  0  0  0
  -10.4831   -7.1809    7.5094 C   0  0  0  0  0  0  0  0  0  0  0  0
   -9.1047   -7.2783    7.5991 C   0  0  0  0  0  0  0  0  0  0  0  0
   -8.5534   -8.5592    7.5100 C   0  0  0  0  0  0  0  0  0  0  0  0
   -7.2012   -8.7571    7.5921 F   0  0  0  0  0  0  0  0  0  0  0  0
   -9.3583   -9.6507    7.3415 C   0  0  0  0  0  0  0  0  0  0  0  0
  -10.7046   -9.5054    7.2596 C   0  0  0  0  0  0  0  0  0  0  0  0
  -12.9917   -7.1889    9.3829 C   0  0  0  0  0  0  0  0  0  0  0  0
  -12.7673   -5.8325    9.4376 C   0  0  0  0  0  0  0  0  0  0  0  0
  -12.2455   -5.2327   10.5892 C   0  0  0  0  0  0  0  0  0  0  0  0
  -11.9462   -5.9986   11.6960 C   0  0  0  0  0  0  0  0  0  0  0  0
  -12.1693   -7.3519   11.6455 C   0  0  0  0  0  0  0  0  0  0  0  0
  -12.6877   -7.9304   10.4942 C   0  0  0  0  0  0  0  0  0  0  0  0
  -11.3786   -5.4207   12.9079 C   0  0  0  0  0  0  0  0  0  0  0  0
  -10.1206   -5.7626   13.3964 O   0  0  0  0  0  0  0  0  0  0  0  0
  -12.0390   -4.5803   13.5452 O   0  0  0  0  0  0  0  0  0  0  0  0
   -9.9461   -5.8832   14.3958 H   0  0  0  0  0  0  0  0  0  0  0  0
  -13.2907   -8.8567    6.0966 N   0  0  0  0  0  0  0  0  0  0  0  0
  -12.9356   -9.8163    5.8833 H   0  0  0  0  0  0  0  0  0  0  0  0
  -14.2294   -8.2826    5.2276 C   0  0  0  0  0  0  0  0  0  0  0  0
  -15.2659   -9.0570    4.6902 C   0  0  0  0  0  0  0  0  0  0  0  0
  -16.2245   -8.5446    3.8611 C   0  0  0  0  0  0  0  0  0  0  0  0
  -16.1775   -7.2103    3.5347 C   0  0  0  0  0  0  0  0  0  0  0  0
  -17.1351   -6.7062    2.7099 F   0  0  0  0  0  0  0  0  0  0  0  0
  -15.1732   -6.4082    4.0413 C   0  0  0  0  0  0  0  0  0  0  0  0
  -14.2080   -6.9535    4.8831 C   0  0  0  0  0  0  0  0  0  0  0  0
  3  4  1  0  0  0
  4  5  2  0  0  0
  5  6  1  0  0  0
  6  7  2  0  0  0
  7  8  1  0  0  0
  8  9  2  0  0  0
  7  1  1  0  0  0
  1  2  2  0  0  0
  2 28  1  0  0  0
 28 30  1  0  0  0
 30 31  2  0  0  0
 31 32  1  0  0  0
 32 33  2  0  0  0
 33 34  1  0  0  0
 33 35  1  0  0  0
 35 36  2  0  0  0
  2 11  1  0  0  0
 11 12  2  0  0  0
 12 13  1  0  0  0
 13 14  2  0  0  0
 14 15  1  0  0  0
 14 16  1  0  0  0
 16 17  2  0  0  0
  1 18  1  0  0  0
 18 19  2  0  0  0
 19 20  1  0  0  0
 20 21  2  0  0  0
 21 22  1  0  0  0
 22 23  2  0  0  0
 21 24  1  0  0  0
 24 25  1  0  0  0
 24 26  2  0  0  0
  9  4  1  0  0  0
 36 30  1  0  0  0
 17 11  1  0  0  0
 23 18  1  0  0  0
  3 10  1  0  0  0
 28 29  1  0  0  0
 25 27  1  0  0  0
M  END
> <minimizedAffinity>
-1.90485

> <CNNscore>
0.4169098139

> <CNNaffinity>
7.1353368759

> <CNN_VS>
2.9747920036

> <CNNaffinity_variance>
0.4225789905

$$$$
[H]OC(=O)c1c([H])c([H])c(/C(=C(\c2c([H])c([H])c(F)c([H])c2[H])N([H])c2c([H])c([H])c(F)c([H])c2[H])c2c([H])c([H])c(O[H])c([H])c2[H])c([H])c1[H]


 36 39  0  0  0  0  0  0  0  0999 V2000
  -11.3736   -7.9606    8.1278 C   0  0  0  0  0  0  0  0  0  0  0  0
  -10.8334   -7.0422    8.8748 C   0  0  0  0  0  0  0  0  0  0  0  0
   -8.9825  -12.4522    5.7512 O   0  0  0  0  0  0  0  0  0  0  0  0
   -9.5326  -11.3190    6.3575 C   0  0  0  0  0  0  0  0  0  0  0  0
   -8.8074  -10.6286    7.3159 C   0  0  0  0  0  0  0  0  0  0  0  0
   -9.3901   -9.5029    7.8968 C   0  0  0  0  0  0  0  0  0  0  0  0
  -10.6107   -9.0965    7.5468 C   0  0  0  0  0  0  0  0  0  0  0  0
  -11.3161   -9.8154    6.5748 C   0  0  0  0  0  0  0  0  0  0  0  0
  -10.7952  -10.9255    5.9715 C   0  0  0  0  0  0  0  0  0  0  0  0
   -9.4975  -12.9687    5.0524 H   0  0  0  0  0  0  0  0  0  0  0  0
  -11.5201   -5.9027    9.4573 C   0  0  0  0  0  0  0  0  0  0  0  0
  -12.6942   -5.9318   10.1614 C   0  0  0  0  0  0  0  0  0  0  0  0
  -13.2719   -4.8016   10.7151 C   0  0  0  0  0  0  0  0  0  0  0  0
  -12.6005   -3.5906   10.5269 C   0  0  0  0  0  0  0  0  0  0  0  0
  -13.0910   -2.4200   11.0402 F   0  0  0  0  0  0  0  0  0  0  0  0
  -11.4290   -3.5487    9.8245 C   0  0  0  0  0  0  0  0  0  0  0  0
  -10.9009   -4.6834    9.3009 C   0  0  0  0  0  0  0  0  0  0  0  0
  -12.8093   -7.9139    7.8820 C   0  0  0  0  0  0  0  0  0  0  0  0
  -13.2704   -7.1214    6.8561 C   0  0  0  0  0  0  0  0  0  0  0  0
  -14.6357   -7.0478    6.5581 C   0  0  0  0  0  0  0  0  0  0  0  0
  -15.5471   -7.7750    7.2942 C   0  0  0  0  0  0  0  0  0  0  0  0
  -15.0907   -8.5673    8.3179 C   0  0  0  0  0  0  0  0  0  0  0  0
  -13.7322   -8.6281    8.5997 C   0  0  0  0  0  0  0  0  0  0  0  0
  -16.9801   -7.7106    7.0353 C   0  0  0  0  0  0  0  0  0  0  0  0
  -17.9363   -8.1874    7.9278 O   0  0  0  0  0  0  0  0  0  0  0  0
  -17.3814   -7.2075    5.9702 O   0  0  0  0  0  0  0  0  0  0  0  0
  -18.7668   -8.6895    7.6090 H   0  0  0  0  0  0  0  0  0  0  0  0
   -9.4391   -7.1068    9.1710 N   0  0  0  0  0  0  0  0  0  0  0  0
   -9.2040   -7.2918   10.1725 H   0  0  0  0  0  0  0  0  0  0  0  0
   -8.3888   -6.9449    8.2565 C   0  0  0  0  0  0  0  0  0  0  0  0
   -7.0911   -7.3579    8.5853 C   0  0  0  0  0  0  0  0  0  0  0  0
   -6.0353   -7.2505    7.7235 C   0  0  0  0  0  0  0  0  0  0  0  0
   -6.2471   -6.7146    6.4757 C   0  0  0  0  0  0  0  0  0  0  0  0
   -5.1924   -6.6115    5.6223 F   0  0  0  0  0  0  0  0  0  0  0  0
   -7.5105   -6.2937    6.1080 C   0  0  0  0  0  0  0  0  0  0  0  0
   -8.5696   -6.4129    7.0035 C   0  0  0  0  0  0  0  0  0  0  0  0
  3  4  1  0  0  0
  4  5  2  0  0  0
  5  6  1  0  0  0
  6  7  2  0  0  0
  7  8  1  0  0  0
  8  9  2  0  0  0
  7  1  1  0  0  0
  1  2  2  0  0  0
  2 28  1  0  0  0
 28 30  1  0  0  0
 30 31  2  0  0  0
 31 32  1  0  0  0
 32 33  2  0  0  0
 33 34  1  0  0  0
 33 35  1  0  0  0
 35 36  2  0  0  0
  2 11  1  0  0  0
 11 12  2  0  0  0
 12 13  1  0  0  0
 13 14  2  0  0  0
 14 15  1  0  0  0
 14 16  1  0  0  0
 16 17  2  0  0  0
  1 18  1  0  0  0
 18 19  2  0  0  0
 19 20  1  0  0  0
 20 21  2  0  0  0
 21 22  1  0  0  0
 22 23  2  0  0  0
 21 24  1  0  0  0
 24 25  1  0  0  0
 24 26  2  0  0  0
  9  4  1  0  0  0
 36 30  1  0  0  0
 17 11  1  0  0  0
 23 18  1  0  0  0
  3 10  1  0  0  0
 28 29  1  0  0  0
 25 27  1  0  0  0
M  END
> <minimizedAffinity>
-1.98025

> <CNNscore>
0.3441706002

> <CNNaffinity>
6.7629518509

> <CNN_VS>
2.3276093006

> <CNNaffinity_variance>
0.4180057645

$$$$
[H]OC(=O)c1c([H])c([H])c(/C(=C(\c2c([H])c([H])c(F)c([H])c2[H])N([H])c2c([H])c([H])c(F)c([H])c2[H])c2c([H])c([H])c(O[H])c([H])c2[H])c([H])c1[H]


 36 39  0  0  0  0  0  0  0  0999 V2000
  -14.5460   -6.8087    6.4731 C   0  0  0  0  0  0  0  0  0  0  0  0
  -13.4845   -7.1829    7.1262 C   0  0  0  0  0  0  0  0  0  0  0  0
  -14.9841   -2.6573    2.7161 O   0  0  0  0  0  0  0  0  0  0  0  0
  -14.8318   -3.7039    3.6306 C   0  0  0  0  0  0  0  0  0  0  0  0
  -13.9591   -4.7435    3.3501 C   0  0  0  0  0  0  0  0  0  0  0  0
  -13.8343   -5.7682    4.2874 C   0  0  0  0  0  0  0  0  0  0  0  0
  -14.5324   -5.7563    5.4232 C   0  0  0  0  0  0  0  0  0  0  0  0
  -15.4043   -4.6911    5.6766 C   0  0  0  0  0  0  0  0  0  0  0  0
  -15.5669   -3.6597    4.7948 C   0  0  0  0  0  0  0  0  0  0  0  0
  -15.6171   -1.8927    2.9032 H   0  0  0  0  0  0  0  0  0  0  0  0
  -13.4362   -8.1911    8.1706 C   0  0  0  0  0  0  0  0  0  0  0  0
  -13.4326   -9.5489    7.9928 C   0  0  0  0  0  0  0  0  0  0  0  0
  -13.3523  -10.4485    9.0424 C   0  0  0  0  0  0  0  0  0  0  0  0
  -13.2739   -9.9129   10.3307 C   0  0  0  0  0  0  0  0  0  0  0  0
  -13.1869  -10.7221   11.4316 F   0  0  0  0  0  0  0  0  0  0  0  0
  -13.2784   -8.5597   10.5208 C   0  0  0  0  0  0  0  0  0  0  0  0
  -13.3580   -7.7171    9.4605 C   0  0  0  0  0  0  0  0  0  0  0  0
  -15.8102   -7.4833    6.7384 C   0  0  0  0  0  0  0  0  0  0  0  0
  -16.5757   -7.8806    5.6662 C   0  0  0  0  0  0  0  0  0  0  0  0
  -17.7906   -8.5488    5.8544 C   0  0  0  0  0  0  0  0  0  0  0  0
  -18.2426   -8.8219    7.1281 C   0  0  0  0  0  0  0  0  0  0  0  0
  -17.4815   -8.4278    8.2002 C   0  0  0  0  0  0  0  0  0  0  0  0
  -16.2782   -7.7655    7.9947 C   0  0  0  0  0  0  0  0  0  0  0  0
  -19.5130   -9.4937    7.3723 C   0  0  0  0  0  0  0  0  0  0  0  0
  -19.8638  -10.0314    8.6075 O   0  0  0  0  0  0  0  0  0  0  0  0
  -20.3321   -9.5977    6.4413 O   0  0  0  0  0  0  0  0  0  0  0  0
  -20.3526  -10.9250    8.6861 H   0  0  0  0  0  0  0  0  0  0  0  0
  -12.2285   -6.5710    6.8366 N   0  0  0  0  0  0  0  0  0  0  0  0
  -12.2734   -5.7344    6.2117 H   0  0  0  0  0  0  0  0  0  0  0  0
  -10.9749   -6.9888    7.3055 C   0  0  0  0  0  0  0  0  0  0  0  0
  -10.5282   -8.2955    7.0697 C   0  0  0  0  0  0  0  0  0  0  0  0
   -9.3049   -8.7487    7.4785 C   0  0  0  0  0  0  0  0  0  0  0  0
   -8.4686   -7.8905    8.1516 C   0  0  0  0  0  0  0  0  0  0  0  0
   -7.2519   -8.3473    8.5548 F   0  0  0  0  0  0  0  0  0  0  0  0
   -8.8673   -6.5925    8.4066 C   0  0  0  0  0  0  0  0  0  0  0  0
  -10.1182   -6.1547    7.9808 C   0  0  0  0  0  0  0  0  0  0  0  0
  3  4  1  0  0  0
  4  5  2  0  0  0
  5  6  1  0  0  0
  6  7  2  0  0  0
  7  8  1  0  0  0
  8  9  2  0  0  0
  7  1  1  0  0  0
  1  2  2  0  0  0
  2 28  1  0  0  0
 28 30  1  0  0  0
 30 31  2  0  0  0
 31 32  1  0  0  0
 32 33  2  0  0  0
 33 34  1  0  0  0
 33 35  1  0  0  0
 35 36  2  0  0  0
  2 11  1  0  0  0
 11 12  2  0  0  0
 12 13  1  0  0  0
 13 14  2  0  0  0
 14 15  1  0  0  0
 14 16  1  0  0  0
 16 17  2  0  0  0
  1 18  1  0  0  0
 18 19  2  0  0  0
 19 20  1  0  0  0
 20 21  2  0  0  0
 21 22  1  0  0  0
 22 23  2  0  0  0
 21 24  1  0  0  0
 24 25  1  0  0  0
 24 26  2  0  0  0
  9  4  1  0  0  0
 36 30  1  0  0  0
 17 11  1  0  0  0
 23 18  1  0  0  0
  3 10  1  0  0  0
 28 29  1  0  0  0
 25 27  1  0  0  0
M  END
> <minimizedAffinity>
5.59768

> <CNNscore>
0.3427137434

> <CNNaffinity>
6.7492837906

> <CNN_VS>
2.3130722046

> <CNNaffinity_variance>
1.0023543835

$$$$
[H]OC(=O)c1c([H])c([H])c(/C(=C(\c2c([H])c([H])c(F)c([H])c2[H])N([H])c2c([H])c([H])c(F)c([H])c2[H])c2c([H])c([H])c(O[H])c([H])c2[H])c([H])c1[H]


 36 39  0  0  0  0  0  0  0  0999 V2000
   -6.2303   -6.7701    8.5959 C   0  0  0  0  0  0  0  0  0  0  0  0
   -5.5332   -6.8633    7.5010 C   0  0  0  0  0  0  0  0  0  0  0  0
   -4.6825   -4.7913   13.6188 O   0  0  0  0  0  0  0  0  0  0  0  0
   -5.0252   -5.2666   12.3494 C   0  0  0  0  0  0  0  0  0  0  0  0
   -4.3881   -4.7595   11.2277 C   0  0  0  0  0  0  0  0  0  0  0  0
   -4.7571   -5.2597    9.9796 C   0  0  0  0  0  0  0  0  0  0  0  0
   -5.6964   -6.1982    9.8600 C   0  0  0  0  0  0  0  0  0  0  0  0
   -6.3197   -6.6900   11.0128 C   0  0  0  0  0  0  0  0  0  0  0  0
   -5.9986   -6.2374   12.2616 C   0  0  0  0  0  0  0  0  0  0  0  0
   -5.1378   -5.1479   14.4469 H   0  0  0  0  0  0  0  0  0  0  0  0
   -5.9918   -7.4246    6.2425 C   0  0  0  0  0  0  0  0  0  0  0  0
   -6.7384   -6.7852    5.2891 C   0  0  0  0  0  0  0  0  0  0  0  0
   -7.1107   -7.3806    4.0956 C   0  0  0  0  0  0  0  0  0  0  0  0
   -6.6897   -8.6965    3.8861 C   0  0  0  0  0  0  0  0  0  0  0  0
   -7.0046   -9.3676    2.7351 F   0  0  0  0  0  0  0  0  0  0  0  0
   -5.9458   -9.3455    4.8309 C   0  0  0  0  0  0  0  0  0  0  0  0
   -5.6046   -8.7203    5.9856 C   0  0  0  0  0  0  0  0  0  0  0  0
   -7.6234   -7.1976    8.5822 C   0  0  0  0  0  0  0  0  0  0  0  0
   -8.6029   -6.2312    8.5945 C   0  0  0  0  0  0  0  0  0  0  0  0
   -9.9586   -6.5767    8.5642 C   0  0  0  0  0  0  0  0  0  0  0  0
  -10.3365   -7.9020    8.5207 C   0  0  0  0  0  0  0  0  0  0  0  0
   -9.3623   -8.8688    8.5076 C   0  0  0  0  0  0  0  0  0  0  0  0
   -8.0215   -8.5078    8.5382 C   0  0  0  0  0  0  0  0  0  0  0  0
  -11.7361   -8.3090    8.5125 C   0  0  0  0  0  0  0  0  0  0  0  0
  -12.1409   -9.6409    8.5301 O   0  0  0  0  0  0  0  0  0  0  0  0
  -12.6212   -7.4346    8.4895 O   0  0  0  0  0  0  0  0  0  0  0  0
  -12.9277   -9.9715    7.9686 H   0  0  0  0  0  0  0  0  0  0  0  0
   -4.1852   -6.3960    7.4837 N   0  0  0  0  0  0  0  0  0  0  0  0
   -3.6466   -6.5552    8.3652 H   0  0  0  0  0  0  0  0  0  0  0  0
   -3.5428   -5.7570    6.4138 C   0  0  0  0  0  0  0  0  0  0  0  0
   -3.8611   -4.4335    6.0828 C   0  0  0  0  0  0  0  0  0  0  0  0
   -3.2476   -3.7520    5.0688 C   0  0  0  0  0  0  0  0  0  0  0  0
   -2.2729   -4.3858    4.3358 C   0  0  0  0  0  0  0  0  0  0  0  0
   -1.6653   -3.7016    3.3287 F   0  0  0  0  0  0  0  0  0  0  0  0
   -1.9263   -5.6911    4.6266 C   0  0  0  0  0  0  0  0  0  0  0  0
   -2.5660   -6.3643    5.6635 C   0  0  0  0  0  0  0  0  0  0  0  0
  3  4  1  0  0  0
  4  5  2  0  0  0
  5  6  1  0  0  0
  6  7  2  0  0  0
  7  8  1  0  0  0
  8  9  2  0  0  0
  7  1  1  0  0  0
  1  2  2  0  0  0
  2 28  1  0  0  0
 28 30  1  0  0  0
 30 31  2  0  0  0
 31 32  1  0  0  0
 32 33  2  0  0  0
 33 34  1  0  0  0
 33 35  1  0  0  0
 35 36  2  0  0  0
  2 11  1  0  0  0
 11 12  2  0  0  0
 12 13  1  0  0  0
 13 14  2  0  0  0
 14 15  1  0  0  0
 14 16  1  0  0  0
 16 17  2  0  0  0
  1 18  1  0  0  0
 18 19  2  0  0  0
 19 20  1  0  0  0
 20 21  2  0  0  0
 21 22  1  0  0  0
 22 23  2  0  0  0
 21 24  1  0  0  0
 24 25  1  0  0  0
 24 26  2  0  0  0
  9  4  1  0  0  0
 36 30  1  0  0  0
 17 11  1  0  0  0
 23 18  1  0  0  0
  3 10  1  0  0  0
 28 29  1  0  0  0
 25 27  1  0  0  0
M  END
> <minimizedAffinity>
1.06821

> <CNNscore>
0.3364115655

> <CNNaffinity>
5.7460289001

> <CNN_VS>
1.9330306053

> <CNNaffinity_variance>
0.6207661629

$$$$
[H]OC(=O)c1c([H])c([H])c(/C(=C(\c2c([H])c([H])c(F)c([H])c2[H])N([H])c2c([H])c([H])c(F)c([H])c2[H])c2c([H])c([H])c(O[H])c([H])c2[H])c([H])c1[H]


 36 39  0  0  0  0  0  0  0  0999 V2000
  -13.8719   -7.2052    6.8789 C   0  0  0  0  0  0  0  0  0  0  0  0
  -13.7193   -8.4256    6.4537 C   0  0  0  0  0  0  0  0  0  0  0  0
  -11.5056   -5.4963   11.6769 O   0  0  0  0  0  0  0  0  0  0  0  0
  -12.1394   -5.9135   10.5027 C   0  0  0  0  0  0  0  0  0  0  0  0
  -13.4721   -6.2928   10.5354 C   0  0  0  0  0  0  0  0  0  0  0  0
  -14.0688   -6.7019    9.3435 C   0  0  0  0  0  0  0  0  0  0  0  0
  -13.3830   -6.7317    8.2006 C   0  0  0  0  0  0  0  0  0  0  0  0
  -12.0389   -6.3411    8.2015 C   0  0  0  0  0  0  0  0  0  0  0  0
  -11.4023   -5.9309    9.3390 C   0  0  0  0  0  0  0  0  0  0  0  0
  -10.5345   -5.2183   11.6719 H   0  0  0  0  0  0  0  0  0  0  0  0
  -14.1867   -8.9513    5.1831 C   0  0  0  0  0  0  0  0  0  0  0  0
  -13.4222   -9.2055    4.0757 C   0  0  0  0  0  0  0  0  0  0  0  0
  -13.9385   -9.7392    2.9069 C   0  0  0  0  0  0  0  0  0  0  0  0
  -15.3075  -10.0188    2.8893 C   0  0  0  0  0  0  0  0  0  0  0  0
  -15.9087  -10.5520    1.7809 F   0  0  0  0  0  0  0  0  0  0  0  0
  -16.0810   -9.7679    3.9876 C   0  0  0  0  0  0  0  0  0  0  0  0
  -15.5296   -9.2445    5.1112 C   0  0  0  0  0  0  0  0  0  0  0  0
  -14.5076   -6.2288    6.0035 C   0  0  0  0  0  0  0  0  0  0  0  0
  -13.7276   -5.5799    5.0741 C   0  0  0  0  0  0  0  0  0  0  0  0
  -14.2818   -4.6449    4.1927 C   0  0  0  0  0  0  0  0  0  0  0  0
  -15.6295   -4.3578    4.2424 C   0  0  0  0  0  0  0  0  0  0  0  0
  -16.4109   -5.0037    5.1677 C   0  0  0  0  0  0  0  0  0  0  0  0
  -15.8440   -5.9287    6.0348 C   0  0  0  0  0  0  0  0  0  0  0  0
  -16.2454   -3.3739    3.3608 C   0  0  0  0  0  0  0  0  0  0  0  0
  -15.6279   -2.1771    3.0078 O   0  0  0  0  0  0  0  0  0  0  0  0
  -17.3761   -3.6022    2.8941 O   0  0  0  0  0  0  0  0  0  0  0  0
  -16.1496   -1.3012    2.9428 H   0  0  0  0  0  0  0  0  0  0  0  0
  -13.0478   -9.3782    7.2767 N   0  0  0  0  0  0  0  0  0  0  0  0
  -13.6675   -9.9476    7.8965 H   0  0  0  0  0  0  0  0  0  0  0  0
  -11.6650   -9.6051    7.3232 C   0  0  0  0  0  0  0  0  0  0  0  0
  -10.8689   -8.9463    8.2692 C   0  0  0  0  0  0  0  0  0  0  0  0
   -9.5215   -9.1498    8.3788 C   0  0  0  0  0  0  0  0  0  0  0  0
   -8.9117  -10.0394    7.5270 C   0  0  0  0  0  0  0  0  0  0  0  0
   -7.5705  -10.2384    7.6420 F   0  0  0  0  0  0  0  0  0  0  0  0
   -9.6573  -10.7120    6.5781 C   0  0  0  0  0  0  0  0  0  0  0  0
  -11.0279  -10.4872    6.4856 C   0  0  0  0  0  0  0  0  0  0  0  0
  3  4  1  0  0  0
  4  5  2  0  0  0
  5  6  1  0  0  0
  6  7  2  0  0  0
  7  8  1  0  0  0
  8  9  2  0  0  0
  7  1  1  0  0  0
  1  2  2  0  0  0
  2 28  1  0  0  0
 28 30  1  0  0  0
 30 31  2  0  0  0
 31 32  1  0  0  0
 32 33  2  0  0  0
 33 34  1  0  0  0
 33 35  1  0  0  0
 35 36  2  0  0  0
  2 11  1  0  0  0
 11 12  2  0  0  0
 12 13  1  0  0  0
 13 14  2  0  0  0
 14 15  1  0  0  0
 14 16  1  0  0  0
 16 17  2  0  0  0
  1 18  1  0  0  0
 18 19  2  0  0  0
 19 20  1  0  0  0
 20 21  2  0  0  0
 21 22  1  0  0  0
 22 23  2  0  0  0
 21 24  1  0  0  0
 24 25  1  0  0  0
 24 26  2  0  0  0
  9  4  1  0  0  0
 36 30  1  0  0  0
 17 11  1  0  0  0
 23 18  1  0  0  0
  3 10  1  0  0  0
 28 29  1  0  0  0
 25 27  1  0  0  0
M  END
> <minimizedAffinity>
4.79998

> <CNNscore>
0.2978084683

> <CNNaffinity>
6.7375016212

> <CNN_VS>
2.0064849854

> <CNNaffinity_variance>
0.6577849388

$$$$
[H]OC(=O)c1c([H])c([H])c(/C(=C(\c2c([H])c([H])c(F)c([H])c2[H])N([H])c2c([H])c([H])c(F)c([H])c2[H])c2c([H])c([H])c(O[H])c([H])c2[H])c([H])c1[H]


 36 39  0  0  0  0  0  0  0  0999 V2000
  -13.9846   -7.4044    8.2439 C   0  0  0  0  0  0  0  0  0  0  0  0
  -13.3405   -7.3395    7.1150 C   0  0  0  0  0  0  0  0  0  0  0  0
  -11.7868   -5.1570   12.8979 O   0  0  0  0  0  0  0  0  0  0  0  0
  -12.3372   -5.7601   11.7630 C   0  0  0  0  0  0  0  0  0  0  0  0
  -12.3195   -7.1404   11.6381 C   0  0  0  0  0  0  0  0  0  0  0  0
  -12.8790   -7.7041   10.4920 C   0  0  0  0  0  0  0  0  0  0  0  0
  -13.4165   -6.9435    9.5381 C   0  0  0  0  0  0  0  0  0  0  0  0
  -13.4194   -5.5527    9.6956 C   0  0  0  0  0  0  0  0  0  0  0  0
  -12.8858   -4.9452   10.7973 C   0  0  0  0  0  0  0  0  0  0  0  0
  -11.7892   -4.1526   13.0047 H   0  0  0  0  0  0  0  0  0  0  0  0
  -13.8337   -7.7862    5.8241 C   0  0  0  0  0  0  0  0  0  0  0  0
  -13.7876   -9.0632    5.3317 C   0  0  0  0  0  0  0  0  0  0  0  0
  -14.3102   -9.4175    4.0994 C   0  0  0  0  0  0  0  0  0  0  0  0
  -14.9044   -8.4005    3.3475 C   0  0  0  0  0  0  0  0  0  0  0  0
  -15.4527   -8.6539    2.1189 F   0  0  0  0  0  0  0  0  0  0  0  0
  -14.9548   -7.1220    3.8275 C   0  0  0  0  0  0  0  0  0  0  0  0
  -14.4294   -6.8228    5.0420 C   0  0  0  0  0  0  0  0  0  0  0  0
  -15.3531   -7.9052    8.2460 C   0  0  0  0  0  0  0  0  0  0  0  0
  -16.2623   -7.3236    7.3926 C   0  0  0  0  0  0  0  0  0  0  0  0
  -17.5869   -7.7712    7.3343 C   0  0  0  0  0  0  0  0  0  0  0  0
  -18.0041   -8.8111    8.1378 C   0  0  0  0  0  0  0  0  0  0  0  0
  -17.0998   -9.3943    8.9899 C   0  0  0  0  0  0  0  0  0  0  0  0
  -15.7892   -8.9371    9.0346 C   0  0  0  0  0  0  0  0  0  0  0  0
  -19.3794   -9.2942    8.1283 C   0  0  0  0  0  0  0  0  0  0  0  0
  -19.8140  -10.3667    8.9023 O   0  0  0  0  0  0  0  0  0  0  0  0
  -20.2148   -8.7299    7.3989 O   0  0  0  0  0  0  0  0  0  0  0  0
  -20.4695  -11.0612    8.5395 H   0  0  0  0  0  0  0  0  0  0  0  0
  -12.0205   -6.7983    7.0886 N   0  0  0  0  0  0  0  0  0  0  0  0
  -11.9548   -5.7967    6.7975 H   0  0  0  0  0  0  0  0  0  0  0  0
  -10.8382   -7.4804    7.4092 C   0  0  0  0  0  0  0  0  0  0  0  0
  -10.7626   -8.8727    7.2731 C   0  0  0  0  0  0  0  0  0  0  0  0
   -9.6283   -9.5862    7.5438 C   0  0  0  0  0  0  0  0  0  0  0  0
   -8.5064   -8.9157    7.9690 C   0  0  0  0  0  0  0  0  0  0  0  0
   -7.3803   -9.6315    8.2357 F   0  0  0  0  0  0  0  0  0  0  0  0
   -8.5348   -7.5425    8.1177 C   0  0  0  0  0  0  0  0  0  0  0  0
   -9.7021   -6.8382    7.8364 C   0  0  0  0  0  0  0  0  0  0  0  0
  3  4  1  0  0  0
  4  5  2  0  0  0
  5  6  1  0  0  0
  6  7  2  0  0  0
  7  8  1  0  0  0
  8  9  2  0  0  0
  7  1  1  0  0  0
  1  2  2  0  0  0
  2 28  1  0  0  0
 28 30  1  0  0  0
 30 31  2  0  0  0
 31 32  1  0  0  0
 32 33  2  0  0  0
 33 34  1  0  0  0
 33 35  1  0  0  0
 35 36  2  0  0  0
  2 11  1  0  0  0
 11 12  2  0  0  0
 12 13  1  0  0  0
 13 14  2  0  0  0
 14 15  1  0  0  0
 14 16  1  0  0  0
 16 17  2  0  0  0
  1 18  1  0  0  0
 18 19  2  0  0  0
 19 20  1  0  0  0
 20 21  2  0  0  0
 21 22  1  0  0  0
 22 23  2  0  0  0
 21 24  1  0  0  0
 24 25  1  0  0  0
 24 26  2  0  0  0
  9  4  1  0  0  0
 36 30  1  0  0  0
 17 11  1  0  0  0
 23 18  1  0  0  0
  3 10  1  0  0  0
 28 29  1  0  0  0
 25 27  1  0  0  0
M  END
> <minimizedAffinity>
1.54378

> <CNNscore>
0.2467745095

> <CNNaffinity>
6.8314476013

> <CNN_VS>
1.6858271360

> <CNNaffinity_variance>
0.4611489177

$$$$
[H]OC(=O)c1c([H])c([H])c(/C(=C(\c2c([H])c([H])c(F)c([H])c2[H])N([H])c2c([H])c([H])c(F)c([H])c2[H])c2c([H])c([H])c(O[H])c([H])c2[H])c([H])c1[H]


 36 39  0  0  0  0  0  0  0  0999 V2000
  -10.5539   -7.5168    8.5334 C   0  0  0  0  0  0  0  0  0  0  0  0
  -11.0752   -8.6124    8.0631 C   0  0  0  0  0  0  0  0  0  0  0  0
  -13.7821   -4.2715   11.7873 O   0  0  0  0  0  0  0  0  0  0  0  0
  -12.9441   -5.0434   10.9771 C   0  0  0  0  0  0  0  0  0  0  0  0
  -11.9212   -4.4359   10.2658 C   0  0  0  0  0  0  0  0  0  0  0  0
  -11.1064   -5.2398    9.4696 C   0  0  0  0  0  0  0  0  0  0  0  0
  -11.3003   -6.5563    9.3881 C   0  0  0  0  0  0  0  0  0  0  0  0
  -12.3414   -7.1388   10.1201 C   0  0  0  0  0  0  0  0  0  0  0  0
  -13.1710   -6.4009   10.9168 C   0  0  0  0  0  0  0  0  0  0  0  0
  -14.5337   -4.6972   12.3110 H   0  0  0  0  0  0  0  0  0  0  0  0
  -10.4045   -9.5801    7.2128 C   0  0  0  0  0  0  0  0  0  0  0  0
   -9.2113  -10.2013    7.4692 C   0  0  0  0  0  0  0  0  0  0  0  0
   -8.6503  -11.1404    6.6202 C   0  0  0  0  0  0  0  0  0  0  0  0
   -9.3597  -11.4449    5.4554 C   0  0  0  0  0  0  0  0  0  0  0  0
   -8.8879  -12.3637    4.5569 F   0  0  0  0  0  0  0  0  0  0  0  0
  -10.5506  -10.8303    5.1879 C   0  0  0  0  0  0  0  0  0  0  0  0
  -11.0612   -9.9163    6.0508 C   0  0  0  0  0  0  0  0  0  0  0  0
   -9.1519   -7.2294    8.2583 C   0  0  0  0  0  0  0  0  0  0  0  0
   -8.8387   -6.5559    7.1001 C   0  0  0  0  0  0  0  0  0  0  0  0
   -7.5132   -6.2342    6.7876 C   0  0  0  0  0  0  0  0  0  0  0  0
   -6.4923   -6.5901    7.6434 C   0  0  0  0  0  0  0  0  0  0  0  0
   -6.8009   -7.2614    8.8001 C   0  0  0  0  0  0  0  0  0  0  0  0
   -8.1220   -7.5726    9.0942 C   0  0  0  0  0  0  0  0  0  0  0  0
   -5.0953   -6.2975    7.3473 C   0  0  0  0  0  0  0  0  0  0  0  0
   -4.6979   -5.2798    6.4844 O   0  0  0  0  0  0  0  0  0  0  0  0
   -4.2059   -6.9816    7.8851 O   0  0  0  0  0  0  0  0  0  0  0  0
   -3.9232   -5.4016    5.8297 H   0  0  0  0  0  0  0  0  0  0  0  0
  -12.4303   -8.9353    8.3717 N   0  0  0  0  0  0  0  0  0  0  0  0
  -12.5586   -9.6420    9.1310 H   0  0  0  0  0  0  0  0  0  0  0  0
  -13.5709   -8.4002    7.7565 C   0  0  0  0  0  0  0  0  0  0  0  0
  -14.8436   -8.6376    8.2919 C   0  0  0  0  0  0  0  0  0  0  0  0
  -15.9869   -8.1187    7.7510 C   0  0  0  0  0  0  0  0  0  0  0  0
  -15.8932   -7.3269    6.6314 C   0  0  0  0  0  0  0  0  0  0  0  0
  -17.0347   -6.8125    6.0986 F   0  0  0  0  0  0  0  0  0  0  0  0
  -14.6586   -7.0659    6.0690 C   0  0  0  0  0  0  0  0  0  0  0  0
  -13.5088   -7.6064    6.6378 C   0  0  0  0  0  0  0  0  0  0  0  0
  3  4  1  0  0  0
  4  5  2  0  0  0
  5  6  1  0  0  0
  6  7  2  0  0  0
  7  8  1  0  0  0
  8  9  2  0  0  0
  7  1  1  0  0  0
  1  2  2  0  0  0
  2 28  1  0  0  0
 28 30  1  0  0  0
 30 31  2  0  0  0
 31 32  1  0  0  0
 32 33  2  0  0  0
 33 34  1  0  0  0
 33 35  1  0  0  0
 35 36  2  0  0  0
  2 11  1  0  0  0
 11 12  2  0  0  0
 12 13  1  0  0  0
 13 14  2  0  0  0
 14 15  1  0  0  0
 14 16  1  0  0  0
 16 17  2  0  0  0
  1 18  1  0  0  0
 18 19  2  0  0  0
 19 20  1  0  0  0
 20 21  2  0  0  0
 21 22  1  0  0  0
 22 23  2  0  0  0
 21 24  1  0  0  0
 24 25  1  0  0  0
 24 26  2  0  0  0
  9  4  1  0  0  0
 36 30  1  0  0  0
 17 11  1  0  0  0
 23 18  1  0  0  0
  3 10  1  0  0  0
 28 29  1  0  0  0
 25 27  1  0  0  0
M  END
> <minimizedAffinity>
-0.47547

> <CNNscore>
0.2226827592

> <CNNaffinity>
6.4361457825

> <CNN_VS>
1.4332187176

> <CNNaffinity_variance>
0.3055887520

$$$$
[H]OC(=O)c1c([H])c([H])c(/C(=C(\c2c([H])c([H])c(F)c([H])c2[H])N([H])c2c([H])c([H])c(F)c([H])c2[H])c2c([H])c([H])c(O[H])c([H])c2[H])c([H])c1[H]


 36 39  0  0  0  0  0  0  0  0999 V2000
  -14.2417   -7.5699    7.4029 C   0  0  0  0  0  0  0  0  0  0  0  0
  -13.6925   -8.5293    6.7163 C   0  0  0  0  0  0  0  0  0  0  0  0
  -12.2991   -5.6622   12.3149 O   0  0  0  0  0  0  0  0  0  0  0  0
  -12.8045   -6.1747   11.1164 C   0  0  0  0  0  0  0  0  0  0  0  0
  -13.2238   -7.4942   11.0527 C   0  0  0  0  0  0  0  0  0  0  0  0
  -13.7226   -7.9679    9.8398 C   0  0  0  0  0  0  0  0  0  0  0  0
  -13.7958   -7.1804    8.7666 C   0  0  0  0  0  0  0  0  0  0  0  0
  -13.3652   -5.8522    8.8647 C   0  0  0  0  0  0  0  0  0  0  0  0
  -12.8679   -5.3336   10.0272 C   0  0  0  0  0  0  0  0  0  0  0  0
  -11.9870   -4.7036   12.3789 H   0  0  0  0  0  0  0  0  0  0  0  0
  -14.0917   -8.9661    5.3900 C   0  0  0  0  0  0  0  0  0  0  0  0
  -13.2642   -9.1864    4.3213 C   0  0  0  0  0  0  0  0  0  0  0  0
  -13.7192   -9.6350    3.0928 C   0  0  0  0  0  0  0  0  0  0  0  0
  -15.0925   -9.8626    2.9709 C   0  0  0  0  0  0  0  0  0  0  0  0
  -15.6362  -10.3109    1.7971 F   0  0  0  0  0  0  0  0  0  0  0  0
  -15.9285   -9.6447    4.0298 C   0  0  0  0  0  0  0  0  0  0  0  0
  -15.4359   -9.2052    5.2150 C   0  0  0  0  0  0  0  0  0  0  0  0
  -15.3166   -6.7955    6.7958 C   0  0  0  0  0  0  0  0  0  0  0  0
  -14.9861   -5.8406    5.8618 C   0  0  0  0  0  0  0  0  0  0  0  0
  -15.9735   -5.0767    5.2296 C   0  0  0  0  0  0  0  0  0  0  0  0
  -17.3037   -5.2714    5.5354 C   0  0  0  0  0  0  0  0  0  0  0  0
  -17.6374   -6.2235    6.4660 C   0  0  0  0  0  0  0  0  0  0  0  0
  -16.6443   -6.9725    7.0837 C   0  0  0  0  0  0  0  0  0  0  0  0
  -18.3639   -4.4825    4.9201 C   0  0  0  0  0  0  0  0  0  0  0  0
  -18.9917   -3.4194    5.5633 O   0  0  0  0  0  0  0  0  0  0  0  0
  -18.7345   -4.7616    3.7654 O   0  0  0  0  0  0  0  0  0  0  0  0
  -19.9978   -3.2610    5.4839 H   0  0  0  0  0  0  0  0  0  0  0  0
  -12.6012   -9.2587    7.2756 N   0  0  0  0  0  0  0  0  0  0  0  0
  -12.8558  -10.1669    7.7259 H   0  0  0  0  0  0  0  0  0  0  0  0
  -11.2547   -8.8678    7.2734 C   0  0  0  0  0  0  0  0  0  0  0  0
  -10.9022   -7.5343    7.5190 C   0  0  0  0  0  0  0  0  0  0  0  0
   -9.6057   -7.1024    7.5569 C   0  0  0  0  0  0  0  0  0  0  0  0
   -8.5957   -8.0104    7.3458 C   0  0  0  0  0  0  0  0  0  0  0  0
   -7.3074   -7.5743    7.3859 F   0  0  0  0  0  0  0  0  0  0  0  0
   -8.8964   -9.3361    7.0998 C   0  0  0  0  0  0  0  0  0  0  0  0
  -10.2245   -9.7516    7.0655 C   0  0  0  0  0  0  0  0  0  0  0  0
  3  4  1  0  0  0
  4  5  2  0  0  0
  5  6  1  0  0  0
  6  7  2  0  0  0
  7  8  1  0  0  0
  8  9  2  0  0  0
  7  1  1  0  0  0
  1  2  2  0  0  0
  2 28  1  0  0  0
 28 30  1  0  0  0
 30 31  2  0  0  0
 31 32  1  0  0  0
 32 33  2  0  0  0
 33 34  1  0  0  0
 33 35  1  0  0  0
 35 36  2  0  0  0
  2 11  1  0  0  0
 11 12  2  0  0  0
 12 13  1  0  0  0
 13 14  2  0  0  0
 14 15  1  0  0  0
 14 16  1  0  0  0
 16 17  2  0  0  0
  1 18  1  0  0  0
 18 19  2  0  0  0
 19 20  1  0  0  0
 20 21  2  0  0  0
 21 22  1  0  0  0
 22 23  2  0  0  0
 21 24  1  0  0  0
 24 25  1  0  0  0
 24 26  2  0  0  0
  9  4  1  0  0  0
 36 30  1  0  0  0
 17 11  1  0  0  0
 23 18  1  0  0  0
  3 10  1  0  0  0
 28 29  1  0  0  0
 25 27  1  0  0  0
M  END
> <minimizedAffinity>
0.83740

> <CNNscore>
0.1261851043

> <CNNaffinity>
6.6041350365

> <CNN_VS>
0.8333434463

> <CNNaffinity_variance>
0.1730338782

$$$$
[H]OC(=O)c1c([H])c([H])c(/C(=C(\c2c([H])c([H])c(F)c([H])c2[H])N([H])c2c([H])c([H])c(F)c([H])c2[H])c2c([H])c([H])c(O[H])c([H])c2[H])c([H])c1[H]


 36 39  0  0  0  0  0  0  0  0999 V2000
  -13.4549   -7.9983    6.9474 C   0  0  0  0  0  0  0  0  0  0  0  0
  -14.0261   -7.1991    7.8009 C   0  0  0  0  0  0  0  0  0  0  0  0
  -15.9437   -9.5334    2.1526 O   0  0  0  0  0  0  0  0  0  0  0  0
  -15.3348   -9.1960    3.3651 C   0  0  0  0  0  0  0  0  0  0  0  0
  -15.6269   -9.9219    4.5092 C   0  0  0  0  0  0  0  0  0  0  0  0
  -14.9987   -9.5552    5.6988 C   0  0  0  0  0  0  0  0  0  0  0  0
  -14.1412   -8.5353    5.7430 C   0  0  0  0  0  0  0  0  0  0  0  0
  -13.8671   -7.8235    4.5694 C   0  0  0  0  0  0  0  0  0  0  0  0
  -14.4527   -8.1379    3.3754 C   0  0  0  0  0  0  0  0  0  0  0  0
  -15.7442   -9.0141    1.3095 H   0  0  0  0  0  0  0  0  0  0  0  0
  -13.4155   -6.6548    9.0011 C   0  0  0  0  0  0  0  0  0  0  0  0
  -13.2365   -5.3294    9.2948 C   0  0  0  0  0  0  0  0  0  0  0  0
  -12.6725   -4.8872   10.4798 C   0  0  0  0  0  0  0  0  0  0  0  0
  -12.2773   -5.8651   11.3964 C   0  0  0  0  0  0  0  0  0  0  0  0
  -11.7140   -5.5258   12.5972 F   0  0  0  0  0  0  0  0  0  0  0  0
  -12.4492   -7.1909   11.1137 C   0  0  0  0  0  0  0  0  0  0  0  0
  -13.0075   -7.5762    9.9388 C   0  0  0  0  0  0  0  0  0  0  0  0
  -12.0549   -8.3527    7.1426 C   0  0  0  0  0  0  0  0  0  0  0  0
  -11.6936   -9.6751    7.0241 C   0  0  0  0  0  0  0  0  0  0  0  0
  -10.3626  -10.0771    7.1821 C   0  0  0  0  0  0  0  0  0  0  0  0
   -9.3847   -9.1459    7.4608 C   0  0  0  0  0  0  0  0  0  0  0  0
   -9.7410   -7.8257    7.5790 C   0  0  0  0  0  0  0  0  0  0  0  0
  -11.0670   -7.4447    7.4192 C   0  0  0  0  0  0  0  0  0  0  0  0
   -7.9901   -9.5218    7.6573 C   0  0  0  0  0  0  0  0  0  0  0  0
   -7.6006  -10.6567    8.3633 O   0  0  0  0  0  0  0  0  0  0  0  0
   -7.0954   -8.8033    7.1760 O   0  0  0  0  0  0  0  0  0  0  0  0
   -6.7979  -10.6481    8.9951 H   0  0  0  0  0  0  0  0  0  0  0  0
  -15.3792   -6.7979    7.5918 N   0  0  0  0  0  0  0  0  0  0  0  0
  -16.0193   -6.9468    8.4046 H   0  0  0  0  0  0  0  0  0  0  0  0
  -15.9065   -6.2389    6.4191 C   0  0  0  0  0  0  0  0  0  0  0  0
  -15.1966   -5.2535    5.7208 C   0  0  0  0  0  0  0  0  0  0  0  0
  -15.6485   -4.6939    4.5582 C   0  0  0  0  0  0  0  0  0  0  0  0
  -16.8527   -5.1111    4.0434 C   0  0  0  0  0  0  0  0  0  0  0  0
  -17.2964   -4.5511    2.8854 F   0  0  0  0  0  0  0  0  0  0  0  0
  -17.5874   -6.0807    4.6982 C   0  0  0  0  0  0  0  0  0  0  0  0
  -17.1063   -6.6349    5.8811 C   0  0  0  0  0  0  0  0  0  0  0  0
  3  4  1  0  0  0
  4  5  2  0  0  0
  5  6  1  0  0  0
  6  7  2  0  0  0
  7  8  1  0  0  0
  8  9  2  0  0  0
  7  1  1  0  0  0
  1  2  2  0  0  0
  2 28  1  0  0  0
 28 30  1  0  0  0
 30 31  2  0  0  0
 31 32  1  0  0  0
 32 33  2  0  0  0
 33 34  1  0  0  0
 33 35  1  0  0  0
 35 36  2  0  0  0
  2 11  1  0  0  0
 11 12  2  0  0  0
 12 13  1  0  0  0
 13 14  2  0  0  0
 14 15  1  0  0  0
 14 16  1  0  0  0
 16 17  2  0  0  0
  1 18  1  0  0  0
 18 19  2  0  0  0
 19 20  1  0  0  0
 20 21  2  0  0  0
 21 22  1  0  0  0
 22 23  2  0  0  0
 21 24  1  0  0  0
 24 25  1  0  0  0
 24 26  2  0  0  0
  9  4  1  0  0  0
 36 30  1  0  0  0
 17 11  1  0  0  0
 23 18  1  0  0  0
  3 10  1  0  0  0
 28 29  1  0  0  0
 25 27  1  0  0  0
M  END
> <minimizedAffinity>
-4.48261

> <CNNscore>
0.1230251342

> <CNNaffinity>
6.5781579018

> <CNN_VS>
0.8092787862

> <CNNaffinity_variance>
0.1141358986

$$$$
[H]OC(=O)c1c([H])c([H])c2c(c1[H])[C@]([H])(C([H])([H])C([H])([H])[H])[C@]([H])(c1c([H])c([H])c([H])c([H])c1[H])O2


 21 23  0  0  0  0  0  0  0  0999 V2000
  -14.5875   -8.8742    4.8293 C   0  0  0  0  0  0  0  0  0  0  0  0
  -14.1279   -7.7352    4.0125 C   0  0  0  0  0  0  0  0  0  0  0  0
  -14.9852   -8.0413    2.8386 O   0  0  0  0  0  0  0  0  0  0  0  0
  -16.2459   -8.1786    3.4776 C   0  0  0  0  0  0  0  0  0  0  0  0
  -17.5481   -7.9160    3.1139 C   0  0  0  0  0  0  0  0  0  0  0  0
  -18.5997   -8.1667    3.9937 C   0  0  0  0  0  0  0  0  0  0  0  0
  -18.3879   -8.6816    5.2503 C   0  0  0  0  0  0  0  0  0  0  0  0
  -17.0733   -8.9482    5.6208 C   0  0  0  0  0  0  0  0  0  0  0  0
  -16.0457   -8.7047    4.7643 C   0  0  0  0  0  0  0  0  0  0  0  0
  -14.5378   -6.3747    4.3828 C   0  0  0  0  0  0  0  0  0  0  0  0
  -15.0705   -6.1910    5.6691 C   0  0  0  0  0  0  0  0  0  0  0  0
  -15.4790   -4.9699    6.1358 C   0  0  0  0  0  0  0  0  0  0  0  0
  -15.3649   -3.8658    5.3097 C   0  0  0  0  0  0  0  0  0  0  0  0
  -14.8476   -4.0469    4.0619 C   0  0  0  0  0  0  0  0  0  0  0  0
  -14.4405   -5.2698    3.6004 C   0  0  0  0  0  0  0  0  0  0  0  0
  -19.4883   -8.9427    6.1684 C   0  0  0  0  0  0  0  0  0  0  0  0
  -20.7173   -9.3231    5.6999 O   0  0  0  0  0  0  0  0  0  0  0  0
  -19.3114   -8.8182    7.4065 O   0  0  0  0  0  0  0  0  0  0  0  0
  -21.3858   -8.7634    5.2250 H   0  0  0  0  0  0  0  0  0  0  0  0
  -14.4855   -8.3464    7.2114 C   0  0  0  0  0  0  0  0  0  0  0  0
  -13.9609   -9.2485    6.0732 C   0  0  0  0  0  0  0  0  0  0  0  0
 20 21  1  0  0  0
 21  1  1  0  0  0
  1  2  1  0  0  0
  2  3  1  0  0  0
  3  4  1  0  0  0
  4  5  2  0  0  0
  5  6  1  0  0  0
  6  7  2  0  0  0
  7  8  1  0  0  0
  8  9  2  0  0  0
  7 16  1  0  0  0
 16 17  1  0  0  0
 16 18  2  0  0  0
  2 10  1  0  0  0
 10 11  2  0  0  0
 11 12  1  0  0  0
 12 13  2  0  0  0
 13 14  1  0  0  0
 14 15  2  0  0  0
  9  1  1  0  0  0
 15 10  1  0  0  0
  9  4  1  0  0  0
 17 19  1  0  0  0
M  END
> <minimizedAffinity>
-0.04259

> <CNNscore>
0.4480515122

> <CNNaffinity>
5.5195040703

> <CNN_VS>
2.4730222225

> <CNNaffinity_variance>
0.4908278584

$$$$
[H]OC(=O)c1c([H])c([H])c2c(c1[H])[C@]([H])(C([H])([H])C([H])([H])[H])[C@]([H])(c1c([H])c([H])c([H])c([H])c1[H])O2


 21 23  0  0  0  0  0  0  0  0999 V2000
   -5.2464   -4.9260   10.5193 C   0  0  0  0  0  0  0  0  0  0  0  0
   -4.9817   -4.9111    9.0683 C   0  0  0  0  0  0  0  0  0  0  0  0
   -4.7865   -3.4418    8.9699 O   0  0  0  0  0  0  0  0  0  0  0  0
   -3.8415   -3.2439   10.0113 C   0  0  0  0  0  0  0  0  0  0  0  0
   -2.7929   -2.3740   10.2131 C   0  0  0  0  0  0  0  0  0  0  0  0
   -2.0286   -2.4347   11.3772 C   0  0  0  0  0  0  0  0  0  0  0  0
   -2.2833   -3.3550   12.3658 C   0  0  0  0  0  0  0  0  0  0  0  0
   -3.3422   -4.2353   12.1649 C   0  0  0  0  0  0  0  0  0  0  0  0
   -4.0895   -4.1780   11.0304 C   0  0  0  0  0  0  0  0  0  0  0  0
   -3.7136   -5.4534    8.5646 C   0  0  0  0  0  0  0  0  0  0  0  0
   -2.6184   -4.5766    8.5023 C   0  0  0  0  0  0  0  0  0  0  0  0
   -1.3812   -4.9646    8.0611 C   0  0  0  0  0  0  0  0  0  0  0  0
   -1.1955   -6.2749    7.6577 C   0  0  0  0  0  0  0  0  0  0  0  0
   -2.2600   -7.1238    7.7192 C   0  0  0  0  0  0  0  0  0  0  0  0
   -3.4946   -6.7309    8.1613 C   0  0  0  0  0  0  0  0  0  0  0  0
   -1.4832   -3.4170   13.5815 C   0  0  0  0  0  0  0  0  0  0  0  0
   -1.0821   -2.2720   14.2162 O   0  0  0  0  0  0  0  0  0  0  0  0
   -1.1550   -4.5333   14.0567 O   0  0  0  0  0  0  0  0  0  0  0  0
   -0.3903   -1.6244   13.9202 H   0  0  0  0  0  0  0  0  0  0  0  0
   -5.4183   -7.3574   10.3727 C   0  0  0  0  0  0  0  0  0  0  0  0
   -5.7113   -6.0989   11.2180 C   0  0  0  0  0  0  0  0  0  0  0  0
 20 21  1  0  0  0
 21  1  1  0  0  0
  1  2  1  0  0  0
  2  3  1  0  0  0
  3  4  1  0  0  0
  4  5  2  0  0  0
  5  6  1  0  0  0
  6  7  2  0  0  0
  7  8  1  0  0  0
  8  9  2  0  0  0
  7 16  1  0  0  0
 16 17  1  0  0  0
 16 18  2  0  0  0
  2 10  1  0  0  0
 10 11  2  0  0  0
 11 12  1  0  0  0
 12 13  2  0  0  0
 13 14  1  0  0  0
 14 15  2  0  0  0
  9  1  1  0  0  0
 15 10  1  0  0  0
  9  4  1  0  0  0
 17 19  1  0  0  0
M  END
> <minimizedAffinity>
4.29210

> <CNNscore>
0.3983254433

> <CNNaffinity>
3.8478355408

> <CNN_VS>
1.5326907635

> <CNNaffinity_variance>
1.0842264891

$$$$
[H]OC(=O)c1c([H])c([H])c2c(c1[H])[C@]([H])(C([H])([H])C([H])([H])[H])[C@]([H])(c1c([H])c([H])c([H])c([H])c1[H])O2


 21 23  0  0  0  0  0  0  0  0999 V2000
   -6.5401   -6.5614    9.1706 C   0  0  0  0  0  0  0  0  0  0  0  0
   -7.9065   -6.8365    8.6882 C   0  0  0  0  0  0  0  0  0  0  0  0
   -7.7844   -6.0403    7.4400 O   0  0  0  0  0  0  0  0  0  0  0  0
   -6.5737   -6.5712    6.9212 C   0  0  0  0  0  0  0  0  0  0  0  0
   -6.0800   -6.7945    5.6550 C   0  0  0  0  0  0  0  0  0  0  0  0
   -4.8143   -7.3482    5.4694 C   0  0  0  0  0  0  0  0  0  0  0  0
   -4.0101   -7.6928    6.5294 C   0  0  0  0  0  0  0  0  0  0  0  0
   -4.5060   -7.4684    7.8101 C   0  0  0  0  0  0  0  0  0  0  0  0
   -5.7403   -6.9282    7.9938 C   0  0  0  0  0  0  0  0  0  0  0  0
   -8.2378   -8.1806    8.1987 C   0  0  0  0  0  0  0  0  0  0  0  0
   -9.4352   -8.3266    7.4798 C   0  0  0  0  0  0  0  0  0  0  0  0
   -9.8492   -9.5255    6.9631 C   0  0  0  0  0  0  0  0  0  0  0  0
   -9.0588  -10.6449    7.1541 C   0  0  0  0  0  0  0  0  0  0  0  0
   -7.8972  -10.5005    7.8522 C   0  0  0  0  0  0  0  0  0  0  0  0
   -7.4878   -9.2996    8.3663 C   0  0  0  0  0  0  0  0  0  0  0  0
   -2.6878   -8.2716    6.3333 C   0  0  0  0  0  0  0  0  0  0  0  0
   -2.2767   -9.3480    7.0729 O   0  0  0  0  0  0  0  0  0  0  0  0
   -1.9118   -7.7796    5.4757 O   0  0  0  0  0  0  0  0  0  0  0  0
   -2.0253   -9.3643    8.0333 H   0  0  0  0  0  0  0  0  0  0  0  0
   -5.1654   -5.8204   11.0480 C   0  0  0  0  0  0  0  0  0  0  0  0
   -6.0879   -6.9262   10.4907 C   0  0  0  0  0  0  0  0  0  0  0  0
 20 21  1  0  0  0
 21  1  1  0  0  0
  1  2  1  0  0  0
  2  3  1  0  0  0
  3  4  1  0  0  0
  4  5  2  0  0  0
  5  6  1  0  0  0
  6  7  2  0  0  0
  7  8  1  0  0  0
  8  9  2  0  0  0
  7 16  1  0  0  0
 16 17  1  0  0  0
 16 18  2  0  0  0
  2 10  1  0  0  0
 10 11  2  0  0  0
 11 12  1  0  0  0
 12 13  2  0  0  0
 13 14  1  0  0  0
 14 15  2  0  0  0
  9  1  1  0  0  0
 15 10  1  0  0  0
  9  4  1  0  0  0
 17 19  1  0  0  0
M  END
> <minimizedAffinity>
-1.71382

> <CNNscore>
0.3679891229

> <CNNaffinity>
4.5642161369

> <CNN_VS>
1.6795818806

> <CNNaffinity_variance>
0.7467890978

$$$$
[H]OC(=O)c1c([H])c([H])c2c(c1[H])[C@]([H])(C([H])([H])C([H])([H])[H])[C@]([H])(c1c([H])c([H])c([H])c([H])c1[H])O2


 21 23  0  0  0  0  0  0  0  0999 V2000
   -4.6198   -5.8380    8.4055 C   0  0  0  0  0  0  0  0  0  0  0  0
   -5.9311   -5.8762    7.7311 C   0  0  0  0  0  0  0  0  0  0  0  0
   -5.3847   -5.9105    6.3501 O   0  0  0  0  0  0  0  0  0  0  0  0
   -4.4577   -6.9792    6.4736 C   0  0  0  0  0  0  0  0  0  0  0  0
   -3.9901   -7.9568    5.6235 C   0  0  0  0  0  0  0  0  0  0  0  0
   -3.0517   -8.8915    6.0575 C   0  0  0  0  0  0  0  0  0  0  0  0
   -2.5554   -8.8807    7.3392 C   0  0  0  0  0  0  0  0  0  0  0  0
   -3.0257   -7.8942    8.2006 C   0  0  0  0  0  0  0  0  0  0  0  0
   -3.9411   -6.9810    7.7796 C   0  0  0  0  0  0  0  0  0  0  0  0
   -6.7399   -7.0996    7.8034 C   0  0  0  0  0  0  0  0  0  0  0  0
   -7.7500   -7.2609    6.8413 C   0  0  0  0  0  0  0  0  0  0  0  0
   -8.5638   -8.3616    6.7968 C   0  0  0  0  0  0  0  0  0  0  0  0
   -8.3886   -9.3614    7.7371 C   0  0  0  0  0  0  0  0  0  0  0  0
   -7.4075   -9.2024    8.6697 C   0  0  0  0  0  0  0  0  0  0  0  0
   -6.5967   -8.1001    8.7095 C   0  0  0  0  0  0  0  0  0  0  0  0
   -1.5748   -9.8586    7.7910 C   0  0  0  0  0  0  0  0  0  0  0  0
   -1.0600  -10.7867    6.9258 O   0  0  0  0  0  0  0  0  0  0  0  0
   -1.1941   -9.8537    8.9888 O   0  0  0  0  0  0  0  0  0  0  0  0
   -1.5183  -11.5800    6.5434 H   0  0  0  0  0  0  0  0  0  0  0  0
   -3.1956   -4.7751   10.0803 C   0  0  0  0  0  0  0  0  0  0  0  0
   -4.4743   -5.6009    9.8207 C   0  0  0  0  0  0  0  0  0  0  0  0
 20 21  1  0  0  0
 21  1  1  0  0  0
  1  2  1  0  0  0
  2  3  1  0  0  0
  3  4  1  0  0  0
  4  5  2  0  0  0
  5  6  1  0  0  0
  6  7  2  0  0  0
  7  8  1  0  0  0
  8  9  2  0  0  0
  7 16  1  0  0  0
 16 17  1  0  0  0
 16 18  2  0  0  0
  2 10  1  0  0  0
 10 11  2  0  0  0
 11 12  1  0  0  0
 12 13  2  0  0  0
 13 14  1  0  0  0
 14 15  2  0  0  0
  9  1  1  0  0  0
 15 10  1  0  0  0
  9  4  1  0  0  0
 17 19  1  0  0  0
M  END
> <minimizedAffinity>
-3.39215

> <CNNscore>
0.3411991298

> <CNNaffinity>
4.3458452225

> <CNN_VS>
1.4827985764

> <CNNaffinity_variance>
0.7254396081

$$$$
[H]OC(=O)c1c([H])c([H])c2c(c1[H])[C@]([H])(C([H])([H])C([H])([H])[H])[C@]([H])(c1c([H])c([H])c([H])c([H])c1[H])O2


 21 23  0  0  0  0  0  0  0  0999 V2000
  -14.7188   -7.6471    6.8990 C   0  0  0  0  0  0  0  0  0  0  0  0
  -14.0967   -6.9169    5.7786 C   0  0  0  0  0  0  0  0  0  0  0  0
  -14.2118   -8.0271    4.7982 O   0  0  0  0  0  0  0  0  0  0  0  0
  -15.5865   -8.3511    4.9464 C   0  0  0  0  0  0  0  0  0  0  0  0
  -16.5664   -8.8193    4.0993 C   0  0  0  0  0  0  0  0  0  0  0  0
  -17.8622   -9.0437    4.5612 C   0  0  0  0  0  0  0  0  0  0  0  0
  -18.2175   -8.8107    5.8684 C   0  0  0  0  0  0  0  0  0  0  0  0
  -17.2297   -8.3377    6.7269 C   0  0  0  0  0  0  0  0  0  0  0  0
  -15.9648   -8.1182    6.2788 C   0  0  0  0  0  0  0  0  0  0  0  0
  -14.8360   -5.8229    5.1363 C   0  0  0  0  0  0  0  0  0  0  0  0
  -14.0909   -4.8893    4.3980 C   0  0  0  0  0  0  0  0  0  0  0  0
  -14.6650   -3.8312    3.7448 C   0  0  0  0  0  0  0  0  0  0  0  0
  -16.0375   -3.6692    3.8112 C   0  0  0  0  0  0  0  0  0  0  0  0
  -16.7583   -4.5767    4.5284 C   0  0  0  0  0  0  0  0  0  0  0  0
  -16.1793   -5.6327    5.1793 C   0  0  0  0  0  0  0  0  0  0  0  0
  -19.5724   -9.0456    6.3491 C   0  0  0  0  0  0  0  0  0  0  0  0
  -20.5743   -9.3907    5.4819 O   0  0  0  0  0  0  0  0  0  0  0  0
  -19.8289   -8.9312    7.5741 O   0  0  0  0  0  0  0  0  0  0  0  0
  -21.0251   -8.8110    4.8138 H   0  0  0  0  0  0  0  0  0  0  0  0
  -14.5111   -8.3058    9.2413 C   0  0  0  0  0  0  0  0  0  0  0  0
  -14.7330   -7.1427    8.2501 C   0  0  0  0  0  0  0  0  0  0  0  0
 20 21  1  0  0  0
 21  1  1  0  0  0
  1  2  1  0  0  0
  2  3  1  0  0  0
  3  4  1  0  0  0
  4  5  2  0  0  0
  5  6  1  0  0  0
  6  7  2  0  0  0
  7  8  1  0  0  0
  8  9  2  0  0  0
  7 16  1  0  0  0
 16 17  1  0  0  0
 16 18  2  0  0  0
  2 10  1  0  0  0
 10 11  2  0  0  0
 11 12  1  0  0  0
 12 13  2  0  0  0
 13 14  1  0  0  0
 14 15  2  0  0  0
  9  1  1  0  0  0
 15 10  1  0  0  0
  9  4  1  0  0  0
 17 19  1  0  0  0
M  END
> <minimizedAffinity>
-3.00782

> <CNNscore>
0.3238793015

> <CNNaffinity>
5.4299864769

> <CNN_VS>
1.7586601973

> <CNNaffinity_variance>
0.2026900351

$$$$
[H]OC(=O)c1c([H])c([H])c2c(c1[H])[C@]([H])(C([H])([H])C([H])([H])[H])[C@]([H])(c1c([H])c([H])c([H])c([H])c1[H])O2


 21 23  0  0  0  0  0  0  0  0999 V2000
   -5.6698   -6.4583    7.1316 C   0  0  0  0  0  0  0  0  0  0  0  0
   -4.7520   -6.6454    5.9922 C   0  0  0  0  0  0  0  0  0  0  0  0
   -4.4201   -5.2062    5.8334 O   0  0  0  0  0  0  0  0  0  0  0  0
   -4.0655   -4.8816    7.1697 C   0  0  0  0  0  0  0  0  0  0  0  0
   -3.1720   -4.0074    7.7479 C   0  0  0  0  0  0  0  0  0  0  0  0
   -3.0541   -3.9196    9.1340 C   0  0  0  0  0  0  0  0  0  0  0  0
   -3.8154   -4.6926    9.9778 C   0  0  0  0  0  0  0  0  0  0  0  0
   -4.7193   -5.5768    9.3967 C   0  0  0  0  0  0  0  0  0  0  0  0
   -4.8364   -5.6642    8.0448 C   0  0  0  0  0  0  0  0  0  0  0  0
   -3.4426   -7.2694    6.2203 C   0  0  0  0  0  0  0  0  0  0  0  0
   -3.3964   -8.3661    7.0962 C   0  0  0  0  0  0  0  0  0  0  0  0
   -2.2384   -9.0391    7.3824 C   0  0  0  0  0  0  0  0  0  0  0  0
   -1.0600   -8.6261    6.7866 C   0  0  0  0  0  0  0  0  0  0  0  0
   -1.1076   -7.5615    5.9369 C   0  0  0  0  0  0  0  0  0  0  0  0
   -2.2680   -6.8924    5.6542 C   0  0  0  0  0  0  0  0  0  0  0  0
   -3.6905   -4.5995   11.4261 C   0  0  0  0  0  0  0  0  0  0  0  0
   -4.7876   -4.3643   12.2109 O   0  0  0  0  0  0  0  0  0  0  0  0
   -2.5637   -4.7362   11.9658 O   0  0  0  0  0  0  0  0  0  0  0  0
   -5.2953   -3.5165   12.3062 H   0  0  0  0  0  0  0  0  0  0  0  0
   -7.0266   -8.3832    6.4860 C   0  0  0  0  0  0  0  0  0  0  0  0
   -6.4987   -7.5181    7.6511 C   0  0  0  0  0  0  0  0  0  0  0  0
 20 21  1  0  0  0
 21  1  1  0  0  0
  1  2  1  0  0  0
  2  3  1  0  0  0
  3  4  1  0  0  0
  4  5  2  0  0  0
  5  6  1  0  0  0
  6  7  2  0  0  0
  7  8  1  0  0  0
  8  9  2  0  0  0
  7 16  1  0  0  0
 16 17  1  0  0  0
 16 18  2  0  0  0
  2 10  1  0  0  0
 10 11  2  0  0  0
 11 12  1  0  0  0
 12 13  2  0  0  0
 13 14  1  0  0  0
 14 15  2  0  0  0
  9  1  1  0  0  0
 15 10  1  0  0  0
  9  4  1  0  0  0
 17 19  1  0  0  0
M  END
> <minimizedAffinity>
-4.60068

> <CNNscore>
0.2881073654

> <CNNaffinity>
4.1284623146

> <CNN_VS>
1.1894403696

> <CNNaffinity_variance>
0.3010637760

$$$$
[H]OC(=O)c1c([H])c([H])c2c(c1[H])[C@]([H])(C([H])([H])C([H])([H])[H])[C@]([H])(c1c([H])c([H])c([H])c([H])c1[H])O2


 21 23  0  0  0  0  0  0  0  0999 V2000
   -9.6771   -6.2535    8.5563 C   0  0  0  0  0  0  0  0  0  0  0  0
  -10.5074   -7.0182    7.6068 C   0  0  0  0  0  0  0  0  0  0  0  0
  -10.0147   -6.3241    6.3893 O   0  0  0  0  0  0  0  0  0  0  0  0
   -8.6129   -6.4420    6.5832 C   0  0  0  0  0  0  0  0  0  0  0  0
   -7.5285   -6.5750    5.7445 C   0  0  0  0  0  0  0  0  0  0  0  0
   -6.2361   -6.6704    6.2579 C   0  0  0  0  0  0  0  0  0  0  0  0
   -5.9874   -6.6365    7.6093 C   0  0  0  0  0  0  0  0  0  0  0  0
   -7.0810   -6.5020    8.4593 C   0  0  0  0  0  0  0  0  0  0  0  0
   -8.3427   -6.4086    7.9610 C   0  0  0  0  0  0  0  0  0  0  0  0
  -10.1854   -8.4266    7.3447 C   0  0  0  0  0  0  0  0  0  0  0  0
  -11.1850   -9.2158    6.7532 C   0  0  0  0  0  0  0  0  0  0  0  0
  -11.0036  -10.5391    6.4500 C   0  0  0  0  0  0  0  0  0  0  0  0
   -9.7857  -11.1299    6.7361 C   0  0  0  0  0  0  0  0  0  0  0  0
   -8.8172  -10.3617    7.3101 C   0  0  0  0  0  0  0  0  0  0  0  0
   -9.0038   -9.0393    7.6110 C   0  0  0  0  0  0  0  0  0  0  0  0
   -4.6361   -6.7365    8.1438 C   0  0  0  0  0  0  0  0  0  0  0  0
   -4.1866   -5.8491    9.0848 O   0  0  0  0  0  0  0  0  0  0  0  0
   -3.8702   -7.6471    7.7390 O   0  0  0  0  0  0  0  0  0  0  0  0
   -3.9507   -4.8936    8.9542 H   0  0  0  0  0  0  0  0  0  0  0  0
  -11.3254   -6.1167   10.3528 C   0  0  0  0  0  0  0  0  0  0  0  0
   -9.8421   -6.3405    9.9864 C   0  0  0  0  0  0  0  0  0  0  0  0
 20 21  1  0  0  0
 21  1  1  0  0  0
  1  2  1  0  0  0
  2  3  1  0  0  0
  3  4  1  0  0  0
  4  5  2  0  0  0
  5  6  1  0  0  0
  6  7  2  0  0  0
  7  8  1  0  0  0
  8  9  2  0  0  0
  7 16  1  0  0  0
 16 17  1  0  0  0
 16 18  2  0  0  0
  2 10  1  0  0  0
 10 11  2  0  0  0
 11 12  1  0  0  0
 12 13  2  0  0  0
 13 14  1  0  0  0
 14 15  2  0  0  0
  9  1  1  0  0  0
 15 10  1  0  0  0
  9  4  1  0  0  0
 17 19  1  0  0  0
M  END
> <minimizedAffinity>
-1.45073

> <CNNscore>
0.2845704257

> <CNNaffinity>
4.7654099464

> <CNN_VS>
1.3560947180

> <CNNaffinity_variance>
0.2708535790

$$$$
[H]OC(=O)c1c([H])c([H])c2c(c1[H])[C@]([H])(C([H])([H])C([H])([H])[H])[C@]([H])(c1c([H])c([H])c([H])c([H])c1[H])O2


 21 23  0  0  0  0  0  0  0  0999 V2000
  -11.6783   -6.1283    9.1975 C   0  0  0  0  0  0  0  0  0  0  0  0
  -12.7429   -6.6667    8.3301 C   0  0  0  0  0  0  0  0  0  0  0  0
  -12.0951   -6.2852    7.0488 O   0  0  0  0  0  0  0  0  0  0  0  0
  -10.8002   -6.8326    7.2496 C   0  0  0  0  0  0  0  0  0  0  0  0
   -9.8461   -7.3866    6.4252 C   0  0  0  0  0  0  0  0  0  0  0  0
   -8.6366   -7.8479    6.9419 C   0  0  0  0  0  0  0  0  0  0  0  0
   -8.3438   -7.7719    8.2827 C   0  0  0  0  0  0  0  0  0  0  0  0
   -9.3057   -7.2125    9.1184 C   0  0  0  0  0  0  0  0  0  0  0  0
  -10.4864   -6.7616    8.6167 C   0  0  0  0  0  0  0  0  0  0  0  0
  -12.9012   -8.1213    8.2070 C   0  0  0  0  0  0  0  0  0  0  0  0
  -14.1903   -8.6076    7.9354 C   0  0  0  0  0  0  0  0  0  0  0  0
  -14.4647   -9.9412    7.7879 C   0  0  0  0  0  0  0  0  0  0  0  0
  -13.4323  -10.8541    7.9106 C   0  0  0  0  0  0  0  0  0  0  0  0
  -12.1821  -10.3796    8.1742 C   0  0  0  0  0  0  0  0  0  0  0  0
  -11.9132   -9.0453    8.3205 C   0  0  0  0  0  0  0  0  0  0  0  0
   -7.0792   -8.2547    8.8208 C   0  0  0  0  0  0  0  0  0  0  0  0
   -5.9639   -7.4604    8.8111 O   0  0  0  0  0  0  0  0  0  0  0  0
   -7.0068   -9.4141    9.3008 O   0  0  0  0  0  0  0  0  0  0  0  0
   -5.4105   -7.2006    8.0289 H   0  0  0  0  0  0  0  0  0  0  0  0
  -13.1485   -5.3314   10.9770 C   0  0  0  0  0  0  0  0  0  0  0  0
  -11.8132   -6.0248   10.6297 C   0  0  0  0  0  0  0  0  0  0  0  0
 20 21  1  0  0  0
 21  1  1  0  0  0
  1  2  1  0  0  0
  2  3  1  0  0  0
  3  4  1  0  0  0
  4  5  2  0  0  0
  5  6  1  0  0  0
  6  7  2  0  0  0
  7  8  1  0  0  0
  8  9  2  0  0  0
  7 16  1  0  0  0
 16 17  1  0  0  0
 16 18  2  0  0  0
  2 10  1  0  0  0
 10 11  2  0  0  0
 11 12  1  0  0  0
 12 13  2  0  0  0
 13 14  1  0  0  0
 14 15  2  0  0  0
  9  1  1  0  0  0
 15 10  1  0  0  0
  9  4  1  0  0  0
 17 19  1  0  0  0
M  END
> <minimizedAffinity>
-0.34794

> <CNNscore>
0.2842052281

> <CNNaffinity>
4.8732151985

> <CNN_VS>
1.3849931955

> <CNNaffinity_variance>
0.3543915451

$$$$
[H]OC(=O)c1c([H])c([H])c2c(c1[H])[C@]([H])(C([H])([H])C([H])([H])[H])[C@]([H])(c1c([H])c([H])c([H])c([H])c1[H])O2


 21 23  0  0  0  0  0  0  0  0999 V2000
  -11.3962   -6.2431    8.3441 C   0  0  0  0  0  0  0  0  0  0  0  0
  -12.7743   -6.7370    8.5247 C   0  0  0  0  0  0  0  0  0  0  0  0
  -12.8565   -7.4258    7.2111 O   0  0  0  0  0  0  0  0  0  0  0  0
  -11.6627   -8.1936    7.2552 C   0  0  0  0  0  0  0  0  0  0  0  0
  -11.2850   -9.4230    6.7624 C   0  0  0  0  0  0  0  0  0  0  0  0
  -10.0000   -9.9163    6.9821 C   0  0  0  0  0  0  0  0  0  0  0  0
   -9.0615   -9.2066    7.6925 C   0  0  0  0  0  0  0  0  0  0  0  0
   -9.4400   -7.9639    8.1916 C   0  0  0  0  0  0  0  0  0  0  0  0
  -10.6929   -7.4804    7.9785 C   0  0  0  0  0  0  0  0  0  0  0  0
  -13.0294   -7.8164    9.4870 C   0  0  0  0  0  0  0  0  0  0  0  0
  -13.7688   -7.4924   10.6361 C   0  0  0  0  0  0  0  0  0  0  0  0
  -14.0809   -8.4122   11.6016 C   0  0  0  0  0  0  0  0  0  0  0  0
  -13.6525   -9.7184   11.4446 C   0  0  0  0  0  0  0  0  0  0  0  0
  -12.9352  -10.0302   10.3284 C   0  0  0  0  0  0  0  0  0  0  0  0
  -12.6261   -9.1068    9.3662 C   0  0  0  0  0  0  0  0  0  0  0  0
   -7.7191   -9.7239    7.9212 C   0  0  0  0  0  0  0  0  0  0  0  0
   -7.5270  -10.9097    8.5784 O   0  0  0  0  0  0  0  0  0  0  0  0
   -6.7224   -9.0769    7.5118 O   0  0  0  0  0  0  0  0  0  0  0  0
   -7.6485  -11.0938    9.5464 H   0  0  0  0  0  0  0  0  0  0  0  0
  -11.8406   -4.7276   10.2066 C   0  0  0  0  0  0  0  0  0  0  0  0
  -10.7774   -5.3027    9.2456 C   0  0  0  0  0  0  0  0  0  0  0  0
 20 21  1  0  0  0
 21  1  1  0  0  0
  1  2  1  0  0  0
  2  3  1  0  0  0
  3  4  1  0  0  0
  4  5  2  0  0  0
  5  6  1  0  0  0
  6  7  2  0  0  0
  7  8  1  0  0  0
  8  9  2  0  0  0
  7 16  1  0  0  0
 16 17  1  0  0  0
 16 18  2  0  0  0
  2 10  1  0  0  0
 10 11  2  0  0  0
 11 12  1  0  0  0
 12 13  2  0  0  0
 13 14  1  0  0  0
 14 15  2  0  0  0
  9  1  1  0  0  0
 15 10  1  0  0  0
  9  4  1  0  0  0
 17 19  1  0  0  0
M  END
> <minimizedAffinity>
-0.81167

> <CNNscore>
0.2362608463

> <CNNaffinity>
4.9480447769

> <CNN_VS>
1.1690292358

> <CNNaffinity_variance>
0.3161115944

$$$$
[H]c1nc(N([H])C(=O)C([H])([H])[H])c(-c2c([H])c([H])c(OC([H])([H])[H])c([H])c2[H])c(C([H])([H])C([H])([H])C([H])([H])[H])c1[H]


 22 23  0  0  0  0  0  0  0  0999 V2000
  -13.4369   -8.2467    8.7199 C   0  0  0  0  0  0  0  0  0  0  0  0
  -14.3425   -8.4426    7.6713 C   0  0  0  0  0  0  0  0  0  0  0  0
  -14.8825   -7.3671    7.0028 C   0  0  0  0  0  0  0  0  0  0  0  0
  -14.5037   -6.1490    7.3993 N   0  0  0  0  0  0  0  0  0  0  0  0
  -13.6372   -5.9390    8.3987 C   0  0  0  0  0  0  0  0  0  0  0  0
  -13.0530   -7.0017    9.1146 C   0  0  0  0  0  0  0  0  0  0  0  0
  -12.0217   -6.7161   10.1006 C   0  0  0  0  0  0  0  0  0  0  0  0
  -12.2670   -6.5749   11.4257 C   0  0  0  0  0  0  0  0  0  0  0  0
  -11.2448   -6.2770   12.2889 C   0  0  0  0  0  0  0  0  0  0  0  0
   -9.9154   -6.1010   11.8844 C   0  0  0  0  0  0  0  0  0  0  0  0
   -9.6963   -6.2543   10.5047 C   0  0  0  0  0  0  0  0  0  0  0  0
  -10.6979   -6.5494    9.6366 C   0  0  0  0  0  0  0  0  0  0  0  0
   -8.9282   -5.8169   12.6818 O   0  0  0  0  0  0  0  0  0  0  0  0
   -7.8750   -5.5087   13.3432 C   0  0  0  0  0  0  0  0  0  0  0  0
  -13.3048   -4.6043    8.7686 N   0  0  0  0  0  0  0  0  0  0  0  0
  -13.4355   -4.1449   10.1114 C   0  0  0  0  0  0  0  0  0  0  0  0
  -13.0872   -2.7703   10.5015 C   0  0  0  0  0  0  0  0  0  0  0  0
  -13.8619   -4.9546   10.9659 O   0  0  0  0  0  0  0  0  0  0  0  0
  -12.9497   -3.9424    8.0345 H   0  0  0  0  0  0  0  0  0  0  0  0
  -13.0547   -9.4740    9.4552 C   0  0  0  0  0  0  0  0  0  0  0  0
  -11.3586   -9.8071    7.6591 C   0  0  0  0  0  0  0  0  0  0  0  0
  -12.4828  -10.4314    8.4270 C   0  0  0  0  0  0  0  0  0  0  0  0
 21 22  1  0  0  0
 22 20  1  0  0  0
 20  1  1  0  0  0
  1  2  2  0  0  0
  2  3  1  0  0  0
  3  4  2  0  0  0
  4  5  1  0  0  0
  5 15  1  0  0  0
 15 16  1  0  0  0
 16 17  1  0  0  0
 16 18  2  0  0  0
  5  6  2  0  0  0
  6  7  1  0  0  0
  7  8  2  0  0  0
  8  9  1  0  0  0
  9 10  2  0  0  0
 10 13  1  0  0  0
 13 14  1  0  0  0
 10 11  1  0  0  0
 11 12  2  0  0  0
  6  1  1  0  0  0
 12  7  1  0  0  0
 15 19  1  0  0  0
M  END
> <minimizedAffinity>
10.14677

> <CNNscore>
0.5094729662

> <CNNaffinity>
5.7061920166

> <CNN_VS>
2.9071505070

> <CNNaffinity_variance>
0.9844919443

$$$$
[H]c1nc(N([H])C(=O)C([H])([H])[H])c(-c2c([H])c([H])c(OC([H])([H])[H])c([H])c2[H])c(C([H])([H])C([H])([H])C([H])([H])[H])c1[H]


 22 23  0  0  0  0  0  0  0  0999 V2000
  -13.6795   -7.5547    7.9913 C   0  0  0  0  0  0  0  0  0  0  0  0
  -13.2234   -8.6954    8.6614 C   0  0  0  0  0  0  0  0  0  0  0  0
  -13.2482   -9.9260    8.0447 C   0  0  0  0  0  0  0  0  0  0  0  0
  -13.7208   -9.9739    6.7962 N   0  0  0  0  0  0  0  0  0  0  0  0
  -14.1602   -8.8946    6.1361 C   0  0  0  0  0  0  0  0  0  0  0  0
  -14.1555   -7.6119    6.7173 C   0  0  0  0  0  0  0  0  0  0  0  0
  -14.5220   -6.4601    5.9072 C   0  0  0  0  0  0  0  0  0  0  0  0
  -15.7539   -5.8958    5.9163 C   0  0  0  0  0  0  0  0  0  0  0  0
  -16.0305   -4.8288    5.1017 C   0  0  0  0  0  0  0  0  0  0  0  0
  -15.0963   -4.2588    4.2274 C   0  0  0  0  0  0  0  0  0  0  0  0
  -13.8297   -4.8678    4.2430 C   0  0  0  0  0  0  0  0  0  0  0  0
  -13.5399   -5.9252    5.0441 C   0  0  0  0  0  0  0  0  0  0  0  0
  -15.3330   -3.2484    3.4438 O   0  0  0  0  0  0  0  0  0  0  0  0
  -15.6930   -2.3244    2.6324 C   0  0  0  0  0  0  0  0  0  0  0  0
  -14.6669   -9.0411    4.8129 N   0  0  0  0  0  0  0  0  0  0  0  0
  -16.0577   -8.9188    4.5260 C   0  0  0  0  0  0  0  0  0  0  0  0
  -16.5866   -9.0618    3.1612 C   0  0  0  0  0  0  0  0  0  0  0  0
  -16.8317   -8.6828    5.4813 O   0  0  0  0  0  0  0  0  0  0  0  0
  -13.9988   -9.2397    4.0273 H   0  0  0  0  0  0  0  0  0  0  0  0
  -13.7466   -6.3276    8.8177 C   0  0  0  0  0  0  0  0  0  0  0  0
  -12.5794   -5.4786   10.8501 C   0  0  0  0  0  0  0  0  0  0  0  0
  -12.4325   -6.2434    9.5708 C   0  0  0  0  0  0  0  0  0  0  0  0
 21 22  1  0  0  0
 22 20  1  0  0  0
 20  1  1  0  0  0
  1  2  2  0  0  0
  2  3  1  0  0  0
  3  4  2  0  0  0
  4  5  1  0  0  0
  5 15  1  0  0  0
 15 16  1  0  0  0
 16 17  1  0  0  0
 16 18  2  0  0  0
  5  6  2  0  0  0
  6  7  1  0  0  0
  7  8  2  0  0  0
  8  9  1  0  0  0
  9 10  2  0  0  0
 10 13  1  0  0  0
 13 14  1  0  0  0
 10 11  1  0  0  0
 11 12  2  0  0  0
  6  1  1  0  0  0
 12  7  1  0  0  0
 15 19  1  0  0  0
M  END
> <minimizedAffinity>
-1.81816

> <CNNscore>
0.4612614214

> <CNNaffinity>
6.3958778381

> <CNN_VS>
2.9501717091

> <CNNaffinity_variance>
0.5013588071

$$$$
[H]c1nc(N([H])C(=O)C([H])([H])[H])c(-c2c([H])c([H])c(OC([H])([H])[H])c([H])c2[H])c(C([H])([H])C([H])([H])C([H])([H])[H])c1[H]


 22 23  0  0  0  0  0  0  0  0999 V2000
   -3.0777   -5.4825    6.1827 C   0  0  0  0  0  0  0  0  0  0  0  0
   -3.6647   -6.0862    5.0651 C   0  0  0  0  0  0  0  0  0  0  0  0
   -4.8858   -6.7135    5.1691 C   0  0  0  0  0  0  0  0  0  0  0  0
   -5.4709   -6.7155    6.3700 N   0  0  0  0  0  0  0  0  0  0  0  0
   -4.9278   -6.1423    7.4517 C   0  0  0  0  0  0  0  0  0  0  0  0
   -3.6831   -5.4855    7.4020 C   0  0  0  0  0  0  0  0  0  0  0  0
   -3.2062   -4.7703    8.5760 C   0  0  0  0  0  0  0  0  0  0  0  0
   -3.3392   -3.4327    8.7471 C   0  0  0  0  0  0  0  0  0  0  0  0
   -2.8370   -2.8271    9.8695 C   0  0  0  0  0  0  0  0  0  0  0  0
   -2.1710   -3.5174   10.8901 C   0  0  0  0  0  0  0  0  0  0  0  0
   -2.0504   -4.9019   10.6810 C   0  0  0  0  0  0  0  0  0  0  0  0
   -2.5424   -5.5168    9.5748 C   0  0  0  0  0  0  0  0  0  0  0  0
   -1.6842   -2.9673   11.9633 O   0  0  0  0  0  0  0  0  0  0  0  0
   -1.0725   -2.4856   12.9808 C   0  0  0  0  0  0  0  0  0  0  0  0
   -5.6130   -6.2099    8.6986 N   0  0  0  0  0  0  0  0  0  0  0  0
   -6.6025   -7.2028    8.9562 C   0  0  0  0  0  0  0  0  0  0  0  0
   -7.3086   -7.2828   10.2439 C   0  0  0  0  0  0  0  0  0  0  0  0
   -6.8608   -8.0195    8.0431 O   0  0  0  0  0  0  0  0  0  0  0  0
   -5.3803   -5.5137    9.4498 H   0  0  0  0  0  0  0  0  0  0  0  0
   -1.6990   -4.9839    5.9736 C   0  0  0  0  0  0  0  0  0  0  0  0
   -1.9502   -2.5750    5.3835 C   0  0  0  0  0  0  0  0  0  0  0  0
   -1.7753   -3.9646    4.8528 C   0  0  0  0  0  0  0  0  0  0  0  0
 21 22  1  0  0  0
 22 20  1  0  0  0
 20  1  1  0  0  0
  1  2  2  0  0  0
  2  3  1  0  0  0
  3  4  2  0  0  0
  4  5  1  0  0  0
  5 15  1  0  0  0
 15 16  1  0  0  0
 16 17  1  0  0  0
 16 18  2  0  0  0
  5  6  2  0  0  0
  6  7  1  0  0  0
  7  8  2  0  0  0
  8  9  1  0  0  0
  9 10  2  0  0  0
 10 13  1  0  0  0
 13 14  1  0  0  0
 10 11  1  0  0  0
 11 12  2  0  0  0
  6  1  1  0  0  0
 12  7  1  0  0  0
 15 19  1  0  0  0
M  END
> <minimizedAffinity>
-0.07166

> <CNNscore>
0.4106175303

> <CNNaffinity>
4.6240258217

> <CNN_VS>
1.8987060785

> <CNNaffinity_variance>
1.2613103390

$$$$
[H]c1nc(N([H])C(=O)C([H])([H])[H])c(-c2c([H])c([H])c(OC([H])([H])[H])c([H])c2[H])c(C([H])([H])C([H])([H])C([H])([H])[H])c1[H]


 22 23  0  0  0  0  0  0  0  0999 V2000
   -6.3212   -7.1696    6.8204 C   0  0  0  0  0  0  0  0  0  0  0  0
   -7.1368   -6.0758    6.5099 C   0  0  0  0  0  0  0  0  0  0  0  0
   -6.5963   -4.9312    5.9687 C   0  0  0  0  0  0  0  0  0  0  0  0
   -5.2771   -4.9191    5.7586 N   0  0  0  0  0  0  0  0  0  0  0  0
   -4.4788   -5.9552    6.0465 C   0  0  0  0  0  0  0  0  0  0  0  0
   -4.9782   -7.1504    6.5989 C   0  0  0  0  0  0  0  0  0  0  0  0
   -4.0846   -8.2862    6.7684 C   0  0  0  0  0  0  0  0  0  0  0  0
   -3.4115   -8.8721    5.7487 C   0  0  0  0  0  0  0  0  0  0  0  0
   -2.6096   -9.9583    5.9849 C   0  0  0  0  0  0  0  0  0  0  0  0
   -2.4298  -10.5277    7.2519 C   0  0  0  0  0  0  0  0  0  0  0  0
   -3.1418   -9.8962    8.2860 C   0  0  0  0  0  0  0  0  0  0  0  0
   -3.9400   -8.8195    8.0685 C   0  0  0  0  0  0  0  0  0  0  0  0
   -1.6768  -11.5579    7.5027 O   0  0  0  0  0  0  0  0  0  0  0  0
   -1.0616  -12.6545    7.7492 C   0  0  0  0  0  0  0  0  0  0  0  0
   -3.0786   -5.8478    5.8082 N   0  0  0  0  0  0  0  0  0  0  0  0
   -2.5650   -5.3462    4.5769 C   0  0  0  0  0  0  0  0  0  0  0  0
   -1.1207   -5.2260    4.3269 C   0  0  0  0  0  0  0  0  0  0  0  0
   -3.3882   -5.0048    3.6975 O   0  0  0  0  0  0  0  0  0  0  0  0
   -2.4066   -6.1409    6.5603 H   0  0  0  0  0  0  0  0  0  0  0  0
   -6.9991   -8.2723    7.5399 C   0  0  0  0  0  0  0  0  0  0  0  0
   -8.7633   -7.5923    9.1644 C   0  0  0  0  0  0  0  0  0  0  0  0
   -7.2924   -7.7588    8.9367 C   0  0  0  0  0  0  0  0  0  0  0  0
 21 22  1  0  0  0
 22 20  1  0  0  0
 20  1  1  0  0  0
  1  2  2  0  0  0
  2  3  1  0  0  0
  3  4  2  0  0  0
  4  5  1  0  0  0
  5 15  1  0  0  0
 15 16  1  0  0  0
 16 17  1  0  0  0
 16 18  2  0  0  0
  5  6  2  0  0  0
  6  7  1  0  0  0
  7  8  2  0  0  0
  8  9  1  0  0  0
  9 10  2  0  0  0
 10 13  1  0  0  0
 13 14  1  0  0  0
 10 11  1  0  0  0
 11 12  2  0  0  0
  6  1  1  0  0  0
 12  7  1  0  0  0
 15 19  1  0  0  0
M  END
> <minimizedAffinity>
7.78149

> <CNNscore>
0.4101839364

> <CNNaffinity>
4.7234978676

> <CNN_VS>
1.9375029802

> <CNNaffinity_variance>
1.4118858576

$$$$
[H]c1nc(N([H])C(=O)C([H])([H])[H])c(-c2c([H])c([H])c(OC([H])([H])[H])c([H])c2[H])c(C([H])([H])C([H])([H])C([H])([H])[H])c1[H]


 22 23  0  0  0  0  0  0  0  0999 V2000
  -12.1382   -8.3522    7.3868 C   0  0  0  0  0  0  0  0  0  0  0  0
  -11.7244   -9.4551    8.1419 C   0  0  0  0  0  0  0  0  0  0  0  0
  -12.6317  -10.4112    8.5394 C   0  0  0  0  0  0  0  0  0  0  0  0
  -13.9043  -10.2350    8.1731 N   0  0  0  0  0  0  0  0  0  0  0  0
  -14.3212   -9.1882    7.4492 C   0  0  0  0  0  0  0  0  0  0  0  0
  -13.4364   -8.1827    7.0141 C   0  0  0  0  0  0  0  0  0  0  0  0
  -13.9231   -7.1410    6.1223 C   0  0  0  0  0  0  0  0  0  0  0  0
  -14.0115   -7.2832    4.7776 C   0  0  0  0  0  0  0  0  0  0  0  0
  -14.4534   -6.2437    4.0012 C   0  0  0  0  0  0  0  0  0  0  0  0
  -14.8340   -4.9984    4.5172 C   0  0  0  0  0  0  0  0  0  0  0  0
  -14.7301   -4.8850    5.9142 C   0  0  0  0  0  0  0  0  0  0  0  0
  -14.2943   -5.9052    6.6972 C   0  0  0  0  0  0  0  0  0  0  0  0
  -15.2549   -3.9962    3.8033 O   0  0  0  0  0  0  0  0  0  0  0  0
  -15.5600   -2.9282    3.1647 C   0  0  0  0  0  0  0  0  0  0  0  0
  -15.7020   -9.0696    7.1204 N   0  0  0  0  0  0  0  0  0  0  0  0
  -16.6032   -8.3208    7.9319 C   0  0  0  0  0  0  0  0  0  0  0  0
  -18.0285   -8.1883    7.5944 C   0  0  0  0  0  0  0  0  0  0  0  0
  -16.1436   -7.7691    8.9575 O   0  0  0  0  0  0  0  0  0  0  0  0
  -16.0653   -9.5417    6.2554 H   0  0  0  0  0  0  0  0  0  0  0  0
  -11.0985   -7.3221    7.1608 C   0  0  0  0  0  0  0  0  0  0  0  0
  -11.3118   -6.2220    9.3874 C   0  0  0  0  0  0  0  0  0  0  0  0
  -10.4452   -7.0675    8.5059 C   0  0  0  0  0  0  0  0  0  0  0  0
 21 22  1  0  0  0
 22 20  1  0  0  0
 20  1  1  0  0  0
  1  2  2  0  0  0
  2  3  1  0  0  0
  3  4  2  0  0  0
  4  5  1  0  0  0
  5 15  1  0  0  0
 15 16  1  0  0  0
 16 17  1  0  0  0
 16 18  2  0  0  0
  5  6  2  0  0  0
  6  7  1  0  0  0
  7  8  2  0  0  0
  8  9  1  0  0  0
  9 10  2  0  0  0
 10 13  1  0  0  0
 13 14  1  0  0  0
 10 11  1  0  0  0
 11 12  2  0  0  0
  6  1  1  0  0  0
 12  7  1  0  0  0
 15 19  1  0  0  0
M  END
> <minimizedAffinity>
-0.58567

> <CNNscore>
0.3471988142

> <CNNaffinity>
6.0017538071

> <CNN_VS>
2.0838017464

> <CNNaffinity_variance>
0.4643809795

$$$$
[H]c1nc(N([H])C(=O)C([H])([H])[H])c(-c2c([H])c([H])c(OC([H])([H])[H])c([H])c2[H])c(C([H])([H])C([H])([H])C([H])([H])[H])c1[H]


 22 23  0  0  0  0  0  0  0  0999 V2000
   -2.0306   -3.2568    6.3881 C   0  0  0  0  0  0  0  0  0  0  0  0
   -2.0385   -3.0274    5.0077 C   0  0  0  0  0  0  0  0  0  0  0  0
   -2.4152   -4.0233    4.1350 C   0  0  0  0  0  0  0  0  0  0  0  0
   -2.7671   -5.1982    4.6644 N   0  0  0  0  0  0  0  0  0  0  0  0
   -2.7686   -5.4383    5.9820 C   0  0  0  0  0  0  0  0  0  0  0  0
   -2.3950   -4.4560    6.9194 C   0  0  0  0  0  0  0  0  0  0  0  0
   -2.5415   -4.7331    8.3403 C   0  0  0  0  0  0  0  0  0  0  0  0
   -3.6764   -4.4921    9.0403 C   0  0  0  0  0  0  0  0  0  0  0  0
   -3.7267   -4.7536   10.3848 C   0  0  0  0  0  0  0  0  0  0  0  0
   -2.6489   -5.2711   11.1144 C   0  0  0  0  0  0  0  0  0  0  0  0
   -1.4883   -5.5092   10.3584 C   0  0  0  0  0  0  0  0  0  0  0  0
   -1.4224   -5.2555    9.0260 C   0  0  0  0  0  0  0  0  0  0  0  0
   -2.6699   -5.5266   12.3893 O   0  0  0  0  0  0  0  0  0  0  0  0
   -2.6165   -5.6484   13.6637 C   0  0  0  0  0  0  0  0  0  0  0  0
   -3.1395   -6.7284    6.4583 N   0  0  0  0  0  0  0  0  0  0  0  0
   -2.2189   -7.8164    6.4671 C   0  0  0  0  0  0  0  0  0  0  0  0
   -2.5932   -9.1491    6.9642 C   0  0  0  0  0  0  0  0  0  0  0  0
   -1.0635   -7.6062    6.0332 O   0  0  0  0  0  0  0  0  0  0  0  0
   -4.1148   -6.8815    6.8170 H   0  0  0  0  0  0  0  0  0  0  0  0
   -1.4566   -2.1608    7.2020 C   0  0  0  0  0  0  0  0  0  0  0  0
   -3.4365   -1.1969    8.3702 C   0  0  0  0  0  0  0  0  0  0  0  0
   -2.4899   -1.0504    7.2188 C   0  0  0  0  0  0  0  0  0  0  0  0
 21 22  1  0  0  0
 22 20  1  0  0  0
 20  1  1  0  0  0
  1  2  2  0  0  0
  2  3  1  0  0  0
  3  4  2  0  0  0
  4  5  1  0  0  0
  5 15  1  0  0  0
 15 16  1  0  0  0
 16 17  1  0  0  0
 16 18  2  0  0  0
  5  6  2  0  0  0
  6  7  1  0  0  0
  7  8  2  0  0  0
  8  9  1  0  0  0
  9 10  2  0  0  0
 10 13  1  0  0  0
 13 14  1  0  0  0
 10 11  1  0  0  0
 11 12  2  0  0  0
  6  1  1  0  0  0
 12  7  1  0  0  0
 15 19  1  0  0  0
M  END
> <minimizedAffinity>
-2.36628

> <CNNscore>
0.3387128711

> <CNNaffinity>
4.4238429070

> <CNN_VS>
1.4984124899

> <CNNaffinity_variance>
0.3085915148

$$$$
[H]c1nc(N([H])C(=O)C([H])([H])[H])c(-c2c([H])c([H])c(OC([H])([H])[H])c([H])c2[H])c(C([H])([H])C([H])([H])C([H])([H])[H])c1[H]


 22 23  0  0  0  0  0  0  0  0999 V2000
   -2.2818   -5.7132    7.6184 C   0  0  0  0  0  0  0  0  0  0  0  0
   -1.8197   -5.7427    6.2979 C   0  0  0  0  0  0  0  0  0  0  0  0
   -2.7032   -5.8724    5.2501 C   0  0  0  0  0  0  0  0  0  0  0  0
   -4.0007   -5.9663    5.5535 N   0  0  0  0  0  0  0  0  0  0  0  0
   -4.4644   -5.9382    6.8097 C   0  0  0  0  0  0  0  0  0  0  0  0
   -3.6064   -5.8051    7.9184 C   0  0  0  0  0  0  0  0  0  0  0  0
   -4.1772   -5.6497    9.2478 C   0  0  0  0  0  0  0  0  0  0  0  0
   -5.0540   -6.5250    9.7966 C   0  0  0  0  0  0  0  0  0  0  0  0
   -5.5704   -6.2935   11.0450 C   0  0  0  0  0  0  0  0  0  0  0  0
   -5.2450   -5.1752   11.8230 C   0  0  0  0  0  0  0  0  0  0  0  0
   -4.3338   -4.2883   11.2243 C   0  0  0  0  0  0  0  0  0  0  0  0
   -3.8133   -4.5033    9.9887 C   0  0  0  0  0  0  0  0  0  0  0  0
   -5.7212   -4.9314   13.0083 O   0  0  0  0  0  0  0  0  0  0  0  0
   -6.2434   -4.5624   14.1186 C   0  0  0  0  0  0  0  0  0  0  0  0
   -5.8639   -6.0651    7.0426 N   0  0  0  0  0  0  0  0  0  0  0  0
   -6.5394   -7.3100    6.8836 C   0  0  0  0  0  0  0  0  0  0  0  0
   -7.9828   -7.4496    7.1294 C   0  0  0  0  0  0  0  0  0  0  0  0
   -5.8621   -8.2992    6.5229 O   0  0  0  0  0  0  0  0  0  0  0  0
   -6.4119   -5.2213    7.3439 H   0  0  0  0  0  0  0  0  0  0  0  0
   -1.2226   -5.7297    8.6533 C   0  0  0  0  0  0  0  0  0  0  0  0
   -1.0627   -7.2475   10.6242 C   0  0  0  0  0  0  0  0  0  0  0  0
   -1.1085   -7.1654    9.1295 C   0  0  0  0  0  0  0  0  0  0  0  0
 21 22  1  0  0  0
 22 20  1  0  0  0
 20  1  1  0  0  0
  1  2  2  0  0  0
  2  3  1  0  0  0
  3  4  2  0  0  0
  4  5  1  0  0  0
  5 15  1  0  0  0
 15 16  1  0  0  0
 16 17  1  0  0  0
 16 18  2  0  0  0
  5  6  2  0  0  0
  6  7  1  0  0  0
  7  8  2  0  0  0
  8  9  1  0  0  0
  9 10  2  0  0  0
 10 13  1  0  0  0
 13 14  1  0  0  0
 10 11  1  0  0  0
 11 12  2  0  0  0
  6  1  1  0  0  0
 12  7  1  0  0  0
 15 19  1  0  0  0
M  END
> <minimizedAffinity>
-2.31369

> <CNNscore>
0.3299361467

> <CNNaffinity>
4.6335210800

> <CNN_VS>
1.5287660360

> <CNNaffinity_variance>
0.5282465816

$$$$
[H]c1nc(N([H])C(=O)C([H])([H])[H])c(-c2c([H])c([H])c(OC([H])([H])[H])c([H])c2[H])c(C([H])([H])C([H])([H])C([H])([H])[H])c1[H]


 22 23  0  0  0  0  0  0  0  0999 V2000
  -12.4618   -7.0878    9.7617 C   0  0  0  0  0  0  0  0  0  0  0  0
  -13.7475   -7.0207   10.3101 C   0  0  0  0  0  0  0  0  0  0  0  0
  -14.8234   -7.5569    9.6391 C   0  0  0  0  0  0  0  0  0  0  0  0
  -14.5809   -8.1348    8.4593 N   0  0  0  0  0  0  0  0  0  0  0  0
  -13.3586   -8.2117    7.9174 C   0  0  0  0  0  0  0  0  0  0  0  0
  -12.2230   -7.6825    8.5607 C   0  0  0  0  0  0  0  0  0  0  0  0
  -10.9060   -7.9111    7.9860 C   0  0  0  0  0  0  0  0  0  0  0  0
  -10.3785   -9.1423    7.7809 C   0  0  0  0  0  0  0  0  0  0  0  0
   -9.1172   -9.2749    7.2610 C   0  0  0  0  0  0  0  0  0  0  0  0
   -8.3040   -8.1887    6.9138 C   0  0  0  0  0  0  0  0  0  0  0  0
   -8.8813   -6.9273    7.1392 C   0  0  0  0  0  0  0  0  0  0  0  0
  -10.1293   -6.7789    7.6535 C   0  0  0  0  0  0  0  0  0  0  0  0
   -7.1047   -8.2869    6.4207 O   0  0  0  0  0  0  0  0  0  0  0  0
   -5.9562   -8.5278    5.9063 C   0  0  0  0  0  0  0  0  0  0  0  0
  -13.1946   -8.8286    6.6440 N   0  0  0  0  0  0  0  0  0  0  0  0
  -14.1196   -8.6105    5.5819 C   0  0  0  0  0  0  0  0  0  0  0  0
  -13.9524   -9.2386    4.2625 C   0  0  0  0  0  0  0  0  0  0  0  0
  -15.0955   -7.8582    5.8036 O   0  0  0  0  0  0  0  0  0  0  0  0
  -12.3686   -9.4565    6.4812 H   0  0  0  0  0  0  0  0  0  0  0  0
  -11.4237   -6.3377   10.5051 C   0  0  0  0  0  0  0  0  0  0  0  0
  -11.4271   -5.5978   12.8855 C   0  0  0  0  0  0  0  0  0  0  0  0
  -12.1493   -5.5435   11.5746 C   0  0  0  0  0  0  0  0  0  0  0  0
 21 22  1  0  0  0
 22 20  1  0  0  0
 20  1  1  0  0  0
  1  2  2  0  0  0
  2  3  1  0  0  0
  3  4  2  0  0  0
  4  5  1  0  0  0
  5 15  1  0  0  0
 15 16  1  0  0  0
 16 17  1  0  0  0
 16 18  2  0  0  0
  5  6  2  0  0  0
  6  7  1  0  0  0
  7  8  2  0  0  0
  8  9  1  0  0  0
  9 10  2  0  0  0
 10 13  1  0  0  0
 13 14  1  0  0  0
 10 11  1  0  0  0
 11 12  2  0  0  0
  6  1  1  0  0  0
 12  7  1  0  0  0
 15 19  1  0  0  0
M  END
> <minimizedAffinity>
-5.70715

> <CNNscore>
0.3214669824

> <CNNaffinity>
5.9550981522

> <CNN_VS>
1.9143674374

> <CNNaffinity_variance>
0.1711371839

$$$$
[H]c1nc(N([H])C(=O)C([H])([H])[H])c(-c2c([H])c([H])c(OC([H])([H])[H])c([H])c2[H])c(C([H])([H])C([H])([H])C([H])([H])[H])c1[H]


 22 23  0  0  0  0  0  0  0  0999 V2000
   -7.3066   -8.2594    8.5523 C   0  0  0  0  0  0  0  0  0  0  0  0
   -5.9469   -7.9381    8.4752 C   0  0  0  0  0  0  0  0  0  0  0  0
   -5.5240   -6.8575    7.7345 C   0  0  0  0  0  0  0  0  0  0  0  0
   -6.4618   -6.1441    7.1051 N   0  0  0  0  0  0  0  0  0  0  0  0
   -7.7682   -6.4328    7.1670 C   0  0  0  0  0  0  0  0  0  0  0  0
   -8.2562   -7.5243    7.9111 C   0  0  0  0  0  0  0  0  0  0  0  0
   -9.6929   -7.7101    8.0468 C   0  0  0  0  0  0  0  0  0  0  0  0
  -10.4065   -8.6074    7.3246 C   0  0  0  0  0  0  0  0  0  0  0  0
  -11.7639   -8.7029    7.4895 C   0  0  0  0  0  0  0  0  0  0  0  0
  -12.4935   -7.9096    8.3840 C   0  0  0  0  0  0  0  0  0  0  0  0
  -11.7232   -6.9902    9.1164 C   0  0  0  0  0  0  0  0  0  0  0  0
  -10.3780   -6.8833    8.9648 C   0  0  0  0  0  0  0  0  0  0  0  0
  -13.7804   -7.9790    8.5584 O   0  0  0  0  0  0  0  0  0  0  0  0
  -15.0611   -7.9924    8.5905 C   0  0  0  0  0  0  0  0  0  0  0  0
   -8.6979   -5.6291    6.4469 N   0  0  0  0  0  0  0  0  0  0  0  0
   -8.6859   -5.5641    5.0231 C   0  0  0  0  0  0  0  0  0  0  0  0
   -9.6476   -4.7420    4.2731 C   0  0  0  0  0  0  0  0  0  0  0  0
   -7.8212   -6.2357    4.4159 O   0  0  0  0  0  0  0  0  0  0  0  0
   -9.4140   -5.0736    6.9776 H   0  0  0  0  0  0  0  0  0  0  0  0
   -7.6115   -9.5310    9.2475 C   0  0  0  0  0  0  0  0  0  0  0  0
   -8.3806  -10.7879    7.2370 C   0  0  0  0  0  0  0  0  0  0  0  0
   -7.3009  -10.6441    8.2649 C   0  0  0  0  0  0  0  0  0  0  0  0
 21 22  1  0  0  0
 22 20  1  0  0  0
 20  1  1  0  0  0
  1  2  2  0  0  0
  2  3  1  0  0  0
  3  4  2  0  0  0
  4  5  1  0  0  0
  5 15  1  0  0  0
 15 16  1  0  0  0
 16 17  1  0  0  0
 16 18  2  0  0  0
  5  6  2  0  0  0
  6  7  1  0  0  0
  7  8  2  0  0  0
  8  9  1  0  0  0
  9 10  2  0  0  0
 10 13  1  0  0  0
 13 14  1  0  0  0
 10 11  1  0  0  0
 11 12  2  0  0  0
  6  1  1  0  0  0
 12  7  1  0  0  0
 15 19  1  0  0  0
M  END
> <minimizedAffinity>
1.17766

> <CNNscore>
0.3205984831

> <CNNaffinity>
5.3598046303

> <CNN_VS>
1.7183452845

> <CNNaffinity_variance>
0.3286131918

$$$$
[H]Oc1c([H])c([H])c(N([H])[C@]([H])(C(=O)N([H])c2nnc(-c3c([H])c([H])c(C(F)(F)F)c([H])c3[H])s2)C([H])([H])C([H])(C([H])([H])[H])C([H])([H])[H])c([H])c1[H]


 34 36  0  0  0  0  0  0  0  0999 V2000
   -8.6739   -6.8313    7.6417 C   0  0  0  0  0  0  0  0  0  0  0  0
   -8.6710   -6.1655    6.6301 O   0  0  0  0  0  0  0  0  0  0  0  0
   -9.7734   -7.4514    8.2507 N   0  0  0  0  0  0  0  0  0  0  0  0
   -9.6450   -8.0096    9.1417 H   0  0  0  0  0  0  0  0  0  0  0  0
  -11.1337   -7.3709    7.7651 C   0  0  0  0  0  0  0  0  0  0  0  0
  -11.9033   -8.4548    7.4804 N   0  0  0  0  0  0  0  0  0  0  0  0
  -13.0698   -8.2720    7.0747 N   0  0  0  0  0  0  0  0  0  0  0  0
  -13.5557   -7.0435    6.9199 C   0  0  0  0  0  0  0  0  0  0  0  0
  -12.2046   -6.1182    7.3950 S   0  0  0  0  0  0  0  0  0  0  0  0
  -14.8687   -6.6918    6.3634 C   0  0  0  0  0  0  0  0  0  0  0  0
  -16.0215   -7.3706    6.6236 C   0  0  0  0  0  0  0  0  0  0  0  0
  -17.2163   -7.0492    5.9553 C   0  0  0  0  0  0  0  0  0  0  0  0
  -17.2437   -6.0255    5.0130 C   0  0  0  0  0  0  0  0  0  0  0  0
  -16.0854   -5.3372    4.7543 C   0  0  0  0  0  0  0  0  0  0  0  0
  -14.9376   -5.6641    5.4126 C   0  0  0  0  0  0  0  0  0  0  0  0
  -18.4775   -5.6483    4.2526 C   0  0  0  0  0  0  0  0  0  0  0  0
  -18.1052   -5.2051    2.9740 F   0  0  0  0  0  0  0  0  0  0  0  0
  -19.0366   -4.5564    4.9066 F   0  0  0  0  0  0  0  0  0  0  0  0
  -19.3596   -6.6784    4.1529 F   0  0  0  0  0  0  0  0  0  0  0  0
   -7.3181   -7.0449    8.4184 C   0  0  0  0  0  0  0  0  0  0  0  0
   -7.4299   -8.4261    8.8456 N   0  0  0  0  0  0  0  0  0  0  0  0
   -7.0704   -8.5996    9.8261 H   0  0  0  0  0  0  0  0  0  0  0  0
   -7.9547   -9.4974    8.0807 C   0  0  0  0  0  0  0  0  0  0  0  0
   -7.2661  -10.7032    8.1724 C   0  0  0  0  0  0  0  0  0  0  0  0
   -7.7038  -11.8062    7.5201 C   0  0  0  0  0  0  0  0  0  0  0  0
   -8.8526  -11.7634    6.7434 C   0  0  0  0  0  0  0  0  0  0  0  0
   -9.2387  -12.9653    6.0985 O   0  0  0  0  0  0  0  0  0  0  0  0
   -9.5083  -10.5796    6.6614 C   0  0  0  0  0  0  0  0  0  0  0  0
   -9.0918   -9.4383    7.3140 C   0  0  0  0  0  0  0  0  0  0  0  0
  -10.0650  -12.9555    5.5324 H   0  0  0  0  0  0  0  0  0  0  0  0
   -6.2907   -6.7876    7.3833 C   0  0  0  0  0  0  0  0  0  0  0  0
   -4.3384   -5.3179    6.8432 C   0  0  0  0  0  0  0  0  0  0  0  0
   -5.3926   -5.6197    7.9069 C   0  0  0  0  0  0  0  0  0  0  0  0
   -4.6311   -6.2924    9.0798 C   0  0  0  0  0  0  0  0  0  0  0  0
 32 33  1  0  0  0
 33 34  1  0  0  0
 33 31  1  0  0  0
 31 20  1  0  0  0
 20 21  1  0  0  0
 21 23  1  0  0  0
 23 24  2  0  0  0
 24 25  1  0  0  0
 25 26  2  0  0  0
 26 27  1  0  0  0
 26 28  1  0  0  0
 28 29  2  0  0  0
 20  1  1  0  0  0
  1  2  2  0  0  0
  1  3  1  0  0  0
  3  5  1  0  0  0
  5  6  2  0  0  0
  6  7  1  0  0  0
  7  8  2  0  0  0
  8  9  1  0  0  0
  8 10  1  0  0  0
 10 11  2  0  0  0
 11 12  1  0  0  0
 12 13  2  0  0  0
 13 14  1  0  0  0
 14 15  2  0  0  0
 13 16  1  0  0  0
 16 17  1  0  0  0
 16 18  1  0  0  0
 16 19  1  0  0  0
 29 23  1  0  0  0
  9  5  1  0  0  0
 15 10  1  0  0  0
 21 22  1  0  0  0
 27 30  1  0  0  0
  3  4  1  0  0  0
M  END
> <minimizedAffinity>
1.22572

> <CNNscore>
0.4486379921

> <CNNaffinity>
6.7082800865

> <CNN_VS>
3.0095891953

> <CNNaffinity_variance>
1.7685890198

$$$$
[H]Oc1c([H])c([H])c(N([H])[C@]([H])(C(=O)N([H])c2nnc(-c3c([H])c([H])c(C(F)(F)F)c([H])c3[H])s2)C([H])([H])C([H])(C([H])([H])[H])C([H])([H])[H])c([H])c1[H]


 34 36  0  0  0  0  0  0  0  0999 V2000
  -12.9485   -7.3670    7.4251 C   0  0  0  0  0  0  0  0  0  0  0  0
  -12.8479   -6.4810    8.2445 O   0  0  0  0  0  0  0  0  0  0  0  0
  -11.9106   -8.0649    6.7926 N   0  0  0  0  0  0  0  0  0  0  0  0
  -12.1305   -8.8236    6.0869 H   0  0  0  0  0  0  0  0  0  0  0  0
  -10.5024   -7.8116    7.0059 C   0  0  0  0  0  0  0  0  0  0  0  0
   -9.7945   -6.8571    6.3456 N   0  0  0  0  0  0  0  0  0  0  0  0
   -8.5832   -6.7164    6.6133 N   0  0  0  0  0  0  0  0  0  0  0  0
   -7.9902   -7.4832    7.5242 C   0  0  0  0  0  0  0  0  0  0  0  0
   -9.3012   -8.4655    7.9972 S   0  0  0  0  0  0  0  0  0  0  0  0
   -6.5607   -7.4847    7.8617 C   0  0  0  0  0  0  0  0  0  0  0  0
   -5.9653   -6.5832    8.6923 C   0  0  0  0  0  0  0  0  0  0  0  0
   -4.5701   -6.5738    8.8682 C   0  0  0  0  0  0  0  0  0  0  0  0
   -3.7684   -7.4911    8.1956 C   0  0  0  0  0  0  0  0  0  0  0  0
   -4.3669   -8.4033    7.3636 C   0  0  0  0  0  0  0  0  0  0  0  0
   -5.7208   -8.3959    7.2065 C   0  0  0  0  0  0  0  0  0  0  0  0
   -2.2766   -7.5202    8.3236 C   0  0  0  0  0  0  0  0  0  0  0  0
   -1.7246   -6.6088    7.4101 F   0  0  0  0  0  0  0  0  0  0  0  0
   -1.8619   -8.7858    7.9251 F   0  0  0  0  0  0  0  0  0  0  0  0
   -1.8594   -7.2300    9.5849 F   0  0  0  0  0  0  0  0  0  0  0  0
  -14.3869   -7.8183    6.9622 C   0  0  0  0  0  0  0  0  0  0  0  0
  -15.2185   -7.3331    8.0464 N   0  0  0  0  0  0  0  0  0  0  0  0
  -15.8555   -6.5338    7.7705 H   0  0  0  0  0  0  0  0  0  0  0  0
  -15.2316   -7.8267    9.3746 C   0  0  0  0  0  0  0  0  0  0  0  0
  -15.9682   -8.9888    9.5832 C   0  0  0  0  0  0  0  0  0  0  0  0
  -16.0138   -9.5747   10.8031 C   0  0  0  0  0  0  0  0  0  0  0  0
  -15.3254   -9.0318   11.8784 C   0  0  0  0  0  0  0  0  0  0  0  0
  -15.4271   -9.7124   13.1177 O   0  0  0  0  0  0  0  0  0  0  0  0
  -14.6169   -7.8970   11.6586 C   0  0  0  0  0  0  0  0  0  0  0  0
  -14.5470   -7.2759   10.4292 C   0  0  0  0  0  0  0  0  0  0  0  0
  -14.9380   -9.3364   13.9069 H   0  0  0  0  0  0  0  0  0  0  0  0
  -14.5632   -7.1153    5.6707 C   0  0  0  0  0  0  0  0  0  0  0  0
  -16.7301   -8.3560    5.5006 C   0  0  0  0  0  0  0  0  0  0  0  0
  -15.4326   -8.0405    4.7582 C   0  0  0  0  0  0  0  0  0  0  0  0
  -14.6147   -9.3593    4.7545 C   0  0  0  0  0  0  0  0  0  0  0  0
 32 33  1  0  0  0
 33 34  1  0  0  0
 33 31  1  0  0  0
 31 20  1  0  0  0
 20 21  1  0  0  0
 21 23  1  0  0  0
 23 24  2  0  0  0
 24 25  1  0  0  0
 25 26  2  0  0  0
 26 27  1  0  0  0
 26 28  1  0  0  0
 28 29  2  0  0  0
 20  1  1  0  0  0
  1  2  2  0  0  0
  1  3  1  0  0  0
  3  5  1  0  0  0
  5  6  2  0  0  0
  6  7  1  0  0  0
  7  8  2  0  0  0
  8  9  1  0  0  0
  8 10  1  0  0  0
 10 11  2  0  0  0
 11 12  1  0  0  0
 12 13  2  0  0  0
 13 14  1  0  0  0
 14 15  2  0  0  0
 13 16  1  0  0  0
 16 17  1  0  0  0
 16 18  1  0  0  0
 16 19  1  0  0  0
 29 23  1  0  0  0
  9  5  1  0  0  0
 15 10  1  0  0  0
 21 22  1  0  0  0
 27 30  1  0  0  0
  3  4  1  0  0  0
M  END
> <minimizedAffinity>
6.15845

> <CNNscore>
0.4242940843

> <CNNaffinity>
7.0242242813

> <CNN_VS>
2.9803369045

> <CNNaffinity_variance>
2.9417176247

$$$$
[H]Oc1c([H])c([H])c(N([H])[C@]([H])(C(=O)N([H])c2nnc(-c3c([H])c([H])c(C(F)(F)F)c([H])c3[H])s2)C([H])([H])C([H])(C([H])([H])[H])C([H])([H])[H])c([H])c1[H]


 34 36  0  0  0  0  0  0  0  0999 V2000
   -7.5658   -7.5650    8.4347 C   0  0  0  0  0  0  0  0  0  0  0  0
   -7.8640   -8.4283    9.2299 O   0  0  0  0  0  0  0  0  0  0  0  0
   -8.4013   -6.9469    7.4944 N   0  0  0  0  0  0  0  0  0  0  0  0
   -8.0171   -6.2003    6.8487 H   0  0  0  0  0  0  0  0  0  0  0  0
   -9.7974   -7.2712    7.2988 C   0  0  0  0  0  0  0  0  0  0  0  0
  -10.3095   -8.5247    7.4196 N   0  0  0  0  0  0  0  0  0  0  0  0
  -11.5332   -8.6926    7.2378 N   0  0  0  0  0  0  0  0  0  0  0  0
  -12.3258   -7.6696    6.9298 C   0  0  0  0  0  0  0  0  0  0  0  0
  -11.1889   -6.3992    6.9027 S   0  0  0  0  0  0  0  0  0  0  0  0
  -13.7548   -7.7462    6.5988 C   0  0  0  0  0  0  0  0  0  0  0  0
  -14.7613   -7.3987    7.4494 C   0  0  0  0  0  0  0  0  0  0  0  0
  -16.1070   -7.6177    7.1049 C   0  0  0  0  0  0  0  0  0  0  0  0
  -16.4369   -8.1940    5.8819 C   0  0  0  0  0  0  0  0  0  0  0  0
  -15.4250   -8.5389    5.0219 C   0  0  0  0  0  0  0  0  0  0  0  0
  -14.1270   -8.3187    5.3746 C   0  0  0  0  0  0  0  0  0  0  0  0
  -17.8480   -8.4724    5.4645 C   0  0  0  0  0  0  0  0  0  0  0  0
  -18.5673   -8.9368    6.5765 F   0  0  0  0  0  0  0  0  0  0  0  0
  -17.7999   -9.5213    4.5534 F   0  0  0  0  0  0  0  0  0  0  0  0
  -18.4573   -7.3774    4.9364 F   0  0  0  0  0  0  0  0  0  0  0  0
   -6.0760   -7.0494    8.3913 C   0  0  0  0  0  0  0  0  0  0  0  0
   -5.6879   -7.1316    9.7860 N   0  0  0  0  0  0  0  0  0  0  0  0
   -5.8754   -8.0761   10.2259 H   0  0  0  0  0  0  0  0  0  0  0  0
   -5.1111   -6.0908   10.5554 C   0  0  0  0  0  0  0  0  0  0  0  0
   -4.1225   -5.3438    9.9221 C   0  0  0  0  0  0  0  0  0  0  0  0
   -3.5344   -4.2959   10.5463 C   0  0  0  0  0  0  0  0  0  0  0  0
   -3.9035   -3.9381   11.8349 C   0  0  0  0  0  0  0  0  0  0  0  0
   -3.2375   -2.8267   12.4100 O   0  0  0  0  0  0  0  0  0  0  0  0
   -4.8647   -4.6794   12.4387 C   0  0  0  0  0  0  0  0  0  0  0  0
   -5.4856   -5.7508   11.8316 C   0  0  0  0  0  0  0  0  0  0  0  0
   -3.4890   -2.5523   13.3400 H   0  0  0  0  0  0  0  0  0  0  0  0
   -5.4078   -8.0197    7.4939 C   0  0  0  0  0  0  0  0  0  0  0  0
   -4.0935   -5.9390    7.0393 C   0  0  0  0  0  0  0  0  0  0  0  0
   -4.6735   -7.1935    6.3881 C   0  0  0  0  0  0  0  0  0  0  0  0
   -5.8531   -6.7063    5.5054 C   0  0  0  0  0  0  0  0  0  0  0  0
 32 33  1  0  0  0
 33 34  1  0  0  0
 33 31  1  0  0  0
 31 20  1  0  0  0
 20 21  1  0  0  0
 21 23  1  0  0  0
 23 24  2  0  0  0
 24 25  1  0  0  0
 25 26  2  0  0  0
 26 27  1  0  0  0
 26 28  1  0  0  0
 28 29  2  0  0  0
 20  1  1  0  0  0
  1  2  2  0  0  0
  1  3  1  0  0  0
  3  5  1  0  0  0
  5  6  2  0  0  0
  6  7  1  0  0  0
  7  8  2  0  0  0
  8  9  1  0  0  0
  8 10  1  0  0  0
 10 11  2  0  0  0
 11 12  1  0  0  0
 12 13  2  0  0  0
 13 14  1  0  0  0
 14 15  2  0  0  0
 13 16  1  0  0  0
 16 17  1  0  0  0
 16 18  1  0  0  0
 16 19  1  0  0  0
 29 23  1  0  0  0
  9  5  1  0  0  0
 15 10  1  0  0  0
 21 22  1  0  0  0
 27 30  1  0  0  0
  3  4  1  0  0  0
M  END
> <minimizedAffinity>
-2.01045

> <CNNscore>
0.4091245532

> <CNNaffinity>
6.3595709801

> <CNN_VS>
2.6018567085

> <CNNaffinity_variance>
1.3394935131

$$$$
[H]Oc1c([H])c([H])c(N([H])[C@]([H])(C(=O)N([H])c2nnc(-c3c([H])c([H])c(C(F)(F)F)c([H])c3[H])s2)C([H])([H])C([H])(C([H])([H])[H])C([H])([H])[H])c([H])c1[H]


 34 36  0  0  0  0  0  0  0  0999 V2000
  -14.4090   -8.6710    6.6370 C   0  0  0  0  0  0  0  0  0  0  0  0
  -14.3836   -9.1690    7.7406 O   0  0  0  0  0  0  0  0  0  0  0  0
  -13.3147   -8.2948    5.8463 N   0  0  0  0  0  0  0  0  0  0  0  0
  -13.4698   -7.8641    4.8910 H   0  0  0  0  0  0  0  0  0  0  0  0
  -11.9305   -8.4219    6.2470 C   0  0  0  0  0  0  0  0  0  0  0  0
  -11.3716   -9.5798    6.6887 N   0  0  0  0  0  0  0  0  0  0  0  0
  -10.1629   -9.5810    7.0013 N   0  0  0  0  0  0  0  0  0  0  0  0
   -9.4310   -8.4742    6.9081 C   0  0  0  0  0  0  0  0  0  0  0  0
  -10.6049   -7.3787    6.3345 S   0  0  0  0  0  0  0  0  0  0  0  0
   -8.0331   -8.3183    7.3314 C   0  0  0  0  0  0  0  0  0  0  0  0
   -7.6463   -7.8565    8.5538 C   0  0  0  0  0  0  0  0  0  0  0  0
   -6.2906   -7.6172    8.8404 C   0  0  0  0  0  0  0  0  0  0  0  0
   -5.3142   -7.8510    7.8767 C   0  0  0  0  0  0  0  0  0  0  0  0
   -5.7014   -8.3217    6.6474 C   0  0  0  0  0  0  0  0  0  0  0  0
   -7.0206   -8.5470    6.3893 C   0  0  0  0  0  0  0  0  0  0  0  0
   -3.8572   -7.5970    8.1118 C   0  0  0  0  0  0  0  0  0  0  0  0
   -3.2176   -7.4412    6.8723 F   0  0  0  0  0  0  0  0  0  0  0  0
   -3.3347   -8.7487    8.6890 F   0  0  0  0  0  0  0  0  0  0  0  0
   -3.6413   -6.5036    8.8910 F   0  0  0  0  0  0  0  0  0  0  0  0
  -15.8049   -8.3694    5.9680 C   0  0  0  0  0  0  0  0  0  0  0  0
  -16.6720   -8.2440    7.1235 N   0  0  0  0  0  0  0  0  0  0  0  0
  -16.2816   -7.6194    7.8839 H   0  0  0  0  0  0  0  0  0  0  0  0
  -17.9324   -8.8689    7.2939 C   0  0  0  0  0  0  0  0  0  0  0  0
  -18.7244   -8.9592    6.1533 C   0  0  0  0  0  0  0  0  0  0  0  0
  -19.9289   -9.5770    6.1892 C   0  0  0  0  0  0  0  0  0  0  0  0
  -20.4051  -10.1380    7.3654 C   0  0  0  0  0  0  0  0  0  0  0  0
  -21.6743  -10.7668    7.3108 O   0  0  0  0  0  0  0  0  0  0  0  0
  -19.6228  -10.0366    8.4680 C   0  0  0  0  0  0  0  0  0  0  0  0
  -18.3908   -9.4168    8.4661 C   0  0  0  0  0  0  0  0  0  0  0  0
  -22.0365  -11.1777    8.1495 H   0  0  0  0  0  0  0  0  0  0  0  0
  -15.5601   -7.1116    5.2256 C   0  0  0  0  0  0  0  0  0  0  0  0
  -16.3670   -8.8391    3.6043 C   0  0  0  0  0  0  0  0  0  0  0  0
  -15.9307   -7.3803    3.7305 C   0  0  0  0  0  0  0  0  0  0  0  0
  -14.5496   -7.2886    3.0289 C   0  0  0  0  0  0  0  0  0  0  0  0
 32 33  1  0  0  0
 33 34  1  0  0  0
 33 31  1  0  0  0
 31 20  1  0  0  0
 20 21  1  0  0  0
 21 23  1  0  0  0
 23 24  2  0  0  0
 24 25  1  0  0  0
 25 26  2  0  0  0
 26 27  1  0  0  0
 26 28  1  0  0  0
 28 29  2  0  0  0
 20  1  1  0  0  0
  1  2  2  0  0  0
  1  3  1  0  0  0
  3  5  1  0  0  0
  5  6  2  0  0  0
  6  7  1  0  0  0
  7  8  2  0  0  0
  8  9  1  0  0  0
  8 10  1  0  0  0
 10 11  2  0  0  0
 11 12  1  0  0  0
 12 13  2  0  0  0
 13 14  1  0  0  0
 14 15  2  0  0  0
 13 16  1  0  0  0
 16 17  1  0  0  0
 16 18  1  0  0  0
 16 19  1  0  0  0
 29 23  1  0  0  0
  9  5  1  0  0  0
 15 10  1  0  0  0
 21 22  1  0  0  0
 27 30  1  0  0  0
  3  4  1  0  0  0
M  END
> <minimizedAffinity>
6.14668

> <CNNscore>
0.3999537528

> <CNNaffinity>
6.6077003479

> <CNN_VS>
2.6427745819

> <CNNaffinity_variance>
1.1674836874

$$$$
[H]Oc1c([H])c([H])c(N([H])[C@]([H])(C(=O)N([H])c2nnc(-c3c([H])c([H])c(C(F)(F)F)c([H])c3[H])s2)C([H])([H])C([H])(C([H])([H])[H])C([H])([H])[H])c([H])c1[H]


 34 36  0  0  0  0  0  0  0  0999 V2000
  -12.9118   -6.9923    6.3452 C   0  0  0  0  0  0  0  0  0  0  0  0
  -12.4681   -6.3463    5.4220 O   0  0  0  0  0  0  0  0  0  0  0  0
  -12.1889   -7.6832    7.3272 N   0  0  0  0  0  0  0  0  0  0  0  0
  -12.6978   -8.2170    8.0875 H   0  0  0  0  0  0  0  0  0  0  0  0
  -10.7454   -7.7591    7.3821 C   0  0  0  0  0  0  0  0  0  0  0  0
  -10.0570   -8.8790    7.7287 N   0  0  0  0  0  0  0  0  0  0  0  0
   -8.8092   -8.8379    7.7352 N   0  0  0  0  0  0  0  0  0  0  0  0
   -8.1597   -7.7229    7.4120 C   0  0  0  0  0  0  0  0  0  0  0  0
   -9.4743   -6.6853    7.0914 S   0  0  0  0  0  0  0  0  0  0  0  0
   -6.7070   -7.5148    7.4717 C   0  0  0  0  0  0  0  0  0  0  0  0
   -5.7836   -8.3905    6.9841 C   0  0  0  0  0  0  0  0  0  0  0  0
   -4.4085   -8.1804    7.1899 C   0  0  0  0  0  0  0  0  0  0  0  0
   -3.9634   -7.0674    7.8970 C   0  0  0  0  0  0  0  0  0  0  0  0
   -4.8915   -6.1816    8.3833 C   0  0  0  0  0  0  0  0  0  0  0  0
   -6.2198   -6.4034    8.1734 C   0  0  0  0  0  0  0  0  0  0  0  0
   -2.5155   -6.7975    8.1680 C   0  0  0  0  0  0  0  0  0  0  0  0
   -2.4138   -5.9123    9.2523 F   0  0  0  0  0  0  0  0  0  0  0  0
   -2.0150   -6.1277    7.0573 F   0  0  0  0  0  0  0  0  0  0  0  0
   -1.8158   -7.9349    8.4246 F   0  0  0  0  0  0  0  0  0  0  0  0
  -14.4755   -7.1241    6.5021 C   0  0  0  0  0  0  0  0  0  0  0  0
  -14.7050   -6.4833    7.7825 N   0  0  0  0  0  0  0  0  0  0  0  0
  -15.2517   -5.5794    7.7150 H   0  0  0  0  0  0  0  0  0  0  0  0
  -14.2679   -6.9576    9.0443 C   0  0  0  0  0  0  0  0  0  0  0  0
  -14.8414   -8.1495    9.4768 C   0  0  0  0  0  0  0  0  0  0  0  0
  -14.4653   -8.7189   10.6464 C   0  0  0  0  0  0  0  0  0  0  0  0
  -13.4961   -8.1288   11.4448 C   0  0  0  0  0  0  0  0  0  0  0  0
  -13.1624   -8.7952   12.6506 O   0  0  0  0  0  0  0  0  0  0  0  0
  -12.9515   -6.9656   11.0106 C   0  0  0  0  0  0  0  0  0  0  0  0
  -13.3093   -6.3601    9.8243 C   0  0  0  0  0  0  0  0  0  0  0  0
  -12.4652   -8.3853   13.2417 H   0  0  0  0  0  0  0  0  0  0  0  0
  -14.9970   -6.3881    5.3276 C   0  0  0  0  0  0  0  0  0  0  0  0
  -17.4512   -5.8984    5.3482 C   0  0  0  0  0  0  0  0  0  0  0  0
  -16.4141   -6.9689    5.0128 C   0  0  0  0  0  0  0  0  0  0  0  0
  -16.5684   -8.0645    6.1009 C   0  0  0  0  0  0  0  0  0  0  0  0
 32 33  1  0  0  0
 33 34  1  0  0  0
 33 31  1  0  0  0
 31 20  1  0  0  0
 20 21  1  0  0  0
 21 23  1  0  0  0
 23 24  2  0  0  0
 24 25  1  0  0  0
 25 26  2  0  0  0
 26 27  1  0  0  0
 26 28  1  0  0  0
 28 29  2  0  0  0
 20  1  1  0  0  0
  1  2  2  0  0  0
  1  3  1  0  0  0
  3  5  1  0  0  0
  5  6  2  0  0  0
  6  7  1  0  0  0
  7  8  2  0  0  0
  8  9  1  0  0  0
  8 10  1  0  0  0
 10 11  2  0  0  0
 11 12  1  0  0  0
 12 13  2  0  0  0
 13 14  1  0  0  0
 14 15  2  0  0  0
 13 16  1  0  0  0
 16 17  1  0  0  0
 16 18  1  0  0  0
 16 19  1  0  0  0
 29 23  1  0  0  0
  9  5  1  0  0  0
 15 10  1  0  0  0
 21 22  1  0  0  0
 27 30  1  0  0  0
  3  4  1  0  0  0
M  END
> <minimizedAffinity>
0.63390

> <CNNscore>
0.3952862620

> <CNNaffinity>
6.7439026833

> <CNN_VS>
2.6657721996

> <CNNaffinity_variance>
0.8070408702

$$$$
[H]Oc1c([H])c([H])c(N([H])[C@]([H])(C(=O)N([H])c2nnc(-c3c([H])c([H])c(C(F)(F)F)c([H])c3[H])s2)C([H])([H])C([H])(C([H])([H])[H])C([H])([H])[H])c([H])c1[H]


 34 36  0  0  0  0  0  0  0  0999 V2000
  -11.3158   -7.9847    7.9100 C   0  0  0  0  0  0  0  0  0  0  0  0
  -11.4999   -6.8717    7.4695 O   0  0  0  0  0  0  0  0  0  0  0  0
  -10.0895   -8.6406    8.0835 N   0  0  0  0  0  0  0  0  0  0  0  0
  -10.0611   -9.6223    8.4803 H   0  0  0  0  0  0  0  0  0  0  0  0
   -8.8031   -8.0829    7.7273 C   0  0  0  0  0  0  0  0  0  0  0  0
   -7.6813   -8.8259    7.5333 N   0  0  0  0  0  0  0  0  0  0  0  0
   -6.6230   -8.2429    7.2191 N   0  0  0  0  0  0  0  0  0  0  0  0
   -6.5863   -6.9208    7.0770 C   0  0  0  0  0  0  0  0  0  0  0  0
   -8.2063   -6.5295    7.4374 S   0  0  0  0  0  0  0  0  0  0  0  0
   -5.3929   -6.1085    6.8061 C   0  0  0  0  0  0  0  0  0  0  0  0
   -5.0958   -4.9412    7.4437 C   0  0  0  0  0  0  0  0  0  0  0  0
   -4.0000   -4.1567    7.0421 C   0  0  0  0  0  0  0  0  0  0  0  0
   -3.1939   -4.5613    5.9823 C   0  0  0  0  0  0  0  0  0  0  0  0
   -3.4882   -5.7392    5.3432 C   0  0  0  0  0  0  0  0  0  0  0  0
   -4.5548   -6.4852    5.7475 C   0  0  0  0  0  0  0  0  0  0  0  0
   -2.0260   -3.7617    5.4930 C   0  0  0  0  0  0  0  0  0  0  0  0
   -1.4624   -4.4127    4.3847 F   0  0  0  0  0  0  0  0  0  0  0  0
   -1.0687   -3.7874    6.5007 F   0  0  0  0  0  0  0  0  0  0  0  0
   -2.3719   -2.4888    5.1626 F   0  0  0  0  0  0  0  0  0  0  0  0
  -12.5619   -8.8520    8.3367 C   0  0  0  0  0  0  0  0  0  0  0  0
  -12.1025  -10.1983    8.0557 N   0  0  0  0  0  0  0  0  0  0  0  0
  -12.5302  -10.9348    8.6845 H   0  0  0  0  0  0  0  0  0  0  0  0
  -11.1702  -10.5713    7.0558 C   0  0  0  0  0  0  0  0  0  0  0  0
  -11.3346   -9.9628    5.8152 C   0  0  0  0  0  0  0  0  0  0  0  0
  -10.4745  -10.2100    4.7990 C   0  0  0  0  0  0  0  0  0  0  0  0
   -9.4043  -11.0766    4.9687 C   0  0  0  0  0  0  0  0  0  0  0  0
   -8.5531  -11.2746    3.8526 O   0  0  0  0  0  0  0  0  0  0  0  0
   -9.2619  -11.6643    6.1822 C   0  0  0  0  0  0  0  0  0  0  0  0
  -10.1176  -11.4333    7.2388 C   0  0  0  0  0  0  0  0  0  0  0  0
   -7.7749  -11.8970    3.9541 H   0  0  0  0  0  0  0  0  0  0  0  0
  -12.7235   -8.5291    9.7730 C   0  0  0  0  0  0  0  0  0  0  0  0
  -12.2225   -6.2816   10.7533 C   0  0  0  0  0  0  0  0  0  0  0  0
  -13.2003   -7.0425    9.8595 C   0  0  0  0  0  0  0  0  0  0  0  0
  -14.5135   -7.1666   10.6768 C   0  0  0  0  0  0  0  0  0  0  0  0
 32 33  1  0  0  0
 33 34  1  0  0  0
 33 31  1  0  0  0
 31 20  1  0  0  0
 20 21  1  0  0  0
 21 23  1  0  0  0
 23 24  2  0  0  0
 24 25  1  0  0  0
 25 26  2  0  0  0
 26 27  1  0  0  0
 26 28  1  0  0  0
 28 29  2  0  0  0
 20  1  1  0  0  0
  1  2  2  0  0  0
  1  3  1  0  0  0
  3  5  1  0  0  0
  5  6  2  0  0  0
  6  7  1  0  0  0
  7  8  2  0  0  0
  8  9  1  0  0  0
  8 10  1  0  0  0
 10 11  2  0  0  0
 11 12  1  0  0  0
 12 13  2  0  0  0
 13 14  1  0  0  0
 14 15  2  0  0  0
 13 16  1  0  0  0
 16 17  1  0  0  0
 16 18  1  0  0  0
 16 19  1  0  0  0
 29 23  1  0  0  0
  9  5  1  0  0  0
 15 10  1  0  0  0
 21 22  1  0  0  0
 27 30  1  0  0  0
  3  4  1  0  0  0
M  END
> <minimizedAffinity>
5.11111

> <CNNscore>
0.3929673433

> <CNNaffinity>
6.3191680908

> <CNN_VS>
2.4832267761

> <CNNaffinity_variance>
0.7853275537

$$$$
[H]Oc1c([H])c([H])c(N([H])[C@]([H])(C(=O)N([H])c2nnc(-c3c([H])c([H])c(C(F)(F)F)c([H])c3[H])s2)C([H])([H])C([H])(C([H])([H])[H])C([H])([H])[H])c([H])c1[H]


 34 36  0  0  0  0  0  0  0  0999 V2000
   -9.8996   -8.0644    6.7599 C   0  0  0  0  0  0  0  0  0  0  0  0
  -10.3127   -6.9601    7.0363 O   0  0  0  0  0  0  0  0  0  0  0  0
   -8.5913   -8.5457    6.9040 N   0  0  0  0  0  0  0  0  0  0  0  0
   -8.3541   -9.5388    6.6219 H   0  0  0  0  0  0  0  0  0  0  0  0
   -7.4794   -7.7642    7.3997 C   0  0  0  0  0  0  0  0  0  0  0  0
   -6.2109   -7.8602    6.9204 N   0  0  0  0  0  0  0  0  0  0  0  0
   -5.3263   -7.1310    7.4150 N   0  0  0  0  0  0  0  0  0  0  0  0
   -5.6123   -6.2760    8.3930 C   0  0  0  0  0  0  0  0  0  0  0  0
   -7.2784   -6.5813    8.5886 S   0  0  0  0  0  0  0  0  0  0  0  0
   -4.6525   -5.4363    9.1217 C   0  0  0  0  0  0  0  0  0  0  0  0
   -3.3861   -5.1681    8.6955 C   0  0  0  0  0  0  0  0  0  0  0  0
   -2.4848   -4.4582    9.5086 C   0  0  0  0  0  0  0  0  0  0  0  0
   -2.8724   -4.0125   10.7686 C   0  0  0  0  0  0  0  0  0  0  0  0
   -4.1489   -4.2765   11.1967 C   0  0  0  0  0  0  0  0  0  0  0  0
   -5.0074   -4.9663   10.3937 C   0  0  0  0  0  0  0  0  0  0  0  0
   -1.9547   -3.2701   11.6903 C   0  0  0  0  0  0  0  0  0  0  0  0
   -2.7260   -2.5313   12.6009 F   0  0  0  0  0  0  0  0  0  0  0  0
   -1.2617   -2.3485   10.9138 F   0  0  0  0  0  0  0  0  0  0  0  0
   -1.1089   -4.0997   12.3578 F   0  0  0  0  0  0  0  0  0  0  0  0
  -10.8970   -9.1203    6.1455 C   0  0  0  0  0  0  0  0  0  0  0  0
  -10.4842  -10.3440    6.8049 N   0  0  0  0  0  0  0  0  0  0  0  0
  -10.5602  -10.3062    7.8602 H   0  0  0  0  0  0  0  0  0  0  0  0
  -10.0100  -11.5174    6.1677 C   0  0  0  0  0  0  0  0  0  0  0  0
   -9.1209  -11.3199    5.1155 C   0  0  0  0  0  0  0  0  0  0  0  0
   -8.5690  -12.3707    4.4638 C   0  0  0  0  0  0  0  0  0  0  0  0
   -8.8749  -13.6737    4.8291 C   0  0  0  0  0  0  0  0  0  0  0  0
   -8.2493  -14.7120    4.0942 O   0  0  0  0  0  0  0  0  0  0  0  0
   -9.7464  -13.8479    5.8529 C   0  0  0  0  0  0  0  0  0  0  0  0
  -10.3246  -12.8008    6.5395 C   0  0  0  0  0  0  0  0  0  0  0  0
   -8.4572  -15.6601    4.3418 H   0  0  0  0  0  0  0  0  0  0  0  0
  -12.2258   -8.6055    6.5486 C   0  0  0  0  0  0  0  0  0  0  0  0
  -11.3046   -9.9649    8.4373 C   0  0  0  0  0  0  0  0  0  0  0  0
  -12.5293   -9.1794    7.9710 C   0  0  0  0  0  0  0  0  0  0  0  0
  -13.6232  -10.2383    7.6707 C   0  0  0  0  0  0  0  0  0  0  0  0
 32 33  1  0  0  0
 33 34  1  0  0  0
 33 31  1  0  0  0
 31 20  1  0  0  0
 20 21  1  0  0  0
 21 23  1  0  0  0
 23 24  2  0  0  0
 24 25  1  0  0  0
 25 26  2  0  0  0
 26 27  1  0  0  0
 26 28  1  0  0  0
 28 29  2  0  0  0
 20  1  1  0  0  0
  1  2  2  0  0  0
  1  3  1  0  0  0
  3  5  1  0  0  0
  5  6  2  0  0  0
  6  7  1  0  0  0
  7  8  2  0  0  0
  8  9  1  0  0  0
  8 10  1  0  0  0
 10 11  2  0  0  0
 11 12  1  0  0  0
 12 13  2  0  0  0
 13 14  1  0  0  0
 14 15  2  0  0  0
 13 16  1  0  0  0
 16 17  1  0  0  0
 16 18  1  0  0  0
 16 19  1  0  0  0
 29 23  1  0  0  0
  9  5  1  0  0  0
 15 10  1  0  0  0
 21 22  1  0  0  0
 27 30  1  0  0  0
  3  4  1  0  0  0
M  END
> <minimizedAffinity>
13.54572

> <CNNscore>
0.3555806875

> <CNNaffinity>
6.1735243797

> <CNN_VS>
2.1951861382

> <CNNaffinity_variance>
1.5790503025

$$$$
[H]Oc1c([H])c([H])c(N([H])[C@]([H])(C(=O)N([H])c2nnc(-c3c([H])c([H])c(C(F)(F)F)c([H])c3[H])s2)C([H])([H])C([H])(C([H])([H])[H])C([H])([H])[H])c([H])c1[H]


 34 36  0  0  0  0  0  0  0  0999 V2000
   -8.9875   -7.3393    7.4301 C   0  0  0  0  0  0  0  0  0  0  0  0
   -8.9794   -6.7187    6.3903 O   0  0  0  0  0  0  0  0  0  0  0  0
  -10.0232   -8.1336    7.9407 N   0  0  0  0  0  0  0  0  0  0  0  0
   -9.9076   -8.6279    8.8703 H   0  0  0  0  0  0  0  0  0  0  0  0
  -11.3041   -8.3252    7.2964 C   0  0  0  0  0  0  0  0  0  0  0  0
  -11.6717   -9.4712    6.6641 N   0  0  0  0  0  0  0  0  0  0  0  0
  -12.8067   -9.5336    6.1479 N   0  0  0  0  0  0  0  0  0  0  0  0
  -13.6442   -8.5020    6.2100 C   0  0  0  0  0  0  0  0  0  0  0  0
  -12.6887   -7.3839    7.0728 S   0  0  0  0  0  0  0  0  0  0  0  0
  -14.9613   -8.4117    5.5662 C   0  0  0  0  0  0  0  0  0  0  0  0
  -15.2063   -8.7384    4.2661 C   0  0  0  0  0  0  0  0  0  0  0  0
  -16.4669   -8.5068    3.6875 C   0  0  0  0  0  0  0  0  0  0  0  0
  -17.4930   -7.9390    4.4368 C   0  0  0  0  0  0  0  0  0  0  0  0
  -17.2498   -7.6150    5.7477 C   0  0  0  0  0  0  0  0  0  0  0  0
  -16.0210   -7.8472    6.2898 C   0  0  0  0  0  0  0  0  0  0  0  0
  -18.8502   -7.6480    3.8745 C   0  0  0  0  0  0  0  0  0  0  0  0
  -19.7729   -8.5508    4.4253 F   0  0  0  0  0  0  0  0  0  0  0  0
  -18.7896   -7.9199    2.5126 F   0  0  0  0  0  0  0  0  0  0  0  0
  -19.2463   -6.3693    4.1133 F   0  0  0  0  0  0  0  0  0  0  0  0
   -7.7230   -7.2696    8.3700 C   0  0  0  0  0  0  0  0  0  0  0  0
   -8.2986   -6.7995    9.6152 N   0  0  0  0  0  0  0  0  0  0  0  0
   -7.6596   -6.9162   10.4512 H   0  0  0  0  0  0  0  0  0  0  0  0
   -9.5862   -6.2308    9.7782 C   0  0  0  0  0  0  0  0  0  0  0  0
  -10.4148   -6.8591   10.7030 C   0  0  0  0  0  0  0  0  0  0  0  0
  -11.6501   -6.3747   10.9730 C   0  0  0  0  0  0  0  0  0  0  0  0
  -12.1224   -5.2369   10.3348 C   0  0  0  0  0  0  0  0  0  0  0  0
  -13.4256   -4.7992   10.6803 O   0  0  0  0  0  0  0  0  0  0  0  0
  -11.3040   -4.6403    9.4334 C   0  0  0  0  0  0  0  0  0  0  0  0
  -10.0401   -5.1054    9.1365 C   0  0  0  0  0  0  0  0  0  0  0  0
  -13.7856   -3.9798   10.2304 H   0  0  0  0  0  0  0  0  0  0  0  0
   -7.2379   -8.6687    8.3895 C   0  0  0  0  0  0  0  0  0  0  0  0
   -5.2153   -7.3381    7.7552 C   0  0  0  0  0  0  0  0  0  0  0  0
   -5.8904   -8.6995    7.5970 C   0  0  0  0  0  0  0  0  0  0  0  0
   -6.3774   -8.7627    6.1249 C   0  0  0  0  0  0  0  0  0  0  0  0
 32 33  1  0  0  0
 33 34  1  0  0  0
 33 31  1  0  0  0
 31 20  1  0  0  0
 20 21  1  0  0  0
 21 23  1  0  0  0
 23 24  2  0  0  0
 24 25  1  0  0  0
 25 26  2  0  0  0
 26 27  1  0  0  0
 26 28  1  0  0  0
 28 29  2  0  0  0
 20  1  1  0  0  0
  1  2  2  0  0  0
  1  3  1  0  0  0
  3  5  1  0  0  0
  5  6  2  0  0  0
  6  7  1  0  0  0
  7  8  2  0  0  0
  8  9  1  0  0  0
  8 10  1  0  0  0
 10 11  2  0  0  0
 11 12  1  0  0  0
 12 13  2  0  0  0
 13 14  1  0  0  0
 14 15  2  0  0  0
 13 16  1  0  0  0
 16 17  1  0  0  0
 16 18  1  0  0  0
 16 19  1  0  0  0
 29 23  1  0  0  0
  9  5  1  0  0  0
 15 10  1  0  0  0
 21 22  1  0  0  0
 27 30  1  0  0  0
  3  4  1  0  0  0
M  END
> <minimizedAffinity>
0.44522

> <CNNscore>
0.3457723558

> <CNNaffinity>
6.5353593826

> <CNN_VS>
2.2597465515

> <CNNaffinity_variance>
0.6648198366

$$$$
[H]Oc1c([H])c([H])c(N([H])[C@]([H])(C(=O)N([H])c2nnc(-c3c([H])c([H])c(C(F)(F)F)c([H])c3[H])s2)C([H])([H])C([H])(C([H])([H])[H])C([H])([H])[H])c([H])c1[H]


 34 36  0  0  0  0  0  0  0  0999 V2000
  -11.7917   -7.6644    7.3316 C   0  0  0  0  0  0  0  0  0  0  0  0
  -11.8172   -6.6045    7.9168 O   0  0  0  0  0  0  0  0  0  0  0  0
  -10.6750   -8.4737    7.0823 N   0  0  0  0  0  0  0  0  0  0  0  0
  -10.7840   -9.3850    6.5534 H   0  0  0  0  0  0  0  0  0  0  0  0
   -9.3215   -8.1482    7.4757 C   0  0  0  0  0  0  0  0  0  0  0  0
   -8.5136   -8.9852    8.1792 N   0  0  0  0  0  0  0  0  0  0  0  0
   -7.3572   -8.6073    8.4594 N   0  0  0  0  0  0  0  0  0  0  0  0
   -6.9184   -7.4097    8.0816 C   0  0  0  0  0  0  0  0  0  0  0  0
   -8.3003   -6.8174    7.2773 S   0  0  0  0  0  0  0  0  0  0  0  0
   -5.6226   -6.8102    8.4266 C   0  0  0  0  0  0  0  0  0  0  0  0
   -4.4264   -7.2163    7.9154 C   0  0  0  0  0  0  0  0  0  0  0  0
   -3.2172   -6.6762    8.3883 C   0  0  0  0  0  0  0  0  0  0  0  0
   -3.2205   -5.7107    9.3905 C   0  0  0  0  0  0  0  0  0  0  0  0
   -4.4243   -5.2963    9.9020 C   0  0  0  0  0  0  0  0  0  0  0  0
   -5.5853   -5.8323    9.4303 C   0  0  0  0  0  0  0  0  0  0  0  0
   -1.9678   -5.1116    9.9515 C   0  0  0  0  0  0  0  0  0  0  0  0
   -2.3070   -4.2698   11.0221 F   0  0  0  0  0  0  0  0  0  0  0  0
   -1.4296   -4.2996    8.9599 F   0  0  0  0  0  0  0  0  0  0  0  0
   -1.0805   -6.0568   10.3618 F   0  0  0  0  0  0  0  0  0  0  0  0
  -13.1353   -8.2431    6.7425 C   0  0  0  0  0  0  0  0  0  0  0  0
  -14.1107   -7.7898    7.7151 N   0  0  0  0  0  0  0  0  0  0  0  0
  -13.6878   -7.2587    8.5274 H   0  0  0  0  0  0  0  0  0  0  0  0
  -15.5105   -8.0017    7.6555 C   0  0  0  0  0  0  0  0  0  0  0  0
  -16.0604   -8.7255    8.7092 C   0  0  0  0  0  0  0  0  0  0  0  0
  -17.3941   -8.9491    8.7791 C   0  0  0  0  0  0  0  0  0  0  0  0
  -18.2488   -8.4606    7.8014 C   0  0  0  0  0  0  0  0  0  0  0  0
  -19.6299   -8.7397    7.9560 O   0  0  0  0  0  0  0  0  0  0  0  0
  -17.6957   -7.7618    6.7797 C   0  0  0  0  0  0  0  0  0  0  0  0
  -16.3428   -7.5139    6.6789 C   0  0  0  0  0  0  0  0  0  0  0  0
  -20.2639   -8.3964    7.2605 H   0  0  0  0  0  0  0  0  0  0  0  0
  -13.2270   -7.5989    5.4121 C   0  0  0  0  0  0  0  0  0  0  0  0
  -14.9621   -8.3425    3.7690 C   0  0  0  0  0  0  0  0  0  0  0  0
  -13.6151   -8.7138    4.3869 C   0  0  0  0  0  0  0  0  0  0  0  0
  -13.8935   -9.9277    5.3127 C   0  0  0  0  0  0  0  0  0  0  0  0
 32 33  1  0  0  0
 33 34  1  0  0  0
 33 31  1  0  0  0
 31 20  1  0  0  0
 20 21  1  0  0  0
 21 23  1  0  0  0
 23 24  2  0  0  0
 24 25  1  0  0  0
 25 26  2  0  0  0
 26 27  1  0  0  0
 26 28  1  0  0  0
 28 29  2  0  0  0
 20  1  1  0  0  0
  1  2  2  0  0  0
  1  3  1  0  0  0
  3  5  1  0  0  0
  5  6  2  0  0  0
  6  7  1  0  0  0
  7  8  2  0  0  0
  8  9  1  0  0  0
  8 10  1  0  0  0
 10 11  2  0  0  0
 11 12  1  0  0  0
 12 13  2  0  0  0
 13 14  1  0  0  0
 14 15  2  0  0  0
 13 16  1  0  0  0
 16 17  1  0  0  0
 16 18  1  0  0  0
 16 19  1  0  0  0
 29 23  1  0  0  0
  9  5  1  0  0  0
 15 10  1  0  0  0
 21 22  1  0  0  0
 27 30  1  0  0  0
  3  4  1  0  0  0
M  END
> <minimizedAffinity>
0.54163

> <CNNscore>
0.3318534493

> <CNNaffinity>
6.5002174377

> <CNN_VS>
2.1571195126

> <CNNaffinity_variance>
1.1642376184

$$$$
[H]c1c([H])c([H])c(C(F)(F)C(=O)N([H])c2c([H])c([H])c([N+](=O)[O-])c([H])c2[H])c(N([H])c2c([H])c([H])c(Cl)c(Cl)c2[H])c1[H]


 32 34  0  0  0  0  0  0  0  0999 V2000
  -11.5503   -8.5935    7.7456 C   0  0  0  0  0  0  0  0  0  0  0  0
  -11.8071   -9.8208    8.3966 F   0  0  0  0  0  0  0  0  0  0  0  0
  -12.1449   -8.6223    6.5211 F   0  0  0  0  0  0  0  0  0  0  0  0
  -11.9976   -7.5483    8.6586 C   0  0  0  0  0  0  0  0  0  0  0  0
  -11.0579   -6.8586    9.3863 C   0  0  0  0  0  0  0  0  0  0  0  0
  -11.4185   -5.8436   10.2666 C   0  0  0  0  0  0  0  0  0  0  0  0
  -12.7397   -5.5033   10.4305 C   0  0  0  0  0  0  0  0  0  0  0  0
  -13.6933   -6.1878    9.7058 C   0  0  0  0  0  0  0  0  0  0  0  0
  -13.3518   -7.2119    8.8135 C   0  0  0  0  0  0  0  0  0  0  0  0
  -14.3194   -7.9257    8.1033 N   0  0  0  0  0  0  0  0  0  0  0  0
  -14.4585   -8.9372    8.2776 H   0  0  0  0  0  0  0  0  0  0  0  0
  -15.1573   -7.3600    7.1328 C   0  0  0  0  0  0  0  0  0  0  0  0
  -16.4587   -7.6939    6.8570 C   0  0  0  0  0  0  0  0  0  0  0  0
  -17.2024   -7.0945    5.8666 C   0  0  0  0  0  0  0  0  0  0  0  0
  -16.6584   -6.1039    5.0865 C   0  0  0  0  0  0  0  0  0  0  0  0
  -17.5838   -5.3161    3.8102 Cl  0  0  0  0  0  0  0  0  0  0  0  0
  -15.3552   -5.7431    5.3361 C   0  0  0  0  0  0  0  0  0  0  0  0
  -14.6612   -4.4742    4.3363 Cl  0  0  0  0  0  0  0  0  0  0  0  0
  -14.6302   -6.3431    6.3174 C   0  0  0  0  0  0  0  0  0  0  0  0
   -9.2965   -7.4628    7.3888 N   0  0  0  0  0  0  0  0  0  0  0  0
  -10.0592   -8.6334    7.5404 C   0  0  0  0  0  0  0  0  0  0  0  0
   -9.5364   -9.7558    7.5156 O   0  0  0  0  0  0  0  0  0  0  0  0
   -9.8923   -6.5632    7.4326 H   0  0  0  0  0  0  0  0  0  0  0  0
   -5.1853   -6.9192    6.6176 C   0  0  0  0  0  0  0  0  0  0  0  0
   -6.1344   -6.6176    5.6921 C   0  0  0  0  0  0  0  0  0  0  0  0
   -7.4707   -6.8056    5.9721 C   0  0  0  0  0  0  0  0  0  0  0  0
   -7.9292   -7.3071    7.1972 C   0  0  0  0  0  0  0  0  0  0  0  0
   -6.9479   -7.6024    8.1113 C   0  0  0  0  0  0  0  0  0  0  0  0
   -5.5902   -7.4119    7.8279 C   0  0  0  0  0  0  0  0  0  0  0  0
   -2.8242   -7.4969    6.9114 O   0  0  0  0  0  0  0  0  0  0  0  0
   -3.7952   -6.7245    6.3286 N   0  0  0  0  0  0  0  0  0  0  0  0
   -3.4303   -5.8385    5.5319 O   0  0  0  0  0  0  0  0  0  0  0  0
 30 31  1  0  0  0
 31 32  2  0  0  0
 31 24  1  0  0  0
 24 25  2  0  0  0
 25 26  1  0  0  0
 26 27  2  0  0  0
 27 20  1  0  0  0
 20 21  1  0  0  0
 21 22  2  0  0  0
 21  1  1  0  0  0
  1  2  1  0  0  0
  1  3  1  0  0  0
  1  4  1  0  0  0
  4  5  2  0  0  0
  5  6  1  0  0  0
  6  7  2  0  0  0
  7  8  1  0  0  0
  8  9  2  0  0  0
  9 10  1  0  0  0
 10 12  1  0  0  0
 12 13  2  0  0  0
 13 14  1  0  0  0
 14 15  2  0  0  0
 15 16  1  0  0  0
 15 17  1  0  0  0
 17 18  1  0  0  0
 17 19  2  0  0  0
 27 28  1  0  0  0
 28 29  2  0  0  0
 29 24  1  0  0  0
  9  4  1  0  0  0
 19 12  1  0  0  0
 20 23  1  0  0  0
 10 11  1  0  0  0
M  CHG 1  30  -1
M  CHG 1  31   1
M  END
> <minimizedAffinity>
-10.69542

> <CNNscore>
0.7541323900

> <CNNaffinity>
7.6970472336

> <CNN_VS>
5.8045926094

> <CNNaffinity_variance>
0.1070255265

$$$$
[H]c1c([H])c([H])c(C(F)(F)C(=O)N([H])c2c([H])c([H])c([N+](=O)[O-])c([H])c2[H])c(N([H])c2c([H])c([H])c(Cl)c(Cl)c2[H])c1[H]


 32 34  0  0  0  0  0  0  0  0999 V2000
  -11.5850   -8.5696    7.8000 C   0  0  0  0  0  0  0  0  0  0  0  0
  -11.8468   -9.7871    8.4675 F   0  0  0  0  0  0  0  0  0  0  0  0
  -12.1981   -8.6038    6.5847 F   0  0  0  0  0  0  0  0  0  0  0  0
  -12.0060   -7.5097    8.7085 C   0  0  0  0  0  0  0  0  0  0  0  0
  -11.0476   -6.8273    9.4184 C   0  0  0  0  0  0  0  0  0  0  0  0
  -11.3827   -5.7991   10.2935 C   0  0  0  0  0  0  0  0  0  0  0  0
  -12.6967   -5.4381   10.4701 C   0  0  0  0  0  0  0  0  0  0  0  0
  -13.6689   -6.1152    9.7634 C   0  0  0  0  0  0  0  0  0  0  0  0
  -13.3532   -7.1523    8.8766 C   0  0  0  0  0  0  0  0  0  0  0  0
  -14.3396   -7.8584    8.1847 N   0  0  0  0  0  0  0  0  0  0  0  0
  -14.6541   -8.7862    8.5209 H   0  0  0  0  0  0  0  0  0  0  0  0
  -14.9693   -7.3925    7.0227 C   0  0  0  0  0  0  0  0  0  0  0  0
  -14.6245   -6.3007    6.2675 C   0  0  0  0  0  0  0  0  0  0  0  0
  -15.3166   -5.9045    5.1461 C   0  0  0  0  0  0  0  0  0  0  0  0
  -16.4169   -6.6066    4.7194 C   0  0  0  0  0  0  0  0  0  0  0  0
  -17.3250   -6.1257    3.2876 Cl  0  0  0  0  0  0  0  0  0  0  0  0
  -16.7908   -7.7080    5.4528 C   0  0  0  0  0  0  0  0  0  0  0  0
  -18.1996   -8.6055    4.9041 Cl  0  0  0  0  0  0  0  0  0  0  0  0
  -16.0991   -8.0895    6.5595 C   0  0  0  0  0  0  0  0  0  0  0  0
   -9.3192   -7.4694    7.4245 N   0  0  0  0  0  0  0  0  0  0  0  0
  -10.0977   -8.6299    7.5731 C   0  0  0  0  0  0  0  0  0  0  0  0
   -9.5927   -9.7598    7.5278 O   0  0  0  0  0  0  0  0  0  0  0  0
   -9.9003   -6.5614    7.4871 H   0  0  0  0  0  0  0  0  0  0  0  0
   -5.2111   -6.9847    6.5993 C   0  0  0  0  0  0  0  0  0  0  0  0
   -6.1672   -6.6855    5.6803 C   0  0  0  0  0  0  0  0  0  0  0  0
   -7.5022   -6.8539    5.9779 C   0  0  0  0  0  0  0  0  0  0  0  0
   -7.9524   -7.3323    7.2153 C   0  0  0  0  0  0  0  0  0  0  0  0
   -6.9643   -7.6258    8.1226 C   0  0  0  0  0  0  0  0  0  0  0  0
   -5.6078   -7.4552    7.8212 C   0  0  0  0  0  0  0  0  0  0  0  0
   -3.3783   -5.7507    5.5442 O   0  0  0  0  0  0  0  0  0  0  0  0
   -3.8222   -6.8104    6.2921 N   0  0  0  0  0  0  0  0  0  0  0  0
   -2.9740   -7.6265    6.7012 O   0  0  0  0  0  0  0  0  0  0  0  0
 30 31  1  0  0  0
 31 32  2  0  0  0
 31 24  1  0  0  0
 24 25  2  0  0  0
 25 26  1  0  0  0
 26 27  2  0  0  0
 27 20  1  0  0  0
 20 21  1  0  0  0
 21 22  2  0  0  0
 21  1  1  0  0  0
  1  2  1  0  0  0
  1  3  1  0  0  0
  1  4  1  0  0  0
  4  5  2  0  0  0
  5  6  1  0  0  0
  6  7  2  0  0  0
  7  8  1  0  0  0
  8  9  2  0  0  0
  9 10  1  0  0  0
 10 12  1  0  0  0
 12 13  2  0  0  0
 13 14  1  0  0  0
 14 15  2  0  0  0
 15 16  1  0  0  0
 15 17  1  0  0  0
 17 18  1  0  0  0
 17 19  2  0  0  0
 27 28  1  0  0  0
 28 29  2  0  0  0
 29 24  1  0  0  0
  9  4  1  0  0  0
 19 12  1  0  0  0
 20 23  1  0  0  0
 10 11  1  0  0  0
M  CHG 1  30  -1
M  CHG 1  31   1
M  END
> <minimizedAffinity>
-10.57372

> <CNNscore>
0.6536406875

> <CNNaffinity>
7.4699225426

> <CNN_VS>
4.8826451302

> <CNNaffinity_variance>
0.1297242343

$$$$
[H]c1c([H])c([H])c(C(F)(F)C(=O)N([H])c2c([H])c([H])c([N+](=O)[O-])c([H])c2[H])c(N([H])c2c([H])c([H])c(Cl)c(Cl)c2[H])c1[H]


 32 34  0  0  0  0  0  0  0  0999 V2000
  -11.6420   -8.6618    7.6768 C   0  0  0  0  0  0  0  0  0  0  0  0
  -12.0735   -9.8587    8.2911 F   0  0  0  0  0  0  0  0  0  0  0  0
  -12.1861   -8.5964    6.4304 F   0  0  0  0  0  0  0  0  0  0  0  0
  -11.9935   -7.5847    8.5946 C   0  0  0  0  0  0  0  0  0  0  0  0
  -10.9873   -6.9313    9.2644 C   0  0  0  0  0  0  0  0  0  0  0  0
  -11.2554   -5.8889   10.1458 C   0  0  0  0  0  0  0  0  0  0  0  0
  -12.5493   -5.4839   10.3694 C   0  0  0  0  0  0  0  0  0  0  0  0
  -13.5691   -6.1315    9.7031 C   0  0  0  0  0  0  0  0  0  0  0  0
  -13.3210   -7.1822    8.8109 C   0  0  0  0  0  0  0  0  0  0  0  0
  -14.3553   -7.8583    8.1602 N   0  0  0  0  0  0  0  0  0  0  0  0
  -14.7047   -8.7614    8.5277 H   0  0  0  0  0  0  0  0  0  0  0  0
  -14.9899   -7.3928    7.0007 C   0  0  0  0  0  0  0  0  0  0  0  0
  -14.6471   -6.3026    6.2424 C   0  0  0  0  0  0  0  0  0  0  0  0
  -15.3440   -5.9066    5.1240 C   0  0  0  0  0  0  0  0  0  0  0  0
  -16.4476   -6.6073    4.7035 C   0  0  0  0  0  0  0  0  0  0  0  0
  -17.3619   -6.1267    3.2756 Cl  0  0  0  0  0  0  0  0  0  0  0  0
  -16.8197   -7.7072    5.4402 C   0  0  0  0  0  0  0  0  0  0  0  0
  -18.2327   -8.6030    4.8995 Cl  0  0  0  0  0  0  0  0  0  0  0  0
  -16.1232   -8.0885    6.5439 C   0  0  0  0  0  0  0  0  0  0  0  0
   -9.2603   -7.8147    7.3683 N   0  0  0  0  0  0  0  0  0  0  0  0
  -10.1600   -8.8825    7.5271 C   0  0  0  0  0  0  0  0  0  0  0  0
   -9.7726  -10.0584    7.5548 O   0  0  0  0  0  0  0  0  0  0  0  0
   -9.7470   -6.8507    7.3634 H   0  0  0  0  0  0  0  0  0  0  0  0
   -5.0502   -7.7672    7.1120 C   0  0  0  0  0  0  0  0  0  0  0  0
   -5.7067   -7.3139    8.2128 C   0  0  0  0  0  0  0  0  0  0  0  0
   -7.0835   -7.3416    8.2685 C   0  0  0  0  0  0  0  0  0  0  0  0
   -7.8786   -7.8262    7.2218 C   0  0  0  0  0  0  0  0  0  0  0  0
   -7.1877   -8.2769    6.1239 C   0  0  0  0  0  0  0  0  0  0  0  0
   -5.7892   -8.2490    6.0664 C   0  0  0  0  0  0  0  0  0  0  0  0
   -2.8863   -6.8251    7.7641 O   0  0  0  0  0  0  0  0  0  0  0  0
   -3.6187   -7.7393    7.0520 N   0  0  0  0  0  0  0  0  0  0  0  0
   -2.9969   -8.5541    6.3431 O   0  0  0  0  0  0  0  0  0  0  0  0
 30 31  1  0  0  0
 31 32  2  0  0  0
 31 24  1  0  0  0
 24 25  2  0  0  0
 25 26  1  0  0  0
 26 27  2  0  0  0
 27 20  1  0  0  0
 20 21  1  0  0  0
 21 22  2  0  0  0
 21  1  1  0  0  0
  1  2  1  0  0  0
  1  3  1  0  0  0
  1  4  1  0  0  0
  4  5  2  0  0  0
  5  6  1  0  0  0
  6  7  2  0  0  0
  7  8  1  0  0  0
  8  9  2  0  0  0
  9 10  1  0  0  0
 10 12  1  0  0  0
 12 13  2  0  0  0
 13 14  1  0  0  0
 14 15  2  0  0  0
 15 16  1  0  0  0
 15 17  1  0  0  0
 17 18  1  0  0  0
 17 19  2  0  0  0
 27 28  1  0  0  0
 28 29  2  0  0  0
 29 24  1  0  0  0
  9  4  1  0  0  0
 19 12  1  0  0  0
 20 23  1  0  0  0
 10 11  1  0  0  0
M  CHG 1  30  -1
M  CHG 1  31   1
M  END
> <minimizedAffinity>
-10.51591

> <CNNscore>
0.5834879279

> <CNNaffinity>
7.2801446915

> <CNN_VS>
4.2478766441

> <CNNaffinity_variance>
0.1118958741

$$$$
[H]c1c([H])c([H])c(C(F)(F)C(=O)N([H])c2c([H])c([H])c([N+](=O)[O-])c([H])c2[H])c(N([H])c2c([H])c([H])c(Cl)c(Cl)c2[H])c1[H]


 32 34  0  0  0  0  0  0  0  0999 V2000
  -12.9360   -6.6281    9.9824 C   0  0  0  0  0  0  0  0  0  0  0  0
  -13.5540   -5.5274    9.3477 F   0  0  0  0  0  0  0  0  0  0  0  0
  -13.7721   -7.0919   10.9518 F   0  0  0  0  0  0  0  0  0  0  0  0
  -12.5903   -7.5668    8.9215 C   0  0  0  0  0  0  0  0  0  0  0  0
  -11.3603   -8.1788    8.9544 C   0  0  0  0  0  0  0  0  0  0  0  0
  -10.9738   -9.0914    7.9782 C   0  0  0  0  0  0  0  0  0  0  0  0
  -11.8242   -9.4056    6.9456 C   0  0  0  0  0  0  0  0  0  0  0  0
  -13.0622   -8.7984    6.9008 C   0  0  0  0  0  0  0  0  0  0  0  0
  -13.4714   -7.8780    7.8739 C   0  0  0  0  0  0  0  0  0  0  0  0
  -14.7122   -7.2399    7.8114 N   0  0  0  0  0  0  0  0  0  0  0  0
  -15.1484   -6.8559    8.6687 H   0  0  0  0  0  0  0  0  0  0  0  0
  -15.4468   -7.0661    6.6308 C   0  0  0  0  0  0  0  0  0  0  0  0
  -15.2501   -6.1200    5.6574 C   0  0  0  0  0  0  0  0  0  0  0  0
  -16.0378   -6.0113    4.5345 C   0  0  0  0  0  0  0  0  0  0  0  0
  -17.0882   -6.8723    4.3315 C   0  0  0  0  0  0  0  0  0  0  0  0
  -18.1159   -6.7599    2.9043 Cl  0  0  0  0  0  0  0  0  0  0  0  0
  -17.3142   -7.8344    5.2875 C   0  0  0  0  0  0  0  0  0  0  0  0
  -18.6593   -8.9358    5.0249 Cl  0  0  0  0  0  0  0  0  0  0  0  0
  -16.5290   -7.9317    6.3933 C   0  0  0  0  0  0  0  0  0  0  0  0
  -11.5165   -6.1264   12.0363 N   0  0  0  0  0  0  0  0  0  0  0  0
  -11.7466   -5.9966   10.6560 C   0  0  0  0  0  0  0  0  0  0  0  0
  -10.9761   -5.3571    9.9273 O   0  0  0  0  0  0  0  0  0  0  0  0
  -12.2739   -6.7115   12.5365 H   0  0  0  0  0  0  0  0  0  0  0  0
   -8.2531   -4.7142   14.3053 C   0  0  0  0  0  0  0  0  0  0  0  0
   -8.0881   -5.5964   13.2841 C   0  0  0  0  0  0  0  0  0  0  0  0
   -9.1732   -6.0407   12.5598 C   0  0  0  0  0  0  0  0  0  0  0  0
  -10.4852   -5.6240   12.8202 C   0  0  0  0  0  0  0  0  0  0  0  0
  -10.6202   -4.7335   13.8567 C   0  0  0  0  0  0  0  0  0  0  0  0
   -9.5187   -4.2817   14.5931 C   0  0  0  0  0  0  0  0  0  0  0  0
   -6.8701   -2.9142   15.2229 O   0  0  0  0  0  0  0  0  0  0  0  0
   -7.1263   -4.2509   15.0598 N   0  0  0  0  0  0  0  0  0  0  0  0
   -6.3425   -5.0603   15.5923 O   0  0  0  0  0  0  0  0  0  0  0  0
 30 31  1  0  0  0
 31 32  2  0  0  0
 31 24  1  0  0  0
 24 25  2  0  0  0
 25 26  1  0  0  0
 26 27  2  0  0  0
 27 20  1  0  0  0
 20 21  1  0  0  0
 21 22  2  0  0  0
 21  1  1  0  0  0
  1  2  1  0  0  0
  1  3  1  0  0  0
  1  4  1  0  0  0
  4  5  2  0  0  0
  5  6  1  0  0  0
  6  7  2  0  0  0
  7  8  1  0  0  0
  8  9  2  0  0  0
  9 10  1  0  0  0
 10 12  1  0  0  0
 12 13  2  0  0  0
 13 14  1  0  0  0
 14 15  2  0  0  0
 15 16  1  0  0  0
 15 17  1  0  0  0
 17 18  1  0  0  0
 17 19  2  0  0  0
 27 28  1  0  0  0
 28 29  2  0  0  0
 29 24  1  0  0  0
  9  4  1  0  0  0
 19 12  1  0  0  0
 20 23  1  0  0  0
 10 11  1  0  0  0
M  CHG 1  30  -1
M  CHG 1  31   1
M  END
> <minimizedAffinity>
0.12358

> <CNNscore>
0.5211122632

> <CNNaffinity>
6.6659040451

> <CNN_VS>
3.4736843109

> <CNNaffinity_variance>
0.1857183129

$$$$
[H]c1c([H])c([H])c(C(F)(F)C(=O)N([H])c2c([H])c([H])c([N+](=O)[O-])c([H])c2[H])c(N([H])c2c([H])c([H])c(Cl)c(Cl)c2[H])c1[H]


 32 34  0  0  0  0  0  0  0  0999 V2000
  -11.8302   -5.8779   10.8045 C   0  0  0  0  0  0  0  0  0  0  0  0
  -11.9112   -4.7467    9.9618 F   0  0  0  0  0  0  0  0  0  0  0  0
  -12.5589   -5.6316   11.9280 F   0  0  0  0  0  0  0  0  0  0  0  0
  -12.2499   -7.0169    9.9967 C   0  0  0  0  0  0  0  0  0  0  0  0
  -13.2098   -7.8642   10.4957 C   0  0  0  0  0  0  0  0  0  0  0  0
  -13.6607   -8.9626    9.7708 C   0  0  0  0  0  0  0  0  0  0  0  0
  -13.1497   -9.2286    8.5233 C   0  0  0  0  0  0  0  0  0  0  0  0
  -12.1854   -8.3858    8.0105 C   0  0  0  0  0  0  0  0  0  0  0  0
  -11.7185   -7.2740    8.7230 C   0  0  0  0  0  0  0  0  0  0  0  0
  -10.7201   -6.4388    8.2171 N   0  0  0  0  0  0  0  0  0  0  0  0
  -10.8422   -5.4103    8.2257 H   0  0  0  0  0  0  0  0  0  0  0  0
   -9.5113   -6.8983    7.6773 C   0  0  0  0  0  0  0  0  0  0  0  0
   -8.6824   -6.2387    6.8060 C   0  0  0  0  0  0  0  0  0  0  0  0
   -7.5180   -6.7788    6.3102 C   0  0  0  0  0  0  0  0  0  0  0  0
   -7.1211   -8.0411    6.6776 C   0  0  0  0  0  0  0  0  0  0  0  0
   -5.6357   -8.7616    6.0608 Cl  0  0  0  0  0  0  0  0  0  0  0  0
   -7.9283   -8.7314    7.5509 C   0  0  0  0  0  0  0  0  0  0  0  0
   -7.4176  -10.3470    8.0200 Cl  0  0  0  0  0  0  0  0  0  0  0  0
   -9.0769   -8.1872    8.0338 C   0  0  0  0  0  0  0  0  0  0  0  0
   -9.9451   -5.6130   12.4961 N   0  0  0  0  0  0  0  0  0  0  0  0
  -10.3746   -5.9003   11.1892 C   0  0  0  0  0  0  0  0  0  0  0  0
   -9.5720   -6.1899   10.2916 O   0  0  0  0  0  0  0  0  0  0  0  0
  -10.7595   -5.3788   13.1654 H   0  0  0  0  0  0  0  0  0  0  0  0
   -5.9847   -5.6456   13.9477 C   0  0  0  0  0  0  0  0  0  0  0  0
   -6.3193   -6.2248   12.7642 C   0  0  0  0  0  0  0  0  0  0  0  0
   -7.6219   -6.1987   12.3148 C   0  0  0  0  0  0  0  0  0  0  0  0
   -8.6620   -5.5893   13.0288 C   0  0  0  0  0  0  0  0  0  0  0  0
   -8.2936   -5.0131   14.2196 C   0  0  0  0  0  0  0  0  0  0  0  0
   -6.9707   -5.0392   14.6769 C   0  0  0  0  0  0  0  0  0  0  0  0
   -3.9373   -4.5181   14.6770 O   0  0  0  0  0  0  0  0  0  0  0  0
   -4.6308   -5.6715   14.4169 N   0  0  0  0  0  0  0  0  0  0  0  0
   -4.0436   -6.7550   14.6021 O   0  0  0  0  0  0  0  0  0  0  0  0
 30 31  1  0  0  0
 31 32  2  0  0  0
 31 24  1  0  0  0
 24 25  2  0  0  0
 25 26  1  0  0  0
 26 27  2  0  0  0
 27 20  1  0  0  0
 20 21  1  0  0  0
 21 22  2  0  0  0
 21  1  1  0  0  0
  1  2  1  0  0  0
  1  3  1  0  0  0
  1  4  1  0  0  0
  4  5  2  0  0  0
  5  6  1  0  0  0
  6  7  2  0  0  0
  7  8  1  0  0  0
  8  9  2  0  0  0
  9 10  1  0  0  0
 10 12  1  0  0  0
 12 13  2  0  0  0
 13 14  1  0  0  0
 14 15  2  0  0  0
 15 16  1  0  0  0
 15 17  1  0  0  0
 17 18  1  0  0  0
 17 19  2  0  0  0
 27 28  1  0  0  0
 28 29  2  0  0  0
 29 24  1  0  0  0
  9  4  1  0  0  0
 19 12  1  0  0  0
 20 23  1  0  0  0
 10 11  1  0  0  0
M  CHG 1  30  -1
M  CHG 1  31   1
M  END
> <minimizedAffinity>
2.09720

> <CNNscore>
0.5088128448

> <CNNaffinity>
6.5225639343

> <CNN_VS>
3.3187642097

> <CNNaffinity_variance>
0.2847506404

$$$$
[H]c1c([H])c([H])c(C(F)(F)C(=O)N([H])c2c([H])c([H])c([N+](=O)[O-])c([H])c2[H])c(N([H])c2c([H])c([H])c(Cl)c(Cl)c2[H])c1[H]


 32 34  0  0  0  0  0  0  0  0999 V2000
  -10.9680   -8.1251    7.8437 C   0  0  0  0  0  0  0  0  0  0  0  0
  -10.7226   -9.3071    8.5778 F   0  0  0  0  0  0  0  0  0  0  0  0
  -11.5561   -8.4649    6.6636 F   0  0  0  0  0  0  0  0  0  0  0  0
  -11.7372   -7.2531    8.7235 C   0  0  0  0  0  0  0  0  0  0  0  0
  -11.0669   -6.4849    9.6447 C   0  0  0  0  0  0  0  0  0  0  0  0
  -11.7411   -5.6253   10.5059 C   0  0  0  0  0  0  0  0  0  0  0  0
  -13.1105   -5.5236   10.4541 C   0  0  0  0  0  0  0  0  0  0  0  0
  -13.7958   -6.2893    9.5336 C   0  0  0  0  0  0  0  0  0  0  0  0
  -13.1364   -7.1599    8.6568 C   0  0  0  0  0  0  0  0  0  0  0  0
  -13.8324   -7.9580    7.7463 N   0  0  0  0  0  0  0  0  0  0  0  0
  -13.7911   -8.9907    7.8151 H   0  0  0  0  0  0  0  0  0  0  0  0
  -14.6198   -7.4539    6.7023 C   0  0  0  0  0  0  0  0  0  0  0  0
  -14.3998   -6.3188    5.9647 C   0  0  0  0  0  0  0  0  0  0  0  0
  -15.2423   -5.8878    4.9657 C   0  0  0  0  0  0  0  0  0  0  0  0
  -16.3755   -6.5974    4.6524 C   0  0  0  0  0  0  0  0  0  0  0  0
  -17.4748   -6.0727    3.3789 Cl  0  0  0  0  0  0  0  0  0  0  0  0
  -16.6270   -7.7419    5.3719 C   0  0  0  0  0  0  0  0  0  0  0  0
  -18.0782   -8.6488    4.9685 Cl  0  0  0  0  0  0  0  0  0  0  0  0
  -15.7871   -8.1575    6.3571 C   0  0  0  0  0  0  0  0  0  0  0  0
   -8.4321   -8.3395    7.9344 N   0  0  0  0  0  0  0  0  0  0  0  0
   -9.5789   -7.6265    7.5453 C   0  0  0  0  0  0  0  0  0  0  0  0
   -9.4986   -6.5529    6.9333 O   0  0  0  0  0  0  0  0  0  0  0  0
   -8.6628   -9.2549    8.4587 H   0  0  0  0  0  0  0  0  0  0  0  0
   -4.3545   -7.5548    7.1927 C   0  0  0  0  0  0  0  0  0  0  0  0
   -5.0830   -8.3789    6.3936 C   0  0  0  0  0  0  0  0  0  0  0  0
   -6.4140   -8.6169    6.6604 C   0  0  0  0  0  0  0  0  0  0  0  0
   -7.0885   -8.0407    7.7448 C   0  0  0  0  0  0  0  0  0  0  0  0
   -6.3270   -7.2136    8.5334 C   0  0  0  0  0  0  0  0  0  0  0  0
   -4.9749   -6.9713    8.2632 C   0  0  0  0  0  0  0  0  0  0  0  0
   -2.5769   -6.4955    5.8839 O   0  0  0  0  0  0  0  0  0  0  0  0
   -2.9704   -7.3059    6.9171 N   0  0  0  0  0  0  0  0  0  0  0  0
   -2.0801   -7.8255    7.6173 O   0  0  0  0  0  0  0  0  0  0  0  0
 30 31  1  0  0  0
 31 32  2  0  0  0
 31 24  1  0  0  0
 24 25  2  0  0  0
 25 26  1  0  0  0
 26 27  2  0  0  0
 27 20  1  0  0  0
 20 21  1  0  0  0
 21 22  2  0  0  0
 21  1  1  0  0  0
  1  2  1  0  0  0
  1  3  1  0  0  0
  1  4  1  0  0  0
  4  5  2  0  0  0
  5  6  1  0  0  0
  6  7  2  0  0  0
  7  8  1  0  0  0
  8  9  2  0  0  0
  9 10  1  0  0  0
 10 12  1  0  0  0
 12 13  2  0  0  0
 13 14  1  0  0  0
 14 15  2  0  0  0
 15 16  1  0  0  0
 15 17  1  0  0  0
 17 18  1  0  0  0
 17 19  2  0  0  0
 27 28  1  0  0  0
 28 29  2  0  0  0
 29 24  1  0  0  0
  9  4  1  0  0  0
 19 12  1  0  0  0
 20 23  1  0  0  0
 10 11  1  0  0  0
M  CHG 1  30  -1
M  CHG 1  31   1
M  END
> <minimizedAffinity>
-9.69433

> <CNNscore>
0.5015030503

> <CNNaffinity>
7.0592660904

> <CNN_VS>
3.5402433872

> <CNNaffinity_variance>
0.1850622147

$$$$
[H]c1c([H])c([H])c(C(F)(F)C(=O)N([H])c2c([H])c([H])c([N+](=O)[O-])c([H])c2[H])c(N([H])c2c([H])c([H])c(Cl)c(Cl)c2[H])c1[H]


 32 34  0  0  0  0  0  0  0  0999 V2000
  -10.2304   -6.2102    8.0822 C   0  0  0  0  0  0  0  0  0  0  0  0
  -10.9308   -5.4192    7.1441 F   0  0  0  0  0  0  0  0  0  0  0  0
  -10.2204   -5.5554    9.2760 F   0  0  0  0  0  0  0  0  0  0  0  0
  -10.8706   -7.5202    8.0671 C   0  0  0  0  0  0  0  0  0  0  0  0
  -10.1672   -8.5947    7.5785 C   0  0  0  0  0  0  0  0  0  0  0  0
  -10.7171   -9.8722    7.5460 C   0  0  0  0  0  0  0  0  0  0  0  0
  -11.9927  -10.0911    8.0077 C   0  0  0  0  0  0  0  0  0  0  0  0
  -12.7098   -9.0208    8.5011 C   0  0  0  0  0  0  0  0  0  0  0  0
  -12.1747   -7.7272    8.5440 C   0  0  0  0  0  0  0  0  0  0  0  0
  -12.9118   -6.6383    9.0145 N   0  0  0  0  0  0  0  0  0  0  0  0
  -13.6918   -6.2511    8.4538 H   0  0  0  0  0  0  0  0  0  0  0  0
  -12.6741   -5.9999   10.2392 C   0  0  0  0  0  0  0  0  0  0  0  0
  -13.3535   -4.9331   10.7696 C   0  0  0  0  0  0  0  0  0  0  0  0
  -13.0358   -4.3556   11.9774 C   0  0  0  0  0  0  0  0  0  0  0  0
  -11.9926   -4.8371   12.7295 C   0  0  0  0  0  0  0  0  0  0  0  0
  -11.5600   -4.1203   14.2803 Cl  0  0  0  0  0  0  0  0  0  0  0  0
  -11.2895   -5.9072   12.2282 C   0  0  0  0  0  0  0  0  0  0  0  0
   -9.9546   -6.5220   13.1932 Cl  0  0  0  0  0  0  0  0  0  0  0  0
  -11.6127   -6.4691   11.0330 C   0  0  0  0  0  0  0  0  0  0  0  0
   -7.9024   -7.2161    7.8511 N   0  0  0  0  0  0  0  0  0  0  0  0
   -8.8270   -6.2056    7.5367 C   0  0  0  0  0  0  0  0  0  0  0  0
   -8.5292   -5.2632    6.7903 O   0  0  0  0  0  0  0  0  0  0  0  0
   -8.3079   -7.9675    8.5121 H   0  0  0  0  0  0  0  0  0  0  0  0
   -3.8705   -7.5040    6.6454 C   0  0  0  0  0  0  0  0  0  0  0  0
   -4.4196   -6.3232    7.0357 C   0  0  0  0  0  0  0  0  0  0  0  0
   -5.7402   -6.2591    7.4247 C   0  0  0  0  0  0  0  0  0  0  0  0
   -6.5839   -7.3774    7.4435 C   0  0  0  0  0  0  0  0  0  0  0  0
   -6.0014   -8.5551    7.0442 C   0  0  0  0  0  0  0  0  0  0  0  0
   -4.6601   -8.6212    6.6489 C   0  0  0  0  0  0  0  0  0  0  0  0
   -1.6070   -6.5759    6.5439 O   0  0  0  0  0  0  0  0  0  0  0  0
   -2.4975   -7.5729    6.2406 N   0  0  0  0  0  0  0  0  0  0  0  0
   -2.0740   -8.5515    5.5956 O   0  0  0  0  0  0  0  0  0  0  0  0
 30 31  1  0  0  0
 31 32  2  0  0  0
 31 24  1  0  0  0
 24 25  2  0  0  0
 25 26  1  0  0  0
 26 27  2  0  0  0
 27 20  1  0  0  0
 20 21  1  0  0  0
 21 22  2  0  0  0
 21  1  1  0  0  0
  1  2  1  0  0  0
  1  3  1  0  0  0
  1  4  1  0  0  0
  4  5  2  0  0  0
  5  6  1  0  0  0
  6  7  2  0  0  0
  7  8  1  0  0  0
  8  9  2  0  0  0
  9 10  1  0  0  0
 10 12  1  0  0  0
 12 13  2  0  0  0
 13 14  1  0  0  0
 14 15  2  0  0  0
 15 16  1  0  0  0
 15 17  1  0  0  0
 17 18  1  0  0  0
 17 19  2  0  0  0
 27 28  1  0  0  0
 28 29  2  0  0  0
 29 24  1  0  0  0
  9  4  1  0  0  0
 19 12  1  0  0  0
 20 23  1  0  0  0
 10 11  1  0  0  0
M  CHG 1  30  -1
M  CHG 1  31   1
M  END
> <minimizedAffinity>
3.94999

> <CNNscore>
0.4772229493

> <CNNaffinity>
6.4233984947

> <CNN_VS>
3.0653932095

> <CNNaffinity_variance>
0.4133752882

$$$$
[H]c1c([H])c([H])c(C(F)(F)C(=O)N([H])c2c([H])c([H])c([N+](=O)[O-])c([H])c2[H])c(N([H])c2c([H])c([H])c(Cl)c(Cl)c2[H])c1[H]


 32 34  0  0  0  0  0  0  0  0999 V2000
  -10.6232   -7.9759    9.1595 C   0  0  0  0  0  0  0  0  0  0  0  0
  -11.3212   -7.7261   10.3622 F   0  0  0  0  0  0  0  0  0  0  0  0
  -10.1618   -9.2567    9.1868 F   0  0  0  0  0  0  0  0  0  0  0  0
  -11.5435   -7.6416    8.0790 C   0  0  0  0  0  0  0  0  0  0  0  0
  -12.8152   -8.1613    8.1085 C   0  0  0  0  0  0  0  0  0  0  0  0
  -13.7439   -7.8728    7.1137 C   0  0  0  0  0  0  0  0  0  0  0  0
  -13.4061   -7.0510    6.0655 C   0  0  0  0  0  0  0  0  0  0  0  0
  -12.1325   -6.5225    6.0239 C   0  0  0  0  0  0  0  0  0  0  0  0
  -11.1828   -6.7991    7.0155 C   0  0  0  0  0  0  0  0  0  0  0  0
   -9.8840   -6.2892    6.9571 N   0  0  0  0  0  0  0  0  0  0  0  0
   -9.6902   -5.3129    7.2432 H   0  0  0  0  0  0  0  0  0  0  0  0
   -8.7710   -7.0240    6.5267 C   0  0  0  0  0  0  0  0  0  0  0  0
   -8.6356   -8.3883    6.4896 C   0  0  0  0  0  0  0  0  0  0  0  0
   -7.4918   -9.0262    6.0675 C   0  0  0  0  0  0  0  0  0  0  0  0
   -6.4013   -8.3030    5.6509 C   0  0  0  0  0  0  0  0  0  0  0  0
   -4.9217   -9.0892    5.1044 Cl  0  0  0  0  0  0  0  0  0  0  0  0
   -6.5023   -6.9319    5.6742 C   0  0  0  0  0  0  0  0  0  0  0  0
   -5.1050   -6.0082    5.1399 Cl  0  0  0  0  0  0  0  0  0  0  0  0
   -7.6379   -6.3129    6.0938 C   0  0  0  0  0  0  0  0  0  0  0  0
   -8.1464   -7.5271    9.5461 N   0  0  0  0  0  0  0  0  0  0  0  0
   -9.4390   -7.0519    9.2661 C   0  0  0  0  0  0  0  0  0  0  0  0
   -9.6631   -5.8467    9.0900 O   0  0  0  0  0  0  0  0  0  0  0  0
   -8.1100   -8.5986    9.6744 H   0  0  0  0  0  0  0  0  0  0  0  0
   -4.5444   -5.4153   10.1451 C   0  0  0  0  0  0  0  0  0  0  0  0
   -5.3573   -5.7547   11.1806 C   0  0  0  0  0  0  0  0  0  0  0  0
   -6.5285   -6.4450   10.9548 C   0  0  0  0  0  0  0  0  0  0  0  0
   -6.9495   -6.8335    9.6763 C   0  0  0  0  0  0  0  0  0  0  0  0
   -6.1084   -6.4768    8.6510 C   0  0  0  0  0  0  0  0  0  0  0  0
   -4.9185   -5.7755    8.8794 C   0  0  0  0  0  0  0  0  0  0  0  0
   -2.1854   -4.9669    9.6664 O   0  0  0  0  0  0  0  0  0  0  0  0
   -3.3260   -4.6976   10.3775 N   0  0  0  0  0  0  0  0  0  0  0  0
   -3.2721   -3.8009   11.2413 O   0  0  0  0  0  0  0  0  0  0  0  0
 30 31  1  0  0  0
 31 32  2  0  0  0
 31 24  1  0  0  0
 24 25  2  0  0  0
 25 26  1  0  0  0
 26 27  2  0  0  0
 27 20  1  0  0  0
 20 21  1  0  0  0
 21 22  2  0  0  0
 21  1  1  0  0  0
  1  2  1  0  0  0
  1  3  1  0  0  0
  1  4  1  0  0  0
  4  5  2  0  0  0
  5  6  1  0  0  0
  6  7  2  0  0  0
  7  8  1  0  0  0
  8  9  2  0  0  0
  9 10  1  0  0  0
 10 12  1  0  0  0
 12 13  2  0  0  0
 13 14  1  0  0  0
 14 15  2  0  0  0
 15 16  1  0  0  0
 15 17  1  0  0  0
 17 18  1  0  0  0
 17 19  2  0  0  0
 27 28  1  0  0  0
 28 29  2  0  0  0
 29 24  1  0  0  0
  9  4  1  0  0  0
 19 12  1  0  0  0
 20 23  1  0  0  0
 10 11  1  0  0  0
M  CHG 1  30  -1
M  CHG 1  31   1
M  END
> <minimizedAffinity>
8.24570

> <CNNscore>
0.4433309138

> <CNNaffinity>
6.1980085373

> <CNN_VS>
2.7477688789

> <CNNaffinity_variance>
0.8067096472

$$$$
[H]c1c([H])c([H])c(C(F)(F)C(=O)N([H])c2c([H])c([H])c([N+](=O)[O-])c([H])c2[H])c(N([H])c2c([H])c([H])c(Cl)c(Cl)c2[H])c1[H]


 32 34  0  0  0  0  0  0  0  0999 V2000
   -7.3628   -9.1721    3.9417 C   0  0  0  0  0  0  0  0  0  0  0  0
   -6.1402   -9.8272    3.6725 F   0  0  0  0  0  0  0  0  0  0  0  0
   -7.8564   -8.6825    2.7710 F   0  0  0  0  0  0  0  0  0  0  0  0
   -8.1972  -10.1414    4.6419 C   0  0  0  0  0  0  0  0  0  0  0  0
   -8.2652  -11.4264    4.1599 C   0  0  0  0  0  0  0  0  0  0  0  0
   -9.0349  -12.4006    4.7874 C   0  0  0  0  0  0  0  0  0  0  0  0
   -9.7538  -12.0960    5.9181 C   0  0  0  0  0  0  0  0  0  0  0  0
   -9.6942  -10.8095    6.4126 C   0  0  0  0  0  0  0  0  0  0  0  0
   -8.9249   -9.8141    5.7970 C   0  0  0  0  0  0  0  0  0  0  0  0
   -8.8892   -8.5041    6.2796 N   0  0  0  0  0  0  0  0  0  0  0  0
   -8.2283   -7.8149    5.8783 H   0  0  0  0  0  0  0  0  0  0  0  0
   -9.7132   -8.0230    7.3061 C   0  0  0  0  0  0  0  0  0  0  0  0
  -10.6072   -8.7373    8.0621 C   0  0  0  0  0  0  0  0  0  0  0  0
  -11.3932   -8.1743    9.0412 C   0  0  0  0  0  0  0  0  0  0  0  0
  -11.3146   -6.8307    9.3141 C   0  0  0  0  0  0  0  0  0  0  0  0
  -12.3070   -6.0788   10.5613 Cl  0  0  0  0  0  0  0  0  0  0  0  0
  -10.4276   -6.0837    8.5752 C   0  0  0  0  0  0  0  0  0  0  0  0
  -10.3285   -4.3639    8.9268 Cl  0  0  0  0  0  0  0  0  0  0  0  0
   -9.6564   -6.6514    7.6099 C   0  0  0  0  0  0  0  0  0  0  0  0
   -6.3427   -8.1798    6.0536 N   0  0  0  0  0  0  0  0  0  0  0  0
   -6.9328   -8.0048    4.7902 C   0  0  0  0  0  0  0  0  0  0  0  0
   -7.1233   -6.8777    4.3138 O   0  0  0  0  0  0  0  0  0  0  0  0
   -6.2429   -9.2184    6.3319 H   0  0  0  0  0  0  0  0  0  0  0  0
   -4.9522   -5.4575    8.9602 C   0  0  0  0  0  0  0  0  0  0  0  0
   -5.1885   -6.7632    9.2557 C   0  0  0  0  0  0  0  0  0  0  0  0
   -5.6427   -7.6301    8.2854 C   0  0  0  0  0  0  0  0  0  0  0  0
   -5.8851   -7.2345    6.9634 C   0  0  0  0  0  0  0  0  0  0  0  0
   -5.6375   -5.9107    6.6953 C   0  0  0  0  0  0  0  0  0  0  0  0
   -5.1762   -5.0293    7.6803 C   0  0  0  0  0  0  0  0  0  0  0  0
   -3.5490   -3.5876    9.6880 O   0  0  0  0  0  0  0  0  0  0  0  0
   -4.4798   -4.5543    9.9676 N   0  0  0  0  0  0  0  0  0  0  0  0
   -4.9080   -4.6258   11.1357 O   0  0  0  0  0  0  0  0  0  0  0  0
 30 31  1  0  0  0
 31 32  2  0  0  0
 31 24  1  0  0  0
 24 25  2  0  0  0
 25 26  1  0  0  0
 26 27  2  0  0  0
 27 20  1  0  0  0
 20 21  1  0  0  0
 21 22  2  0  0  0
 21  1  1  0  0  0
  1  2  1  0  0  0
  1  3  1  0  0  0
  1  4  1  0  0  0
  4  5  2  0  0  0
  5  6  1  0  0  0
  6  7  2  0  0  0
  7  8  1  0  0  0
  8  9  2  0  0  0
  9 10  1  0  0  0
 10 12  1  0  0  0
 12 13  2  0  0  0
 13 14  1  0  0  0
 14 15  2  0  0  0
 15 16  1  0  0  0
 15 17  1  0  0  0
 17 18  1  0  0  0
 17 19  2  0  0  0
 27 28  1  0  0  0
 28 29  2  0  0  0
 29 24  1  0  0  0
  9  4  1  0  0  0
 19 12  1  0  0  0
 20 23  1  0  0  0
 10 11  1  0  0  0
M  CHG 1  30  -1
M  CHG 1  31   1
M  END
> <minimizedAffinity>
15.53108

> <CNNscore>
0.4412953854

> <CNNaffinity>
6.2646651268

> <CNN_VS>
2.7645678520

> <CNNaffinity_variance>
0.7264915705

$$$$
[H]OC(=O)C([H])(Sc1c([H])c([H])c(O[H])c(C(=O)c2c([H])c([H])c([H])c([H])c2Cl)c1[H])C([H])(C([H])([H])[H])C([H])([H])[H]


 26 27  0  0  0  0  0  0  0  0999 V2000
  -16.2846   -8.5529    7.0983 C   0  0  0  0  0  0  0  0  0  0  0  0
  -17.5697   -9.0602    7.2822 C   0  0  0  0  0  0  0  0  0  0  0  0
  -18.5545   -8.6322    6.4359 C   0  0  0  0  0  0  0  0  0  0  0  0
  -18.3464   -7.7333    5.4181 C   0  0  0  0  0  0  0  0  0  0  0  0
  -19.3329   -7.2968    4.5603 O   0  0  0  0  0  0  0  0  0  0  0  0
  -17.0565   -7.2323    5.2428 C   0  0  0  0  0  0  0  0  0  0  0  0
  -16.0297   -7.6327    6.0701 C   0  0  0  0  0  0  0  0  0  0  0  0
  -20.2734   -7.6894    4.7207 H   0  0  0  0  0  0  0  0  0  0  0  0
  -16.8266   -6.2640    4.2022 C   0  0  0  0  0  0  0  0  0  0  0  0
  -17.3818   -6.4731    3.0529 O   0  0  0  0  0  0  0  0  0  0  0  0
  -16.0443   -5.0603    4.2596 C   0  0  0  0  0  0  0  0  0  0  0  0
  -15.0432   -4.9100    5.1798 C   0  0  0  0  0  0  0  0  0  0  0  0
  -14.2488   -3.7580    5.2177 C   0  0  0  0  0  0  0  0  0  0  0  0
  -14.4695   -2.7463    4.3139 C   0  0  0  0  0  0  0  0  0  0  0  0
  -15.4868   -2.9209    3.3933 C   0  0  0  0  0  0  0  0  0  0  0  0
  -16.2725   -4.0532    3.3512 C   0  0  0  0  0  0  0  0  0  0  0  0
  -17.5454   -4.1801    2.1343 Cl  0  0  0  0  0  0  0  0  0  0  0  0
  -15.0221   -9.0094    8.2137 S   0  0  0  0  0  0  0  0  0  0  0  0
  -14.3329   -7.7034    9.1597 C   0  0  0  0  0  0  0  0  0  0  0  0
  -13.7538   -6.6928    8.2048 C   0  0  0  0  0  0  0  0  0  0  0  0
  -13.1943   -7.1159    7.0136 O   0  0  0  0  0  0  0  0  0  0  0  0
  -13.7727   -5.4786    8.4759 O   0  0  0  0  0  0  0  0  0  0  0  0
  -13.5576   -6.8377    6.1058 H   0  0  0  0  0  0  0  0  0  0  0  0
  -12.3525   -9.1540    9.6970 C   0  0  0  0  0  0  0  0  0  0  0  0
  -13.3378   -8.1242   10.1784 C   0  0  0  0  0  0  0  0  0  0  0  0
  -14.1286   -8.7491   11.3339 C   0  0  0  0  0  0  0  0  0  0  0  0
 24 25  1  0  0  0
 25 26  1  0  0  0
 25 19  1  0  0  0
 19 18  1  0  0  0
 18  1  1  0  0  0
  1  2  2  0  0  0
  2  3  1  0  0  0
  3  4  2  0  0  0
  4  5  1  0  0  0
  4  6  1  0  0  0
  6  7  2  0  0  0
  6  9  1  0  0  0
  9 10  2  0  0  0
  9 11  1  0  0  0
 11 12  2  0  0  0
 12 13  1  0  0  0
 13 14  2  0  0  0
 14 15  1  0  0  0
 15 16  2  0  0  0
 16 17  1  0  0  0
 19 20  1  0  0  0
 20 21  1  0  0  0
 20 22  2  0  0  0
  7  1  1  0  0  0
 16 11  1  0  0  0
  5  8  1  0  0  0
 21 23  1  0  0  0
M  END
> <minimizedAffinity>
6.32691

> <CNNscore>
0.4129785597

> <CNNaffinity>
5.8079319000

> <CNN_VS>
2.3985514641

> <CNNaffinity_variance>
2.0882441998

$$$$
[H]OC(=O)C([H])(Sc1c([H])c([H])c(O[H])c(C(=O)c2c([H])c([H])c([H])c([H])c2Cl)c1[H])C([H])(C([H])([H])[H])C([H])([H])[H]


 26 27  0  0  0  0  0  0  0  0999 V2000
  -12.4400   -7.8685    8.2544 C   0  0  0  0  0  0  0  0  0  0  0  0
  -13.2917   -7.8261    9.3569 C   0  0  0  0  0  0  0  0  0  0  0  0
  -14.6368   -7.9215    9.1313 C   0  0  0  0  0  0  0  0  0  0  0  0
  -15.1916   -8.0568    7.8818 C   0  0  0  0  0  0  0  0  0  0  0  0
  -16.5459   -8.1540    7.6453 O   0  0  0  0  0  0  0  0  0  0  0  0
  -14.3301   -8.0984    6.7857 C   0  0  0  0  0  0  0  0  0  0  0  0
  -12.9663   -8.0059    6.9610 C   0  0  0  0  0  0  0  0  0  0  0  0
  -17.1512   -8.1196    8.4801 H   0  0  0  0  0  0  0  0  0  0  0  0
  -14.8955   -8.2064    5.4659 C   0  0  0  0  0  0  0  0  0  0  0  0
  -14.2991   -8.9793    4.6175 O   0  0  0  0  0  0  0  0  0  0  0  0
  -16.0649   -7.5583    4.9397 C   0  0  0  0  0  0  0  0  0  0  0  0
  -17.1823   -8.2746    4.6082 C   0  0  0  0  0  0  0  0  0  0  0  0
  -18.3406   -7.6484    4.1330 C   0  0  0  0  0  0  0  0  0  0  0  0
  -18.3690   -6.2815    3.9920 C   0  0  0  0  0  0  0  0  0  0  0  0
  -17.2279   -5.5788    4.3334 C   0  0  0  0  0  0  0  0  0  0  0  0
  -16.0840   -6.1901    4.8018 C   0  0  0  0  0  0  0  0  0  0  0  0
  -14.6795   -5.2022    5.2127 Cl  0  0  0  0  0  0  0  0  0  0  0  0
  -10.7239   -7.6616    8.4967 S   0  0  0  0  0  0  0  0  0  0  0  0
   -9.6951   -8.2653    7.2111 C   0  0  0  0  0  0  0  0  0  0  0  0
   -9.7714   -9.7695    7.2220 C   0  0  0  0  0  0  0  0  0  0  0  0
   -8.7919  -10.5018    7.8665 O   0  0  0  0  0  0  0  0  0  0  0  0
  -10.7074  -10.3625    6.6562 O   0  0  0  0  0  0  0  0  0  0  0  0
   -8.9902  -11.1094    8.6573 H   0  0  0  0  0  0  0  0  0  0  0  0
   -7.7100   -7.6951    8.6426 C   0  0  0  0  0  0  0  0  0  0  0  0
   -8.2892   -7.7899    7.2574 C   0  0  0  0  0  0  0  0  0  0  0  0
   -8.2820   -6.3785    6.6583 C   0  0  0  0  0  0  0  0  0  0  0  0
 24 25  1  0  0  0
 25 26  1  0  0  0
 25 19  1  0  0  0
 19 18  1  0  0  0
 18  1  1  0  0  0
  1  2  2  0  0  0
  2  3  1  0  0  0
  3  4  2  0  0  0
  4  5  1  0  0  0
  4  6  1  0  0  0
  6  7  2  0  0  0
  6  9  1  0  0  0
  9 10  2  0  0  0
  9 11  1  0  0  0
 11 12  2  0  0  0
 12 13  1  0  0  0
 13 14  2  0  0  0
 14 15  1  0  0  0
 15 16  2  0  0  0
 16 17  1  0  0  0
 19 20  1  0  0  0
 20 21  1  0  0  0
 20 22  2  0  0  0
  7  1  1  0  0  0
 16 11  1  0  0  0
  5  8  1  0  0  0
 21 23  1  0  0  0
M  END
> <minimizedAffinity>
-8.89130

> <CNNscore>
0.3030603528

> <CNNaffinity>
6.2287163734

> <CNN_VS>
1.8876769543

> <CNNaffinity_variance>
0.1300891787

$$$$
[H]OC(=O)C([H])(Sc1c([H])c([H])c(O[H])c(C(=O)c2c([H])c([H])c([H])c([H])c2Cl)c1[H])C([H])(C([H])([H])[H])C([H])([H])[H]


 26 27  0  0  0  0  0  0  0  0999 V2000
   -8.6010   -8.2338    7.9073 C   0  0  0  0  0  0  0  0  0  0  0  0
   -8.7688   -9.5256    7.4119 C   0  0  0  0  0  0  0  0  0  0  0  0
  -10.0446   -9.9725    7.2069 C   0  0  0  0  0  0  0  0  0  0  0  0
  -11.1651   -9.2196    7.4614 C   0  0  0  0  0  0  0  0  0  0  0  0
  -12.4545   -9.6618    7.2575 O   0  0  0  0  0  0  0  0  0  0  0  0
  -10.9857   -7.9282    7.9568 C   0  0  0  0  0  0  0  0  0  0  0  0
   -9.7196   -7.4319    8.1804 C   0  0  0  0  0  0  0  0  0  0  0  0
  -12.5474  -10.6215    6.8903 H   0  0  0  0  0  0  0  0  0  0  0  0
  -12.1494   -7.1366    8.2608 C   0  0  0  0  0  0  0  0  0  0  0  0
  -12.0106   -6.1598    9.0972 O   0  0  0  0  0  0  0  0  0  0  0  0
  -13.4851   -7.2805    7.7515 C   0  0  0  0  0  0  0  0  0  0  0  0
  -13.7780   -7.0026    6.4444 C   0  0  0  0  0  0  0  0  0  0  0  0
  -15.0674   -7.1782    5.9284 C   0  0  0  0  0  0  0  0  0  0  0  0
  -16.0722   -7.6407    6.7441 C   0  0  0  0  0  0  0  0  0  0  0  0
  -15.7523   -7.9149    8.0614 C   0  0  0  0  0  0  0  0  0  0  0  0
  -14.4842   -7.7438    8.5753 C   0  0  0  0  0  0  0  0  0  0  0  0
  -14.1778   -8.1250   10.2718 Cl  0  0  0  0  0  0  0  0  0  0  0  0
   -6.9910   -7.6617    8.2637 S   0  0  0  0  0  0  0  0  0  0  0  0
   -6.3192   -6.5157    7.1188 C   0  0  0  0  0  0  0  0  0  0  0  0
   -6.8313   -6.8730    5.7482 C   0  0  0  0  0  0  0  0  0  0  0  0
   -7.6430   -5.9860    5.0659 O   0  0  0  0  0  0  0  0  0  0  0  0
   -6.5323   -7.9598    5.2214 O   0  0  0  0  0  0  0  0  0  0  0  0
   -7.3792   -5.5724    4.1754 H   0  0  0  0  0  0  0  0  0  0  0  0
   -4.2647   -5.9413    8.4472 C   0  0  0  0  0  0  0  0  0  0  0  0
   -4.8384   -6.4063    7.1365 C   0  0  0  0  0  0  0  0  0  0  0  0
   -4.4614   -5.3664    6.0747 C   0  0  0  0  0  0  0  0  0  0  0  0
 24 25  1  0  0  0
 25 26  1  0  0  0
 25 19  1  0  0  0
 19 18  1  0  0  0
 18  1  1  0  0  0
  1  2  2  0  0  0
  2  3  1  0  0  0
  3  4  2  0  0  0
  4  5  1  0  0  0
  4  6  1  0  0  0
  6  7  2  0  0  0
  6  9  1  0  0  0
  9 10  2  0  0  0
  9 11  1  0  0  0
 11 12  2  0  0  0
 12 13  1  0  0  0
 13 14  2  0  0  0
 14 15  1  0  0  0
 15 16  2  0  0  0
 16 17  1  0  0  0
 19 20  1  0  0  0
 20 21  1  0  0  0
 20 22  2  0  0  0
  7  1  1  0  0  0
 16 11  1  0  0  0
  5  8  1  0  0  0
 21 23  1  0  0  0
M  END
> <minimizedAffinity>
-8.53249

> <CNNscore>
0.2954573035

> <CNNaffinity>
5.8809309006

> <CNN_VS>
1.7375639677

> <CNNaffinity_variance>
0.0794913918

$$$$
[H]OC(=O)C([H])(Sc1c([H])c([H])c(O[H])c(C(=O)c2c([H])c([H])c([H])c([H])c2Cl)c1[H])C([H])(C([H])([H])[H])C([H])([H])[H]


 26 27  0  0  0  0  0  0  0  0999 V2000
  -12.3269   -9.2065    7.1420 C   0  0  0  0  0  0  0  0  0  0  0  0
  -12.9114   -9.0252    8.3942 C   0  0  0  0  0  0  0  0  0  0  0  0
  -14.2319   -8.6735    8.4399 C   0  0  0  0  0  0  0  0  0  0  0  0
  -15.0102   -8.4905    7.3229 C   0  0  0  0  0  0  0  0  0  0  0  0
  -16.3418   -8.1365    7.3597 O   0  0  0  0  0  0  0  0  0  0  0  0
  -14.4152   -8.6748    6.0749 C   0  0  0  0  0  0  0  0  0  0  0  0
  -13.0872   -9.0294    5.9761 C   0  0  0  0  0  0  0  0  0  0  0  0
  -16.7468   -8.0093    8.3000 H   0  0  0  0  0  0  0  0  0  0  0  0
  -15.2069   -8.4549    4.8925 C   0  0  0  0  0  0  0  0  0  0  0  0
  -15.0379   -9.2629    3.8967 O   0  0  0  0  0  0  0  0  0  0  0  0
  -16.1894   -7.4344    4.6528 C   0  0  0  0  0  0  0  0  0  0  0  0
  -17.4920   -7.7550    4.3843 C   0  0  0  0  0  0  0  0  0  0  0  0
  -18.4650   -6.7677    4.1894 C   0  0  0  0  0  0  0  0  0  0  0  0
  -18.1165   -5.4406    4.2674 C   0  0  0  0  0  0  0  0  0  0  0  0
  -16.7941   -5.1409    4.5400 C   0  0  0  0  0  0  0  0  0  0  0  0
  -15.8313   -6.1090    4.7328 C   0  0  0  0  0  0  0  0  0  0  0  0
  -14.1697   -5.6221    5.0782 Cl  0  0  0  0  0  0  0  0  0  0  0  0
  -10.6226   -9.5697    7.0433 S   0  0  0  0  0  0  0  0  0  0  0  0
   -9.5753   -8.5890    8.0518 C   0  0  0  0  0  0  0  0  0  0  0  0
   -9.9228   -7.1427    7.8152 C   0  0  0  0  0  0  0  0  0  0  0  0
   -9.3598   -6.4671    6.7486 O   0  0  0  0  0  0  0  0  0  0  0  0
  -10.7123   -6.5471    8.5701 O   0  0  0  0  0  0  0  0  0  0  0  0
   -9.9137   -6.0758    5.9911 H   0  0  0  0  0  0  0  0  0  0  0  0
   -7.7105  -10.2736    8.0477 C   0  0  0  0  0  0  0  0  0  0  0  0
   -8.1220   -8.8370    7.8744 C   0  0  0  0  0  0  0  0  0  0  0  0
   -7.4013   -8.0189    8.9525 C   0  0  0  0  0  0  0  0  0  0  0  0
 24 25  1  0  0  0
 25 26  1  0  0  0
 25 19  1  0  0  0
 19 18  1  0  0  0
 18  1  1  0  0  0
  1  2  2  0  0  0
  2  3  1  0  0  0
  3  4  2  0  0  0
  4  5  1  0  0  0
  4  6  1  0  0  0
  6  7  2  0  0  0
  6  9  1  0  0  0
  9 10  2  0  0  0
  9 11  1  0  0  0
 11 12  2  0  0  0
 12 13  1  0  0  0
 13 14  2  0  0  0
 14 15  1  0  0  0
 15 16  2  0  0  0
 16 17  1  0  0  0
 19 20  1  0  0  0
 20 21  1  0  0  0
 20 22  2  0  0  0
  7  1  1  0  0  0
 16 11  1  0  0  0
  5  8  1  0  0  0
 21 23  1  0  0  0
M  END
> <minimizedAffinity>
-8.18232

> <CNNscore>
0.2700132430

> <CNNaffinity>
5.9821257591

> <CNN_VS>
1.6152532101

> <CNNaffinity_variance>
0.2067856789

$$$$
[H]OC(=O)C([H])(Sc1c([H])c([H])c(O[H])c(C(=O)c2c([H])c([H])c([H])c([H])c2Cl)c1[H])C([H])(C([H])([H])[H])C([H])([H])[H]


 26 27  0  0  0  0  0  0  0  0999 V2000
   -4.6739   -5.4863    6.0285 C   0  0  0  0  0  0  0  0  0  0  0  0
   -5.5925   -6.5166    5.8356 C   0  0  0  0  0  0  0  0  0  0  0  0
   -6.1256   -7.1153    6.9431 C   0  0  0  0  0  0  0  0  0  0  0  0
   -5.8064   -6.7570    8.2304 C   0  0  0  0  0  0  0  0  0  0  0  0
   -6.3390   -7.3546    9.3523 O   0  0  0  0  0  0  0  0  0  0  0  0
   -4.8863   -5.7246    8.4119 C   0  0  0  0  0  0  0  0  0  0  0  0
   -4.3207   -5.0898    7.3273 C   0  0  0  0  0  0  0  0  0  0  0  0
   -7.0158   -8.1137    9.1783 H   0  0  0  0  0  0  0  0  0  0  0  0
   -4.5145   -5.3581    9.7538 C   0  0  0  0  0  0  0  0  0  0  0  0
   -5.2477   -5.8006   10.7231 O   0  0  0  0  0  0  0  0  0  0  0  0
   -3.4104   -4.5457   10.1841 C   0  0  0  0  0  0  0  0  0  0  0  0
   -3.6141   -3.3187   10.7538 C   0  0  0  0  0  0  0  0  0  0  0  0
   -2.5474   -2.5372   11.2132 C   0  0  0  0  0  0  0  0  0  0  0  0
   -1.2596   -3.0026   11.0953 C   0  0  0  0  0  0  0  0  0  0  0  0
   -1.0784   -4.2454   10.5164 C   0  0  0  0  0  0  0  0  0  0  0  0
   -2.1251   -5.0196   10.0620 C   0  0  0  0  0  0  0  0  0  0  0  0
   -1.7880   -6.5950    9.3395 Cl  0  0  0  0  0  0  0  0  0  0  0  0
   -3.9075   -4.7587    4.6394 S   0  0  0  0  0  0  0  0  0  0  0  0
   -2.3146   -5.3737    4.2393 C   0  0  0  0  0  0  0  0  0  0  0  0
   -1.7076   -5.9441    5.4942 C   0  0  0  0  0  0  0  0  0  0  0  0
   -1.8638   -7.2869    5.7832 O   0  0  0  0  0  0  0  0  0  0  0  0
   -1.0659   -5.2195    6.2759 O   0  0  0  0  0  0  0  0  0  0  0  0
   -1.0785   -7.9282    5.8591 H   0  0  0  0  0  0  0  0  0  0  0  0
   -1.9041   -2.9723    3.6228 C   0  0  0  0  0  0  0  0  0  0  0  0
   -1.4077   -4.3921    3.5920 C   0  0  0  0  0  0  0  0  0  0  0  0
   -1.2897   -4.8062    2.1204 C   0  0  0  0  0  0  0  0  0  0  0  0
 24 25  1  0  0  0
 25 26  1  0  0  0
 25 19  1  0  0  0
 19 18  1  0  0  0
 18  1  1  0  0  0
  1  2  2  0  0  0
  2  3  1  0  0  0
  3  4  2  0  0  0
  4  5  1  0  0  0
  4  6  1  0  0  0
  6  7  2  0  0  0
  6  9  1  0  0  0
  9 10  2  0  0  0
  9 11  1  0  0  0
 11 12  2  0  0  0
 12 13  1  0  0  0
 13 14  2  0  0  0
 14 15  1  0  0  0
 15 16  2  0  0  0
 16 17  1  0  0  0
 19 20  1  0  0  0
 20 21  1  0  0  0
 20 22  2  0  0  0
  7  1  1  0  0  0
 16 11  1  0  0  0
  5  8  1  0  0  0
 21 23  1  0  0  0
M  END
> <minimizedAffinity>
-2.97361

> <CNNscore>
0.2256473452

> <CNNaffinity>
4.2620959282

> <CNN_VS>
0.9617306590

> <CNNaffinity_variance>
0.3297972679

$$$$
[H]OC(=O)C([H])(Sc1c([H])c([H])c(O[H])c(C(=O)c2c([H])c([H])c([H])c([H])c2Cl)c1[H])C([H])(C([H])([H])[H])C([H])([H])[H]


 26 27  0  0  0  0  0  0  0  0999 V2000
  -11.8411   -7.3097    8.4303 C   0  0  0  0  0  0  0  0  0  0  0  0
  -12.5161   -7.6553    9.5996 C   0  0  0  0  0  0  0  0  0  0  0  0
  -13.8221   -8.0457    9.4939 C   0  0  0  0  0  0  0  0  0  0  0  0
  -14.5017   -8.1159    8.3021 C   0  0  0  0  0  0  0  0  0  0  0  0
  -15.8178   -8.5086    8.1862 O   0  0  0  0  0  0  0  0  0  0  0  0
  -13.8166   -7.7681    7.1381 C   0  0  0  0  0  0  0  0  0  0  0  0
  -12.4990   -7.3678    7.1922 C   0  0  0  0  0  0  0  0  0  0  0  0
  -16.2912   -8.7582    9.0682 H   0  0  0  0  0  0  0  0  0  0  0  0
  -14.5226   -7.8037    5.8836 C   0  0  0  0  0  0  0  0  0  0  0  0
  -14.5182   -8.9153    5.2224 O   0  0  0  0  0  0  0  0  0  0  0  0
  -15.2550   -6.7478    5.2410 C   0  0  0  0  0  0  0  0  0  0  0  0
  -14.6593   -5.5530    4.9427 C   0  0  0  0  0  0  0  0  0  0  0  0
  -15.3526   -4.5330    4.2805 C   0  0  0  0  0  0  0  0  0  0  0  0
  -16.6637   -4.7241    3.9153 C   0  0  0  0  0  0  0  0  0  0  0  0
  -17.2445   -5.9398    4.2273 C   0  0  0  0  0  0  0  0  0  0  0  0
  -16.5668   -6.9481    4.8795 C   0  0  0  0  0  0  0  0  0  0  0  0
  -17.3984   -8.4656    5.2301 Cl  0  0  0  0  0  0  0  0  0  0  0  0
  -10.2007   -6.7230    8.5366 S   0  0  0  0  0  0  0  0  0  0  0  0
   -8.9455   -7.9207    8.2807 C   0  0  0  0  0  0  0  0  0  0  0  0
   -7.6144   -7.2178    8.3321 C   0  0  0  0  0  0  0  0  0  0  0  0
   -7.3908   -6.1119    7.5334 O   0  0  0  0  0  0  0  0  0  0  0  0
   -6.7112   -7.6216    9.0865 O   0  0  0  0  0  0  0  0  0  0  0  0
   -7.1874   -5.1910    7.9133 H   0  0  0  0  0  0  0  0  0  0  0  0
   -9.9040   -9.9798    7.2053 C   0  0  0  0  0  0  0  0  0  0  0  0
   -9.0899   -8.7255    7.0411 C   0  0  0  0  0  0  0  0  0  0  0  0
   -7.6760   -9.1464    6.6227 C   0  0  0  0  0  0  0  0  0  0  0  0
 24 25  1  0  0  0
 25 26  1  0  0  0
 25 19  1  0  0  0
 19 18  1  0  0  0
 18  1  1  0  0  0
  1  2  2  0  0  0
  2  3  1  0  0  0
  3  4  2  0  0  0
  4  5  1  0  0  0
  4  6  1  0  0  0
  6  7  2  0  0  0
  6  9  1  0  0  0
  9 10  2  0  0  0
  9 11  1  0  0  0
 11 12  2  0  0  0
 12 13  1  0  0  0
 13 14  2  0  0  0
 14 15  1  0  0  0
 15 16  2  0  0  0
 16 17  1  0  0  0
 19 20  1  0  0  0
 20 21  1  0  0  0
 20 22  2  0  0  0
  7  1  1  0  0  0
 16 11  1  0  0  0
  5  8  1  0  0  0
 21 23  1  0  0  0
M  END
> <minimizedAffinity>
-9.00514

> <CNNscore>
0.2080105394

> <CNNaffinity>
6.1385011673

> <CNN_VS>
1.2768729925

> <CNNaffinity_variance>
0.0765489489

$$$$
[H]OC(=O)C([H])(Sc1c([H])c([H])c(O[H])c(C(=O)c2c([H])c([H])c([H])c([H])c2Cl)c1[H])C([H])(C([H])([H])[H])C([H])([H])[H]


 26 27  0  0  0  0  0  0  0  0999 V2000
  -13.4502   -7.3110    8.0113 C   0  0  0  0  0  0  0  0  0  0  0  0
  -13.2779   -6.3743    9.0289 C   0  0  0  0  0  0  0  0  0  0  0  0
  -12.0126   -6.1719    9.5057 C   0  0  0  0  0  0  0  0  0  0  0  0
  -10.9066   -6.8386    9.0374 C   0  0  0  0  0  0  0  0  0  0  0  0
   -9.6278   -6.6406    9.5118 O   0  0  0  0  0  0  0  0  0  0  0  0
  -11.0904   -7.7735    8.0187 C   0  0  0  0  0  0  0  0  0  0  0  0
  -12.3463   -8.0137    7.5047 C   0  0  0  0  0  0  0  0  0  0  0  0
   -9.5313   -5.9416   10.2645 H   0  0  0  0  0  0  0  0  0  0  0  0
   -9.9476   -8.5060    7.5384 C   0  0  0  0  0  0  0  0  0  0  0  0
  -10.0603   -9.7895    7.4248 O   0  0  0  0  0  0  0  0  0  0  0  0
   -8.6591   -7.9993    7.1545 C   0  0  0  0  0  0  0  0  0  0  0  0
   -8.5371   -6.8204    6.4714 C   0  0  0  0  0  0  0  0  0  0  0  0
   -7.2845   -6.2979    6.1283 C   0  0  0  0  0  0  0  0  0  0  0  0
   -6.1421   -6.9757    6.4807 C   0  0  0  0  0  0  0  0  0  0  0  0
   -6.2904   -8.1650    7.1708 C   0  0  0  0  0  0  0  0  0  0  0  0
   -7.5214   -8.6846    7.5114 C   0  0  0  0  0  0  0  0  0  0  0  0
   -7.6034  -10.2105    8.3959 Cl  0  0  0  0  0  0  0  0  0  0  0  0
  -15.0620   -7.6589    7.4391 S   0  0  0  0  0  0  0  0  0  0  0  0
  -15.6592   -6.6143    6.1632 C   0  0  0  0  0  0  0  0  0  0  0  0
  -16.9060   -7.2400    5.5953 C   0  0  0  0  0  0  0  0  0  0  0  0
  -17.1251   -8.5962    5.7499 O   0  0  0  0  0  0  0  0  0  0  0  0
  -17.7432   -6.5494    4.9869 O   0  0  0  0  0  0  0  0  0  0  0  0
  -17.9215   -8.9702    6.2593 H   0  0  0  0  0  0  0  0  0  0  0  0
  -14.8667   -4.9545    4.4509 C   0  0  0  0  0  0  0  0  0  0  0  0
  -14.6736   -6.2986    5.0984 C   0  0  0  0  0  0  0  0  0  0  0  0
  -14.8470   -7.3633    4.0087 C   0  0  0  0  0  0  0  0  0  0  0  0
 24 25  1  0  0  0
 25 26  1  0  0  0
 25 19  1  0  0  0
 19 18  1  0  0  0
 18  1  1  0  0  0
  1  2  2  0  0  0
  2  3  1  0  0  0
  3  4  2  0  0  0
  4  5  1  0  0  0
  4  6  1  0  0  0
  6  7  2  0  0  0
  6  9  1  0  0  0
  9 10  2  0  0  0
  9 11  1  0  0  0
 11 12  2  0  0  0
 12 13  1  0  0  0
 13 14  2  0  0  0
 14 15  1  0  0  0
 15 16  2  0  0  0
 16 17  1  0  0  0
 19 20  1  0  0  0
 20 21  1  0  0  0
 20 22  2  0  0  0
  7  1  1  0  0  0
 16 11  1  0  0  0
  5  8  1  0  0  0
 21 23  1  0  0  0
M  END
> <minimizedAffinity>
-8.39542

> <CNNscore>
0.2001007348

> <CNNaffinity>
6.1222181320

> <CNN_VS>
1.2250603437

> <CNNaffinity_variance>
0.0475793928

$$$$
[H]OC(=O)C([H])(Sc1c([H])c([H])c(O[H])c(C(=O)c2c([H])c([H])c([H])c([H])c2Cl)c1[H])C([H])(C([H])([H])[H])C([H])([H])[H]


 26 27  0  0  0  0  0  0  0  0999 V2000
   -7.0831   -7.4792    7.4101 C   0  0  0  0  0  0  0  0  0  0  0  0
   -6.5889   -8.7806    7.3409 C   0  0  0  0  0  0  0  0  0  0  0  0
   -7.4882   -9.8099    7.3748 C   0  0  0  0  0  0  0  0  0  0  0  0
   -8.8468   -9.6312    7.4724 C   0  0  0  0  0  0  0  0  0  0  0  0
   -9.7603  -10.6627    7.5068 O   0  0  0  0  0  0  0  0  0  0  0  0
   -9.3304   -8.3247    7.5407 C   0  0  0  0  0  0  0  0  0  0  0  0
   -8.4643   -7.2532    7.5105 C   0  0  0  0  0  0  0  0  0  0  0  0
   -9.3653  -11.6143    7.4539 H   0  0  0  0  0  0  0  0  0  0  0  0
  -10.7490   -8.1191    7.6769 C   0  0  0  0  0  0  0  0  0  0  0  0
  -11.5179   -8.6022    6.7558 O   0  0  0  0  0  0  0  0  0  0  0  0
  -11.4554   -7.4327    8.7229 C   0  0  0  0  0  0  0  0  0  0  0  0
  -11.1064   -6.1645    9.0986 C   0  0  0  0  0  0  0  0  0  0  0  0
  -11.8137   -5.4720   10.0885 C   0  0  0  0  0  0  0  0  0  0  0  0
  -12.8870   -6.0693   10.7051 C   0  0  0  0  0  0  0  0  0  0  0  0
  -13.2211   -7.3514   10.3087 C   0  0  0  0  0  0  0  0  0  0  0  0
  -12.5281   -8.0385    9.3345 C   0  0  0  0  0  0  0  0  0  0  0  0
  -13.0364   -9.6721    8.8982 Cl  0  0  0  0  0  0  0  0  0  0  0  0
   -5.9598   -6.1441    7.4579 S   0  0  0  0  0  0  0  0  0  0  0  0
   -4.4167   -6.4742    8.2230 C   0  0  0  0  0  0  0  0  0  0  0  0
   -4.1589   -5.3904    9.2366 C   0  0  0  0  0  0  0  0  0  0  0  0
   -4.9451   -5.3103   10.3709 O   0  0  0  0  0  0  0  0  0  0  0  0
   -3.2448   -4.5640    9.0649 O   0  0  0  0  0  0  0  0  0  0  0  0
   -4.5683   -5.4127   11.3096 H   0  0  0  0  0  0  0  0  0  0  0  0
   -3.5514   -6.1674    5.8836 C   0  0  0  0  0  0  0  0  0  0  0  0
   -3.2737   -6.6298    7.2880 C   0  0  0  0  0  0  0  0  0  0  0  0
   -2.9582   -8.1290    7.2246 C   0  0  0  0  0  0  0  0  0  0  0  0
 24 25  1  0  0  0
 25 26  1  0  0  0
 25 19  1  0  0  0
 19 18  1  0  0  0
 18  1  1  0  0  0
  1  2  2  0  0  0
  2  3  1  0  0  0
  3  4  2  0  0  0
  4  5  1  0  0  0
  4  6  1  0  0  0
  6  7  2  0  0  0
  6  9  1  0  0  0
  9 10  2  0  0  0
  9 11  1  0  0  0
 11 12  2  0  0  0
 12 13  1  0  0  0
 13 14  2  0  0  0
 14 15  1  0  0  0
 15 16  2  0  0  0
 16 17  1  0  0  0
 19 20  1  0  0  0
 20 21  1  0  0  0
 20 22  2  0  0  0
  7  1  1  0  0  0
 16 11  1  0  0  0
  5  8  1  0  0  0
 21 23  1  0  0  0
M  END
> <minimizedAffinity>
-7.42324

> <CNNscore>
0.1858800948

> <CNNaffinity>
5.3849253654

> <CNN_VS>
1.0009504557

> <CNNaffinity_variance>
0.0409915186

$$$$
[H]OC(=O)C([H])(Sc1c([H])c([H])c(O[H])c(C(=O)c2c([H])c([H])c([H])c([H])c2Cl)c1[H])C([H])(C([H])([H])[H])C([H])([H])[H]


 26 27  0  0  0  0  0  0  0  0999 V2000
  -11.6112   -7.8803    8.1491 C   0  0  0  0  0  0  0  0  0  0  0  0
  -12.3034   -8.1688    9.3239 C   0  0  0  0  0  0  0  0  0  0  0  0
  -13.6497   -8.3904    9.2363 C   0  0  0  0  0  0  0  0  0  0  0  0
  -14.3538   -8.3447    8.0576 C   0  0  0  0  0  0  0  0  0  0  0  0
  -15.7105   -8.5671    7.9600 O   0  0  0  0  0  0  0  0  0  0  0  0
  -13.6512   -8.0553    6.8880 C   0  0  0  0  0  0  0  0  0  0  0  0
  -12.2931   -7.8241    6.9240 C   0  0  0  0  0  0  0  0  0  0  0  0
  -16.1957   -8.7782    8.8457 H   0  0  0  0  0  0  0  0  0  0  0  0
  -14.3782   -7.9704    5.6480 C   0  0  0  0  0  0  0  0  0  0  0  0
  -14.3978   -9.0178    4.8893 O   0  0  0  0  0  0  0  0  0  0  0  0
  -15.1088   -6.8535    5.1160 C   0  0  0  0  0  0  0  0  0  0  0  0
  -14.5049   -5.6419    4.9190 C   0  0  0  0  0  0  0  0  0  0  0  0
  -15.1971   -4.5592    4.3637 C   0  0  0  0  0  0  0  0  0  0  0  0
  -16.5154   -4.7040    4.0030 C   0  0  0  0  0  0  0  0  0  0  0  0
  -17.1043   -5.9378    4.2116 C   0  0  0  0  0  0  0  0  0  0  0  0
  -16.4277   -7.0078    4.7582 C   0  0  0  0  0  0  0  0  0  0  0  0
  -17.2701   -8.5434    4.9815 Cl  0  0  0  0  0  0  0  0  0  0  0  0
   -9.9086   -7.5058    8.2349 S   0  0  0  0  0  0  0  0  0  0  0  0
   -8.8772   -8.3924    7.1279 C   0  0  0  0  0  0  0  0  0  0  0  0
   -9.0023   -9.8587    7.4489 C   0  0  0  0  0  0  0  0  0  0  0  0
  -10.0515  -10.5894    6.9231 O   0  0  0  0  0  0  0  0  0  0  0  0
   -8.1709  -10.4216    8.1836 O   0  0  0  0  0  0  0  0  0  0  0  0
   -9.9130  -11.3779    6.2964 H   0  0  0  0  0  0  0  0  0  0  0  0
   -7.2639   -6.4656    7.1258 C   0  0  0  0  0  0  0  0  0  0  0  0
   -7.4576   -7.9574    7.1086 C   0  0  0  0  0  0  0  0  0  0  0  0
   -6.8536   -8.4845    5.8015 C   0  0  0  0  0  0  0  0  0  0  0  0
 24 25  1  0  0  0
 25 26  1  0  0  0
 25 19  1  0  0  0
 19 18  1  0  0  0
 18  1  1  0  0  0
  1  2  2  0  0  0
  2  3  1  0  0  0
  3  4  2  0  0  0
  4  5  1  0  0  0
  4  6  1  0  0  0
  6  7  2  0  0  0
  6  9  1  0  0  0
  9 10  2  0  0  0
  9 11  1  0  0  0
 11 12  2  0  0  0
 12 13  1  0  0  0
 13 14  2  0  0  0
 14 15  1  0  0  0
 15 16  2  0  0  0
 16 17  1  0  0  0
 19 20  1  0  0  0
 20 21  1  0  0  0
 20 22  2  0  0  0
  7  1  1  0  0  0
 16 11  1  0  0  0
  5  8  1  0  0  0
 21 23  1  0  0  0
M  END
> <minimizedAffinity>
-9.25520

> <CNNscore>
0.1566429734

> <CNNaffinity>
6.0476121902

> <CNN_VS>
0.9473159313

> <CNNaffinity_variance>
0.0715904236

$$$$
[H]c1c([H])c(C(C([H])([H])[H])(C([H])([H])[H])C([H])([H])[H])c([H])c([H])c1C([H])([H])C([H])([H])C([H])([H])C(=O)C(C([H])([H])[H])(C([H])([H])[H])C([H])([H])[H]


 19 19  0  0  0  0  0  0  0  0999 V2000
   -9.3871   -7.8996    7.9095 C   0  0  0  0  0  0  0  0  0  0  0  0
  -10.1323   -8.9984    7.5085 C   0  0  0  0  0  0  0  0  0  0  0  0
  -11.4712   -9.0072    7.8187 C   0  0  0  0  0  0  0  0  0  0  0  0
  -12.0867   -7.9793    8.5106 C   0  0  0  0  0  0  0  0  0  0  0  0
  -11.3179   -6.9050    8.8973 C   0  0  0  0  0  0  0  0  0  0  0  0
   -9.9721   -6.8541    8.6023 C   0  0  0  0  0  0  0  0  0  0  0  0
   -7.6015   -9.1278    6.7566 C   0  0  0  0  0  0  0  0  0  0  0  0
   -7.9418   -7.8910    7.5340 C   0  0  0  0  0  0  0  0  0  0  0  0
   -7.7958   -6.6189    6.6795 C   0  0  0  0  0  0  0  0  0  0  0  0
   -7.0527   -7.7502    8.7566 C   0  0  0  0  0  0  0  0  0  0  0  0
  -13.5688   -8.0022    8.7178 C   0  0  0  0  0  0  0  0  0  0  0  0
  -14.1902   -6.7952    8.0594 C   0  0  0  0  0  0  0  0  0  0  0  0
  -14.2686   -7.0517    6.5634 C   0  0  0  0  0  0  0  0  0  0  0  0
  -15.6787   -6.9784    6.1168 C   0  0  0  0  0  0  0  0  0  0  0  0
  -16.5783   -7.5356    6.7097 O   0  0  0  0  0  0  0  0  0  0  0  0
  -16.0047   -6.1892    4.8873 C   0  0  0  0  0  0  0  0  0  0  0  0
  -17.3548   -5.5529    5.0858 C   0  0  0  0  0  0  0  0  0  0  0  0
  -15.0131   -5.0503    4.7142 C   0  0  0  0  0  0  0  0  0  0  0  0
  -15.9790   -7.1650    3.7448 C   0  0  0  0  0  0  0  0  0  0  0  0
  7  8  1  0  0  0
  8  9  1  0  0  0
  8 10  1  0  0  0
  8  1  1  0  0  0
  1  2  2  0  0  0
  2  3  1  0  0  0
  3  4  2  0  0  0
  4 11  1  0  0  0
 11 12  1  0  0  0
 12 13  1  0  0  0
 13 14  1  0  0  0
 14 15  2  0  0  0
 14 16  1  0  0  0
 16 17  1  0  0  0
 16 18  1  0  0  0
 16 19  1  0  0  0
  4  5  1  0  0  0
  5  6  2  0  0  0
  6  1  1  0  0  0
M  END
> <minimizedAffinity>
-8.30313

> <CNNscore>
0.7882561088

> <CNNaffinity>
6.4024991989

> <CNN_VS>
5.0468091965

> <CNNaffinity_variance>
0.0357959494

$$$$
[H]c1c([H])c(C(C([H])([H])[H])(C([H])([H])[H])C([H])([H])[H])c([H])c([H])c1C([H])([H])C([H])([H])C([H])([H])C(=O)C(C([H])([H])[H])(C([H])([H])[H])C([H])([H])[H]


 19 19  0  0  0  0  0  0  0  0999 V2000
   -9.2484   -8.3054    7.8661 C   0  0  0  0  0  0  0  0  0  0  0  0
  -10.1424   -9.2576    7.3995 C   0  0  0  0  0  0  0  0  0  0  0  0
  -11.4827   -8.9626    7.4727 C   0  0  0  0  0  0  0  0  0  0  0  0
  -11.9607   -7.7730    7.9931 C   0  0  0  0  0  0  0  0  0  0  0  0
  -11.0471   -6.8509    8.4511 C   0  0  0  0  0  0  0  0  0  0  0  0
   -9.6933   -7.1050    8.3917 C   0  0  0  0  0  0  0  0  0  0  0  0
   -6.9997   -7.7974    8.7096 C   0  0  0  0  0  0  0  0  0  0  0  0
   -7.7954   -8.6284    7.7471 C   0  0  0  0  0  0  0  0  0  0  0  0
   -7.7267  -10.1271    8.0916 C   0  0  0  0  0  0  0  0  0  0  0  0
   -7.3013   -8.4419    6.3237 C   0  0  0  0  0  0  0  0  0  0  0  0
  -13.4257   -7.4713    7.9410 C   0  0  0  0  0  0  0  0  0  0  0  0
  -13.9005   -7.5155    6.5095 C   0  0  0  0  0  0  0  0  0  0  0  0
  -14.6865   -6.2461    6.2253 C   0  0  0  0  0  0  0  0  0  0  0  0
  -15.9924   -6.5920    5.6184 C   0  0  0  0  0  0  0  0  0  0  0  0
  -16.6161   -7.5819    5.9381 O   0  0  0  0  0  0  0  0  0  0  0  0
  -16.5617   -5.6874    4.5704 C   0  0  0  0  0  0  0  0  0  0  0  0
  -16.9669   -6.5342    3.3933 C   0  0  0  0  0  0  0  0  0  0  0  0
  -17.8305   -5.0236    5.0804 C   0  0  0  0  0  0  0  0  0  0  0  0
  -15.4792   -4.7000    4.2370 C   0  0  0  0  0  0  0  0  0  0  0  0
  7  8  1  0  0  0
  8  9  1  0  0  0
  8 10  1  0  0  0
  8  1  1  0  0  0
  1  2  2  0  0  0
  2  3  1  0  0  0
  3  4  2  0  0  0
  4 11  1  0  0  0
 11 12  1  0  0  0
 12 13  1  0  0  0
 13 14  1  0  0  0
 14 15  2  0  0  0
 14 16  1  0  0  0
 16 17  1  0  0  0
 16 18  1  0  0  0
 16 19  1  0  0  0
  4  5  1  0  0  0
  5  6  2  0  0  0
  6  1  1  0  0  0
M  END
> <minimizedAffinity>
-8.62839

> <CNNscore>
0.6314843297

> <CNNaffinity>
6.0273466110

> <CNN_VS>
3.8061749935

> <CNNaffinity_variance>
0.1092364043

$$$$
[H]c1c([H])c(C(C([H])([H])[H])(C([H])([H])[H])C([H])([H])[H])c([H])c([H])c1C([H])([H])C([H])([H])C([H])([H])C(=O)C(C([H])([H])[H])(C([H])([H])[H])C([H])([H])[H]


 19 19  0  0  0  0  0  0  0  0999 V2000
  -14.5825   -7.8571    5.9040 C   0  0  0  0  0  0  0  0  0  0  0  0
  -14.4874   -6.7468    6.7298 C   0  0  0  0  0  0  0  0  0  0  0  0
  -13.6094   -6.8115    7.7851 C   0  0  0  0  0  0  0  0  0  0  0  0
  -12.8373   -7.9286    8.0499 C   0  0  0  0  0  0  0  0  0  0  0  0
  -12.9583   -9.0150    7.2133 C   0  0  0  0  0  0  0  0  0  0  0  0
  -13.8238   -8.9901    6.1403 C   0  0  0  0  0  0  0  0  0  0  0  0
  -16.9026   -8.1503    5.1572 C   0  0  0  0  0  0  0  0  0  0  0  0
  -15.5158   -7.7565    4.7427 C   0  0  0  0  0  0  0  0  0  0  0  0
  -15.4378   -6.2724    4.3412 C   0  0  0  0  0  0  0  0  0  0  0  0
  -15.0352   -8.5944    3.5715 C   0  0  0  0  0  0  0  0  0  0  0  0
  -11.8222   -7.8903    9.1490 C   0  0  0  0  0  0  0  0  0  0  0  0
  -10.5981   -7.1425    8.6810 C   0  0  0  0  0  0  0  0  0  0  0  0
   -9.9031   -7.9773    7.6180 C   0  0  0  0  0  0  0  0  0  0  0  0
   -8.5789   -7.3908    7.3084 C   0  0  0  0  0  0  0  0  0  0  0  0
   -8.4477   -6.2473    6.9259 O   0  0  0  0  0  0  0  0  0  0  0  0
   -7.3583   -8.2417    7.4718 C   0  0  0  0  0  0  0  0  0  0  0  0
   -7.7978   -9.6021    7.9440 C   0  0  0  0  0  0  0  0  0  0  0  0
   -6.6785   -8.4510    6.1284 C   0  0  0  0  0  0  0  0  0  0  0  0
   -6.4828   -7.5311    8.4651 C   0  0  0  0  0  0  0  0  0  0  0  0
  7  8  1  0  0  0
  8  9  1  0  0  0
  8 10  1  0  0  0
  8  1  1  0  0  0
  1  2  2  0  0  0
  2  3  1  0  0  0
  3  4  2  0  0  0
  4 11  1  0  0  0
 11 12  1  0  0  0
 12 13  1  0  0  0
 13 14  1  0  0  0
 14 15  2  0  0  0
 14 16  1  0  0  0
 16 17  1  0  0  0
 16 18  1  0  0  0
 16 19  1  0  0  0
  4  5  1  0  0  0
  5  6  2  0  0  0
  6  1  1  0  0  0
M  END
> <minimizedAffinity>
-8.31412

> <CNNscore>
0.6072620153

> <CNNaffinity>
6.1405205727

> <CNN_VS>
3.7289049625

> <CNNaffinity_variance>
0.1346685886

$$$$
[H]c1c([H])c(C(C([H])([H])[H])(C([H])([H])[H])C([H])([H])[H])c([H])c([H])c1C([H])([H])C([H])([H])C([H])([H])C(=O)C(C([H])([H])[H])(C([H])([H])[H])C([H])([H])[H]


 19 19  0  0  0  0  0  0  0  0999 V2000
  -14.8624   -7.2259    5.6092 C   0  0  0  0  0  0  0  0  0  0  0  0
  -14.4162   -6.6505    6.7896 C   0  0  0  0  0  0  0  0  0  0  0  0
  -13.5610   -7.3873    7.5736 C   0  0  0  0  0  0  0  0  0  0  0  0
  -13.1442   -8.6622    7.2342 C   0  0  0  0  0  0  0  0  0  0  0  0
  -13.6085   -9.2056    6.0578 C   0  0  0  0  0  0  0  0  0  0  0  0
  -14.4641   -8.4987    5.2398 C   0  0  0  0  0  0  0  0  0  0  0  0
  -16.0713   -7.1203    3.4752 C   0  0  0  0  0  0  0  0  0  0  0  0
  -15.7633   -6.3979    4.7533 C   0  0  0  0  0  0  0  0  0  0  0  0
  -17.0199   -6.2108    5.6226 C   0  0  0  0  0  0  0  0  0  0  0  0
  -15.1639   -5.0303    4.4790 C   0  0  0  0  0  0  0  0  0  0  0  0
  -12.1263   -9.3635    8.0779 C   0  0  0  0  0  0  0  0  0  0  0  0
  -10.8568   -9.5541    7.2850 C   0  0  0  0  0  0  0  0  0  0  0  0
   -9.9285   -8.3867    7.5778 C   0  0  0  0  0  0  0  0  0  0  0  0
   -8.5238   -8.8555    7.5881 C   0  0  0  0  0  0  0  0  0  0  0  0
   -8.2193   -9.9905    7.8886 O   0  0  0  0  0  0  0  0  0  0  0  0
   -7.4402   -7.8921    7.2160 C   0  0  0  0  0  0  0  0  0  0  0  0
   -6.6383   -8.5015    6.0969 C   0  0  0  0  0  0  0  0  0  0  0  0
   -8.0421   -6.6094    6.6657 C   0  0  0  0  0  0  0  0  0  0  0  0
   -6.6316   -7.6700    8.4630 C   0  0  0  0  0  0  0  0  0  0  0  0
  7  8  1  0  0  0
  8  9  1  0  0  0
  8 10  1  0  0  0
  8  1  1  0  0  0
  1  2  2  0  0  0
  2  3  1  0  0  0
  3  4  2  0  0  0
  4 11  1  0  0  0
 11 12  1  0  0  0
 12 13  1  0  0  0
 13 14  1  0  0  0
 14 15  2  0  0  0
 14 16  1  0  0  0
 16 17  1  0  0  0
 16 18  1  0  0  0
 16 19  1  0  0  0
  4  5  1  0  0  0
  5  6  2  0  0  0
  6  1  1  0  0  0
M  END
> <minimizedAffinity>
-8.13502

> <CNNscore>
0.6025485992

> <CNNaffinity>
6.1357240677

> <CNN_VS>
3.6970720291

> <CNNaffinity_variance>
0.0842991844

$$$$
[H]c1c([H])c(C(C([H])([H])[H])(C([H])([H])[H])C([H])([H])[H])c([H])c([H])c1C([H])([H])C([H])([H])C([H])([H])C(=O)C(C([H])([H])[H])(C([H])([H])[H])C([H])([H])[H]


 19 19  0  0  0  0  0  0  0  0999 V2000
   -8.9908   -8.3800    7.4469 C   0  0  0  0  0  0  0  0  0  0  0  0
   -9.9676   -7.4475    7.7632 C   0  0  0  0  0  0  0  0  0  0  0  0
  -11.2791   -7.8541    7.7039 C   0  0  0  0  0  0  0  0  0  0  0  0
  -11.6502   -9.1361    7.3394 C   0  0  0  0  0  0  0  0  0  0  0  0
  -10.6565  -10.0363    7.0280 C   0  0  0  0  0  0  0  0  0  0  0  0
   -9.3280   -9.6709    7.0793 C   0  0  0  0  0  0  0  0  0  0  0  0
   -7.0525   -8.1659    8.9380 C   0  0  0  0  0  0  0  0  0  0  0  0
   -7.5704   -7.9309    7.5500 C   0  0  0  0  0  0  0  0  0  0  0  0
   -6.8383   -8.7990    6.5108 C   0  0  0  0  0  0  0  0  0  0  0  0
   -7.4194   -6.4747    7.1480 C   0  0  0  0  0  0  0  0  0  0  0  0
  -13.0892   -9.5426    7.4028 C   0  0  0  0  0  0  0  0  0  0  0  0
  -13.7196   -9.3855    6.0409 C   0  0  0  0  0  0  0  0  0  0  0  0
  -14.4481   -8.0522    6.0003 C   0  0  0  0  0  0  0  0  0  0  0  0
  -15.5306   -8.1046    4.9910 C   0  0  0  0  0  0  0  0  0  0  0  0
  -15.3452   -8.4974    3.8585 O   0  0  0  0  0  0  0  0  0  0  0  0
  -16.9032   -7.6540    5.3830 C   0  0  0  0  0  0  0  0  0  0  0  0
  -17.1441   -6.3018    4.7666 C   0  0  0  0  0  0  0  0  0  0  0  0
  -17.9509   -8.5870    4.7979 C   0  0  0  0  0  0  0  0  0  0  0  0
  -16.9207   -7.6248    6.8854 C   0  0  0  0  0  0  0  0  0  0  0  0
  7  8  1  0  0  0
  8  9  1  0  0  0
  8 10  1  0  0  0
  8  1  1  0  0  0
  1  2  2  0  0  0
  2  3  1  0  0  0
  3  4  2  0  0  0
  4 11  1  0  0  0
 11 12  1  0  0  0
 12 13  1  0  0  0
 13 14  1  0  0  0
 14 15  2  0  0  0
 14 16  1  0  0  0
 16 17  1  0  0  0
 16 18  1  0  0  0
 16 19  1  0  0  0
  4  5  1  0  0  0
  5  6  2  0  0  0
  6  1  1  0  0  0
M  END
> <minimizedAffinity>
-7.99352

> <CNNscore>
0.5333327651

> <CNNaffinity>
6.1332941055

> <CNN_VS>
3.2710866928

> <CNNaffinity_variance>
0.2339872420

$$$$
[H]c1c([H])c(C(C([H])([H])[H])(C([H])([H])[H])C([H])([H])[H])c([H])c([H])c1C([H])([H])C([H])([H])C([H])([H])C(=O)C(C([H])([H])[H])(C([H])([H])[H])C([H])([H])[H]


 19 19  0  0  0  0  0  0  0  0999 V2000
  -11.8822   -8.1322    8.0264 C   0  0  0  0  0  0  0  0  0  0  0  0
  -11.2048   -7.0454    8.5591 C   0  0  0  0  0  0  0  0  0  0  0  0
   -9.8311   -7.0717    8.5236 C   0  0  0  0  0  0  0  0  0  0  0  0
   -9.1155   -8.1292    7.9909 C   0  0  0  0  0  0  0  0  0  0  0  0
   -9.8181   -9.1939    7.4738 C   0  0  0  0  0  0  0  0  0  0  0  0
  -11.1968   -9.2057    7.4851 C   0  0  0  0  0  0  0  0  0  0  0  0
  -13.9508   -9.4209    7.7324 C   0  0  0  0  0  0  0  0  0  0  0  0
  -13.3741   -8.0712    8.0422 C   0  0  0  0  0  0  0  0  0  0  0  0
  -13.7045   -7.6229    9.4773 C   0  0  0  0  0  0  0  0  0  0  0  0
  -13.8957   -7.0186    7.0805 C   0  0  0  0  0  0  0  0  0  0  0  0
   -7.6251   -8.0429    7.8846 C   0  0  0  0  0  0  0  0  0  0  0  0
   -7.1901   -8.4818    6.5081 C   0  0  0  0  0  0  0  0  0  0  0  0
   -6.2885   -7.4065    5.9242 C   0  0  0  0  0  0  0  0  0  0  0  0
   -4.9279   -7.5303    6.4959 C   0  0  0  0  0  0  0  0  0  0  0  0
   -4.4020   -8.6048    6.6957 O   0  0  0  0  0  0  0  0  0  0  0  0
   -4.1757   -6.2832    6.8415 C   0  0  0  0  0  0  0  0  0  0  0  0
   -2.7099   -6.6224    6.8958 C   0  0  0  0  0  0  0  0  0  0  0  0
   -4.3378   -5.2481    5.7403 C   0  0  0  0  0  0  0  0  0  0  0  0
   -4.7193   -5.8196    8.1636 C   0  0  0  0  0  0  0  0  0  0  0  0
  7  8  1  0  0  0
  8  9  1  0  0  0
  8 10  1  0  0  0
  8  1  1  0  0  0
  1  2  2  0  0  0
  2  3  1  0  0  0
  3  4  2  0  0  0
  4 11  1  0  0  0
 11 12  1  0  0  0
 12 13  1  0  0  0
 13 14  1  0  0  0
 14 15  2  0  0  0
 14 16  1  0  0  0
 16 17  1  0  0  0
 16 18  1  0  0  0
 16 19  1  0  0  0
  4  5  1  0  0  0
  5  6  2  0  0  0
  6  1  1  0  0  0
M  END
> <minimizedAffinity>
-7.04336

> <CNNscore>
0.4649094641

> <CNNaffinity>
5.6165895462

> <CNN_VS>
2.6112055779

> <CNNaffinity_variance>
0.0262690876

$$$$
[H]c1c([H])c(C(C([H])([H])[H])(C([H])([H])[H])C([H])([H])[H])c([H])c([H])c1C([H])([H])C([H])([H])C([H])([H])C(=O)C(C([H])([H])[H])(C([H])([H])[H])C([H])([H])[H]


 19 19  0  0  0  0  0  0  0  0999 V2000
  -11.9139   -7.4473    8.7675 C   0  0  0  0  0  0  0  0  0  0  0  0
  -12.0939   -8.6868    8.1719 C   0  0  0  0  0  0  0  0  0  0  0  0
  -10.9932   -9.2900    7.6118 C   0  0  0  0  0  0  0  0  0  0  0  0
   -9.7374   -8.7095    7.6162 C   0  0  0  0  0  0  0  0  0  0  0  0
   -9.5936   -7.4770    8.2121 C   0  0  0  0  0  0  0  0  0  0  0  0
  -10.6708   -6.8394    8.7899 C   0  0  0  0  0  0  0  0  0  0  0  0
  -12.7158   -5.5897   10.1577 C   0  0  0  0  0  0  0  0  0  0  0  0
  -13.1131   -6.8225    9.4010 C   0  0  0  0  0  0  0  0  0  0  0  0
  -14.0250   -6.4918    8.2057 C   0  0  0  0  0  0  0  0  0  0  0  0
  -13.8407   -7.8063   10.2996 C   0  0  0  0  0  0  0  0  0  0  0  0
   -8.5622   -9.4701    7.0868 C   0  0  0  0  0  0  0  0  0  0  0  0
   -7.2874   -8.8751    7.6321 C   0  0  0  0  0  0  0  0  0  0  0  0
   -6.3085   -8.7019    6.4823 C   0  0  0  0  0  0  0  0  0  0  0  0
   -6.0819   -7.2600    6.2316 C   0  0  0  0  0  0  0  0  0  0  0  0
   -6.9038   -6.5590    5.6801 O   0  0  0  0  0  0  0  0  0  0  0  0
   -4.7900   -6.6465    6.6734 C   0  0  0  0  0  0  0  0  0  0  0  0
   -4.4428   -5.5444    5.7082 C   0  0  0  0  0  0  0  0  0  0  0  0
   -4.9568   -5.9904    8.0344 C   0  0  0  0  0  0  0  0  0  0  0  0
   -3.7796   -7.7588    6.6809 C   0  0  0  0  0  0  0  0  0  0  0  0
  7  8  1  0  0  0
  8  9  1  0  0  0
  8 10  1  0  0  0
  8  1  1  0  0  0
  1  2  2  0  0  0
  2  3  1  0  0  0
  3  4  2  0  0  0
  4 11  1  0  0  0
 11 12  1  0  0  0
 12 13  1  0  0  0
 13 14  1  0  0  0
 14 15  2  0  0  0
 14 16  1  0  0  0
 16 17  1  0  0  0
 16 18  1  0  0  0
 16 19  1  0  0  0
  4  5  1  0  0  0
  5  6  2  0  0  0
  6  1  1  0  0  0
M  END
> <minimizedAffinity>
-7.94218

> <CNNscore>
0.4234327972

> <CNNaffinity>
5.6530551910

> <CNN_VS>
2.3936889172

> <CNNaffinity_variance>
0.0215737484

$$$$
[H]c1c([H])c(C(C([H])([H])[H])(C([H])([H])[H])C([H])([H])[H])c([H])c([H])c1C([H])([H])C([H])([H])C([H])([H])C(=O)C(C([H])([H])[H])(C([H])([H])[H])C([H])([H])[H]


 19 19  0  0  0  0  0  0  0  0999 V2000
  -14.1384   -8.0674    5.9853 C   0  0  0  0  0  0  0  0  0  0  0  0
  -13.6359   -7.1737    6.9193 C   0  0  0  0  0  0  0  0  0  0  0  0
  -12.5014   -7.5389    7.6038 C   0  0  0  0  0  0  0  0  0  0  0  0
  -11.8606   -8.7481    7.4008 C   0  0  0  0  0  0  0  0  0  0  0  0
  -12.3872   -9.6140    6.4694 C   0  0  0  0  0  0  0  0  0  0  0  0
  -13.5211   -9.2848    5.7574 C   0  0  0  0  0  0  0  0  0  0  0  0
  -16.5556   -7.6607    6.1209 C   0  0  0  0  0  0  0  0  0  0  0  0
  -15.3514   -7.6397    5.2267 C   0  0  0  0  0  0  0  0  0  0  0  0
  -15.0064   -6.2126    4.7640 C   0  0  0  0  0  0  0  0  0  0  0  0
  -15.5677   -8.5020    3.9960 C   0  0  0  0  0  0  0  0  0  0  0  0
  -10.5685   -9.0342    8.0999 C   0  0  0  0  0  0  0  0  0  0  0  0
   -9.6611   -9.8187    7.1845 C   0  0  0  0  0  0  0  0  0  0  0  0
   -8.2356   -9.6890    7.6956 C   0  0  0  0  0  0  0  0  0  0  0  0
   -7.4782   -8.7540    6.8322 C   0  0  0  0  0  0  0  0  0  0  0  0
   -7.0942   -9.0595    5.7230 O   0  0  0  0  0  0  0  0  0  0  0  0
   -7.1739   -7.3825    7.3491 C   0  0  0  0  0  0  0  0  0  0  0  0
   -6.0112   -6.8356    6.5643 C   0  0  0  0  0  0  0  0  0  0  0  0
   -8.3457   -6.4498    7.0893 C   0  0  0  0  0  0  0  0  0  0  0  0
   -6.8694   -7.5446    8.8116 C   0  0  0  0  0  0  0  0  0  0  0  0
  7  8  1  0  0  0
  8  9  1  0  0  0
  8 10  1  0  0  0
  8  1  1  0  0  0
  1  2  2  0  0  0
  2  3  1  0  0  0
  3  4  2  0  0  0
  4 11  1  0  0  0
 11 12  1  0  0  0
 12 13  1  0  0  0
 13 14  1  0  0  0
 14 15  2  0  0  0
 14 16  1  0  0  0
 16 17  1  0  0  0
 16 18  1  0  0  0
 16 19  1  0  0  0
  4  5  1  0  0  0
  5  6  2  0  0  0
  6  1  1  0  0  0
M  END
> <minimizedAffinity>
-7.69304

> <CNNscore>
0.4171838462

> <CNNaffinity>
5.9708013535

> <CNN_VS>
2.4909219742

> <CNNaffinity_variance>
0.1496702880

$$$$
[H]c1c([H])c(C(C([H])([H])[H])(C([H])([H])[H])C([H])([H])[H])c([H])c([H])c1C([H])([H])C([H])([H])C([H])([H])C(=O)C(C([H])([H])[H])(C([H])([H])[H])C([H])([H])[H]


 19 19  0  0  0  0  0  0  0  0999 V2000
  -11.9356   -7.6209    8.6922 C   0  0  0  0  0  0  0  0  0  0  0  0
  -10.7188   -6.9652    8.8059 C   0  0  0  0  0  0  0  0  0  0  0  0
   -9.6179   -7.5634    8.2410 C   0  0  0  0  0  0  0  0  0  0  0  0
   -9.6810   -8.7780    7.5816 C   0  0  0  0  0  0  0  0  0  0  0  0
  -10.9033   -9.4045    7.4897 C   0  0  0  0  0  0  0  0  0  0  0  0
  -12.0335   -8.8366    8.0384 C   0  0  0  0  0  0  0  0  0  0  0  0
  -14.0967   -6.5651    8.2005 C   0  0  0  0  0  0  0  0  0  0  0  0
  -13.1268   -6.9400    9.2817 C   0  0  0  0  0  0  0  0  0  0  0  0
  -13.7133   -7.9955   10.2366 C   0  0  0  0  0  0  0  0  0  0  0  0
  -12.7227   -5.7269   10.1002 C   0  0  0  0  0  0  0  0  0  0  0  0
   -8.4658   -9.3180    6.8950 C   0  0  0  0  0  0  0  0  0  0  0  0
   -7.2414   -9.0190    7.7245 C   0  0  0  0  0  0  0  0  0  0  0  0
   -6.2238   -8.3154    6.8416 C   0  0  0  0  0  0  0  0  0  0  0  0
   -5.4189   -7.3768    7.6568 C   0  0  0  0  0  0  0  0  0  0  0  0
   -5.8358   -6.8864    8.6849 O   0  0  0  0  0  0  0  0  0  0  0  0
   -4.0414   -7.0190    7.1932 C   0  0  0  0  0  0  0  0  0  0  0  0
   -4.1720   -6.0802    6.0234 C   0  0  0  0  0  0  0  0  0  0  0  0
   -3.3023   -6.2539    8.2790 C   0  0  0  0  0  0  0  0  0  0  0  0
   -3.3715   -8.3149    6.8326 C   0  0  0  0  0  0  0  0  0  0  0  0
  7  8  1  0  0  0
  8  9  1  0  0  0
  8 10  1  0  0  0
  8  1  1  0  0  0
  1  2  2  0  0  0
  2  3  1  0  0  0
  3  4  2  0  0  0
  4 11  1  0  0  0
 11 12  1  0  0  0
 12 13  1  0  0  0
 13 14  1  0  0  0
 14 15  2  0  0  0
 14 16  1  0  0  0
 16 17  1  0  0  0
 16 18  1  0  0  0
 16 19  1  0  0  0
  4  5  1  0  0  0
  5  6  2  0  0  0
  6  1  1  0  0  0
M  END
> <minimizedAffinity>
-7.58931

> <CNNscore>
0.3935285211

> <CNNaffinity>
5.5885038376

> <CNN_VS>
2.1992356777

> <CNNaffinity_variance>
0.0247199833

$$$$
[H]OC(=O)c1c([H])c([H])c([H])c(N([H])[C@]2([H])C([H])([H])C([H])([H])N(c3c([H])c([H])c([H])c([H])c3[H])C([H])([H])[C@]2([H])C(C([H])([H])[H])(C([H])([H])[H])C([H])([H])[H])c1[H]


 28 30  0  0  0  0  0  0  0  0999 V2000
  -13.1639   -7.7746    8.2629 C   0  0  0  0  0  0  0  0  0  0  0  0
  -13.7598   -6.8902    7.1696 C   0  0  0  0  0  0  0  0  0  0  0  0
  -14.3162   -7.8226    6.2163 N   0  0  0  0  0  0  0  0  0  0  0  0
  -13.8176   -9.1442    6.1236 C   0  0  0  0  0  0  0  0  0  0  0  0
  -12.4622   -9.4125    6.6364 C   0  0  0  0  0  0  0  0  0  0  0  0
  -11.9894   -8.5290    7.7770 C   0  0  0  0  0  0  0  0  0  0  0  0
  -15.3667   -7.4126    5.3661 C   0  0  0  0  0  0  0  0  0  0  0  0
  -15.7240   -6.0624    5.2536 C   0  0  0  0  0  0  0  0  0  0  0  0
  -16.7492   -5.6639    4.4320 C   0  0  0  0  0  0  0  0  0  0  0  0
  -17.4759   -6.5553    3.6810 C   0  0  0  0  0  0  0  0  0  0  0  0
  -17.1424   -7.8774    3.7773 C   0  0  0  0  0  0  0  0  0  0  0  0
  -16.1210   -8.2904    4.5937 C   0  0  0  0  0  0  0  0  0  0  0  0
  -11.5928   -6.8832   10.0271 C   0  0  0  0  0  0  0  0  0  0  0  0
  -12.9907   -7.0364    9.5511 C   0  0  0  0  0  0  0  0  0  0  0  0
  -13.7806   -7.7121   10.6613 C   0  0  0  0  0  0  0  0  0  0  0  0
  -13.5809   -5.6252    9.4391 C   0  0  0  0  0  0  0  0  0  0  0  0
  -10.9147   -7.7321    7.2711 N   0  0  0  0  0  0  0  0  0  0  0  0
  -11.1415   -6.8483    6.7697 H   0  0  0  0  0  0  0  0  0  0  0  0
   -9.5442   -8.0665    7.4050 C   0  0  0  0  0  0  0  0  0  0  0  0
   -9.1243   -9.3509    7.7304 C   0  0  0  0  0  0  0  0  0  0  0  0
   -7.8044   -9.7081    7.8594 C   0  0  0  0  0  0  0  0  0  0  0  0
   -6.8351   -8.7630    7.6610 C   0  0  0  0  0  0  0  0  0  0  0  0
   -7.2237   -7.4647    7.3332 C   0  0  0  0  0  0  0  0  0  0  0  0
   -8.5548   -7.1284    7.2088 C   0  0  0  0  0  0  0  0  0  0  0  0
   -6.1902   -6.4610    7.1224 C   0  0  0  0  0  0  0  0  0  0  0  0
   -5.9866   -5.9141    5.8576 O   0  0  0  0  0  0  0  0  0  0  0  0
   -5.4798   -6.0922    8.1023 O   0  0  0  0  0  0  0  0  0  0  0  0
   -5.4694   -5.0574    5.7415 H   0  0  0  0  0  0  0  0  0  0  0  0
 13 14  1  0  0  0
 14 15  1  0  0  0
 14 16  1  0  0  0
 14  1  1  0  0  0
  1  2  1  0  0  0
  2  3  1  0  0  0
  3  4  1  0  0  0
  4  5  1  0  0  0
  5  6  1  0  0  0
  6 17  1  0  0  0
 17 19  1  0  0  0
 19 20  2  0  0  0
 20 21  1  0  0  0
 21 22  2  0  0  0
 22 23  1  0  0  0
 23 24  2  0  0  0
 23 25  1  0  0  0
 25 26  1  0  0  0
 25 27  2  0  0  0
  3  7  1  0  0  0
  7  8  2  0  0  0
  8  9  1  0  0  0
  9 10  2  0  0  0
 10 11  1  0  0  0
 11 12  2  0  0  0
  6  1  1  0  0  0
 24 19  1  0  0  0
 12  7  1  0  0  0
 17 18  1  0  0  0
 26 28  1  0  0  0
M  END
> <minimizedAffinity>
-9.55595

> <CNNscore>
0.5983191133

> <CNNaffinity>
6.9925222397

> <CNN_VS>
4.1837596893

> <CNNaffinity_variance>
0.0669668168

$$$$
[H]OC(=O)c1c([H])c([H])c([H])c(N([H])[C@]2([H])C([H])([H])C([H])([H])N(c3c([H])c([H])c([H])c([H])c3[H])C([H])([H])[C@]2([H])C(C([H])([H])[H])(C([H])([H])[H])C([H])([H])[H])c1[H]


 28 30  0  0  0  0  0  0  0  0999 V2000
   -8.2292  -10.0599    6.6181 C   0  0  0  0  0  0  0  0  0  0  0  0
   -8.1066   -8.5538    6.3962 C   0  0  0  0  0  0  0  0  0  0  0  0
   -6.7516   -8.2416    6.7891 N   0  0  0  0  0  0  0  0  0  0  0  0
   -6.0555   -9.0699    7.7019 C   0  0  0  0  0  0  0  0  0  0  0  0
   -6.8453   -9.9407    8.5907 C   0  0  0  0  0  0  0  0  0  0  0  0
   -8.1870  -10.4067    8.0543 C   0  0  0  0  0  0  0  0  0  0  0  0
   -6.1142   -7.0979    6.2598 C   0  0  0  0  0  0  0  0  0  0  0  0
   -6.6418   -6.4204    5.1525 C   0  0  0  0  0  0  0  0  0  0  0  0
   -6.0193   -5.3123    4.6336 C   0  0  0  0  0  0  0  0  0  0  0  0
   -4.8564   -4.8088    5.1636 C   0  0  0  0  0  0  0  0  0  0  0  0
   -4.3259   -5.4562    6.2444 C   0  0  0  0  0  0  0  0  0  0  0  0
   -4.9363   -6.5642    6.7735 C   0  0  0  0  0  0  0  0  0  0  0  0
  -10.6336   -9.9152    5.8610 C   0  0  0  0  0  0  0  0  0  0  0  0
   -9.3474  -10.6558    5.8251 C   0  0  0  0  0  0  0  0  0  0  0  0
   -9.6257  -12.0786    6.2847 C   0  0  0  0  0  0  0  0  0  0  0  0
   -8.9458  -10.7808    4.3501 C   0  0  0  0  0  0  0  0  0  0  0  0
   -9.1961   -9.7954    8.8629 N   0  0  0  0  0  0  0  0  0  0  0  0
   -9.5221  -10.2944    9.7165 H   0  0  0  0  0  0  0  0  0  0  0  0
   -9.7926   -8.5417    8.5789 C   0  0  0  0  0  0  0  0  0  0  0  0
   -9.0644   -7.3578    8.5831 C   0  0  0  0  0  0  0  0  0  0  0  0
   -9.6115   -6.1293    8.3043 C   0  0  0  0  0  0  0  0  0  0  0  0
  -10.9437   -6.0449    8.0039 C   0  0  0  0  0  0  0  0  0  0  0  0
  -11.7021   -7.2148    7.9913 C   0  0  0  0  0  0  0  0  0  0  0  0
  -11.1320   -8.4376    8.2743 C   0  0  0  0  0  0  0  0  0  0  0  0
  -13.1194   -7.1222    7.6713 C   0  0  0  0  0  0  0  0  0  0  0  0
  -14.0426   -6.7752    8.6549 O   0  0  0  0  0  0  0  0  0  0  0  0
  -13.5015   -7.3607    6.4889 O   0  0  0  0  0  0  0  0  0  0  0  0
  -14.9675   -6.4609    8.4086 H   0  0  0  0  0  0  0  0  0  0  0  0
 13 14  1  0  0  0
 14 15  1  0  0  0
 14 16  1  0  0  0
 14  1  1  0  0  0
  1  2  1  0  0  0
  2  3  1  0  0  0
  3  4  1  0  0  0
  4  5  1  0  0  0
  5  6  1  0  0  0
  6 17  1  0  0  0
 17 19  1  0  0  0
 19 20  2  0  0  0
 20 21  1  0  0  0
 21 22  2  0  0  0
 22 23  1  0  0  0
 23 24  2  0  0  0
 23 25  1  0  0  0
 25 26  1  0  0  0
 25 27  2  0  0  0
  3  7  1  0  0  0
  7  8  2  0  0  0
  8  9  1  0  0  0
  9 10  2  0  0  0
 10 11  1  0  0  0
 11 12  2  0  0  0
  6  1  1  0  0  0
 24 19  1  0  0  0
 12  7  1  0  0  0
 17 18  1  0  0  0
 26 28  1  0  0  0
M  END
> <minimizedAffinity>
6.37184

> <CNNscore>
0.5019466877

> <CNNaffinity>
6.0130629539

> <CNN_VS>
3.0182371140

> <CNNaffinity_variance>
1.0111309290

$$$$
[H]OC(=O)c1c([H])c([H])c([H])c(N([H])[C@]2([H])C([H])([H])C([H])([H])N(c3c([H])c([H])c([H])c([H])c3[H])C([H])([H])[C@]2([H])C(C([H])([H])[H])(C([H])([H])[H])C([H])([H])[H])c1[H]


 28 30  0  0  0  0  0  0  0  0999 V2000
  -13.3837   -7.4932    7.6842 C   0  0  0  0  0  0  0  0  0  0  0  0
  -13.5074   -6.8329    6.3126 C   0  0  0  0  0  0  0  0  0  0  0  0
  -14.6519   -5.9595    6.4361 N   0  0  0  0  0  0  0  0  0  0  0  0
  -15.6586   -6.2198    7.3965 C   0  0  0  0  0  0  0  0  0  0  0  0
  -15.7828   -7.5930    7.9173 C   0  0  0  0  0  0  0  0  0  0  0  0
  -14.5073   -8.4156    7.9510 C   0  0  0  0  0  0  0  0  0  0  0  0
  -14.7702   -4.8353    5.5894 C   0  0  0  0  0  0  0  0  0  0  0  0
  -15.1524   -4.9741    4.2484 C   0  0  0  0  0  0  0  0  0  0  0  0
  -15.2614   -3.8823    3.4232 C   0  0  0  0  0  0  0  0  0  0  0  0
  -15.0053   -2.6051    3.8590 C   0  0  0  0  0  0  0  0  0  0  0  0
  -14.6309   -2.4493    5.1644 C   0  0  0  0  0  0  0  0  0  0  0  0
  -14.5175   -3.5302    6.0004 C   0  0  0  0  0  0  0  0  0  0  0  0
  -11.8668   -8.9347    9.0973 C   0  0  0  0  0  0  0  0  0  0  0  0
  -12.0111   -8.0333    7.9264 C   0  0  0  0  0  0  0  0  0  0  0  0
  -11.0153   -6.8967    8.0985 C   0  0  0  0  0  0  0  0  0  0  0  0
  -11.5225   -8.8138    6.6998 C   0  0  0  0  0  0  0  0  0  0  0  0
  -14.6683   -9.4762    7.0048 N   0  0  0  0  0  0  0  0  0  0  0  0
  -14.4495  -10.4492    7.3035 H   0  0  0  0  0  0  0  0  0  0  0  0
  -15.1092   -9.2925    5.6706 C   0  0  0  0  0  0  0  0  0  0  0  0
  -14.3032   -9.5886    4.5776 C   0  0  0  0  0  0  0  0  0  0  0  0
  -14.7042   -9.4293    3.2737 C   0  0  0  0  0  0  0  0  0  0  0  0
  -15.9612   -8.9547    3.0155 C   0  0  0  0  0  0  0  0  0  0  0  0
  -16.7945   -8.6483    4.0907 C   0  0  0  0  0  0  0  0  0  0  0  0
  -16.3712   -8.8160    5.3918 C   0  0  0  0  0  0  0  0  0  0  0  0
  -18.1317   -8.1435    3.8131 C   0  0  0  0  0  0  0  0  0  0  0  0
  -19.2194   -8.5779    4.5671 O   0  0  0  0  0  0  0  0  0  0  0  0
  -18.2930   -7.3057    2.8787 O   0  0  0  0  0  0  0  0  0  0  0  0
  -20.0870   -8.0660    4.5663 H   0  0  0  0  0  0  0  0  0  0  0  0
 13 14  1  0  0  0
 14 15  1  0  0  0
 14 16  1  0  0  0
 14  1  1  0  0  0
  1  2  1  0  0  0
  2  3  1  0  0  0
  3  4  1  0  0  0
  4  5  1  0  0  0
  5  6  1  0  0  0
  6 17  1  0  0  0
 17 19  1  0  0  0
 19 20  2  0  0  0
 20 21  1  0  0  0
 21 22  2  0  0  0
 22 23  1  0  0  0
 23 24  2  0  0  0
 23 25  1  0  0  0
 25 26  1  0  0  0
 25 27  2  0  0  0
  3  7  1  0  0  0
  7  8  2  0  0  0
  8  9  1  0  0  0
  9 10  2  0  0  0
 10 11  1  0  0  0
 11 12  2  0  0  0
  6  1  1  0  0  0
 24 19  1  0  0  0
 12  7  1  0  0  0
 17 18  1  0  0  0
 26 28  1  0  0  0
M  END
> <minimizedAffinity>
3.25292

> <CNNscore>
0.4698216617

> <CNNaffinity>
6.6468544006

> <CNN_VS>
3.1228361130

> <CNNaffinity_variance>
0.5901227593

$$$$
[H]OC(=O)c1c([H])c([H])c([H])c(N([H])[C@]2([H])C([H])([H])C([H])([H])N(c3c([H])c([H])c([H])c([H])c3[H])C([H])([H])[C@]2([H])C(C([H])([H])[H])(C([H])([H])[H])C([H])([H])[H])c1[H]


 28 30  0  0  0  0  0  0  0  0999 V2000
  -10.7189   -8.7924    6.9768 C   0  0  0  0  0  0  0  0  0  0  0  0
  -12.1165   -9.1982    6.5134 C   0  0  0  0  0  0  0  0  0  0  0  0
  -12.7640   -7.9484    6.1872 N   0  0  0  0  0  0  0  0  0  0  0  0
  -12.3364   -6.7370    6.7815 C   0  0  0  0  0  0  0  0  0  0  0  0
  -11.5854   -6.8118    8.0475 C   0  0  0  0  0  0  0  0  0  0  0  0
  -10.7582   -8.0664    8.2636 C   0  0  0  0  0  0  0  0  0  0  0  0
  -13.8361   -7.9335    5.2680 C   0  0  0  0  0  0  0  0  0  0  0  0
  -14.2321   -9.0978    4.5964 C   0  0  0  0  0  0  0  0  0  0  0  0
  -15.2701   -9.0826    3.6980 C   0  0  0  0  0  0  0  0  0  0  0  0
  -15.9728   -7.9384    3.4085 C   0  0  0  0  0  0  0  0  0  0  0  0
  -15.6013   -6.7920    4.0537 C   0  0  0  0  0  0  0  0  0  0  0  0
  -14.5665   -6.7917    4.9534 C   0  0  0  0  0  0  0  0  0  0  0  0
  -10.2637  -11.2583    7.2730 C   0  0  0  0  0  0  0  0  0  0  0  0
   -9.7453   -9.9228    6.8832 C   0  0  0  0  0  0  0  0  0  0  0  0
   -8.5193   -9.6406    7.7379 C   0  0  0  0  0  0  0  0  0  0  0  0
   -9.2153  -10.0512    5.4497 C   0  0  0  0  0  0  0  0  0  0  0  0
  -11.3541   -8.7783    9.3517 N   0  0  0  0  0  0  0  0  0  0  0  0
  -10.7972   -9.5165    9.8300 H   0  0  0  0  0  0  0  0  0  0  0  0
  -12.6679   -8.5471    9.8299 C   0  0  0  0  0  0  0  0  0  0  0  0
  -12.9377   -8.3288   11.1758 C   0  0  0  0  0  0  0  0  0  0  0  0
  -14.1980   -8.0940   11.6688 C   0  0  0  0  0  0  0  0  0  0  0  0
  -15.2586   -8.0699   10.8048 C   0  0  0  0  0  0  0  0  0  0  0  0
  -15.0210   -8.2853    9.4478 C   0  0  0  0  0  0  0  0  0  0  0  0
  -13.7475   -8.5191    8.9748 C   0  0  0  0  0  0  0  0  0  0  0  0
  -16.1514   -8.2589    8.5305 C   0  0  0  0  0  0  0  0  0  0  0  0
  -17.3298   -8.9317    8.8450 O   0  0  0  0  0  0  0  0  0  0  0  0
  -16.0496   -7.6174    7.4447 O   0  0  0  0  0  0  0  0  0  0  0  0
  -18.1897   -8.7218    8.3638 H   0  0  0  0  0  0  0  0  0  0  0  0
 13 14  1  0  0  0
 14 15  1  0  0  0
 14 16  1  0  0  0
 14  1  1  0  0  0
  1  2  1  0  0  0
  2  3  1  0  0  0
  3  4  1  0  0  0
  4  5  1  0  0  0
  5  6  1  0  0  0
  6 17  1  0  0  0
 17 19  1  0  0  0
 19 20  2  0  0  0
 20 21  1  0  0  0
 21 22  2  0  0  0
 22 23  1  0  0  0
 23 24  2  0  0  0
 23 25  1  0  0  0
 25 26  1  0  0  0
 25 27  2  0  0  0
  3  7  1  0  0  0
  7  8  2  0  0  0
  8  9  1  0  0  0
  9 10  2  0  0  0
 10 11  1  0  0  0
 11 12  2  0  0  0
  6  1  1  0  0  0
 24 19  1  0  0  0
 12  7  1  0  0  0
 17 18  1  0  0  0
 26 28  1  0  0  0
M  END
> <minimizedAffinity>
2.98288

> <CNNscore>
0.4468442202

> <CNNaffinity>
6.3347368240

> <CNN_VS>
2.8306405544

> <CNNaffinity_variance>
0.3553965092

$$$$
[H]OC(=O)c1c([H])c([H])c([H])c(N([H])[C@]2([H])C([H])([H])C([H])([H])N(c3c([H])c([H])c([H])c([H])c3[H])C([H])([H])[C@]2([H])C(C([H])([H])[H])(C([H])([H])[H])C([H])([H])[H])c1[H]


 28 30  0  0  0  0  0  0  0  0999 V2000
   -2.2723   -7.6848    7.1932 C   0  0  0  0  0  0  0  0  0  0  0  0
   -2.7445   -8.9925    7.8254 C   0  0  0  0  0  0  0  0  0  0  0  0
   -1.7956   -9.9789    7.3620 N   0  0  0  0  0  0  0  0  0  0  0  0
   -1.0714   -9.7765    6.1628 C   0  0  0  0  0  0  0  0  0  0  0  0
   -1.6168   -8.8299    5.1736 C   0  0  0  0  0  0  0  0  0  0  0  0
   -2.4528   -7.6895    5.7263 C   0  0  0  0  0  0  0  0  0  0  0  0
   -1.5890  -11.1584    8.1107 C   0  0  0  0  0  0  0  0  0  0  0  0
   -1.4602  -11.1193    9.5054 C   0  0  0  0  0  0  0  0  0  0  0  0
   -1.2529  -12.2648   10.2331 C   0  0  0  0  0  0  0  0  0  0  0  0
   -1.1610  -13.5019    9.6432 C   0  0  0  0  0  0  0  0  0  0  0  0
   -1.2840  -13.5606    8.2831 C   0  0  0  0  0  0  0  0  0  0  0  0
   -1.4911  -12.4250    7.5430 C   0  0  0  0  0  0  0  0  0  0  0  0
   -3.3857   -5.4217    7.0744 C   0  0  0  0  0  0  0  0  0  0  0  0
   -2.7940   -6.4880    7.9212 C   0  0  0  0  0  0  0  0  0  0  0  0
   -1.6930   -5.8515    8.7554 C   0  0  0  0  0  0  0  0  0  0  0  0
   -3.8715   -6.9063    8.9293 C   0  0  0  0  0  0  0  0  0  0  0  0
   -3.7938   -7.8963    5.2738 N   0  0  0  0  0  0  0  0  0  0  0  0
   -3.9447   -8.2789    4.3174 H   0  0  0  0  0  0  0  0  0  0  0  0
   -4.9474   -7.6113    6.0460 C   0  0  0  0  0  0  0  0  0  0  0  0
   -5.5636   -6.3656    6.0237 C   0  0  0  0  0  0  0  0  0  0  0  0
   -6.6864   -6.0612    6.7538 C   0  0  0  0  0  0  0  0  0  0  0  0
   -7.2437   -7.0222    7.5525 C   0  0  0  0  0  0  0  0  0  0  0  0
   -6.6492   -8.2826    7.5969 C   0  0  0  0  0  0  0  0  0  0  0  0
   -5.5222   -8.5662    6.8554 C   0  0  0  0  0  0  0  0  0  0  0  0
   -7.2444   -9.3034    8.4475 C   0  0  0  0  0  0  0  0  0  0  0  0
   -7.6248   -8.9991    9.7525 O   0  0  0  0  0  0  0  0  0  0  0  0
   -7.4115  -10.4698    7.9864 O   0  0  0  0  0  0  0  0  0  0  0  0
   -8.2562   -9.5978   10.2603 H   0  0  0  0  0  0  0  0  0  0  0  0
 13 14  1  0  0  0
 14 15  1  0  0  0
 14 16  1  0  0  0
 14  1  1  0  0  0
  1  2  1  0  0  0
  2  3  1  0  0  0
  3  4  1  0  0  0
  4  5  1  0  0  0
  5  6  1  0  0  0
  6 17  1  0  0  0
 17 19  1  0  0  0
 19 20  2  0  0  0
 20 21  1  0  0  0
 21 22  2  0  0  0
 22 23  1  0  0  0
 23 24  2  0  0  0
 23 25  1  0  0  0
 25 26  1  0  0  0
 25 27  2  0  0  0
  3  7  1  0  0  0
  7  8  2  0  0  0
  8  9  1  0  0  0
  9 10  2  0  0  0
 10 11  1  0  0  0
 11 12  2  0  0  0
  6  1  1  0  0  0
 24 19  1  0  0  0
 12  7  1  0  0  0
 17 18  1  0  0  0
 26 28  1  0  0  0
M  END
> <minimizedAffinity>
-0.95938

> <CNNscore>
0.4127354622

> <CNNaffinity>
5.2416028976

> <CNN_VS>
2.1633954048

> <CNNaffinity_variance>
1.0194262266

$$$$
[H]OC(=O)c1c([H])c([H])c([H])c(N([H])[C@]2([H])C([H])([H])C([H])([H])N(c3c([H])c([H])c([H])c([H])c3[H])C([H])([H])[C@]2([H])C(C([H])([H])[H])(C([H])([H])[H])C([H])([H])[H])c1[H]


 28 30  0  0  0  0  0  0  0  0999 V2000
  -14.1468   -7.1854    7.6812 C   0  0  0  0  0  0  0  0  0  0  0  0
  -14.1817   -8.3454    8.6742 C   0  0  0  0  0  0  0  0  0  0  0  0
  -13.9222   -7.7297    9.9554 N   0  0  0  0  0  0  0  0  0  0  0  0
  -13.2200   -6.5035   10.0383 C   0  0  0  0  0  0  0  0  0  0  0  0
  -12.3628   -6.1162    8.9036 C   0  0  0  0  0  0  0  0  0  0  0  0
  -12.7854   -6.6281    7.5382 C   0  0  0  0  0  0  0  0  0  0  0  0
  -14.3709   -8.3574   11.1383 C   0  0  0  0  0  0  0  0  0  0  0  0
  -13.4649   -8.8756   12.0732 C   0  0  0  0  0  0  0  0  0  0  0  0
  -13.9006   -9.4915   13.2202 C   0  0  0  0  0  0  0  0  0  0  0  0
  -15.2347   -9.6338   13.5149 C   0  0  0  0  0  0  0  0  0  0  0  0
  -16.1342   -9.1346   12.6148 C   0  0  0  0  0  0  0  0  0  0  0  0
  -15.7140   -8.5172   11.4648 C   0  0  0  0  0  0  0  0  0  0  0  0
  -14.8812   -6.4395    5.3835 C   0  0  0  0  0  0  0  0  0  0  0  0
  -14.8667   -7.5100    6.4121 C   0  0  0  0  0  0  0  0  0  0  0  0
  -16.3117   -7.8858    6.7017 C   0  0  0  0  0  0  0  0  0  0  0  0
  -14.2522   -8.7519    5.7546 C   0  0  0  0  0  0  0  0  0  0  0  0
  -11.7843   -7.5561    7.1111 N   0  0  0  0  0  0  0  0  0  0  0  0
  -12.0563   -8.3168    6.4544 H   0  0  0  0  0  0  0  0  0  0  0  0
  -10.4300   -7.5131    7.5260 C   0  0  0  0  0  0  0  0  0  0  0  0
   -9.8948   -6.4172    8.1926 C   0  0  0  0  0  0  0  0  0  0  0  0
   -8.5895   -6.3487    8.6145 C   0  0  0  0  0  0  0  0  0  0  0  0
   -7.7547   -7.4060    8.3751 C   0  0  0  0  0  0  0  0  0  0  0  0
   -8.2613   -8.5208    7.7083 C   0  0  0  0  0  0  0  0  0  0  0  0
   -9.5752   -8.5680    7.2938 C   0  0  0  0  0  0  0  0  0  0  0  0
   -7.3709   -9.6445    7.4550 C   0  0  0  0  0  0  0  0  0  0  0  0
   -6.4417   -9.5876    6.4188 O   0  0  0  0  0  0  0  0  0  0  0  0
   -7.4519  -10.6729    8.1877 O   0  0  0  0  0  0  0  0  0  0  0  0
   -5.6629  -10.2258    6.3866 H   0  0  0  0  0  0  0  0  0  0  0  0
 13 14  1  0  0  0
 14 15  1  0  0  0
 14 16  1  0  0  0
 14  1  1  0  0  0
  1  2  1  0  0  0
  2  3  1  0  0  0
  3  4  1  0  0  0
  4  5  1  0  0  0
  5  6  1  0  0  0
  6 17  1  0  0  0
 17 19  1  0  0  0
 19 20  2  0  0  0
 20 21  1  0  0  0
 21 22  2  0  0  0
 22 23  1  0  0  0
 23 24  2  0  0  0
 23 25  1  0  0  0
 25 26  1  0  0  0
 25 27  2  0  0  0
  3  7  1  0  0  0
  7  8  2  0  0  0
  8  9  1  0  0  0
  9 10  2  0  0  0
 10 11  1  0  0  0
 11 12  2  0  0  0
  6  1  1  0  0  0
 24 19  1  0  0  0
 12  7  1  0  0  0
 17 18  1  0  0  0
 26 28  1  0  0  0
M  END
> <minimizedAffinity>
6.63565

> <CNNscore>
0.3863069415

> <CNNaffinity>
6.3967232704

> <CNN_VS>
2.4710986614

> <CNNaffinity_variance>
0.9232057333

$$$$
[H]OC(=O)c1c([H])c([H])c([H])c(N([H])[C@]2([H])C([H])([H])C([H])([H])N(c3c([H])c([H])c([H])c([H])c3[H])C([H])([H])[C@]2([H])C(C([H])([H])[H])(C([H])([H])[H])C([H])([H])[H])c1[H]


 28 30  0  0  0  0  0  0  0  0999 V2000
  -13.7964   -7.8988    8.1340 C   0  0  0  0  0  0  0  0  0  0  0  0
  -14.2557   -6.7182    7.2808 C   0  0  0  0  0  0  0  0  0  0  0  0
  -14.7606   -7.3245    6.0703 N   0  0  0  0  0  0  0  0  0  0  0  0
  -14.3088   -8.6015    5.6595 C   0  0  0  0  0  0  0  0  0  0  0  0
  -13.0168   -9.0818    6.1813 C   0  0  0  0  0  0  0  0  0  0  0  0
  -12.6139   -8.5675    7.5518 C   0  0  0  0  0  0  0  0  0  0  0  0
  -15.7131   -6.6366    5.2865 C   0  0  0  0  0  0  0  0  0  0  0  0
  -15.4518   -5.3535    4.7878 C   0  0  0  0  0  0  0  0  0  0  0  0
  -16.3798   -4.6818    4.0312 C   0  0  0  0  0  0  0  0  0  0  0  0
  -17.6042   -5.2223    3.7223 C   0  0  0  0  0  0  0  0  0  0  0  0
  -17.8778   -6.4735    4.1999 C   0  0  0  0  0  0  0  0  0  0  0  0
  -16.9610   -7.1565    4.9571 C   0  0  0  0  0  0  0  0  0  0  0  0
  -13.3485   -6.1375    9.8869 C   0  0  0  0  0  0  0  0  0  0  0  0
  -13.7108   -7.5450    9.5838 C   0  0  0  0  0  0  0  0  0  0  0  0
  -12.7036   -8.4390   10.2906 C   0  0  0  0  0  0  0  0  0  0  0  0
  -15.0501   -7.8203   10.2786 C   0  0  0  0  0  0  0  0  0  0  0  0
  -11.4672   -7.7332    7.3651 N   0  0  0  0  0  0  0  0  0  0  0  0
  -11.6128   -6.7246    7.1526 H   0  0  0  0  0  0  0  0  0  0  0  0
  -10.1283   -8.1900    7.4487 C   0  0  0  0  0  0  0  0  0  0  0  0
   -9.8117   -9.5400    7.5446 C   0  0  0  0  0  0  0  0  0  0  0  0
   -8.5249  -10.0143    7.6189 C   0  0  0  0  0  0  0  0  0  0  0  0
   -7.4843   -9.1261    7.5992 C   0  0  0  0  0  0  0  0  0  0  0  0
   -7.7687   -7.7645    7.5036 C   0  0  0  0  0  0  0  0  0  0  0  0
   -9.0683   -7.3106    7.4301 C   0  0  0  0  0  0  0  0  0  0  0  0
   -6.6595   -6.8215    7.4827 C   0  0  0  0  0  0  0  0  0  0  0  0
   -6.1126   -6.3505    8.6740 O   0  0  0  0  0  0  0  0  0  0  0  0
   -6.1991   -6.4356    6.3691 O   0  0  0  0  0  0  0  0  0  0  0  0
   -5.2055   -5.9124    8.6893 H   0  0  0  0  0  0  0  0  0  0  0  0
 13 14  1  0  0  0
 14 15  1  0  0  0
 14 16  1  0  0  0
 14  1  1  0  0  0
  1  2  1  0  0  0
  2  3  1  0  0  0
  3  4  1  0  0  0
  4  5  1  0  0  0
  5  6  1  0  0  0
  6 17  1  0  0  0
 17 19  1  0  0  0
 19 20  2  0  0  0
 20 21  1  0  0  0
 21 22  2  0  0  0
 22 23  1  0  0  0
 23 24  2  0  0  0
 23 25  1  0  0  0
 25 26  1  0  0  0
 25 27  2  0  0  0
  3  7  1  0  0  0
  7  8  2  0  0  0
  8  9  1  0  0  0
  9 10  2  0  0  0
 10 11  1  0  0  0
 11 12  2  0  0  0
  6  1  1  0  0  0
 24 19  1  0  0  0
 12  7  1  0  0  0
 17 18  1  0  0  0
 26 28  1  0  0  0
M  END
> <minimizedAffinity>
-9.45666

> <CNNscore>
0.3863022327

> <CNNaffinity>
6.7246332169

> <CNN_VS>
2.5977408886

> <CNNaffinity_variance>
0.0400676504

$$$$
[H]OC(=O)c1c([H])c([H])c([H])c(N([H])[C@]2([H])C([H])([H])C([H])([H])N(c3c([H])c([H])c([H])c([H])c3[H])C([H])([H])[C@]2([H])C(C([H])([H])[H])(C([H])([H])[H])C([H])([H])[H])c1[H]


 28 30  0  0  0  0  0  0  0  0999 V2000
  -15.3130   -7.1624    7.4429 C   0  0  0  0  0  0  0  0  0  0  0  0
  -15.0453   -8.3514    8.3634 C   0  0  0  0  0  0  0  0  0  0  0  0
  -14.3641   -7.7785    9.5016 N   0  0  0  0  0  0  0  0  0  0  0  0
  -13.6459   -6.5651    9.3777 C   0  0  0  0  0  0  0  0  0  0  0  0
  -13.2018   -6.1553    8.0334 C   0  0  0  0  0  0  0  0  0  0  0  0
  -14.0623   -6.6197    6.8721 C   0  0  0  0  0  0  0  0  0  0  0  0
  -14.4123   -8.4356   10.7509 C   0  0  0  0  0  0  0  0  0  0  0  0
  -13.3266   -9.1892   11.2165 C   0  0  0  0  0  0  0  0  0  0  0  0
  -13.3752   -9.8333   12.4279 C   0  0  0  0  0  0  0  0  0  0  0  0
  -14.4782   -9.7771   13.2447 C   0  0  0  0  0  0  0  0  0  0  0  0
  -15.5477   -9.0467   12.8077 C   0  0  0  0  0  0  0  0  0  0  0  0
  -15.5139   -8.3981   11.6000 C   0  0  0  0  0  0  0  0  0  0  0  0
  -16.8729   -6.2812    5.6636 C   0  0  0  0  0  0  0  0  0  0  0  0
  -16.4181   -7.4384    6.4749 C   0  0  0  0  0  0  0  0  0  0  0  0
  -17.6337   -7.9944    7.2004 C   0  0  0  0  0  0  0  0  0  0  0  0
  -16.0004   -8.5371    5.4897 C   0  0  0  0  0  0  0  0  0  0  0  0
  -13.2795   -7.5479    6.1162 N   0  0  0  0  0  0  0  0  0  0  0  0
  -13.5967   -7.8050    5.1585 H   0  0  0  0  0  0  0  0  0  0  0  0
  -12.0869   -8.1518    6.5866 C   0  0  0  0  0  0  0  0  0  0  0  0
  -11.9415   -9.5312    6.6763 C   0  0  0  0  0  0  0  0  0  0  0  0
  -10.7966  -10.1464    7.1201 C   0  0  0  0  0  0  0  0  0  0  0  0
   -9.7301   -9.3776    7.4991 C   0  0  0  0  0  0  0  0  0  0  0  0
   -9.8442   -7.9902    7.4208 C   0  0  0  0  0  0  0  0  0  0  0  0
  -11.0033   -7.3939    6.9722 C   0  0  0  0  0  0  0  0  0  0  0  0
   -8.7078   -7.1744    7.8246 C   0  0  0  0  0  0  0  0  0  0  0  0
   -8.0412   -7.4368    9.0192 O   0  0  0  0  0  0  0  0  0  0  0  0
   -8.3338   -6.2246    7.0769 O   0  0  0  0  0  0  0  0  0  0  0  0
   -7.1211   -7.0643    9.1909 H   0  0  0  0  0  0  0  0  0  0  0  0
 13 14  1  0  0  0
 14 15  1  0  0  0
 14 16  1  0  0  0
 14  1  1  0  0  0
  1  2  1  0  0  0
  2  3  1  0  0  0
  3  4  1  0  0  0
  4  5  1  0  0  0
  5  6  1  0  0  0
  6 17  1  0  0  0
 17 19  1  0  0  0
 19 20  2  0  0  0
 20 21  1  0  0  0
 21 22  2  0  0  0
 22 23  1  0  0  0
 23 24  2  0  0  0
 23 25  1  0  0  0
 25 26  1  0  0  0
 25 27  2  0  0  0
  3  7  1  0  0  0
  7  8  2  0  0  0
  8  9  1  0  0  0
  9 10  2  0  0  0
 10 11  1  0  0  0
 11 12  2  0  0  0
  6  1  1  0  0  0
 24 19  1  0  0  0
 12  7  1  0  0  0
 17 18  1  0  0  0
 26 28  1  0  0  0
M  END
> <minimizedAffinity>
4.39973

> <CNNscore>
0.3215106726

> <CNNaffinity>
6.3025031090

> <CNN_VS>
2.0263221264

> <CNNaffinity_variance>
0.4524960518

$$$$
[H]OC(=O)c1c([H])c([H])c([H])c(N([H])[C@]2([H])C([H])([H])C([H])([H])N(c3c([H])c([H])c([H])c([H])c3[H])C([H])([H])[C@]2([H])C(C([H])([H])[H])(C([H])([H])[H])C([H])([H])[H])c1[H]


 28 30  0  0  0  0  0  0  0  0999 V2000
   -7.8766   -7.3240    6.8129 C   0  0  0  0  0  0  0  0  0  0  0  0
   -6.8015   -6.7862    7.7551 C   0  0  0  0  0  0  0  0  0  0  0  0
   -5.7221   -7.7411    7.6512 N   0  0  0  0  0  0  0  0  0  0  0  0
   -5.9745   -9.0757    7.2526 C   0  0  0  0  0  0  0  0  0  0  0  0
   -7.3430   -9.6000    7.4091 C   0  0  0  0  0  0  0  0  0  0  0  0
   -8.4660   -8.5824    7.3165 C   0  0  0  0  0  0  0  0  0  0  0  0
   -4.4014   -7.3414    7.9520 C   0  0  0  0  0  0  0  0  0  0  0  0
   -3.2990   -8.0731    7.4906 C   0  0  0  0  0  0  0  0  0  0  0  0
   -2.0151   -7.6886    7.7880 C   0  0  0  0  0  0  0  0  0  0  0  0
   -1.7394   -6.5770    8.5463 C   0  0  0  0  0  0  0  0  0  0  0  0
   -2.8019   -5.8500    9.0058 C   0  0  0  0  0  0  0  0  0  0  0  0
   -4.0897   -6.2218    8.7171 C   0  0  0  0  0  0  0  0  0  0  0  0
   -8.4887   -5.5150    5.1611 C   0  0  0  0  0  0  0  0  0  0  0  0
   -8.8411   -6.2610    6.3954 C   0  0  0  0  0  0  0  0  0  0  0  0
   -9.0240   -5.2419    7.5094 C   0  0  0  0  0  0  0  0  0  0  0  0
  -10.2329   -6.8645    6.1697 C   0  0  0  0  0  0  0  0  0  0  0  0
   -9.0668   -8.5032    8.6121 N   0  0  0  0  0  0  0  0  0  0  0  0
   -8.4766   -8.6926    9.4485 H   0  0  0  0  0  0  0  0  0  0  0  0
  -10.4281   -8.1821    8.8400 C   0  0  0  0  0  0  0  0  0  0  0  0
  -10.8128   -7.0469    9.5436 C   0  0  0  0  0  0  0  0  0  0  0  0
  -12.1228   -6.7044    9.7738 C   0  0  0  0  0  0  0  0  0  0  0  0
  -13.1178   -7.5112    9.2931 C   0  0  0  0  0  0  0  0  0  0  0  0
  -12.7646   -8.6580    8.5829 C   0  0  0  0  0  0  0  0  0  0  0  0
  -11.4429   -8.9824    8.3634 C   0  0  0  0  0  0  0  0  0  0  0  0
  -13.8253   -9.5147    8.0723 C   0  0  0  0  0  0  0  0  0  0  0  0
  -13.5995  -10.8753    7.8770 O   0  0  0  0  0  0  0  0  0  0  0  0
  -14.9542   -9.0079    7.8082 O   0  0  0  0  0  0  0  0  0  0  0  0
  -14.3685  -11.5179    7.7740 H   0  0  0  0  0  0  0  0  0  0  0  0
 13 14  1  0  0  0
 14 15  1  0  0  0
 14 16  1  0  0  0
 14  1  1  0  0  0
  1  2  1  0  0  0
  2  3  1  0  0  0
  3  4  1  0  0  0
  4  5  1  0  0  0
  5  6  1  0  0  0
  6 17  1  0  0  0
 17 19  1  0  0  0
 19 20  2  0  0  0
 20 21  1  0  0  0
 21 22  2  0  0  0
 22 23  1  0  0  0
 23 24  2  0  0  0
 23 25  1  0  0  0
 25 26  1  0  0  0
 25 27  2  0  0  0
  3  7  1  0  0  0
  7  8  2  0  0  0
  8  9  1  0  0  0
  9 10  2  0  0  0
 10 11  1  0  0  0
 11 12  2  0  0  0
  6  1  1  0  0  0
 24 19  1  0  0  0
 12  7  1  0  0  0
 17 18  1  0  0  0
 26 28  1  0  0  0
M  END
> <minimizedAffinity>
-0.56292

> <CNNscore>
0.2808222175

> <CNNaffinity>
5.7712211609

> <CNN_VS>
1.6206871271

> <CNNaffinity_variance>
0.3031154871

$$$$
[H]Oc1c([H])c([H])c2c([H])c(C#N)c(C(O[H])(C([H])([H])[H])C([H])([H])C([H])([H])C([H])([H])C([H])([H])[H])c([H])c2c1[H]


 22 23  0  0  0  0  0  0  0  0999 V2000
  -12.1483   -7.8022    8.3633 C   0  0  0  0  0  0  0  0  0  0  0  0
  -11.0170   -6.9763    8.3267 C   0  0  0  0  0  0  0  0  0  0  0  0
   -9.7885   -7.3939    7.8801 C   0  0  0  0  0  0  0  0  0  0  0  0
   -8.7079   -6.5018    7.8768 C   0  0  0  0  0  0  0  0  0  0  0  0
   -7.4669   -6.9027    7.4319 C   0  0  0  0  0  0  0  0  0  0  0  0
   -6.3931   -6.0040    7.4324 O   0  0  0  0  0  0  0  0  0  0  0  0
   -7.3374   -8.2068    6.9948 C   0  0  0  0  0  0  0  0  0  0  0  0
   -8.3778   -9.0924    6.9898 C   0  0  0  0  0  0  0  0  0  0  0  0
   -9.6248   -8.6863    7.4378 C   0  0  0  0  0  0  0  0  0  0  0  0
  -10.7100   -9.5238    7.4595 C   0  0  0  0  0  0  0  0  0  0  0  0
  -11.9476   -9.0774    7.9179 C   0  0  0  0  0  0  0  0  0  0  0  0
   -5.5067   -6.3561    7.0943 H   0  0  0  0  0  0  0  0  0  0  0  0
  -13.4506   -7.3376    8.8135 C   0  0  0  0  0  0  0  0  0  0  0  0
  -13.8942   -7.8291   10.1599 C   0  0  0  0  0  0  0  0  0  0  0  0
  -13.3058   -5.9155    8.9528 O   0  0  0  0  0  0  0  0  0  0  0  0
  -13.8145   -5.5864    9.7098 H   0  0  0  0  0  0  0  0  0  0  0  0
  -14.5718   -7.4492    7.7979 C   0  0  0  0  0  0  0  0  0  0  0  0
  -14.1676   -6.6347    6.5530 C   0  0  0  0  0  0  0  0  0  0  0  0
  -14.4428   -8.5525    4.9744 C   0  0  0  0  0  0  0  0  0  0  0  0
  -14.9230   -7.1954    5.3676 C   0  0  0  0  0  0  0  0  0  0  0  0
  -12.9901  -10.0411    7.9225 C   0  0  0  0  0  0  0  0  0  0  0  0
  -13.8581  -10.8075    7.9160 N   0  0  0  0  0  0  0  0  0  0  0  0
 19 20  1  0  0  0
 20 18  1  0  0  0
 18 17  1  0  0  0
 17 13  1  0  0  0
 13 14  1  0  0  0
 13 15  1  0  0  0
 13  1  1  0  0  0
  1  2  2  0  0  0
  2  3  1  0  0  0
  3  4  2  0  0  0
  4  5  1  0  0  0
  5  6  1  0  0  0
  5  7  2  0  0  0
  7  8  1  0  0  0
  8  9  2  0  0  0
  9 10  1  0  0  0
 10 11  2  0  0  0
 11 21  1  0  0  0
 21 22  3  0  0  0
 11  1  1  0  0  0
  9  3  1  0  0  0
 15 16  1  0  0  0
  6 12  1  0  0  0
M  END
> <minimizedAffinity>
-8.08218

> <CNNscore>
0.5842912197

> <CNNaffinity>
6.0957541466

> <CNN_VS>
3.5616955757

> <CNNaffinity_variance>
0.0947372764

$$$$
[H]Oc1c([H])c([H])c2c([H])c(C#N)c(C(O[H])(C([H])([H])[H])C([H])([H])C([H])([H])C([H])([H])C([H])([H])[H])c([H])c2c1[H]


 22 23  0  0  0  0  0  0  0  0999 V2000
  -14.6647   -7.7586    6.2244 C   0  0  0  0  0  0  0  0  0  0  0  0
  -13.2743   -7.6220    6.3305 C   0  0  0  0  0  0  0  0  0  0  0  0
  -12.6268   -7.3610    7.5119 C   0  0  0  0  0  0  0  0  0  0  0  0
  -11.2310   -7.2395    7.5297 C   0  0  0  0  0  0  0  0  0  0  0  0
  -10.5632   -6.9779    8.7063 C   0  0  0  0  0  0  0  0  0  0  0  0
   -9.1681   -6.8582    8.7141 O   0  0  0  0  0  0  0  0  0  0  0  0
  -11.3217   -6.8423    9.8529 C   0  0  0  0  0  0  0  0  0  0  0  0
  -12.6833   -6.9570    9.8574 C   0  0  0  0  0  0  0  0  0  0  0  0
  -13.3520   -7.2202    8.6725 C   0  0  0  0  0  0  0  0  0  0  0  0
  -14.7156   -7.3469    8.6071 C   0  0  0  0  0  0  0  0  0  0  0  0
  -15.3510   -7.6116    7.3957 C   0  0  0  0  0  0  0  0  0  0  0  0
   -8.7343   -6.6656    9.6079 H   0  0  0  0  0  0  0  0  0  0  0  0
  -15.3346   -8.0627    4.9700 C   0  0  0  0  0  0  0  0  0  0  0  0
  -14.5588   -8.9011    3.9972 C   0  0  0  0  0  0  0  0  0  0  0  0
  -16.4698   -8.8595    5.3431 O   0  0  0  0  0  0  0  0  0  0  0  0
  -16.6453   -9.5464    4.6816 H   0  0  0  0  0  0  0  0  0  0  0  0
  -15.9845   -6.8827    4.2728 C   0  0  0  0  0  0  0  0  0  0  0  0
  -17.3668   -7.3356    3.7620 C   0  0  0  0  0  0  0  0  0  0  0  0
  -17.7401   -5.1071    4.8299 C   0  0  0  0  0  0  0  0  0  0  0  0
  -18.3602   -6.2396    4.0816 C   0  0  0  0  0  0  0  0  0  0  0  0
  -16.7676   -7.6917    7.4446 C   0  0  0  0  0  0  0  0  0  0  0  0
  -17.9238   -7.7307    7.4948 N   0  0  0  0  0  0  0  0  0  0  0  0
 19 20  1  0  0  0
 20 18  1  0  0  0
 18 17  1  0  0  0
 17 13  1  0  0  0
 13 14  1  0  0  0
 13 15  1  0  0  0
 13  1  1  0  0  0
  1  2  2  0  0  0
  2  3  1  0  0  0
  3  4  2  0  0  0
  4  5  1  0  0  0
  5  6  1  0  0  0
  5  7  2  0  0  0
  7  8  1  0  0  0
  8  9  2  0  0  0
  9 10  1  0  0  0
 10 11  2  0  0  0
 11 21  1  0  0  0
 21 22  3  0  0  0
 11  1  1  0  0  0
  9  3  1  0  0  0
 15 16  1  0  0  0
  6 12  1  0  0  0
M  END
> <minimizedAffinity>
-7.76238

> <CNNscore>
0.5167210102

> <CNNaffinity>
6.2009215355

> <CNN_VS>
3.2041463852

> <CNNaffinity_variance>
0.0693350285

$$$$
[H]Oc1c([H])c([H])c2c([H])c(C#N)c(C(O[H])(C([H])([H])[H])C([H])([H])C([H])([H])C([H])([H])C([H])([H])[H])c([H])c2c1[H]


 22 23  0  0  0  0  0  0  0  0999 V2000
  -12.9871   -8.4588    7.2733 C   0  0  0  0  0  0  0  0  0  0  0  0
  -13.5252   -7.4048    8.0233 C   0  0  0  0  0  0  0  0  0  0  0  0
  -12.8062   -6.6872    8.9458 C   0  0  0  0  0  0  0  0  0  0  0  0
  -13.4224   -5.6467    9.6536 C   0  0  0  0  0  0  0  0  0  0  0  0
  -12.7167   -4.9149   10.5836 C   0  0  0  0  0  0  0  0  0  0  0  0
  -13.3412   -3.8769   11.2861 O   0  0  0  0  0  0  0  0  0  0  0  0
  -11.3913   -5.2486   10.7845 C   0  0  0  0  0  0  0  0  0  0  0  0
  -10.7714   -6.2591   10.1051 C   0  0  0  0  0  0  0  0  0  0  0  0
  -11.4839   -6.9934    9.1704 C   0  0  0  0  0  0  0  0  0  0  0  0
  -10.9230   -8.0196    8.4549 C   0  0  0  0  0  0  0  0  0  0  0  0
  -11.6733   -8.7345    7.5236 C   0  0  0  0  0  0  0  0  0  0  0  0
  -12.7719   -3.3755   11.9558 H   0  0  0  0  0  0  0  0  0  0  0  0
  -13.7540   -9.1924    6.2791 C   0  0  0  0  0  0  0  0  0  0  0  0
  -13.1220   -9.3194    4.9242 C   0  0  0  0  0  0  0  0  0  0  0  0
  -13.8349  -10.5316    6.7918 O   0  0  0  0  0  0  0  0  0  0  0  0
  -13.7901  -11.1822    6.0742 H   0  0  0  0  0  0  0  0  0  0  0  0
  -15.2155   -8.8032    6.1626 C   0  0  0  0  0  0  0  0  0  0  0  0
  -15.4044   -8.0631    4.8235 C   0  0  0  0  0  0  0  0  0  0  0  0
  -14.7033   -5.6660    4.7335 C   0  0  0  0  0  0  0  0  0  0  0  0
  -15.7708   -6.6283    5.1353 C   0  0  0  0  0  0  0  0  0  0  0  0
  -10.9955   -9.7941    6.8652 C   0  0  0  0  0  0  0  0  0  0  0  0
  -10.4237  -10.6588    6.3493 N   0  0  0  0  0  0  0  0  0  0  0  0
 19 20  1  0  0  0
 20 18  1  0  0  0
 18 17  1  0  0  0
 17 13  1  0  0  0
 13 14  1  0  0  0
 13 15  1  0  0  0
 13  1  1  0  0  0
  1  2  2  0  0  0
  2  3  1  0  0  0
  3  4  2  0  0  0
  4  5  1  0  0  0
  5  6  1  0  0  0
  5  7  2  0  0  0
  7  8  1  0  0  0
  8  9  2  0  0  0
  9 10  1  0  0  0
 10 11  2  0  0  0
 11 21  1  0  0  0
 21 22  3  0  0  0
 11  1  1  0  0  0
  9  3  1  0  0  0
 15 16  1  0  0  0
  6 12  1  0  0  0
M  END
> <minimizedAffinity>
-4.87626

> <CNNscore>
0.4430968463

> <CNNaffinity>
5.8992609978

> <CNN_VS>
2.6139440536

> <CNNaffinity_variance>
0.3730798662

$$$$
[H]Oc1c([H])c([H])c2c([H])c(C#N)c(C(O[H])(C([H])([H])[H])C([H])([H])C([H])([H])C([H])([H])C([H])([H])[H])c([H])c2c1[H]


 22 23  0  0  0  0  0  0  0  0999 V2000
   -5.6373   -7.2416    8.3628 C   0  0  0  0  0  0  0  0  0  0  0  0
   -4.8012   -6.3666    9.0688 C   0  0  0  0  0  0  0  0  0  0  0  0
   -3.7187   -5.7360    8.5087 C   0  0  0  0  0  0  0  0  0  0  0  0
   -2.9338   -4.8751    9.2872 C   0  0  0  0  0  0  0  0  0  0  0  0
   -1.8433   -4.2328    8.7424 C   0  0  0  0  0  0  0  0  0  0  0  0
   -1.0649   -3.3742    9.5283 O   0  0  0  0  0  0  0  0  0  0  0  0
   -1.5619   -4.4726    7.4113 C   0  0  0  0  0  0  0  0  0  0  0  0
   -2.3141   -5.3082    6.6348 C   0  0  0  0  0  0  0  0  0  0  0  0
   -3.4103   -5.9527    7.1857 C   0  0  0  0  0  0  0  0  0  0  0  0
   -4.2062   -6.8035    6.4629 C   0  0  0  0  0  0  0  0  0  0  0  0
   -5.3000   -7.4329    7.0535 C   0  0  0  0  0  0  0  0  0  0  0  0
   -0.2771   -2.9315    9.0728 H   0  0  0  0  0  0  0  0  0  0  0  0
   -6.7973   -7.8812    8.9626 C   0  0  0  0  0  0  0  0  0  0  0  0
   -8.1242   -7.5445    8.3485 C   0  0  0  0  0  0  0  0  0  0  0  0
   -6.6086   -9.2847    8.7225 O   0  0  0  0  0  0  0  0  0  0  0  0
   -7.4545   -9.7242    8.5454 H   0  0  0  0  0  0  0  0  0  0  0  0
   -6.8682   -7.8201   10.4766 C   0  0  0  0  0  0  0  0  0  0  0  0
   -6.5587   -6.3729   10.9083 C   0  0  0  0  0  0  0  0  0  0  0  0
   -4.8394   -6.3525   12.7220 C   0  0  0  0  0  0  0  0  0  0  0  0
   -6.2960   -6.3805   12.3987 C   0  0  0  0  0  0  0  0  0  0  0  0
   -6.0329   -8.3147    6.2162 C   0  0  0  0  0  0  0  0  0  0  0  0
   -6.6064   -9.0466    5.5261 N   0  0  0  0  0  0  0  0  0  0  0  0
 19 20  1  0  0  0
 20 18  1  0  0  0
 18 17  1  0  0  0
 17 13  1  0  0  0
 13 14  1  0  0  0
 13 15  1  0  0  0
 13  1  1  0  0  0
  1  2  2  0  0  0
  2  3  1  0  0  0
  3  4  2  0  0  0
  4  5  1  0  0  0
  5  6  1  0  0  0
  5  7  2  0  0  0
  7  8  1  0  0  0
  8  9  2  0  0  0
  9 10  1  0  0  0
 10 11  2  0  0  0
 11 21  1  0  0  0
 21 22  3  0  0  0
 11  1  1  0  0  0
  9  3  1  0  0  0
 15 16  1  0  0  0
  6 12  1  0  0  0
M  END
> <minimizedAffinity>
0.98350

> <CNNscore>
0.4310135841

> <CNNaffinity>
4.4120740891

> <CNN_VS>
1.9016638994

> <CNNaffinity_variance>
1.0522921085

$$$$
[H]Oc1c([H])c([H])c2c([H])c(C#N)c(C(O[H])(C([H])([H])[H])C([H])([H])C([H])([H])C([H])([H])C([H])([H])[H])c([H])c2c1[H]


 22 23  0  0  0  0  0  0  0  0999 V2000
  -15.1101   -7.2391    6.3897 C   0  0  0  0  0  0  0  0  0  0  0  0
  -16.2098   -8.0513    6.6964 C   0  0  0  0  0  0  0  0  0  0  0  0
  -17.3465   -8.1083    5.9299 C   0  0  0  0  0  0  0  0  0  0  0  0
  -18.4015   -8.9490    6.3090 C   0  0  0  0  0  0  0  0  0  0  0  0
  -19.5506   -9.0199    5.5520 C   0  0  0  0  0  0  0  0  0  0  0  0
  -20.5995   -9.8630    5.9390 O   0  0  0  0  0  0  0  0  0  0  0  0
  -19.6153   -8.2351    4.4169 C   0  0  0  0  0  0  0  0  0  0  0  0
  -18.5983   -7.4088    4.0296 C   0  0  0  0  0  0  0  0  0  0  0  0
  -17.4439   -7.3397    4.7931 C   0  0  0  0  0  0  0  0  0  0  0  0
  -16.3870   -6.5318    4.4614 C   0  0  0  0  0  0  0  0  0  0  0  0
  -15.2430   -6.4902    5.2556 C   0  0  0  0  0  0  0  0  0  0  0  0
  -21.4175   -9.8723    5.3432 H   0  0  0  0  0  0  0  0  0  0  0  0
  -13.9008   -7.2098    7.1968 C   0  0  0  0  0  0  0  0  0  0  0  0
  -13.5540   -8.4850    7.9073 C   0  0  0  0  0  0  0  0  0  0  0  0
  -12.8366   -6.9927    6.2570 O   0  0  0  0  0  0  0  0  0  0  0  0
  -12.0401   -7.4823    6.5140 H   0  0  0  0  0  0  0  0  0  0  0  0
  -13.7611   -6.0165    8.1229 C   0  0  0  0  0  0  0  0  0  0  0  0
  -13.7030   -6.5434    9.5705 C   0  0  0  0  0  0  0  0  0  0  0  0
  -11.5513   -5.8606   10.6429 C   0  0  0  0  0  0  0  0  0  0  0  0
  -12.9833   -5.5105   10.4105 C   0  0  0  0  0  0  0  0  0  0  0  0
  -14.2265   -5.5951    4.8301 C   0  0  0  0  0  0  0  0  0  0  0  0
  -13.3815   -4.8733    4.5050 N   0  0  0  0  0  0  0  0  0  0  0  0
 19 20  1  0  0  0
 20 18  1  0  0  0
 18 17  1  0  0  0
 17 13  1  0  0  0
 13 14  1  0  0  0
 13 15  1  0  0  0
 13  1  1  0  0  0
  1  2  2  0  0  0
  2  3  1  0  0  0
  3  4  2  0  0  0
  4  5  1  0  0  0
  5  6  1  0  0  0
  5  7  2  0  0  0
  7  8  1  0  0  0
  8  9  2  0  0  0
  9 10  1  0  0  0
 10 11  2  0  0  0
 11 21  1  0  0  0
 21 22  3  0  0  0
 11  1  1  0  0  0
  9  3  1  0  0  0
 15 16  1  0  0  0
  6 12  1  0  0  0
M  END
> <minimizedAffinity>
-1.14423

> <CNNscore>
0.4091232717

> <CNNaffinity>
5.8903083801

> <CNN_VS>
2.4098622799

> <CNNaffinity_variance>
1.0263016224

$$$$
[H]Oc1c([H])c([H])c2c([H])c(C#N)c(C(O[H])(C([H])([H])[H])C([H])([H])C([H])([H])C([H])([H])C([H])([H])[H])c([H])c2c1[H]


 22 23  0  0  0  0  0  0  0  0999 V2000
  -13.8848   -8.4897    6.9600 C   0  0  0  0  0  0  0  0  0  0  0  0
  -14.8837   -8.7494    6.0125 C   0  0  0  0  0  0  0  0  0  0  0  0
  -15.6384   -7.7689    5.4192 C   0  0  0  0  0  0  0  0  0  0  0  0
  -16.6185   -8.1161    4.4799 C   0  0  0  0  0  0  0  0  0  0  0  0
  -17.3859   -7.1456    3.8734 C   0  0  0  0  0  0  0  0  0  0  0  0
  -18.3629   -7.5023    2.9359 O   0  0  0  0  0  0  0  0  0  0  0  0
  -17.1489   -5.8317    4.2284 C   0  0  0  0  0  0  0  0  0  0  0  0
  -16.1986   -5.4718    5.1418 C   0  0  0  0  0  0  0  0  0  0  0  0
  -15.4283   -6.4502    5.7500 C   0  0  0  0  0  0  0  0  0  0  0  0
  -14.4589   -6.1577    6.6743 C   0  0  0  0  0  0  0  0  0  0  0  0
  -13.7054   -7.1705    7.2639 C   0  0  0  0  0  0  0  0  0  0  0  0
  -18.8946   -6.7458    2.5245 H   0  0  0  0  0  0  0  0  0  0  0  0
  -13.0741   -9.5373    7.5599 C   0  0  0  0  0  0  0  0  0  0  0  0
  -12.7842   -9.3865    9.0243 C   0  0  0  0  0  0  0  0  0  0  0  0
  -13.8694  -10.7279    7.4469 O   0  0  0  0  0  0  0  0  0  0  0  0
  -13.7541  -11.2983    8.2225 H   0  0  0  0  0  0  0  0  0  0  0  0
  -11.8201   -9.9136    6.7937 C   0  0  0  0  0  0  0  0  0  0  0  0
  -10.6112   -9.3098    7.5357 C   0  0  0  0  0  0  0  0  0  0  0  0
   -8.1446   -9.6055    7.8080 C   0  0  0  0  0  0  0  0  0  0  0  0
   -9.3774  -10.0764    7.1112 C   0  0  0  0  0  0  0  0  0  0  0  0
  -12.7519   -6.7509    8.2285 C   0  0  0  0  0  0  0  0  0  0  0  0
  -11.9662   -6.3878    8.9977 N   0  0  0  0  0  0  0  0  0  0  0  0
 19 20  1  0  0  0
 20 18  1  0  0  0
 18 17  1  0  0  0
 17 13  1  0  0  0
 13 14  1  0  0  0
 13 15  1  0  0  0
 13  1  1  0  0  0
  1  2  2  0  0  0
  2  3  1  0  0  0
  3  4  2  0  0  0
  4  5  1  0  0  0
  5  6  1  0  0  0
  5  7  2  0  0  0
  7  8  1  0  0  0
  8  9  2  0  0  0
  9 10  1  0  0  0
 10 11  2  0  0  0
 11 21  1  0  0  0
 21 22  3  0  0  0
 11  1  1  0  0  0
  9  3  1  0  0  0
 15 16  1  0  0  0
  6 12  1  0  0  0
M  END
> <minimizedAffinity>
-8.40166

> <CNNscore>
0.3822089434

> <CNNaffinity>
5.9878373146

> <CNN_VS>
2.2886049747

> <CNNaffinity_variance>
0.1506384760

$$$$
[H]Oc1c([H])c([H])c2c([H])c(C#N)c(C(O[H])(C([H])([H])[H])C([H])([H])C([H])([H])C([H])([H])C([H])([H])[H])c([H])c2c1[H]


 22 23  0  0  0  0  0  0  0  0999 V2000
   -5.5731   -6.7049    7.4302 C   0  0  0  0  0  0  0  0  0  0  0  0
   -6.9123   -6.4454    7.7501 C   0  0  0  0  0  0  0  0  0  0  0  0
   -7.9112   -7.3802    7.6445 C   0  0  0  0  0  0  0  0  0  0  0  0
   -9.2261   -7.0369    7.9858 C   0  0  0  0  0  0  0  0  0  0  0  0
  -10.2425   -7.9620    7.8865 C   0  0  0  0  0  0  0  0  0  0  0  0
  -11.5534   -7.6096    8.2298 O   0  0  0  0  0  0  0  0  0  0  0  0
   -9.9112   -9.2271    7.4411 C   0  0  0  0  0  0  0  0  0  0  0  0
   -8.6359   -9.5824    7.1032 C   0  0  0  0  0  0  0  0  0  0  0  0
   -7.6159   -8.6497    7.2042 C   0  0  0  0  0  0  0  0  0  0  0  0
   -6.3155   -8.9403    6.8812 C   0  0  0  0  0  0  0  0  0  0  0  0
   -5.3181   -7.9743    6.9961 C   0  0  0  0  0  0  0  0  0  0  0  0
  -12.2566   -8.3313    8.1362 H   0  0  0  0  0  0  0  0  0  0  0  0
   -4.5205   -5.7120    7.5735 C   0  0  0  0  0  0  0  0  0  0  0  0
   -3.9599   -5.1596    6.2960 C   0  0  0  0  0  0  0  0  0  0  0  0
   -5.1506   -4.5998    8.2284 O   0  0  0  0  0  0  0  0  0  0  0  0
   -4.8015   -3.7578    7.8977 H   0  0  0  0  0  0  0  0  0  0  0  0
   -3.4108   -6.0704    8.5436 C   0  0  0  0  0  0  0  0  0  0  0  0
   -3.6297   -5.2590    9.8361 C   0  0  0  0  0  0  0  0  0  0  0  0
   -1.3112   -6.1767   10.0043 C   0  0  0  0  0  0  0  0  0  0  0  0
   -2.3435   -5.3011   10.6325 C   0  0  0  0  0  0  0  0  0  0  0  0
   -4.0152   -8.3806    6.6050 C   0  0  0  0  0  0  0  0  0  0  0  0
   -2.9617   -8.7144    6.2593 N   0  0  0  0  0  0  0  0  0  0  0  0
 19 20  1  0  0  0
 20 18  1  0  0  0
 18 17  1  0  0  0
 17 13  1  0  0  0
 13 14  1  0  0  0
 13 15  1  0  0  0
 13  1  1  0  0  0
  1  2  2  0  0  0
  2  3  1  0  0  0
  3  4  2  0  0  0
  4  5  1  0  0  0
  5  6  1  0  0  0
  5  7  2  0  0  0
  7  8  1  0  0  0
  8  9  2  0  0  0
  9 10  1  0  0  0
 10 11  2  0  0  0
 11 21  1  0  0  0
 21 22  3  0  0  0
 11  1  1  0  0  0
  9  3  1  0  0  0
 15 16  1  0  0  0
  6 12  1  0  0  0
M  END
> <minimizedAffinity>
-4.88447

> <CNNscore>
0.3533490598

> <CNNaffinity>
4.7850489616

> <CNN_VS>
1.6907925606

> <CNNaffinity_variance>
0.2300225198

$$$$
[H]Oc1c([H])c([H])c2c([H])c(C#N)c(C(O[H])(C([H])([H])[H])C([H])([H])C([H])([H])C([H])([H])C([H])([H])[H])c([H])c2c1[H]


 22 23  0  0  0  0  0  0  0  0999 V2000
  -12.0994   -7.8069    7.7007 C   0  0  0  0  0  0  0  0  0  0  0  0
  -10.9733   -6.9756    7.6370 C   0  0  0  0  0  0  0  0  0  0  0  0
   -9.6929   -7.4451    7.4845 C   0  0  0  0  0  0  0  0  0  0  0  0
   -8.6218   -6.5434    7.4301 C   0  0  0  0  0  0  0  0  0  0  0  0
   -7.3293   -6.9959    7.2770 C   0  0  0  0  0  0  0  0  0  0  0  0
   -6.2653   -6.0871    7.2237 O   0  0  0  0  0  0  0  0  0  0  0  0
   -7.1392   -8.3608    7.1810 C   0  0  0  0  0  0  0  0  0  0  0  0
   -8.1694   -9.2569    7.2318 C   0  0  0  0  0  0  0  0  0  0  0  0
   -9.4683   -8.7988    7.3857 C   0  0  0  0  0  0  0  0  0  0  0  0
  -10.5466   -9.6433    7.4444 C   0  0  0  0  0  0  0  0  0  0  0  0
  -11.8377   -9.1434    7.6002 C   0  0  0  0  0  0  0  0  0  0  0  0
   -5.3392   -6.4790    7.1103 H   0  0  0  0  0  0  0  0  0  0  0  0
  -13.4532   -7.2933    7.8349 C   0  0  0  0  0  0  0  0  0  0  0  0
  -14.2744   -7.2694    6.5794 C   0  0  0  0  0  0  0  0  0  0  0  0
  -14.1143   -8.2225    8.7081 O   0  0  0  0  0  0  0  0  0  0  0  0
  -15.0405   -8.3451    8.4488 H   0  0  0  0  0  0  0  0  0  0  0  0
  -13.5850   -5.9873    8.5953 C   0  0  0  0  0  0  0  0  0  0  0  0
  -13.6257   -6.3165   10.1008 C   0  0  0  0  0  0  0  0  0  0  0  0
  -11.2734   -5.7582   10.7334 C   0  0  0  0  0  0  0  0  0  0  0  0
  -12.7059   -5.3476   10.8116 C   0  0  0  0  0  0  0  0  0  0  0  0
  -12.8716  -10.1132    7.6783 C   0  0  0  0  0  0  0  0  0  0  0  0
  -13.7268  -10.8894    7.7630 N   0  0  0  0  0  0  0  0  0  0  0  0
 19 20  1  0  0  0
 20 18  1  0  0  0
 18 17  1  0  0  0
 17 13  1  0  0  0
 13 14  1  0  0  0
 13 15  1  0  0  0
 13  1  1  0  0  0
  1  2  2  0  0  0
  2  3  1  0  0  0
  3  4  2  0  0  0
  4  5  1  0  0  0
  5  6  1  0  0  0
  5  7  2  0  0  0
  7  8  1  0  0  0
  8  9  2  0  0  0
  9 10  1  0  0  0
 10 11  2  0  0  0
 11 21  1  0  0  0
 21 22  3  0  0  0
 11  1  1  0  0  0
  9  3  1  0  0  0
 15 16  1  0  0  0
  6 12  1  0  0  0
M  END
> <minimizedAffinity>
-7.75677

> <CNNscore>
0.2962348461

> <CNNaffinity>
5.6607184410

> <CNN_VS>
1.6769020557

> <CNNaffinity_variance>
0.0469457991

$$$$
[H]Oc1c([H])c([H])c2c([H])c(C#N)c(C(O[H])(C([H])([H])[H])C([H])([H])C([H])([H])C([H])([H])C([H])([H])[H])c([H])c2c1[H]


 22 23  0  0  0  0  0  0  0  0999 V2000
   -9.8150   -8.8260    7.6968 C   0  0  0  0  0  0  0  0  0  0  0  0
  -11.1567   -9.2056    7.5595 C   0  0  0  0  0  0  0  0  0  0  0  0
  -12.2066   -8.4654    8.0422 C   0  0  0  0  0  0  0  0  0  0  0  0
  -13.5202   -8.9184    7.8613 C   0  0  0  0  0  0  0  0  0  0  0  0
  -14.5872   -8.1888    8.3387 C   0  0  0  0  0  0  0  0  0  0  0  0
  -15.8964   -8.6496    8.1531 O   0  0  0  0  0  0  0  0  0  0  0  0
  -14.3075   -7.0059    8.9952 C   0  0  0  0  0  0  0  0  0  0  0  0
  -13.0344   -6.5464    9.1822 C   0  0  0  0  0  0  0  0  0  0  0  0
  -11.9633   -7.2824    8.7009 C   0  0  0  0  0  0  0  0  0  0  0  0
  -10.6621   -6.8789    8.8547 C   0  0  0  0  0  0  0  0  0  0  0  0
   -9.6124   -7.6476    8.3564 C   0  0  0  0  0  0  0  0  0  0  0  0
  -16.6382   -8.0708    8.5257 H   0  0  0  0  0  0  0  0  0  0  0  0
   -8.7143   -9.6071    7.1557 C   0  0  0  0  0  0  0  0  0  0  0  0
   -7.7440  -10.1579    8.1589 C   0  0  0  0  0  0  0  0  0  0  0  0
   -9.3371  -10.7534    6.5550 O   0  0  0  0  0  0  0  0  0  0  0  0
   -8.7922  -11.5468    6.6721 H   0  0  0  0  0  0  0  0  0  0  0  0
   -7.9854   -8.9837    5.9805 C   0  0  0  0  0  0  0  0  0  0  0  0
   -6.4924   -8.8778    6.3498 C   0  0  0  0  0  0  0  0  0  0  0  0
   -6.9815   -6.6922    5.2409 C   0  0  0  0  0  0  0  0  0  0  0  0
   -5.9249   -7.6672    5.6409 C   0  0  0  0  0  0  0  0  0  0  0  0
   -8.3071   -7.1455    8.6013 C   0  0  0  0  0  0  0  0  0  0  0  0
   -7.2471   -6.7159    8.7816 N   0  0  0  0  0  0  0  0  0  0  0  0
 19 20  1  0  0  0
 20 18  1  0  0  0
 18 17  1  0  0  0
 17 13  1  0  0  0
 13 14  1  0  0  0
 13 15  1  0  0  0
 13  1  1  0  0  0
  1  2  2  0  0  0
  2  3  1  0  0  0
  3  4  2  0  0  0
  4  5  1  0  0  0
  5  6  1  0  0  0
  5  7  2  0  0  0
  7  8  1  0  0  0
  8  9  2  0  0  0
  9 10  1  0  0  0
 10 11  2  0  0  0
 11 21  1  0  0  0
 21 22  3  0  0  0
 11  1  1  0  0  0
  9  3  1  0  0  0
 15 16  1  0  0  0
  6 12  1  0  0  0
M  END
> <minimizedAffinity>
-6.27757

> <CNNscore>
0.2940709591

> <CNNaffinity>
5.6958484650

> <CNN_VS>
1.6749836206

> <CNNaffinity_variance>
0.2697565556

$$$$
[H]c1c([H])c(C(C([H])([H])[H])(C([H])([H])[H])C([H])([H])[H])c([H])c([H])c1C(=O)N([H])C([H])([H])[C@]1([H])C([H])([H])[C@]2([H])N(C(=O)OC(C([H])([H])[H])(C([H])([H])[H])C([H])([H])[H])[C@@]1([H])C([H])([H])C2([H])[H]


 29 31  0  0  0  0  0  0  0  0999 V2000
  -15.2148   -8.7505    7.4039 C   0  0  0  0  0  0  0  0  0  0  0  0
  -14.6737   -9.2930    6.1412 C   0  0  0  0  0  0  0  0  0  0  0  0
  -15.6820   -8.7859    5.0553 C   0  0  0  0  0  0  0  0  0  0  0  0
  -15.3578   -9.4773    3.7481 C   0  0  0  0  0  0  0  0  0  0  0  0
  -14.1407   -8.7122    3.2021 C   0  0  0  0  0  0  0  0  0  0  0  0
  -13.8112   -7.8359    4.3940 C   0  0  0  0  0  0  0  0  0  0  0  0
  -13.4202   -8.7512    5.5550 C   0  0  0  0  0  0  0  0  0  0  0  0
  -15.1454   -7.4871    4.8175 N   0  0  0  0  0  0  0  0  0  0  0  0
  -15.6765   -6.1972    4.9226 C   0  0  0  0  0  0  0  0  0  0  0  0
  -14.9918   -5.1506    4.6521 O   0  0  0  0  0  0  0  0  0  0  0  0
  -16.9878   -5.9326    5.3263 O   0  0  0  0  0  0  0  0  0  0  0  0
  -18.0549   -5.8908    4.3924 C   0  0  0  0  0  0  0  0  0  0  0  0
  -18.8136   -4.5625    4.4760 C   0  0  0  0  0  0  0  0  0  0  0  0
  -17.4239   -5.9161    3.0083 C   0  0  0  0  0  0  0  0  0  0  0  0
  -19.0269   -7.0253    4.5616 C   0  0  0  0  0  0  0  0  0  0  0  0
  -14.6227   -7.3676    9.5084 C   0  0  0  0  0  0  0  0  0  0  0  0
  -15.7505   -6.9644    9.8319 O   0  0  0  0  0  0  0  0  0  0  0  0
  -14.4073   -8.1897    8.3999 N   0  0  0  0  0  0  0  0  0  0  0  0
  -13.3348   -8.4734    8.2719 H   0  0  0  0  0  0  0  0  0  0  0  0
  -11.4908   -5.9805   12.0955 C   0  0  0  0  0  0  0  0  0  0  0  0
  -12.8148   -5.6868   12.3402 C   0  0  0  0  0  0  0  0  0  0  0  0
  -13.7827   -6.1544   11.4900 C   0  0  0  0  0  0  0  0  0  0  0  0
  -13.5107   -6.9176   10.3793 C   0  0  0  0  0  0  0  0  0  0  0  0
  -12.2015   -7.2122   10.1311 C   0  0  0  0  0  0  0  0  0  0  0  0
  -11.1943   -6.7474   10.9832 C   0  0  0  0  0  0  0  0  0  0  0  0
   -9.0857   -5.3801   12.1577 C   0  0  0  0  0  0  0  0  0  0  0  0
  -10.3766   -5.5187   12.9519 C   0  0  0  0  0  0  0  0  0  0  0  0
  -10.6569   -4.1558   13.5372 C   0  0  0  0  0  0  0  0  0  0  0  0
  -10.2000   -6.4848   14.0963 C   0  0  0  0  0  0  0  0  0  0  0  0
 26 27  1  0  0  0
 27 28  1  0  0  0
 27 29  1  0  0  0
 27 20  1  0  0  0
 20 21  2  0  0  0
 21 22  1  0  0  0
 22 23  2  0  0  0
 23 24  1  0  0  0
 24 25  2  0  0  0
 23 16  1  0  0  0
 16 17  2  0  0  0
 16 18  1  0  0  0
 18  1  1  0  0  0
  1  2  1  0  0  0
  2  3  1  0  0  0
  3  4  1  0  0  0
  4  5  1  0  0  0
  5  6  1  0  0  0
  6  7  1  0  0  0
  6  8  1  0  0  0
  8  9  1  0  0  0
  9 10  2  0  0  0
  9 11  1  0  0  0
 11 12  1  0  0  0
 12 13  1  0  0  0
 12 14  1  0  0  0
 12 15  1  0  0  0
 25 20  1  0  0  0
  7  2  1  0  0  0
  8  3  1  0  0  0
 18 19  1  0  0  0
M  END
> <minimizedAffinity>
12.23693

> <CNNscore>
0.4970586002

> <CNNaffinity>
6.4232530594

> <CNN_VS>
3.1927332878

> <CNNaffinity_variance>
0.5351902246

$$$$
[H]c1c([H])c(C(C([H])([H])[H])(C([H])([H])[H])C([H])([H])[H])c([H])c([H])c1C(=O)N([H])C([H])([H])[C@]1([H])C([H])([H])[C@]2([H])N(C(=O)OC(C([H])([H])[H])(C([H])([H])[H])C([H])([H])[H])[C@@]1([H])C([H])([H])C2([H])[H]


 29 31  0  0  0  0  0  0  0  0999 V2000
  -16.5023   -9.2589    5.7132 C   0  0  0  0  0  0  0  0  0  0  0  0
  -16.2193   -9.3241    4.2650 C   0  0  0  0  0  0  0  0  0  0  0  0
  -16.7967   -7.9776    3.7115 C   0  0  0  0  0  0  0  0  0  0  0  0
  -16.7728   -8.0380    2.1990 C   0  0  0  0  0  0  0  0  0  0  0  0
  -15.3093   -7.7461    1.8276 C   0  0  0  0  0  0  0  0  0  0  0  0
  -14.6660   -7.7842    3.1994 C   0  0  0  0  0  0  0  0  0  0  0  0
  -14.8292   -9.1997    3.7545 C   0  0  0  0  0  0  0  0  0  0  0  0
  -15.6891   -7.1181    3.9679 N   0  0  0  0  0  0  0  0  0  0  0  0
  -15.5390   -5.9467    4.7178 C   0  0  0  0  0  0  0  0  0  0  0  0
  -14.4213   -5.3305    4.8088 O   0  0  0  0  0  0  0  0  0  0  0  0
  -16.5815   -5.3458    5.4282 O   0  0  0  0  0  0  0  0  0  0  0  0
  -17.7788   -4.9414    4.7836 C   0  0  0  0  0  0  0  0  0  0  0  0
  -18.4589   -3.7978    5.5431 C   0  0  0  0  0  0  0  0  0  0  0  0
  -17.3737   -4.3565    3.4388 C   0  0  0  0  0  0  0  0  0  0  0  0
  -18.7590   -6.0677    4.6074 C   0  0  0  0  0  0  0  0  0  0  0  0
  -15.6616   -8.4083    8.0070 C   0  0  0  0  0  0  0  0  0  0  0  0
  -16.5854   -8.7968    8.7384 O   0  0  0  0  0  0  0  0  0  0  0  0
  -15.6443   -8.6406    6.6298 N   0  0  0  0  0  0  0  0  0  0  0  0
  -14.7271   -8.2408    6.1339 H   0  0  0  0  0  0  0  0  0  0  0  0
  -12.5761   -6.2904   10.1093 C   0  0  0  0  0  0  0  0  0  0  0  0
  -13.6376   -6.8678   10.7717 C   0  0  0  0  0  0  0  0  0  0  0  0
  -14.5982   -7.5388   10.0606 C   0  0  0  0  0  0  0  0  0  0  0  0
  -14.5702   -7.6764    8.6930 C   0  0  0  0  0  0  0  0  0  0  0  0
  -13.5216   -7.1069    8.0308 C   0  0  0  0  0  0  0  0  0  0  0  0
  -12.5278   -6.4167    8.7328 C   0  0  0  0  0  0  0  0  0  0  0  0
  -11.5815   -4.0524   10.4983 C   0  0  0  0  0  0  0  0  0  0  0  0
  -11.4942   -5.5441   10.7880 C   0  0  0  0  0  0  0  0  0  0  0  0
  -11.5816   -5.6853   12.2884 C   0  0  0  0  0  0  0  0  0  0  0  0
  -10.1617   -6.0975   10.3494 C   0  0  0  0  0  0  0  0  0  0  0  0
 26 27  1  0  0  0
 27 28  1  0  0  0
 27 29  1  0  0  0
 27 20  1  0  0  0
 20 21  2  0  0  0
 21 22  1  0  0  0
 22 23  2  0  0  0
 23 24  1  0  0  0
 24 25  2  0  0  0
 23 16  1  0  0  0
 16 17  2  0  0  0
 16 18  1  0  0  0
 18  1  1  0  0  0
  1  2  1  0  0  0
  2  3  1  0  0  0
  3  4  1  0  0  0
  4  5  1  0  0  0
  5  6  1  0  0  0
  6  7  1  0  0  0
  6  8  1  0  0  0
  8  9  1  0  0  0
  9 10  2  0  0  0
  9 11  1  0  0  0
 11 12  1  0  0  0
 12 13  1  0  0  0
 12 14  1  0  0  0
 12 15  1  0  0  0
 25 20  1  0  0  0
  7  2  1  0  0  0
  8  3  1  0  0  0
 18 19  1  0  0  0
M  END
> <minimizedAffinity>
4.48430

> <CNNscore>
0.4556482136

> <CNNaffinity>
6.5066771507

> <CNN_VS>
2.9647557735

> <CNNaffinity_variance>
0.4187619090

$$$$
[H]c1c([H])c(C(C([H])([H])[H])(C([H])([H])[H])C([H])([H])[H])c([H])c([H])c1C(=O)N([H])C([H])([H])[C@]1([H])C([H])([H])[C@]2([H])N(C(=O)OC(C([H])([H])[H])(C([H])([H])[H])C([H])([H])[H])[C@@]1([H])C([H])([H])C2([H])[H]


 29 31  0  0  0  0  0  0  0  0999 V2000
   -5.7087   -6.2175    7.6138 C   0  0  0  0  0  0  0  0  0  0  0  0
   -4.8496   -6.8314    6.5811 C   0  0  0  0  0  0  0  0  0  0  0  0
   -3.6205   -5.8645    6.4956 C   0  0  0  0  0  0  0  0  0  0  0  0
   -2.7828   -6.2675    5.3008 C   0  0  0  0  0  0  0  0  0  0  0  0
   -1.9871   -7.4906    5.7865 C   0  0  0  0  0  0  0  0  0  0  0  0
   -2.6588   -7.7413    7.1218 C   0  0  0  0  0  0  0  0  0  0  0  0
   -4.1210   -8.0981    6.8514 C   0  0  0  0  0  0  0  0  0  0  0  0
   -2.8344   -6.3803    7.5667 N   0  0  0  0  0  0  0  0  0  0  0  0
   -2.3235   -5.8137    8.7393 C   0  0  0  0  0  0  0  0  0  0  0  0
   -1.6279   -6.4852    9.5775 O   0  0  0  0  0  0  0  0  0  0  0  0
   -2.5206   -4.4786    9.1013 O   0  0  0  0  0  0  0  0  0  0  0  0
   -3.0773   -4.1276   10.3580 C   0  0  0  0  0  0  0  0  0  0  0  0
   -3.5748   -2.6786   10.3593 C   0  0  0  0  0  0  0  0  0  0  0  0
   -4.3190   -4.9875   10.5402 C   0  0  0  0  0  0  0  0  0  0  0  0
   -2.1171   -4.3200   11.4989 C   0  0  0  0  0  0  0  0  0  0  0  0
   -7.7809   -7.6907    8.0911 C   0  0  0  0  0  0  0  0  0  0  0  0
   -7.2286   -8.7712    8.3491 O   0  0  0  0  0  0  0  0  0  0  0  0
   -7.0625   -6.5374    7.7670 N   0  0  0  0  0  0  0  0  0  0  0  0
   -7.7200   -5.6530    7.5869 H   0  0  0  0  0  0  0  0  0  0  0  0
  -12.0705   -7.8285    8.1679 C   0  0  0  0  0  0  0  0  0  0  0  0
  -11.3249   -8.8273    7.5802 C   0  0  0  0  0  0  0  0  0  0  0  0
   -9.9568   -8.7448    7.5827 C   0  0  0  0  0  0  0  0  0  0  0  0
   -9.2621   -7.7020    8.1486 C   0  0  0  0  0  0  0  0  0  0  0  0
   -9.9944   -6.7094    8.7324 C   0  0  0  0  0  0  0  0  0  0  0  0
  -11.3919   -6.7696    8.7436 C   0  0  0  0  0  0  0  0  0  0  0  0
  -14.1340   -6.8433    7.2087 C   0  0  0  0  0  0  0  0  0  0  0  0
  -13.5490   -7.8270    8.2120 C   0  0  0  0  0  0  0  0  0  0  0  0
  -14.1146   -9.1793    7.8516 C   0  0  0  0  0  0  0  0  0  0  0  0
  -14.0012   -7.4961    9.6121 C   0  0  0  0  0  0  0  0  0  0  0  0
 26 27  1  0  0  0
 27 28  1  0  0  0
 27 29  1  0  0  0
 27 20  1  0  0  0
 20 21  2  0  0  0
 21 22  1  0  0  0
 22 23  2  0  0  0
 23 24  1  0  0  0
 24 25  2  0  0  0
 23 16  1  0  0  0
 16 17  2  0  0  0
 16 18  1  0  0  0
 18  1  1  0  0  0
  1  2  1  0  0  0
  2  3  1  0  0  0
  3  4  1  0  0  0
  4  5  1  0  0  0
  5  6  1  0  0  0
  6  7  1  0  0  0
  6  8  1  0  0  0
  8  9  1  0  0  0
  9 10  2  0  0  0
  9 11  1  0  0  0
 11 12  1  0  0  0
 12 13  1  0  0  0
 12 14  1  0  0  0
 12 15  1  0  0  0
 25 20  1  0  0  0
  7  2  1  0  0  0
  8  3  1  0  0  0
 18 19  1  0  0  0
M  END
> <minimizedAffinity>
-7.73392

> <CNNscore>
0.4357411265

> <CNNaffinity>
5.8742866516

> <CNN_VS>
2.5596683025

> <CNNaffinity_variance>
0.1237402558

$$$$
[H]c1c([H])c(C(C([H])([H])[H])(C([H])([H])[H])C([H])([H])[H])c([H])c([H])c1C(=O)N([H])C([H])([H])[C@]1([H])C([H])([H])[C@]2([H])N(C(=O)OC(C([H])([H])[H])(C([H])([H])[H])C([H])([H])[H])[C@@]1([H])C([H])([H])C2([H])[H]


 29 31  0  0  0  0  0  0  0  0999 V2000
   -7.5761   -8.0973    8.3999 C   0  0  0  0  0  0  0  0  0  0  0  0
   -8.3883   -9.0709    7.6424 C   0  0  0  0  0  0  0  0  0  0  0  0
   -9.6982   -9.2036    8.4906 C   0  0  0  0  0  0  0  0  0  0  0  0
  -10.5092  -10.3539    7.9331 C   0  0  0  0  0  0  0  0  0  0  0  0
  -11.1896   -9.7718    6.6828 C   0  0  0  0  0  0  0  0  0  0  0  0
  -10.4853   -8.4333    6.5862 C   0  0  0  0  0  0  0  0  0  0  0  0
   -9.0002   -8.7017    6.3395 C   0  0  0  0  0  0  0  0  0  0  0  0
  -10.4254   -8.0868    7.9853 N   0  0  0  0  0  0  0  0  0  0  0  0
  -10.9723   -6.9482    8.5866 C   0  0  0  0  0  0  0  0  0  0  0  0
  -11.5980   -6.0544    7.9181 O   0  0  0  0  0  0  0  0  0  0  0  0
  -10.8895   -6.6830    9.9560 O   0  0  0  0  0  0  0  0  0  0  0  0
  -11.9802   -6.1201   10.6675 C   0  0  0  0  0  0  0  0  0  0  0  0
  -13.2169   -7.0211   10.5909 C   0  0  0  0  0  0  0  0  0  0  0  0
  -11.5788   -6.0988   12.1349 C   0  0  0  0  0  0  0  0  0  0  0  0
  -12.3438   -4.7420   10.1889 C   0  0  0  0  0  0  0  0  0  0  0  0
   -5.3410   -7.1677    7.4877 C   0  0  0  0  0  0  0  0  0  0  0  0
   -4.5836   -8.1135    7.7542 O   0  0  0  0  0  0  0  0  0  0  0  0
   -6.7055   -7.1900    7.7854 N   0  0  0  0  0  0  0  0  0  0  0  0
   -7.2368   -6.2650    7.4552 H   0  0  0  0  0  0  0  0  0  0  0  0
   -3.4146   -3.7762    5.6955 C   0  0  0  0  0  0  0  0  0  0  0  0
   -2.9787   -4.3086    6.8894 C   0  0  0  0  0  0  0  0  0  0  0  0
   -3.6210   -5.3952    7.4234 C   0  0  0  0  0  0  0  0  0  0  0  0
   -4.7007   -6.0044    6.8289 C   0  0  0  0  0  0  0  0  0  0  0  0
   -5.1374   -5.4822    5.6461 C   0  0  0  0  0  0  0  0  0  0  0  0
   -4.4995   -4.3736    5.0797 C   0  0  0  0  0  0  0  0  0  0  0  0
   -3.0002   -1.3368    5.8589 C   0  0  0  0  0  0  0  0  0  0  0  0
   -2.7897   -2.6046    5.0434 C   0  0  0  0  0  0  0  0  0  0  0  0
   -1.2956   -2.7757    4.9129 C   0  0  0  0  0  0  0  0  0  0  0  0
   -3.3593   -2.4494    3.6557 C   0  0  0  0  0  0  0  0  0  0  0  0
 26 27  1  0  0  0
 27 28  1  0  0  0
 27 29  1  0  0  0
 27 20  1  0  0  0
 20 21  2  0  0  0
 21 22  1  0  0  0
 22 23  2  0  0  0
 23 24  1  0  0  0
 24 25  2  0  0  0
 23 16  1  0  0  0
 16 17  2  0  0  0
 16 18  1  0  0  0
 18  1  1  0  0  0
  1  2  1  0  0  0
  2  3  1  0  0  0
  3  4  1  0  0  0
  4  5  1  0  0  0
  5  6  1  0  0  0
  6  7  1  0  0  0
  6  8  1  0  0  0
  8  9  1  0  0  0
  9 10  2  0  0  0
  9 11  1  0  0  0
 11 12  1  0  0  0
 12 13  1  0  0  0
 12 14  1  0  0  0
 12 15  1  0  0  0
 25 20  1  0  0  0
  7  2  1  0  0  0
  8  3  1  0  0  0
 18 19  1  0  0  0
M  END
> <minimizedAffinity>
0.20828

> <CNNscore>
0.4150747359

> <CNNaffinity>
5.9550704956

> <CNN_VS>
2.4717993736

> <CNNaffinity_variance>
0.7988580465

$$$$
[H]c1c([H])c(C(C([H])([H])[H])(C([H])([H])[H])C([H])([H])[H])c([H])c([H])c1C(=O)N([H])C([H])([H])[C@]1([H])C([H])([H])[C@]2([H])N(C(=O)OC(C([H])([H])[H])(C([H])([H])[H])C([H])([H])[H])[C@@]1([H])C([H])([H])C2([H])[H]


 29 31  0  0  0  0  0  0  0  0999 V2000
  -12.8092   -6.3051   11.6697 C   0  0  0  0  0  0  0  0  0  0  0  0
  -11.4838   -6.7516   12.1446 C   0  0  0  0  0  0  0  0  0  0  0  0
  -10.5284   -5.5781   11.7405 C   0  0  0  0  0  0  0  0  0  0  0  0
   -9.1014   -6.0291   11.9686 C   0  0  0  0  0  0  0  0  0  0  0  0
   -8.8929   -5.8863   13.4856 C   0  0  0  0  0  0  0  0  0  0  0  0
  -10.3107   -5.5865   13.9296 C   0  0  0  0  0  0  0  0  0  0  0  0
  -11.1736   -6.8044   13.5969 C   0  0  0  0  0  0  0  0  0  0  0  0
  -10.7236   -4.7143   12.8572 N   0  0  0  0  0  0  0  0  0  0  0  0
  -11.1679   -3.3936   12.9806 C   0  0  0  0  0  0  0  0  0  0  0  0
  -11.2677   -2.8078   14.1138 O   0  0  0  0  0  0  0  0  0  0  0  0
  -11.5386   -2.5989   11.8927 O   0  0  0  0  0  0  0  0  0  0  0  0
  -12.2974   -3.1262   10.8163 C   0  0  0  0  0  0  0  0  0  0  0  0
  -11.4369   -4.0174    9.9150 C   0  0  0  0  0  0  0  0  0  0  0  0
  -13.3406   -4.0487   11.4292 C   0  0  0  0  0  0  0  0  0  0  0  0
  -12.9473   -2.0598    9.9792 C   0  0  0  0  0  0  0  0  0  0  0  0
  -14.2981   -7.3817    9.8486 C   0  0  0  0  0  0  0  0  0  0  0  0
  -15.0493   -8.0701   10.5564 O   0  0  0  0  0  0  0  0  0  0  0  0
  -13.2889   -6.5777   10.3835 N   0  0  0  0  0  0  0  0  0  0  0  0
  -12.7257   -6.0116    9.6029 H   0  0  0  0  0  0  0  0  0  0  0  0
  -15.1061   -7.7202    5.6465 C   0  0  0  0  0  0  0  0  0  0  0  0
  -15.9733   -8.2217    6.5927 C   0  0  0  0  0  0  0  0  0  0  0  0
  -15.6776   -8.0874    7.9242 C   0  0  0  0  0  0  0  0  0  0  0  0
  -14.5414   -7.4681    8.3890 C   0  0  0  0  0  0  0  0  0  0  0  0
  -13.6783   -6.9691    7.4571 C   0  0  0  0  0  0  0  0  0  0  0  0
  -13.9566   -7.0929    6.0918 C   0  0  0  0  0  0  0  0  0  0  0  0
  -14.3825   -8.8143    3.5421 C   0  0  0  0  0  0  0  0  0  0  0  0
  -15.3363   -7.8198    4.1887 C   0  0  0  0  0  0  0  0  0  0  0  0
  -16.7290   -8.3142    3.8810 C   0  0  0  0  0  0  0  0  0  0  0  0
  -15.1848   -6.4529    3.5700 C   0  0  0  0  0  0  0  0  0  0  0  0
 26 27  1  0  0  0
 27 28  1  0  0  0
 27 29  1  0  0  0
 27 20  1  0  0  0
 20 21  2  0  0  0
 21 22  1  0  0  0
 22 23  2  0  0  0
 23 24  1  0  0  0
 24 25  2  0  0  0
 23 16  1  0  0  0
 16 17  2  0  0  0
 16 18  1  0  0  0
 18  1  1  0  0  0
  1  2  1  0  0  0
  2  3  1  0  0  0
  3  4  1  0  0  0
  4  5  1  0  0  0
  5  6  1  0  0  0
  6  7  1  0  0  0
  6  8  1  0  0  0
  8  9  1  0  0  0
  9 10  2  0  0  0
  9 11  1  0  0  0
 11 12  1  0  0  0
 12 13  1  0  0  0
 12 14  1  0  0  0
 12 15  1  0  0  0
 25 20  1  0  0  0
  7  2  1  0  0  0
  8  3  1  0  0  0
 18 19  1  0  0  0
M  END
> <minimizedAffinity>
23.32216

> <CNNscore>
0.4060021341

> <CNNaffinity>
6.3678164482

> <CNN_VS>
2.5853471756

> <CNNaffinity_variance>
0.5207660794

$$$$
[H]c1c([H])c(C(C([H])([H])[H])(C([H])([H])[H])C([H])([H])[H])c([H])c([H])c1C(=O)N([H])C([H])([H])[C@]1([H])C([H])([H])[C@]2([H])N(C(=O)OC(C([H])([H])[H])(C([H])([H])[H])C([H])([H])[H])[C@@]1([H])C([H])([H])C2([H])[H]


 29 31  0  0  0  0  0  0  0  0999 V2000
   -5.8320   -6.3377    7.8400 C   0  0  0  0  0  0  0  0  0  0  0  0
   -4.9830   -6.6301    6.6673 C   0  0  0  0  0  0  0  0  0  0  0  0
   -3.9538   -5.4498    6.6487 C   0  0  0  0  0  0  0  0  0  0  0  0
   -3.1779   -5.5181    5.3506 C   0  0  0  0  0  0  0  0  0  0  0  0
   -2.1396   -6.6285    5.5834 C   0  0  0  0  0  0  0  0  0  0  0  0
   -2.6262   -7.1848    6.9066 C   0  0  0  0  0  0  0  0  0  0  0  0
   -4.0238   -7.7649    6.6858 C   0  0  0  0  0  0  0  0  0  0  0  0
   -2.9909   -5.9564    7.5692 N   0  0  0  0  0  0  0  0  0  0  0  0
   -2.4752   -5.4758    8.7776 C   0  0  0  0  0  0  0  0  0  0  0  0
   -1.5966   -6.1178    9.4507 O   0  0  0  0  0  0  0  0  0  0  0  0
   -2.8646   -4.2649    9.3560 O   0  0  0  0  0  0  0  0  0  0  0  0
   -2.0763   -3.0932    9.2200 C   0  0  0  0  0  0  0  0  0  0  0  0
   -1.2857   -3.1056    7.9078 C   0  0  0  0  0  0  0  0  0  0  0  0
   -3.0460   -1.9267    9.1033 C   0  0  0  0  0  0  0  0  0  0  0  0
   -1.1253   -2.8900   10.3666 C   0  0  0  0  0  0  0  0  0  0  0  0
   -7.8824   -7.9123    7.9321 C   0  0  0  0  0  0  0  0  0  0  0  0
   -7.3154   -9.0152    7.8953 O   0  0  0  0  0  0  0  0  0  0  0  0
   -7.1804   -6.7048    7.9146 N   0  0  0  0  0  0  0  0  0  0  0  0
   -7.8496   -5.8130    7.9763 H   0  0  0  0  0  0  0  0  0  0  0  0
  -12.1662   -7.9391    8.2044 C   0  0  0  0  0  0  0  0  0  0  0  0
  -11.4153   -6.9019    8.7136 C   0  0  0  0  0  0  0  0  0  0  0  0
  -10.0498   -6.9324    8.6005 C   0  0  0  0  0  0  0  0  0  0  0  0
   -9.3626   -7.9583    7.9957 C   0  0  0  0  0  0  0  0  0  0  0  0
  -10.1003   -8.9887    7.4892 C   0  0  0  0  0  0  0  0  0  0  0  0
  -11.4954   -8.9819    7.5914 C   0  0  0  0  0  0  0  0  0  0  0  0
  -14.1384   -7.6830    9.6854 C   0  0  0  0  0  0  0  0  0  0  0  0
  -13.6422   -7.9977    8.2814 C   0  0  0  0  0  0  0  0  0  0  0  0
  -14.2845   -6.9784    7.3718 C   0  0  0  0  0  0  0  0  0  0  0  0
  -14.1060   -9.3641    7.8433 C   0  0  0  0  0  0  0  0  0  0  0  0
 26 27  1  0  0  0
 27 28  1  0  0  0
 27 29  1  0  0  0
 27 20  1  0  0  0
 20 21  2  0  0  0
 21 22  1  0  0  0
 22 23  2  0  0  0
 23 24  1  0  0  0
 24 25  2  0  0  0
 23 16  1  0  0  0
 16 17  2  0  0  0
 16 18  1  0  0  0
 18  1  1  0  0  0
  1  2  1  0  0  0
  2  3  1  0  0  0
  3  4  1  0  0  0
  4  5  1  0  0  0
  5  6  1  0  0  0
  6  7  1  0  0  0
  6  8  1  0  0  0
  8  9  1  0  0  0
  9 10  2  0  0  0
  9 11  1  0  0  0
 11 12  1  0  0  0
 12 13  1  0  0  0
 12 14  1  0  0  0
 12 15  1  0  0  0
 25 20  1  0  0  0
  7  2  1  0  0  0
  8  3  1  0  0  0
 18 19  1  0  0  0
M  END
> <minimizedAffinity>
-7.60906

> <CNNscore>
0.3859989047

> <CNNaffinity>
5.7984542847

> <CNN_VS>
2.2381970882

> <CNNaffinity_variance>
0.0664073527

$$$$
[H]c1c([H])c(C(C([H])([H])[H])(C([H])([H])[H])C([H])([H])[H])c([H])c([H])c1C(=O)N([H])C([H])([H])[C@]1([H])C([H])([H])[C@]2([H])N(C(=O)OC(C([H])([H])[H])(C([H])([H])[H])C([H])([H])[H])[C@@]1([H])C([H])([H])C2([H])[H]


 29 31  0  0  0  0  0  0  0  0999 V2000
   -4.7474   -5.9897    8.2367 C   0  0  0  0  0  0  0  0  0  0  0  0
   -4.1773   -5.4943    9.5060 C   0  0  0  0  0  0  0  0  0  0  0  0
   -2.6481   -5.8062    9.3746 C   0  0  0  0  0  0  0  0  0  0  0  0
   -1.9961   -5.5539   10.7173 C   0  0  0  0  0  0  0  0  0  0  0  0
   -1.8395   -4.0256   10.7856 C   0  0  0  0  0  0  0  0  0  0  0  0
   -2.6338   -3.6143    9.5620 C   0  0  0  0  0  0  0  0  0  0  0  0
   -4.0868   -4.0370    9.7825 C   0  0  0  0  0  0  0  0  0  0  0  0
   -2.2298   -4.6541    8.6473 N   0  0  0  0  0  0  0  0  0  0  0  0
   -1.5968   -4.4785    7.4122 C   0  0  0  0  0  0  0  0  0  0  0  0
   -1.3131   -3.3209    6.9466 O   0  0  0  0  0  0  0  0  0  0  0  0
   -1.2183   -5.5363    6.5813 O   0  0  0  0  0  0  0  0  0  0  0  0
   -2.0687   -6.0049    5.5470 C   0  0  0  0  0  0  0  0  0  0  0  0
   -1.3054   -6.1570    4.2274 C   0  0  0  0  0  0  0  0  0  0  0  0
   -2.4960   -7.4117    5.9379 C   0  0  0  0  0  0  0  0  0  0  0  0
   -3.2647   -5.1211    5.3256 C   0  0  0  0  0  0  0  0  0  0  0  0
   -6.5932   -7.6695    7.5561 C   0  0  0  0  0  0  0  0  0  0  0  0
   -5.9117   -8.5149    6.9560 O   0  0  0  0  0  0  0  0  0  0  0  0
   -6.0348   -6.5298    8.1395 N   0  0  0  0  0  0  0  0  0  0  0  0
   -6.7917   -5.8917    8.6561 H   0  0  0  0  0  0  0  0  0  0  0  0
  -10.8245   -8.3539    7.7864 C   0  0  0  0  0  0  0  0  0  0  0  0
  -10.2757   -7.1188    8.0551 C   0  0  0  0  0  0  0  0  0  0  0  0
   -8.9193   -6.9440    7.9648 C   0  0  0  0  0  0  0  0  0  0  0  0
   -8.0480   -7.9480    7.6143 C   0  0  0  0  0  0  0  0  0  0  0  0
   -8.5850   -9.1738    7.3468 C   0  0  0  0  0  0  0  0  0  0  0  0
   -9.9661   -9.3788    7.4315 C   0  0  0  0  0  0  0  0  0  0  0  0
  -13.0974   -7.4909    7.2985 C   0  0  0  0  0  0  0  0  0  0  0  0
  -12.2738   -8.6408    7.8604 C   0  0  0  0  0  0  0  0  0  0  0  0
  -12.6395   -9.8565    7.0437 C   0  0  0  0  0  0  0  0  0  0  0  0
  -12.6499   -8.9182    9.2942 C   0  0  0  0  0  0  0  0  0  0  0  0
 26 27  1  0  0  0
 27 28  1  0  0  0
 27 29  1  0  0  0
 27 20  1  0  0  0
 20 21  2  0  0  0
 21 22  1  0  0  0
 22 23  2  0  0  0
 23 24  1  0  0  0
 24 25  2  0  0  0
 23 16  1  0  0  0
 16 17  2  0  0  0
 16 18  1  0  0  0
 18  1  1  0  0  0
  1  2  1  0  0  0
  2  3  1  0  0  0
  3  4  1  0  0  0
  4  5  1  0  0  0
  5  6  1  0  0  0
  6  7  1  0  0  0
  6  8  1  0  0  0
  8  9  1  0  0  0
  9 10  2  0  0  0
  9 11  1  0  0  0
 11 12  1  0  0  0
 12 13  1  0  0  0
 12 14  1  0  0  0
 12 15  1  0  0  0
 25 20  1  0  0  0
  7  2  1  0  0  0
  8  3  1  0  0  0
 18 19  1  0  0  0
M  END
> <minimizedAffinity>
-7.14963

> <CNNscore>
0.3440197408

> <CNNaffinity>
5.6434450150

> <CNN_VS>
1.9414564371

> <CNNaffinity_variance>
0.0906275585

$$$$
[H]c1c([H])c(C(C([H])([H])[H])(C([H])([H])[H])C([H])([H])[H])c([H])c([H])c1C(=O)N([H])C([H])([H])[C@]1([H])C([H])([H])[C@]2([H])N(C(=O)OC(C([H])([H])[H])(C([H])([H])[H])C([H])([H])[H])[C@@]1([H])C([H])([H])C2([H])[H]


 29 31  0  0  0  0  0  0  0  0999 V2000
   -6.8432   -6.7925    7.5867 C   0  0  0  0  0  0  0  0  0  0  0  0
   -6.9226   -8.2267    7.2431 C   0  0  0  0  0  0  0  0  0  0  0  0
   -7.8795   -8.8186    8.3327 C   0  0  0  0  0  0  0  0  0  0  0  0
   -7.8491  -10.3279    8.2205 C   0  0  0  0  0  0  0  0  0  0  0  0
   -8.7617  -10.6410    7.0229 C   0  0  0  0  0  0  0  0  0  0  0  0
   -9.0001   -9.2432    6.4879 C   0  0  0  0  0  0  0  0  0  0  0  0
   -7.6537   -8.6800    6.0313 C   0  0  0  0  0  0  0  0  0  0  0  0
   -9.1381   -8.5254    7.7316 N   0  0  0  0  0  0  0  0  0  0  0  0
  -10.2484   -7.7827    8.1470 C   0  0  0  0  0  0  0  0  0  0  0  0
  -11.2947   -7.6517    7.4222 O   0  0  0  0  0  0  0  0  0  0  0  0
  -10.3198   -7.1231    9.3768 O   0  0  0  0  0  0  0  0  0  0  0  0
  -11.1051   -5.9535    9.5441 C   0  0  0  0  0  0  0  0  0  0  0  0
  -12.5162   -6.1473    8.9801 C   0  0  0  0  0  0  0  0  0  0  0  0
  -11.2854   -5.7603   11.0423 C   0  0  0  0  0  0  0  0  0  0  0  0
  -10.4857   -4.7364    8.9151 C   0  0  0  0  0  0  0  0  0  0  0  0
   -4.6808   -5.4597    7.0969 C   0  0  0  0  0  0  0  0  0  0  0  0
   -3.9481   -5.8879    8.0019 O   0  0  0  0  0  0  0  0  0  0  0  0
   -5.9963   -5.8964    6.9245 N   0  0  0  0  0  0  0  0  0  0  0  0
   -6.4997   -5.4217    6.0479 H   0  0  0  0  0  0  0  0  0  0  0  0
   -2.8164   -2.4948    4.6153 C   0  0  0  0  0  0  0  0  0  0  0  0
   -2.2682   -2.8787    5.8199 C   0  0  0  0  0  0  0  0  0  0  0  0
   -2.8952   -3.8328    6.5782 C   0  0  0  0  0  0  0  0  0  0  0  0
   -4.0669   -4.4476    6.2047 C   0  0  0  0  0  0  0  0  0  0  0  0
   -4.6151   -4.0720    5.0127 C   0  0  0  0  0  0  0  0  0  0  0  0
   -3.9951   -3.1007    4.2197 C   0  0  0  0  0  0  0  0  0  0  0  0
   -3.2278   -0.3982    3.3568 C   0  0  0  0  0  0  0  0  0  0  0  0
   -2.2165   -1.4726    3.7301 C   0  0  0  0  0  0  0  0  0  0  0  0
   -1.0742   -0.7555    4.4080 C   0  0  0  0  0  0  0  0  0  0  0  0
   -1.6709   -2.1463    2.4962 C   0  0  0  0  0  0  0  0  0  0  0  0
 26 27  1  0  0  0
 27 28  1  0  0  0
 27 29  1  0  0  0
 27 20  1  0  0  0
 20 21  2  0  0  0
 21 22  1  0  0  0
 22 23  2  0  0  0
 23 24  1  0  0  0
 24 25  2  0  0  0
 23 16  1  0  0  0
 16 17  2  0  0  0
 16 18  1  0  0  0
 18  1  1  0  0  0
  1  2  1  0  0  0
  2  3  1  0  0  0
  3  4  1  0  0  0
  4  5  1  0  0  0
  5  6  1  0  0  0
  6  7  1  0  0  0
  6  8  1  0  0  0
  8  9  1  0  0  0
  9 10  2  0  0  0
  9 11  1  0  0  0
 11 12  1  0  0  0
 12 13  1  0  0  0
 12 14  1  0  0  0
 12 15  1  0  0  0
 25 20  1  0  0  0
  7  2  1  0  0  0
  8  3  1  0  0  0
 18 19  1  0  0  0
M  END
> <minimizedAffinity>
-2.89310

> <CNNscore>
0.3125592470

> <CNNaffinity>
5.5998878479

> <CNN_VS>
1.7502967119

> <CNNaffinity_variance>
0.5917730927

$$$$
[H]c1c([H])c(C(C([H])([H])[H])(C([H])([H])[H])C([H])([H])[H])c([H])c([H])c1C(=O)N([H])C([H])([H])[C@]1([H])C([H])([H])[C@]2([H])N(C(=O)OC(C([H])([H])[H])(C([H])([H])[H])C([H])([H])[H])[C@@]1([H])C([H])([H])C2([H])[H]


 29 31  0  0  0  0  0  0  0  0999 V2000
  -10.9180   -7.8206    7.5687 C   0  0  0  0  0  0  0  0  0  0  0  0
  -11.6786   -7.7113    8.8300 C   0  0  0  0  0  0  0  0  0  0  0  0
  -12.8408   -6.7215    8.4799 C   0  0  0  0  0  0  0  0  0  0  0  0
  -13.5510   -6.3511    9.7645 C   0  0  0  0  0  0  0  0  0  0  0  0
  -14.4566   -7.5578   10.0625 C   0  0  0  0  0  0  0  0  0  0  0  0
  -13.9593   -8.5375    9.0186 C   0  0  0  0  0  0  0  0  0  0  0  0
  -12.4945   -8.8491    9.3281 C   0  0  0  0  0  0  0  0  0  0  0  0
  -13.7714   -7.6367    7.9076 N   0  0  0  0  0  0  0  0  0  0  0  0
  -14.3883   -7.7178    6.6546 C   0  0  0  0  0  0  0  0  0  0  0  0
  -15.2093   -8.6523    6.3549 O   0  0  0  0  0  0  0  0  0  0  0  0
  -14.1705   -6.7978    5.6258 O   0  0  0  0  0  0  0  0  0  0  0  0
  -15.2349   -6.3349    4.8101 C   0  0  0  0  0  0  0  0  0  0  0  0
  -16.5292   -6.1892    5.6167 C   0  0  0  0  0  0  0  0  0  0  0  0
  -14.8657   -4.9262    4.3696 C   0  0  0  0  0  0  0  0  0  0  0  0
  -15.4913   -7.2204    3.6224 C   0  0  0  0  0  0  0  0  0  0  0  0
   -8.4742   -8.6682    7.5281 C   0  0  0  0  0  0  0  0  0  0  0  0
   -8.6646   -9.8928    7.5865 O   0  0  0  0  0  0  0  0  0  0  0  0
   -9.5217   -7.7443    7.5124 N   0  0  0  0  0  0  0  0  0  0  0  0
   -9.1674   -6.6881    7.4347 H   0  0  0  0  0  0  0  0  0  0  0  0
   -4.3896   -7.3497    7.4747 C   0  0  0  0  0  0  0  0  0  0  0  0
   -5.2682   -6.9438    8.4557 C   0  0  0  0  0  0  0  0  0  0  0  0
   -6.5628   -7.3933    8.4365 C   0  0  0  0  0  0  0  0  0  0  0  0
   -7.0544   -8.2455    7.4761 C   0  0  0  0  0  0  0  0  0  0  0  0
   -6.1895   -8.6515    6.5017 C   0  0  0  0  0  0  0  0  0  0  0  0
   -4.8630   -8.2075    6.4984 C   0  0  0  0  0  0  0  0  0  0  0  0
   -2.6559   -6.2687    6.0695 C   0  0  0  0  0  0  0  0  0  0  0  0
   -2.9768   -6.9164    7.4090 C   0  0  0  0  0  0  0  0  0  0  0  0
   -2.6668   -5.8791    8.4609 C   0  0  0  0  0  0  0  0  0  0  0  0
   -2.0832   -8.1057    7.6564 C   0  0  0  0  0  0  0  0  0  0  0  0
 26 27  1  0  0  0
 27 28  1  0  0  0
 27 29  1  0  0  0
 27 20  1  0  0  0
 20 21  2  0  0  0
 21 22  1  0  0  0
 22 23  2  0  0  0
 23 24  1  0  0  0
 24 25  2  0  0  0
 23 16  1  0  0  0
 16 17  2  0  0  0
 16 18  1  0  0  0
 18  1  1  0  0  0
  1  2  1  0  0  0
  2  3  1  0  0  0
  3  4  1  0  0  0
  4  5  1  0  0  0
  5  6  1  0  0  0
  6  7  1  0  0  0
  6  8  1  0  0  0
  8  9  1  0  0  0
  9 10  2  0  0  0
  9 11  1  0  0  0
 11 12  1  0  0  0
 12 13  1  0  0  0
 12 14  1  0  0  0
 12 15  1  0  0  0
 25 20  1  0  0  0
  7  2  1  0  0  0
  8  3  1  0  0  0
 18 19  1  0  0  0
M  END
> <minimizedAffinity>
-8.76042

> <CNNscore>
0.2927016020

> <CNNaffinity>
6.4457550049

> <CNN_VS>
1.8866828680

> <CNNaffinity_variance>
0.1614813507

$$$$
[H]c1c([H])c2c(c([H])c1OC(=O)C(C([H])([H])[H])(C([H])([H])[H])C([H])([H])[H])C1(C(=O)N2[H])C([H])([H])C([H])([H])C([H])([H])C([H])([H])C1([H])[H]


 23 25  0  0  0  0  0  0  0  0999 V2000
  -12.5406   -6.7747    8.1688 C   0  0  0  0  0  0  0  0  0  0  0  0
  -12.9624   -7.2647    9.3853 C   0  0  0  0  0  0  0  0  0  0  0  0
  -14.2362   -7.7639    9.4598 C   0  0  0  0  0  0  0  0  0  0  0  0
  -15.0621   -7.7629    8.3166 C   0  0  0  0  0  0  0  0  0  0  0  0
  -16.4038   -8.2277    8.1542 N   0  0  0  0  0  0  0  0  0  0  0  0
  -16.8068   -8.0192    6.8202 C   0  0  0  0  0  0  0  0  0  0  0  0
  -17.9648   -8.3500    6.3895 O   0  0  0  0  0  0  0  0  0  0  0  0
  -15.6953   -7.3969    6.1170 C   0  0  0  0  0  0  0  0  0  0  0  0
  -15.1654   -8.3185    5.0367 C   0  0  0  0  0  0  0  0  0  0  0  0
  -15.3741   -7.8184    3.6481 C   0  0  0  0  0  0  0  0  0  0  0  0
  -16.7953   -7.3328    3.4716 C   0  0  0  0  0  0  0  0  0  0  0  0
  -17.1165   -6.2510    4.4829 C   0  0  0  0  0  0  0  0  0  0  0  0
  -16.0375   -6.0672    5.4920 C   0  0  0  0  0  0  0  0  0  0  0  0
  -14.6237   -7.2730    7.1235 C   0  0  0  0  0  0  0  0  0  0  0  0
  -13.3177   -6.7589    7.0382 C   0  0  0  0  0  0  0  0  0  0  0  0
  -16.9627   -8.6518    8.9374 H   0  0  0  0  0  0  0  0  0  0  0  0
  -11.2469   -6.2707    8.1030 O   0  0  0  0  0  0  0  0  0  0  0  0
  -10.2026   -6.9411    8.7223 C   0  0  0  0  0  0  0  0  0  0  0  0
  -10.1503   -6.8750    9.9790 O   0  0  0  0  0  0  0  0  0  0  0  0
   -8.7387   -6.8690    6.7806 C   0  0  0  0  0  0  0  0  0  0  0  0
   -9.1970   -7.6973    7.9596 C   0  0  0  0  0  0  0  0  0  0  0  0
   -7.9806   -8.0463    8.7901 C   0  0  0  0  0  0  0  0  0  0  0  0
   -9.7493   -8.9935    7.4062 C   0  0  0  0  0  0  0  0  0  0  0  0
 20 21  1  0  0  0
 21 22  1  0  0  0
 21 23  1  0  0  0
 21 18  1  0  0  0
 18 19  2  0  0  0
 18 17  1  0  0  0
 17  1  1  0  0  0
  1  2  2  0  0  0
  2  3  1  0  0  0
  3  4  2  0  0  0
  4  5  1  0  0  0
  5  6  1  0  0  0
  6  7  2  0  0  0
  6  8  1  0  0  0
  8  9  1  0  0  0
  9 10  1  0  0  0
 10 11  1  0  0  0
 11 12  1  0  0  0
 12 13  1  0  0  0
  8 14  1  0  0  0
 14 15  2  0  0  0
 15  1  1  0  0  0
 14  4  1  0  0  0
 13  8  1  0  0  0
  5 16  1  0  0  0
M  END
> <minimizedAffinity>
-7.07000

> <CNNscore>
0.5260177851

> <CNNaffinity>
6.6147718430

> <CNN_VS>
3.4794876575

> <CNNaffinity_variance>
0.2347586453

$$$$
[H]c1c([H])c2c(c([H])c1OC(=O)C(C([H])([H])[H])(C([H])([H])[H])C([H])([H])[H])C1(C(=O)N2[H])C([H])([H])C([H])([H])C([H])([H])C([H])([H])C1([H])[H]


 23 25  0  0  0  0  0  0  0  0999 V2000
  -11.5535   -7.7301    8.0590 C   0  0  0  0  0  0  0  0  0  0  0  0
  -11.9881   -8.0025    9.3376 C   0  0  0  0  0  0  0  0  0  0  0  0
  -13.3397   -8.1008    9.5397 C   0  0  0  0  0  0  0  0  0  0  0  0
  -14.2290   -7.9247    8.4594 C   0  0  0  0  0  0  0  0  0  0  0  0
  -15.6566   -7.9843    8.4278 N   0  0  0  0  0  0  0  0  0  0  0  0
  -16.1000   -7.7454    7.1118 C   0  0  0  0  0  0  0  0  0  0  0  0
  -17.3379   -7.7467    6.7898 O   0  0  0  0  0  0  0  0  0  0  0  0
  -14.9239   -7.5188    6.2856 C   0  0  0  0  0  0  0  0  0  0  0  0
  -14.7802   -8.6171    5.2509 C   0  0  0  0  0  0  0  0  0  0  0  0
  -14.9594   -8.1602    3.8435 C   0  0  0  0  0  0  0  0  0  0  0  0
  -16.1906   -7.2904    3.7252 C   0  0  0  0  0  0  0  0  0  0  0  0
  -16.0955   -6.1046    4.6637 C   0  0  0  0  0  0  0  0  0  0  0  0
  -14.9236   -6.1864    5.5783 C   0  0  0  0  0  0  0  0  0  0  0  0
  -13.7766   -7.6558    7.2029 C   0  0  0  0  0  0  0  0  0  0  0  0
  -12.3909   -7.5534    6.9866 C   0  0  0  0  0  0  0  0  0  0  0  0
  -16.2416   -8.1790    9.2795 H   0  0  0  0  0  0  0  0  0  0  0  0
  -10.1808   -7.6324    7.8637 O   0  0  0  0  0  0  0  0  0  0  0  0
   -9.4409   -8.7552    7.5239 C   0  0  0  0  0  0  0  0  0  0  0  0
  -10.0840   -9.7562    7.1108 O   0  0  0  0  0  0  0  0  0  0  0  0
   -7.5476  -10.1247    8.2010 C   0  0  0  0  0  0  0  0  0  0  0  0
   -7.9743   -8.7888    7.6357 C   0  0  0  0  0  0  0  0  0  0  0  0
   -7.2861   -8.6020    6.3005 C   0  0  0  0  0  0  0  0  0  0  0  0
   -7.4434   -7.7202    8.5673 C   0  0  0  0  0  0  0  0  0  0  0  0
 20 21  1  0  0  0
 21 22  1  0  0  0
 21 23  1  0  0  0
 21 18  1  0  0  0
 18 19  2  0  0  0
 18 17  1  0  0  0
 17  1  1  0  0  0
  1  2  2  0  0  0
  2  3  1  0  0  0
  3  4  2  0  0  0
  4  5  1  0  0  0
  5  6  1  0  0  0
  6  7  2  0  0  0
  6  8  1  0  0  0
  8  9  1  0  0  0
  9 10  1  0  0  0
 10 11  1  0  0  0
 11 12  1  0  0  0
 12 13  1  0  0  0
  8 14  1  0  0  0
 14 15  2  0  0  0
 15  1  1  0  0  0
 14  4  1  0  0  0
 13  8  1  0  0  0
  5 16  1  0  0  0
M  END
> <minimizedAffinity>
-9.23947

> <CNNscore>
0.5029911995

> <CNNaffinity>
6.4025297165

> <CNN_VS>
3.2204160690

> <CNNaffinity_variance>
0.1171681508

$$$$
[H]c1c([H])c2c(c([H])c1OC(=O)C(C([H])([H])[H])(C([H])([H])[H])C([H])([H])[H])C1(C(=O)N2[H])C([H])([H])C([H])([H])C([H])([H])C([H])([H])C1([H])[H]


 23 25  0  0  0  0  0  0  0  0999 V2000
  -12.4903   -8.4407    7.3389 C   0  0  0  0  0  0  0  0  0  0  0  0
  -12.8905   -7.5493    8.3101 C   0  0  0  0  0  0  0  0  0  0  0  0
  -11.9120   -6.9054    9.0208 C   0  0  0  0  0  0  0  0  0  0  0  0
  -10.5534   -7.1660    8.7460 C   0  0  0  0  0  0  0  0  0  0  0  0
   -9.3758   -6.6204    9.3444 N   0  0  0  0  0  0  0  0  0  0  0  0
   -8.2408   -7.1860    8.7300 C   0  0  0  0  0  0  0  0  0  0  0  0
   -7.0467   -6.8722    9.0644 O   0  0  0  0  0  0  0  0  0  0  0  0
   -8.7084   -8.1231    7.7200 C   0  0  0  0  0  0  0  0  0  0  0  0
   -8.3124   -7.6541    6.3341 C   0  0  0  0  0  0  0  0  0  0  0  0
   -7.3243   -8.5344    5.6484 C   0  0  0  0  0  0  0  0  0  0  0  0
   -6.1883   -8.8799    6.5847 C   0  0  0  0  0  0  0  0  0  0  0  0
   -6.7173   -9.5461    7.8386 C   0  0  0  0  0  0  0  0  0  0  0  0
   -8.2041   -9.5314    7.9153 C   0  0  0  0  0  0  0  0  0  0  0  0
  -10.1808   -8.0520    7.7807 C   0  0  0  0  0  0  0  0  0  0  0  0
  -11.1787   -8.7171    7.0464 C   0  0  0  0  0  0  0  0  0  0  0  0
   -9.4024   -5.9103   10.1193 H   0  0  0  0  0  0  0  0  0  0  0  0
  -13.4902   -9.0888    6.6231 O   0  0  0  0  0  0  0  0  0  0  0  0
  -14.7517   -8.5229    6.5143 C   0  0  0  0  0  0  0  0  0  0  0  0
  -15.4958   -8.5935    7.5280 O   0  0  0  0  0  0  0  0  0  0  0  0
  -16.7215   -7.7940    5.2867 C   0  0  0  0  0  0  0  0  0  0  0  0
  -15.2113   -7.8680    5.2796 C   0  0  0  0  0  0  0  0  0  0  0  0
  -14.6724   -6.4611    5.1338 C   0  0  0  0  0  0  0  0  0  0  0  0
  -14.8082   -8.6337    4.0375 C   0  0  0  0  0  0  0  0  0  0  0  0
 20 21  1  0  0  0
 21 22  1  0  0  0
 21 23  1  0  0  0
 21 18  1  0  0  0
 18 19  2  0  0  0
 18 17  1  0  0  0
 17  1  1  0  0  0
  1  2  2  0  0  0
  2  3  1  0  0  0
  3  4  2  0  0  0
  4  5  1  0  0  0
  5  6  1  0  0  0
  6  7  2  0  0  0
  6  8  1  0  0  0
  8  9  1  0  0  0
  9 10  1  0  0  0
 10 11  1  0  0  0
 11 12  1  0  0  0
 12 13  1  0  0  0
  8 14  1  0  0  0
 14 15  2  0  0  0
 15  1  1  0  0  0
 14  4  1  0  0  0
 13  8  1  0  0  0
  5 16  1  0  0  0
M  END
> <minimizedAffinity>
-6.42599

> <CNNscore>
0.3999907672

> <CNNaffinity>
6.1375846863

> <CNN_VS>
2.4549772739

> <CNNaffinity_variance>
0.4763906002

$$$$
[H]c1c([H])c2c(c([H])c1OC(=O)C(C([H])([H])[H])(C([H])([H])[H])C([H])([H])[H])C1(C(=O)N2[H])C([H])([H])C([H])([H])C([H])([H])C([H])([H])C1([H])[H]


 23 25  0  0  0  0  0  0  0  0999 V2000
   -8.6581   -7.6315    7.3798 C   0  0  0  0  0  0  0  0  0  0  0  0
   -8.1958   -8.8974    7.0943 C   0  0  0  0  0  0  0  0  0  0  0  0
   -9.1086   -9.9192    7.0905 C   0  0  0  0  0  0  0  0  0  0  0  0
  -10.4648   -9.6544    7.3723 C   0  0  0  0  0  0  0  0  0  0  0  0
  -11.5820  -10.5444    7.4214 N   0  0  0  0  0  0  0  0  0  0  0  0
  -12.7426   -9.8119    7.7408 C   0  0  0  0  0  0  0  0  0  0  0  0
  -13.8954  -10.3564    7.8443 O   0  0  0  0  0  0  0  0  0  0  0  0
  -12.3524   -8.4203    7.9084 C   0  0  0  0  0  0  0  0  0  0  0  0
  -12.9925   -7.5553    6.8410 C   0  0  0  0  0  0  0  0  0  0  0  0
  -13.9917   -6.5792    7.3612 C   0  0  0  0  0  0  0  0  0  0  0  0
  -14.9387   -7.2584    8.3248 C   0  0  0  0  0  0  0  0  0  0  0  0
  -14.1701   -7.8950    9.4650 C   0  0  0  0  0  0  0  0  0  0  0  0
  -12.6959   -7.8498    9.2620 C   0  0  0  0  0  0  0  0  0  0  0  0
  -10.8997   -8.3941    7.6521 C   0  0  0  0  0  0  0  0  0  0  0  0
   -9.9695   -7.3395    7.6580 C   0  0  0  0  0  0  0  0  0  0  0  0
  -11.5012  -11.5769    7.2401 H   0  0  0  0  0  0  0  0  0  0  0  0
   -7.7248   -6.6015    7.3811 O   0  0  0  0  0  0  0  0  0  0  0  0
   -6.7067   -6.5788    6.4395 C   0  0  0  0  0  0  0  0  0  0  0  0
   -7.0516   -6.4927    5.2313 O   0  0  0  0  0  0  0  0  0  0  0  0
   -5.1405   -6.2609    8.2738 C   0  0  0  0  0  0  0  0  0  0  0  0
   -5.2874   -6.6510    6.8203 C   0  0  0  0  0  0  0  0  0  0  0  0
   -4.7096   -8.0390    6.6454 C   0  0  0  0  0  0  0  0  0  0  0  0
   -4.4263   -5.7018    6.0146 C   0  0  0  0  0  0  0  0  0  0  0  0
 20 21  1  0  0  0
 21 22  1  0  0  0
 21 23  1  0  0  0
 21 18  1  0  0  0
 18 19  2  0  0  0
 18 17  1  0  0  0
 17  1  1  0  0  0
  1  2  2  0  0  0
  2  3  1  0  0  0
  3  4  2  0  0  0
  4  5  1  0  0  0
  5  6  1  0  0  0
  6  7  2  0  0  0
  6  8  1  0  0  0
  8  9  1  0  0  0
  9 10  1  0  0  0
 10 11  1  0  0  0
 11 12  1  0  0  0
 12 13  1  0  0  0
  8 14  1  0  0  0
 14 15  2  0  0  0
 15  1  1  0  0  0
 14  4  1  0  0  0
 13  8  1  0  0  0
  5 16  1  0  0  0
M  END
> <minimizedAffinity>
-8.69468

> <CNNscore>
0.3910194933

> <CNNaffinity>
6.0492181778

> <CNN_VS>
2.3653621674

> <CNNaffinity_variance>
0.0573387556

$$$$
[H]c1c([H])c2c(c([H])c1OC(=O)C(C([H])([H])[H])(C([H])([H])[H])C([H])([H])[H])C1(C(=O)N2[H])C([H])([H])C([H])([H])C([H])([H])C([H])([H])C1([H])[H]


 23 25  0  0  0  0  0  0  0  0999 V2000
   -5.1018   -5.2116    5.8593 C   0  0  0  0  0  0  0  0  0  0  0  0
   -5.7297   -5.0447    4.6445 C   0  0  0  0  0  0  0  0  0  0  0  0
   -6.7818   -5.8737    4.3560 C   0  0  0  0  0  0  0  0  0  0  0  0
   -7.1845   -6.8525    5.2881 C   0  0  0  0  0  0  0  0  0  0  0  0
   -8.2403   -7.8127    5.2110 N   0  0  0  0  0  0  0  0  0  0  0  0
   -8.2577   -8.5762    6.3952 C   0  0  0  0  0  0  0  0  0  0  0  0
   -9.1086   -9.5086    6.6026 O   0  0  0  0  0  0  0  0  0  0  0  0
   -7.1788   -8.0954    7.2447 C   0  0  0  0  0  0  0  0  0  0  0  0
   -7.7341   -7.4748    8.5111 C   0  0  0  0  0  0  0  0  0  0  0  0
   -7.4027   -8.2235    9.7566 C   0  0  0  0  0  0  0  0  0  0  0  0
   -7.6647   -9.7008    9.5682 C   0  0  0  0  0  0  0  0  0  0  0  0
   -6.8686  -10.2362    8.3954 C   0  0  0  0  0  0  0  0  0  0  0  0
   -6.1824   -9.1617    7.6265 C   0  0  0  0  0  0  0  0  0  0  0  0
   -6.5486   -6.9997    6.4837 C   0  0  0  0  0  0  0  0  0  0  0  0
   -5.4679   -6.1530    6.7879 C   0  0  0  0  0  0  0  0  0  0  0  0
   -8.8784   -7.8982    4.3798 H   0  0  0  0  0  0  0  0  0  0  0  0
   -4.0358   -4.3659    6.1430 O   0  0  0  0  0  0  0  0  0  0  0  0
   -2.9123   -4.3596    5.3297 C   0  0  0  0  0  0  0  0  0  0  0  0
   -2.7236   -3.3302    4.6289 O   0  0  0  0  0  0  0  0  0  0  0  0
   -1.1189   -5.3779    4.0394 C   0  0  0  0  0  0  0  0  0  0  0  0
   -1.9773   -5.4944    5.2787 C   0  0  0  0  0  0  0  0  0  0  0  0
   -1.0609   -5.5457    6.4823 C   0  0  0  0  0  0  0  0  0  0  0  0
   -2.6924   -6.8265    5.2022 C   0  0  0  0  0  0  0  0  0  0  0  0
 20 21  1  0  0  0
 21 22  1  0  0  0
 21 23  1  0  0  0
 21 18  1  0  0  0
 18 19  2  0  0  0
 18 17  1  0  0  0
 17  1  1  0  0  0
  1  2  2  0  0  0
  2  3  1  0  0  0
  3  4  2  0  0  0
  4  5  1  0  0  0
  5  6  1  0  0  0
  6  7  2  0  0  0
  6  8  1  0  0  0
  8  9  1  0  0  0
  9 10  1  0  0  0
 10 11  1  0  0  0
 11 12  1  0  0  0
 12 13  1  0  0  0
  8 14  1  0  0  0
 14 15  2  0  0  0
 15  1  1  0  0  0
 14  4  1  0  0  0
 13  8  1  0  0  0
  5 16  1  0  0  0
M  END
> <minimizedAffinity>
5.93399

> <CNNscore>
0.3682208359

> <CNNaffinity>
4.6487336159

> <CNN_VS>
1.7117605209

> <CNNaffinity_variance>
0.6001776457

$$$$
[H]c1c([H])c2c(c([H])c1OC(=O)C(C([H])([H])[H])(C([H])([H])[H])C([H])([H])[H])C1(C(=O)N2[H])C([H])([H])C([H])([H])C([H])([H])C([H])([H])C1([H])[H]


 23 25  0  0  0  0  0  0  0  0999 V2000
   -8.9893   -7.8452    7.2489 C   0  0  0  0  0  0  0  0  0  0  0  0
   -9.2419   -9.1683    6.9602 C   0  0  0  0  0  0  0  0  0  0  0  0
  -10.3625   -9.7337    7.5094 C   0  0  0  0  0  0  0  0  0  0  0  0
  -11.2078   -8.9647    8.3359 C   0  0  0  0  0  0  0  0  0  0  0  0
  -12.4156   -9.3310    9.0063 N   0  0  0  0  0  0  0  0  0  0  0  0
  -12.9078   -8.2162    9.7137 C   0  0  0  0  0  0  0  0  0  0  0  0
  -13.9858   -8.2561   10.4011 O   0  0  0  0  0  0  0  0  0  0  0  0
  -11.9839   -7.1135    9.4952 C   0  0  0  0  0  0  0  0  0  0  0  0
  -12.6606   -5.9958    8.7269 C   0  0  0  0  0  0  0  0  0  0  0  0
  -12.8367   -4.7368    9.5050 C   0  0  0  0  0  0  0  0  0  0  0  0
  -13.3998   -5.0393   10.8754 C   0  0  0  0  0  0  0  0  0  0  0  0
  -12.4990   -6.0048   11.6186 C   0  0  0  0  0  0  0  0  0  0  0  0
  -11.4040   -6.5435   10.7658 C   0  0  0  0  0  0  0  0  0  0  0  0
  -10.9382   -7.6574    8.6079 C   0  0  0  0  0  0  0  0  0  0  0  0
   -9.7901   -7.0692    8.0482 C   0  0  0  0  0  0  0  0  0  0  0  0
  -12.8331  -10.2943    8.9505 H   0  0  0  0  0  0  0  0  0  0  0  0
   -7.8502   -7.2804    6.6871 O   0  0  0  0  0  0  0  0  0  0  0  0
   -6.6061   -7.8548    6.9013 C   0  0  0  0  0  0  0  0  0  0  0  0
   -6.5706   -9.1088    7.0129 O   0  0  0  0  0  0  0  0  0  0  0  0
   -5.3249   -6.0840    5.8332 C   0  0  0  0  0  0  0  0  0  0  0  0
   -5.3785   -7.0494    6.9957 C   0  0  0  0  0  0  0  0  0  0  0  0
   -5.3083   -6.2466    8.2769 C   0  0  0  0  0  0  0  0  0  0  0  0
   -4.1267   -7.8980    6.9287 C   0  0  0  0  0  0  0  0  0  0  0  0
 20 21  1  0  0  0
 21 22  1  0  0  0
 21 23  1  0  0  0
 21 18  1  0  0  0
 18 19  2  0  0  0
 18 17  1  0  0  0
 17  1  1  0  0  0
  1  2  2  0  0  0
  2  3  1  0  0  0
  3  4  2  0  0  0
  4  5  1  0  0  0
  5  6  1  0  0  0
  6  7  2  0  0  0
  6  8  1  0  0  0
  8  9  1  0  0  0
  9 10  1  0  0  0
 10 11  1  0  0  0
 11 12  1  0  0  0
 12 13  1  0  0  0
  8 14  1  0  0  0
 14 15  2  0  0  0
 15  1  1  0  0  0
 14  4  1  0  0  0
 13  8  1  0  0  0
  5 16  1  0  0  0
M  END
> <minimizedAffinity>
-5.57079

> <CNNscore>
0.3332342803

> <CNNaffinity>
5.6526894569

> <CNN_VS>
1.8836698532

> <CNNaffinity_variance>
0.0825297609

$$$$
[H]c1c([H])c2c(c([H])c1OC(=O)C(C([H])([H])[H])(C([H])([H])[H])C([H])([H])[H])C1(C(=O)N2[H])C([H])([H])C([H])([H])C([H])([H])C([H])([H])C1([H])[H]


 23 25  0  0  0  0  0  0  0  0999 V2000
  -13.7539   -6.4440    5.7406 C   0  0  0  0  0  0  0  0  0  0  0  0
  -13.6582   -5.3254    4.9422 C   0  0  0  0  0  0  0  0  0  0  0  0
  -14.7890   -4.9179    4.2846 C   0  0  0  0  0  0  0  0  0  0  0  0
  -15.9923   -5.6371    4.4388 C   0  0  0  0  0  0  0  0  0  0  0  0
  -17.2804   -5.4029    3.8656 N   0  0  0  0  0  0  0  0  0  0  0  0
  -18.1752   -6.3918    4.3205 C   0  0  0  0  0  0  0  0  0  0  0  0
  -19.4054   -6.4226    3.9713 O   0  0  0  0  0  0  0  0  0  0  0  0
  -17.4349   -7.2843    5.1994 C   0  0  0  0  0  0  0  0  0  0  0  0
  -17.9666   -7.1987    6.6162 C   0  0  0  0  0  0  0  0  0  0  0  0
  -18.6213   -8.4467    7.1014 C   0  0  0  0  0  0  0  0  0  0  0  0
  -19.5816   -8.9763    6.0602 C   0  0  0  0  0  0  0  0  0  0  0  0
  -18.8610   -9.2256    4.7508 C   0  0  0  0  0  0  0  0  0  0  0  0
  -17.4579   -8.7278    4.7617 C   0  0  0  0  0  0  0  0  0  0  0  0
  -16.0637   -6.7409    5.2338 C   0  0  0  0  0  0  0  0  0  0  0  0
  -14.9078   -7.1660    5.9124 C   0  0  0  0  0  0  0  0  0  0  0  0
  -17.4808   -4.6043    3.2118 H   0  0  0  0  0  0  0  0  0  0  0  0
  -12.6016   -6.8495    6.4037 O   0  0  0  0  0  0  0  0  0  0  0  0
  -12.6692   -7.8151    7.3971 C   0  0  0  0  0  0  0  0  0  0  0  0
  -12.7921   -9.0106    7.0204 O   0  0  0  0  0  0  0  0  0  0  0  0
  -11.2494   -6.8690    9.1312 C   0  0  0  0  0  0  0  0  0  0  0  0
  -12.6017   -7.4728    8.8264 C   0  0  0  0  0  0  0  0  0  0  0  0
  -13.6646   -6.4757    9.2351 C   0  0  0  0  0  0  0  0  0  0  0  0
  -12.7590   -8.6867    9.7171 C   0  0  0  0  0  0  0  0  0  0  0  0
 20 21  1  0  0  0
 21 22  1  0  0  0
 21 23  1  0  0  0
 21 18  1  0  0  0
 18 19  2  0  0  0
 18 17  1  0  0  0
 17  1  1  0  0  0
  1  2  2  0  0  0
  2  3  1  0  0  0
  3  4  2  0  0  0
  4  5  1  0  0  0
  5  6  1  0  0  0
  6  7  2  0  0  0
  6  8  1  0  0  0
  8  9  1  0  0  0
  9 10  1  0  0  0
 10 11  1  0  0  0
 11 12  1  0  0  0
 12 13  1  0  0  0
  8 14  1  0  0  0
 14 15  2  0  0  0
 15  1  1  0  0  0
 14  4  1  0  0  0
 13  8  1  0  0  0
  5 16  1  0  0  0
M  END
> <minimizedAffinity>
-2.63991

> <CNNscore>
0.2773590386

> <CNNaffinity>
6.1062335968

> <CNN_VS>
1.6936191320

> <CNNaffinity_variance>
0.2035986930

$$$$
[H]c1c([H])c2c(c([H])c1OC(=O)C(C([H])([H])[H])(C([H])([H])[H])C([H])([H])[H])C1(C(=O)N2[H])C([H])([H])C([H])([H])C([H])([H])C([H])([H])C1([H])[H]


 23 25  0  0  0  0  0  0  0  0999 V2000
   -8.9770   -9.5709    7.5933 C   0  0  0  0  0  0  0  0  0  0  0  0
   -9.3051  -10.4412    6.5770 C   0  0  0  0  0  0  0  0  0  0  0  0
  -10.6281  -10.5483    6.2372 C   0  0  0  0  0  0  0  0  0  0  0  0
  -11.5960   -9.7831    6.9204 C   0  0  0  0  0  0  0  0  0  0  0  0
  -13.0127   -9.7249    6.7412 N   0  0  0  0  0  0  0  0  0  0  0  0
  -13.5573   -8.8061    7.6603 C   0  0  0  0  0  0  0  0  0  0  0  0
  -14.8087   -8.5479    7.7186 O   0  0  0  0  0  0  0  0  0  0  0  0
  -12.4592   -8.2721    8.4516 C   0  0  0  0  0  0  0  0  0  0  0  0
  -12.2901   -6.7879    8.1949 C   0  0  0  0  0  0  0  0  0  0  0  0
  -12.5960   -5.9240    9.3703 C   0  0  0  0  0  0  0  0  0  0  0  0
  -13.9008   -6.3454   10.0079 C   0  0  0  0  0  0  0  0  0  0  0  0
  -13.8458   -7.8035   10.4166 C   0  0  0  0  0  0  0  0  0  0  0  0
  -12.6154   -8.4903    9.9361 C   0  0  0  0  0  0  0  0  0  0  0  0
  -11.2485   -8.9286    7.9227 C   0  0  0  0  0  0  0  0  0  0  0  0
   -9.8928   -8.8124    8.2778 C   0  0  0  0  0  0  0  0  0  0  0  0
  -13.5240  -10.2972    6.0226 H   0  0  0  0  0  0  0  0  0  0  0  0
   -7.6325   -9.4689    7.9307 O   0  0  0  0  0  0  0  0  0  0  0  0
   -7.0084   -8.2305    7.9512 C   0  0  0  0  0  0  0  0  0  0  0  0
   -6.7443   -7.7457    9.0832 O   0  0  0  0  0  0  0  0  0  0  0  0
   -6.4200   -8.5034    5.6065 C   0  0  0  0  0  0  0  0  0  0  0  0
   -6.6655   -7.5069    6.7169 C   0  0  0  0  0  0  0  0  0  0  0  0
   -7.7651   -6.5673    6.2706 C   0  0  0  0  0  0  0  0  0  0  0  0
   -5.4039   -6.6833    6.8641 C   0  0  0  0  0  0  0  0  0  0  0  0
 20 21  1  0  0  0
 21 22  1  0  0  0
 21 23  1  0  0  0
 21 18  1  0  0  0
 18 19  2  0  0  0
 18 17  1  0  0  0
 17  1  1  0  0  0
  1  2  2  0  0  0
  2  3  1  0  0  0
  3  4  2  0  0  0
  4  5  1  0  0  0
  5  6  1  0  0  0
  6  7  2  0  0  0
  6  8  1  0  0  0
  8  9  1  0  0  0
  9 10  1  0  0  0
 10 11  1  0  0  0
 11 12  1  0  0  0
 12 13  1  0  0  0
  8 14  1  0  0  0
 14 15  2  0  0  0
 15  1  1  0  0  0
 14  4  1  0  0  0
 13  8  1  0  0  0
  5 16  1  0  0  0
M  END
> <minimizedAffinity>
-7.61886

> <CNNscore>
0.2452249527

> <CNNaffinity>
5.8816542625

> <CNN_VS>
1.4423283339

> <CNNaffinity_variance>
0.0450649522

$$$$
[H]c1c([H])c2c(c([H])c1OC(=O)C(C([H])([H])[H])(C([H])([H])[H])C([H])([H])[H])C1(C(=O)N2[H])C([H])([H])C([H])([H])C([H])([H])C([H])([H])C1([H])[H]


 23 25  0  0  0  0  0  0  0  0999 V2000
  -12.0198   -6.6231    9.7866 C   0  0  0  0  0  0  0  0  0  0  0  0
  -11.6005   -5.3149    9.6831 C   0  0  0  0  0  0  0  0  0  0  0  0
  -10.4515   -5.0720    8.9774 C   0  0  0  0  0  0  0  0  0  0  0  0
   -9.7453   -6.1419    8.3895 C   0  0  0  0  0  0  0  0  0  0  0  0
   -8.5439   -6.1324    7.6156 N   0  0  0  0  0  0  0  0  0  0  0  0
   -8.2253   -7.4528    7.2408 C   0  0  0  0  0  0  0  0  0  0  0  0
   -7.1995   -7.7408    6.5330 O   0  0  0  0  0  0  0  0  0  0  0  0
   -9.2459   -8.3270    7.7986 C   0  0  0  0  0  0  0  0  0  0  0  0
  -10.0426   -8.9895    6.6924 C   0  0  0  0  0  0  0  0  0  0  0  0
   -9.8596  -10.4661    6.6055 C   0  0  0  0  0  0  0  0  0  0  0  0
   -8.3908  -10.8194    6.6722 C   0  0  0  0  0  0  0  0  0  0  0  0
   -7.7716  -10.2784    7.9450 C   0  0  0  0  0  0  0  0  0  0  0  0
   -8.6993   -9.3991    8.7083 C   0  0  0  0  0  0  0  0  0  0  0  0
  -10.1787   -7.4282    8.5049 C   0  0  0  0  0  0  0  0  0  0  0  0
  -11.3571   -7.6864    9.2275 C   0  0  0  0  0  0  0  0  0  0  0  0
   -8.0155   -5.2525    7.3874 H   0  0  0  0  0  0  0  0  0  0  0  0
  -13.1864   -6.8596   10.5043 O   0  0  0  0  0  0  0  0  0  0  0  0
  -14.1198   -7.7745   10.0403 C   0  0  0  0  0  0  0  0  0  0  0  0
  -14.6451   -8.5345   10.8963 O   0  0  0  0  0  0  0  0  0  0  0  0
  -15.9586   -8.1969    8.5044 C   0  0  0  0  0  0  0  0  0  0  0  0
  -14.4882   -7.8634    8.6186 C   0  0  0  0  0  0  0  0  0  0  0  0
  -14.2402   -6.5697    7.8730 C   0  0  0  0  0  0  0  0  0  0  0  0
  -13.7263   -8.9522    7.8936 C   0  0  0  0  0  0  0  0  0  0  0  0
 20 21  1  0  0  0
 21 22  1  0  0  0
 21 23  1  0  0  0
 21 18  1  0  0  0
 18 19  2  0  0  0
 18 17  1  0  0  0
 17  1  1  0  0  0
  1  2  2  0  0  0
  2  3  1  0  0  0
  3  4  2  0  0  0
  4  5  1  0  0  0
  5  6  1  0  0  0
  6  7  2  0  0  0
  6  8  1  0  0  0
  8  9  1  0  0  0
  9 10  1  0  0  0
 10 11  1  0  0  0
 11 12  1  0  0  0
 12 13  1  0  0  0
  8 14  1  0  0  0
 14 15  2  0  0  0
 15  1  1  0  0  0
 14  4  1  0  0  0
 13  8  1  0  0  0
  5 16  1  0  0  0
M  END
> <minimizedAffinity>
-3.32317

> <CNNscore>
0.2277613878

> <CNNaffinity>
5.5487036705

> <CNN_VS>
1.2637804747

> <CNNaffinity_variance>
0.1719913930

$$$$
[H]Oc1c([H])c([H])c2c([H])c(N([H])C(=O)c3c([H])c([H])c(C(=O)C(F)(F)F)c([H])c3[H])c(C([H])([H])N(C([H])([H])[H])C([H])([H])C([H])([H])C([H])([H])C([H])([H])[H])c([H])c2c1[H]


 35 37  0  0  0  0  0  0  0  0999 V2000
  -10.0919  -10.3830    6.1637 C   0  0  0  0  0  0  0  0  0  0  0  0
   -9.8034  -11.1209    5.0466 C   0  0  0  0  0  0  0  0  0  0  0  0
   -8.7446  -10.7394    4.2132 C   0  0  0  0  0  0  0  0  0  0  0  0
   -8.4590  -11.4876    3.0880 C   0  0  0  0  0  0  0  0  0  0  0  0
   -7.4362  -11.1274    2.2752 C   0  0  0  0  0  0  0  0  0  0  0  0
   -7.1298  -11.8686    1.1334 O   0  0  0  0  0  0  0  0  0  0  0  0
   -6.6948  -10.0055    2.5967 C   0  0  0  0  0  0  0  0  0  0  0  0
   -6.9726   -9.2392    3.7318 C   0  0  0  0  0  0  0  0  0  0  0  0
   -8.0182   -9.6264    4.5428 C   0  0  0  0  0  0  0  0  0  0  0  0
   -8.3225   -8.8803    5.6885 C   0  0  0  0  0  0  0  0  0  0  0  0
   -9.3546   -9.2298    6.5238 C   0  0  0  0  0  0  0  0  0  0  0  0
   -6.3818  -11.6398    0.5027 H   0  0  0  0  0  0  0  0  0  0  0  0
   -9.7446   -8.5592    7.6937 N   0  0  0  0  0  0  0  0  0  0  0  0
  -10.2769   -7.2783    7.8098 C   0  0  0  0  0  0  0  0  0  0  0  0
  -10.4781   -6.5484    6.8127 O   0  0  0  0  0  0  0  0  0  0  0  0
   -9.6246   -9.0968    8.6185 H   0  0  0  0  0  0  0  0  0  0  0  0
  -10.6397   -6.7024    9.1346 C   0  0  0  0  0  0  0  0  0  0  0  0
   -9.6861   -6.3921   10.0384 C   0  0  0  0  0  0  0  0  0  0  0  0
  -10.0590   -5.8575   11.2815 C   0  0  0  0  0  0  0  0  0  0  0  0
  -11.3732   -5.6350   11.6182 C   0  0  0  0  0  0  0  0  0  0  0  0
  -12.3197   -5.9610   10.6768 C   0  0  0  0  0  0  0  0  0  0  0  0
  -11.9719   -6.4887    9.4464 C   0  0  0  0  0  0  0  0  0  0  0  0
  -11.7707   -5.0842   12.8977 C   0  0  0  0  0  0  0  0  0  0  0  0
  -12.8822   -4.4532   12.9995 O   0  0  0  0  0  0  0  0  0  0  0  0
  -10.9547   -5.2092   14.1199 C   0  0  0  0  0  0  0  0  0  0  0  0
  -11.1260   -4.0649   14.8834 F   0  0  0  0  0  0  0  0  0  0  0  0
   -9.6334   -5.2843   13.7741 F   0  0  0  0  0  0  0  0  0  0  0  0
  -11.2604   -6.3533   14.8373 F   0  0  0  0  0  0  0  0  0  0  0  0
  -11.1782  -10.7971    7.0571 C   0  0  0  0  0  0  0  0  0  0  0  0
  -12.0858   -9.6936    7.3041 N   0  0  0  0  0  0  0  0  0  0  0  0
  -12.5552   -9.7601    8.7089 C   0  0  0  0  0  0  0  0  0  0  0  0
  -13.3034   -9.8843    6.4762 C   0  0  0  0  0  0  0  0  0  0  0  0
  -13.1400   -9.1478    5.1823 C   0  0  0  0  0  0  0  0  0  0  0  0
  -14.8501   -7.4022    5.3432 C   0  0  0  0  0  0  0  0  0  0  0  0
  -14.4992   -8.7055    4.6918 C   0  0  0  0  0  0  0  0  0  0  0  0
 34 35  1  0  0  0
 35 33  1  0  0  0
 33 32  1  0  0  0
 32 30  1  0  0  0
 30 31  1  0  0  0
 30 29  1  0  0  0
 29  1  1  0  0  0
  1  2  2  0  0  0
  2  3  1  0  0  0
  3  4  2  0  0  0
  4  5  1  0  0  0
  5  6  1  0  0  0
  5  7  2  0  0  0
  7  8  1  0  0  0
  8  9  2  0  0  0
  9 10  1  0  0  0
 10 11  2  0  0  0
 11 13  1  0  0  0
 13 14  1  0  0  0
 14 15  2  0  0  0
 14 17  1  0  0  0
 17 18  2  0  0  0
 18 19  1  0  0  0
 19 20  2  0  0  0
 20 21  1  0  0  0
 21 22  2  0  0  0
 20 23  1  0  0  0
 23 24  2  0  0  0
 23 25  1  0  0  0
 25 26  1  0  0  0
 25 27  1  0  0  0
 25 28  1  0  0  0
 11  1  1  0  0  0
 22 17  1  0  0  0
  9  3  1  0  0  0
  6 12  1  0  0  0
 13 16  1  0  0  0
M  END
> <minimizedAffinity>
14.70803

> <CNNscore>
0.5278502703

> <CNNaffinity>
6.4175558090

> <CNN_VS>
3.3875086308

> <CNNaffinity_variance>
1.2614409924

$$$$
[H]Oc1c([H])c([H])c2c([H])c(N([H])C(=O)c3c([H])c([H])c(C(=O)C(F)(F)F)c([H])c3[H])c(C([H])([H])N(C([H])([H])[H])C([H])([H])C([H])([H])C([H])([H])C([H])([H])[H])c([H])c2c1[H]


 35 37  0  0  0  0  0  0  0  0999 V2000
  -11.0191   -6.4778    9.5135 C   0  0  0  0  0  0  0  0  0  0  0  0
   -9.9471   -6.3111   10.3494 C   0  0  0  0  0  0  0  0  0  0  0  0
  -10.1535   -5.9241   11.6793 C   0  0  0  0  0  0  0  0  0  0  0  0
   -9.0683   -5.7574   12.5172 C   0  0  0  0  0  0  0  0  0  0  0  0
   -9.2572   -5.3837   13.8060 C   0  0  0  0  0  0  0  0  0  0  0  0
   -8.1754   -5.2095   14.6701 O   0  0  0  0  0  0  0  0  0  0  0  0
  -10.5480   -5.1758   14.2558 C   0  0  0  0  0  0  0  0  0  0  0  0
  -11.6552   -5.3407   13.4192 C   0  0  0  0  0  0  0  0  0  0  0  0
  -11.4368   -5.7214   12.1122 C   0  0  0  0  0  0  0  0  0  0  0  0
  -12.5251   -5.8959   11.2479 C   0  0  0  0  0  0  0  0  0  0  0  0
  -12.3534   -6.2743    9.9393 C   0  0  0  0  0  0  0  0  0  0  0  0
   -8.2673   -4.9339   15.6319 H   0  0  0  0  0  0  0  0  0  0  0  0
  -13.3673   -6.4795    8.9904 N   0  0  0  0  0  0  0  0  0  0  0  0
  -13.9428   -7.6849    8.5988 C   0  0  0  0  0  0  0  0  0  0  0  0
  -13.5914   -8.7810    9.0910 O   0  0  0  0  0  0  0  0  0  0  0  0
  -13.7560   -5.6009    8.5049 H   0  0  0  0  0  0  0  0  0  0  0  0
  -15.0157   -7.7371    7.5670 C   0  0  0  0  0  0  0  0  0  0  0  0
  -16.3179   -7.6995    7.9207 C   0  0  0  0  0  0  0  0  0  0  0  0
  -17.3068   -7.7578    6.9262 C   0  0  0  0  0  0  0  0  0  0  0  0
  -16.9969   -7.8528    5.5902 C   0  0  0  0  0  0  0  0  0  0  0  0
  -15.6627   -7.8888    5.2629 C   0  0  0  0  0  0  0  0  0  0  0  0
  -14.6739   -7.8325    6.2284 C   0  0  0  0  0  0  0  0  0  0  0  0
  -18.0080   -7.9140    4.5548 C   0  0  0  0  0  0  0  0  0  0  0  0
  -18.8112   -8.9124    4.5100 O   0  0  0  0  0  0  0  0  0  0  0  0
  -18.1738   -6.8717    3.5246 C   0  0  0  0  0  0  0  0  0  0  0  0
  -19.2417   -6.0635    3.8828 F   0  0  0  0  0  0  0  0  0  0  0  0
  -18.4824   -7.4632    2.3303 F   0  0  0  0  0  0  0  0  0  0  0  0
  -17.0163   -6.1359    3.3351 F   0  0  0  0  0  0  0  0  0  0  0  0
  -10.8103   -6.9148    8.1297 C   0  0  0  0  0  0  0  0  0  0  0  0
   -9.3999   -7.1250    7.8671 N   0  0  0  0  0  0  0  0  0  0  0  0
   -8.9901   -6.2755    6.7232 C   0  0  0  0  0  0  0  0  0  0  0  0
   -9.2049   -8.5224    7.4050 C   0  0  0  0  0  0  0  0  0  0  0  0
   -7.7513   -8.8725    7.4936 C   0  0  0  0  0  0  0  0  0  0  0  0
   -5.9273   -7.4266    8.2552 C   0  0  0  0  0  0  0  0  0  0  0  0
   -7.1488   -8.1769    8.6923 C   0  0  0  0  0  0  0  0  0  0  0  0
 34 35  1  0  0  0
 35 33  1  0  0  0
 33 32  1  0  0  0
 32 30  1  0  0  0
 30 31  1  0  0  0
 30 29  1  0  0  0
 29  1  1  0  0  0
  1  2  2  0  0  0
  2  3  1  0  0  0
  3  4  2  0  0  0
  4  5  1  0  0  0
  5  6  1  0  0  0
  5  7  2  0  0  0
  7  8  1  0  0  0
  8  9  2  0  0  0
  9 10  1  0  0  0
 10 11  2  0  0  0
 11 13  1  0  0  0
 13 14  1  0  0  0
 14 15  2  0  0  0
 14 17  1  0  0  0
 17 18  2  0  0  0
 18 19  1  0  0  0
 19 20  2  0  0  0
 20 21  1  0  0  0
 21 22  2  0  0  0
 20 23  1  0  0  0
 23 24  2  0  0  0
 23 25  1  0  0  0
 25 26  1  0  0  0
 25 27  1  0  0  0
 25 28  1  0  0  0
 11  1  1  0  0  0
 22 17  1  0  0  0
  9  3  1  0  0  0
  6 12  1  0  0  0
 13 16  1  0  0  0
M  END
> <minimizedAffinity>
-1.17876

> <CNNscore>
0.4571445584

> <CNNaffinity>
6.8628950119

> <CNN_VS>
3.1373350620

> <CNNaffinity_variance>
0.6434704661

$$$$
[H]Oc1c([H])c([H])c2c([H])c(N([H])C(=O)c3c([H])c([H])c(C(=O)C(F)(F)F)c([H])c3[H])c(C([H])([H])N(C([H])([H])[H])C([H])([H])C([H])([H])C([H])([H])C([H])([H])[H])c([H])c2c1[H]


 35 37  0  0  0  0  0  0  0  0999 V2000
  -12.5664   -7.5355    7.7792 C   0  0  0  0  0  0  0  0  0  0  0  0
  -13.7951   -7.8985    8.2633 C   0  0  0  0  0  0  0  0  0  0  0  0
  -13.9738   -8.0896    9.6390 C   0  0  0  0  0  0  0  0  0  0  0  0
  -15.2153   -8.4559   10.1209 C   0  0  0  0  0  0  0  0  0  0  0  0
  -15.3989   -8.6428   11.4505 C   0  0  0  0  0  0  0  0  0  0  0  0
  -16.6444   -9.0128   11.9593 O   0  0  0  0  0  0  0  0  0  0  0  0
  -14.3253   -8.4599   12.3023 C   0  0  0  0  0  0  0  0  0  0  0  0
  -13.0638   -8.0894   11.8286 C   0  0  0  0  0  0  0  0  0  0  0  0
  -12.9025   -7.9053   10.4718 C   0  0  0  0  0  0  0  0  0  0  0  0
  -11.6510   -7.5333    9.9648 C   0  0  0  0  0  0  0  0  0  0  0  0
  -11.4458   -7.3393    8.6211 C   0  0  0  0  0  0  0  0  0  0  0  0
  -16.8271   -9.1620   12.9360 H   0  0  0  0  0  0  0  0  0  0  0  0
  -10.2403   -6.9654    8.0067 N   0  0  0  0  0  0  0  0  0  0  0  0
   -9.0343   -7.6603    7.9932 C   0  0  0  0  0  0  0  0  0  0  0  0
   -8.8969   -8.7660    8.5640 O   0  0  0  0  0  0  0  0  0  0  0  0
  -10.2421   -6.0296    7.4747 H   0  0  0  0  0  0  0  0  0  0  0  0
   -7.8337   -7.1237    7.2938 C   0  0  0  0  0  0  0  0  0  0  0  0
   -7.9308   -6.6076    6.0501 C   0  0  0  0  0  0  0  0  0  0  0  0
   -6.7805   -6.1161    5.4134 C   0  0  0  0  0  0  0  0  0  0  0  0
   -5.5442   -6.1401    6.0144 C   0  0  0  0  0  0  0  0  0  0  0  0
   -5.4788   -6.6715    7.2800 C   0  0  0  0  0  0  0  0  0  0  0  0
   -6.6011   -7.1607    7.9238 C   0  0  0  0  0  0  0  0  0  0  0  0
   -4.3499   -5.6363    5.3678 C   0  0  0  0  0  0  0  0  0  0  0  0
   -3.4284   -6.4533    5.0111 O   0  0  0  0  0  0  0  0  0  0  0  0
   -4.1249   -4.2059    5.0875 C   0  0  0  0  0  0  0  0  0  0  0  0
   -5.0447   -3.7929    4.1361 F   0  0  0  0  0  0  0  0  0  0  0  0
   -2.8751   -4.0417    4.5563 F   0  0  0  0  0  0  0  0  0  0  0  0
   -4.1922   -3.4322    6.2338 F   0  0  0  0  0  0  0  0  0  0  0  0
  -12.3825   -7.3022    6.3435 C   0  0  0  0  0  0  0  0  0  0  0  0
  -13.6226   -7.5253    5.6261 N   0  0  0  0  0  0  0  0  0  0  0  0
  -13.5152   -8.7890    4.8581 C   0  0  0  0  0  0  0  0  0  0  0  0
  -13.7798   -6.4598    4.6043 C   0  0  0  0  0  0  0  0  0  0  0  0
  -14.8074   -5.4758    5.0724 C   0  0  0  0  0  0  0  0  0  0  0  0
  -14.7989   -3.0417    4.8026 C   0  0  0  0  0  0  0  0  0  0  0  0
  -14.9001   -4.3465    4.0723 C   0  0  0  0  0  0  0  0  0  0  0  0
 34 35  1  0  0  0
 35 33  1  0  0  0
 33 32  1  0  0  0
 32 30  1  0  0  0
 30 31  1  0  0  0
 30 29  1  0  0  0
 29  1  1  0  0  0
  1  2  2  0  0  0
  2  3  1  0  0  0
  3  4  2  0  0  0
  4  5  1  0  0  0
  5  6  1  0  0  0
  5  7  2  0  0  0
  7  8  1  0  0  0
  8  9  2  0  0  0
  9 10  1  0  0  0
 10 11  2  0  0  0
 11 13  1  0  0  0
 13 14  1  0  0  0
 14 15  2  0  0  0
 14 17  1  0  0  0
 17 18  2  0  0  0
 18 19  1  0  0  0
 19 20  2  0  0  0
 20 21  1  0  0  0
 21 22  2  0  0  0
 20 23  1  0  0  0
 23 24  2  0  0  0
 23 25  1  0  0  0
 25 26  1  0  0  0
 25 27  1  0  0  0
 25 28  1  0  0  0
 11  1  1  0  0  0
 22 17  1  0  0  0
  9  3  1  0  0  0
  6 12  1  0  0  0
 13 16  1  0  0  0
M  END
> <minimizedAffinity>
3.53115

> <CNNscore>
0.4500589669

> <CNNaffinity>
6.8159232140

> <CNN_VS>
3.0675673485

> <CNNaffinity_variance>
1.4428693056

$$$$
[H]Oc1c([H])c([H])c2c([H])c(N([H])C(=O)c3c([H])c([H])c(C(=O)C(F)(F)F)c([H])c3[H])c(C([H])([H])N(C([H])([H])[H])C([H])([H])C([H])([H])C([H])([H])C([H])([H])[H])c([H])c2c1[H]


 35 37  0  0  0  0  0  0  0  0999 V2000
   -7.8347   -9.3844    6.1528 C   0  0  0  0  0  0  0  0  0  0  0  0
   -8.4730  -10.2284    5.2833 C   0  0  0  0  0  0  0  0  0  0  0  0
   -7.9973  -10.3707    3.9739 C   0  0  0  0  0  0  0  0  0  0  0  0
   -8.6456  -11.2232    3.1018 C   0  0  0  0  0  0  0  0  0  0  0  0
   -8.1930  -11.3685    1.8328 C   0  0  0  0  0  0  0  0  0  0  0  0
   -8.8323  -12.2243    0.9350 O   0  0  0  0  0  0  0  0  0  0  0  0
   -7.0792  -10.6507    1.4377 C   0  0  0  0  0  0  0  0  0  0  0  0
   -6.4135   -9.7847    2.3094 C   0  0  0  0  0  0  0  0  0  0  0  0
   -6.8935   -9.6541    3.5952 C   0  0  0  0  0  0  0  0  0  0  0  0
   -6.2488   -8.7948    4.4939 C   0  0  0  0  0  0  0  0  0  0  0  0
   -6.6926   -8.6346    5.7833 C   0  0  0  0  0  0  0  0  0  0  0  0
   -8.5327  -12.3637   -0.0139 H   0  0  0  0  0  0  0  0  0  0  0  0
   -6.1250   -7.8062    6.7641 N   0  0  0  0  0  0  0  0  0  0  0  0
   -5.3884   -6.6397    6.5784 C   0  0  0  0  0  0  0  0  0  0  0  0
   -5.1457   -6.1802    5.4395 O   0  0  0  0  0  0  0  0  0  0  0  0
   -6.2777   -8.0999    7.7884 H   0  0  0  0  0  0  0  0  0  0  0  0
   -4.8460   -5.8690    7.7317 C   0  0  0  0  0  0  0  0  0  0  0  0
   -3.9149   -4.9093    7.5457 C   0  0  0  0  0  0  0  0  0  0  0  0
   -3.4171   -4.2046    8.6529 C   0  0  0  0  0  0  0  0  0  0  0  0
   -3.8460   -4.4568    9.9345 C   0  0  0  0  0  0  0  0  0  0  0  0
   -4.7942   -5.4392   10.0903 C   0  0  0  0  0  0  0  0  0  0  0  0
   -5.2968   -6.1444    9.0118 C   0  0  0  0  0  0  0  0  0  0  0  0
   -3.3399   -3.7368   11.0850 C   0  0  0  0  0  0  0  0  0  0  0  0
   -2.7791   -2.5953   10.9232 O   0  0  0  0  0  0  0  0  0  0  0  0
   -3.4336   -4.2497   12.4646 C   0  0  0  0  0  0  0  0  0  0  0  0
   -2.7869   -3.3617   13.3101 F   0  0  0  0  0  0  0  0  0  0  0  0
   -2.7818   -5.4497   12.5448 F   0  0  0  0  0  0  0  0  0  0  0  0
   -4.7449   -4.4642   12.8541 F   0  0  0  0  0  0  0  0  0  0  0  0
   -8.3092   -9.2570    7.5342 C   0  0  0  0  0  0  0  0  0  0  0  0
   -9.2597   -8.1682    7.6500 N   0  0  0  0  0  0  0  0  0  0  0  0
   -8.9004   -7.3366    8.8237 C   0  0  0  0  0  0  0  0  0  0  0  0
  -10.5953   -8.7340    7.9667 C   0  0  0  0  0  0  0  0  0  0  0  0
  -11.6497   -7.7220    7.6389 C   0  0  0  0  0  0  0  0  0  0  0  0
  -12.7188   -9.3607    9.1118 C   0  0  0  0  0  0  0  0  0  0  0  0
  -12.9009   -8.0417    8.4238 C   0  0  0  0  0  0  0  0  0  0  0  0
 34 35  1  0  0  0
 35 33  1  0  0  0
 33 32  1  0  0  0
 32 30  1  0  0  0
 30 31  1  0  0  0
 30 29  1  0  0  0
 29  1  1  0  0  0
  1  2  2  0  0  0
  2  3  1  0  0  0
  3  4  2  0  0  0
  4  5  1  0  0  0
  5  6  1  0  0  0
  5  7  2  0  0  0
  7  8  1  0  0  0
  8  9  2  0  0  0
  9 10  1  0  0  0
 10 11  2  0  0  0
 11 13  1  0  0  0
 13 14  1  0  0  0
 14 15  2  0  0  0
 14 17  1  0  0  0
 17 18  2  0  0  0
 18 19  1  0  0  0
 19 20  2  0  0  0
 20 21  1  0  0  0
 21 22  2  0  0  0
 20 23  1  0  0  0
 23 24  2  0  0  0
 23 25  1  0  0  0
 25 26  1  0  0  0
 25 27  1  0  0  0
 25 28  1  0  0  0
 11  1  1  0  0  0
 22 17  1  0  0  0
  9  3  1  0  0  0
  6 12  1  0  0  0
 13 16  1  0  0  0
M  END
> <minimizedAffinity>
4.43801

> <CNNscore>
0.4488667548

> <CNNaffinity>
6.2223315239

> <CNN_VS>
2.7929978371

> <CNNaffinity_variance>
1.1887538433

$$$$
[H]Oc1c([H])c([H])c2c([H])c(N([H])C(=O)c3c([H])c([H])c(C(=O)C(F)(F)F)c([H])c3[H])c(C([H])([H])N(C([H])([H])[H])C([H])([H])C([H])([H])C([H])([H])C([H])([H])[H])c([H])c2c1[H]


 35 37  0  0  0  0  0  0  0  0999 V2000
  -10.9042   -8.2465    7.1004 C   0  0  0  0  0  0  0  0  0  0  0  0
  -12.2013   -8.6825    7.1557 C   0  0  0  0  0  0  0  0  0  0  0  0
  -13.2320   -7.8675    6.6713 C   0  0  0  0  0  0  0  0  0  0  0  0
  -14.5381   -8.3128    6.7302 C   0  0  0  0  0  0  0  0  0  0  0  0
  -15.5427   -7.5321    6.2637 C   0  0  0  0  0  0  0  0  0  0  0  0
  -16.8694   -7.9618    6.3130 O   0  0  0  0  0  0  0  0  0  0  0  0
  -15.2313   -6.2935    5.7338 C   0  0  0  0  0  0  0  0  0  0  0  0
  -13.9145   -5.8304    5.6680 C   0  0  0  0  0  0  0  0  0  0  0  0
  -12.9102   -6.6432    6.1491 C   0  0  0  0  0  0  0  0  0  0  0  0
  -11.5796   -6.2088    6.0974 C   0  0  0  0  0  0  0  0  0  0  0  0
  -10.5485   -6.9857    6.5649 C   0  0  0  0  0  0  0  0  0  0  0  0
  -17.6457   -7.4181    5.9794 H   0  0  0  0  0  0  0  0  0  0  0  0
   -9.1848   -6.6527    6.5606 N   0  0  0  0  0  0  0  0  0  0  0  0
   -8.3291   -6.5605    5.4667 C   0  0  0  0  0  0  0  0  0  0  0  0
   -8.7188   -6.7767    4.2968 O   0  0  0  0  0  0  0  0  0  0  0  0
   -8.7401   -6.4360    7.5166 H   0  0  0  0  0  0  0  0  0  0  0  0
   -6.8940   -6.1963    5.6287 C   0  0  0  0  0  0  0  0  0  0  0  0
   -6.2564   -5.4632    4.6914 C   0  0  0  0  0  0  0  0  0  0  0  0
   -4.9015   -5.1417    4.8683 C   0  0  0  0  0  0  0  0  0  0  0  0
   -4.1904   -5.5492    5.9720 C   0  0  0  0  0  0  0  0  0  0  0  0
   -4.8679   -6.2936    6.9076 C   0  0  0  0  0  0  0  0  0  0  0  0
   -6.2027   -6.6205    6.7511 C   0  0  0  0  0  0  0  0  0  0  0  0
   -2.7921   -5.2242    6.1658 C   0  0  0  0  0  0  0  0  0  0  0  0
   -1.9022   -6.1353    6.0180 O   0  0  0  0  0  0  0  0  0  0  0  0
   -2.3189   -3.8759    6.5309 C   0  0  0  0  0  0  0  0  0  0  0  0
   -1.4289   -3.9919    7.5873 F   0  0  0  0  0  0  0  0  0  0  0  0
   -3.3797   -3.1270    6.9613 F   0  0  0  0  0  0  0  0  0  0  0  0
   -1.7530   -3.2120    5.4556 F   0  0  0  0  0  0  0  0  0  0  0  0
   -9.8185   -9.1095    7.5760 C   0  0  0  0  0  0  0  0  0  0  0  0
   -9.8914   -9.2775    9.0143 N   0  0  0  0  0  0  0  0  0  0  0  0
  -10.7161   -8.1863    9.5864 C   0  0  0  0  0  0  0  0  0  0  0  0
   -8.5351   -9.0823    9.5857 C   0  0  0  0  0  0  0  0  0  0  0  0
   -7.6423   -8.4835    8.5428 C   0  0  0  0  0  0  0  0  0  0  0  0
   -6.4074   -9.1767    6.5448 C   0  0  0  0  0  0  0  0  0  0  0  0
   -6.7894   -9.5748    7.9383 C   0  0  0  0  0  0  0  0  0  0  0  0
 34 35  1  0  0  0
 35 33  1  0  0  0
 33 32  1  0  0  0
 32 30  1  0  0  0
 30 31  1  0  0  0
 30 29  1  0  0  0
 29  1  1  0  0  0
  1  2  2  0  0  0
  2  3  1  0  0  0
  3  4  2  0  0  0
  4  5  1  0  0  0
  5  6  1  0  0  0
  5  7  2  0  0  0
  7  8  1  0  0  0
  8  9  2  0  0  0
  9 10  1  0  0  0
 10 11  2  0  0  0
 11 13  1  0  0  0
 13 14  1  0  0  0
 14 15  2  0  0  0
 14 17  1  0  0  0
 17 18  2  0  0  0
 18 19  1  0  0  0
 19 20  2  0  0  0
 20 21  1  0  0  0
 21 22  2  0  0  0
 20 23  1  0  0  0
 23 24  2  0  0  0
 23 25  1  0  0  0
 25 26  1  0  0  0
 25 27  1  0  0  0
 25 28  1  0  0  0
 11  1  1  0  0  0
 22 17  1  0  0  0
  9  3  1  0  0  0
  6 12  1  0  0  0
 13 16  1  0  0  0
M  END
> <minimizedAffinity>
11.68421

> <CNNscore>
0.4049119055

> <CNNaffinity>
6.3797359467

> <CNN_VS>
2.5832309723

> <CNNaffinity_variance>
1.6360867023

$$$$
[H]Oc1c([H])c([H])c2c([H])c(N([H])C(=O)c3c([H])c([H])c(C(=O)C(F)(F)F)c([H])c3[H])c(C([H])([H])N(C([H])([H])[H])C([H])([H])C([H])([H])C([H])([H])C([H])([H])[H])c([H])c2c1[H]


 35 37  0  0  0  0  0  0  0  0999 V2000
   -5.2596   -6.6341    8.9051 C   0  0  0  0  0  0  0  0  0  0  0  0
   -4.0625   -6.1383    9.3487 C   0  0  0  0  0  0  0  0  0  0  0  0
   -3.9464   -5.6681   10.6627 C   0  0  0  0  0  0  0  0  0  0  0  0
   -2.7365   -5.1691   11.1038 C   0  0  0  0  0  0  0  0  0  0  0  0
   -2.6134   -4.7122   12.3736 C   0  0  0  0  0  0  0  0  0  0  0  0
   -1.4006   -4.2039   12.8406 O   0  0  0  0  0  0  0  0  0  0  0  0
   -3.7161   -4.7574   13.2065 C   0  0  0  0  0  0  0  0  0  0  0  0
   -4.9463   -5.2596   12.7735 C   0  0  0  0  0  0  0  0  0  0  0  0
   -5.0460   -5.7185   11.4773 C   0  0  0  0  0  0  0  0  0  0  0  0
   -6.2648   -6.2286   11.0123 C   0  0  0  0  0  0  0  0  0  0  0  0
   -6.4085   -6.6961    9.7293 C   0  0  0  0  0  0  0  0  0  0  0  0
   -1.2628   -3.8549   13.7726 H   0  0  0  0  0  0  0  0  0  0  0  0
   -7.5769   -7.2280    9.1613 N   0  0  0  0  0  0  0  0  0  0  0  0
   -8.8910   -6.8142    9.3600 C   0  0  0  0  0  0  0  0  0  0  0  0
   -9.1807   -5.8581   10.1144 O   0  0  0  0  0  0  0  0  0  0  0  0
   -7.4486   -8.0547    8.4840 H   0  0  0  0  0  0  0  0  0  0  0  0
  -10.0316   -7.4899    8.6812 C   0  0  0  0  0  0  0  0  0  0  0  0
  -11.0969   -6.7821    8.2492 C   0  0  0  0  0  0  0  0  0  0  0  0
  -12.1602   -7.4477    7.6193 C   0  0  0  0  0  0  0  0  0  0  0  0
  -12.1587   -8.8084    7.4230 C   0  0  0  0  0  0  0  0  0  0  0  0
  -11.0602   -9.5000    7.8738 C   0  0  0  0  0  0  0  0  0  0  0  0
  -10.0027   -8.8621    8.4967 C   0  0  0  0  0  0  0  0  0  0  0  0
  -13.2499   -9.5067    6.7748 C   0  0  0  0  0  0  0  0  0  0  0  0
  -13.5862  -10.6752    7.1811 O   0  0  0  0  0  0  0  0  0  0  0  0
  -14.0162   -8.9405    5.6490 C   0  0  0  0  0  0  0  0  0  0  0  0
  -15.3617   -9.2021    5.8556 F   0  0  0  0  0  0  0  0  0  0  0  0
  -13.6442   -9.5659    4.4906 F   0  0  0  0  0  0  0  0  0  0  0  0
  -13.7777   -7.5867    5.4833 F   0  0  0  0  0  0  0  0  0  0  0  0
   -5.3774   -7.1579    7.5408 C   0  0  0  0  0  0  0  0  0  0  0  0
   -6.2994   -6.3542    6.7623 N   0  0  0  0  0  0  0  0  0  0  0  0
   -7.6724   -6.8841    6.9425 C   0  0  0  0  0  0  0  0  0  0  0  0
   -5.9947   -6.5417    5.3213 C   0  0  0  0  0  0  0  0  0  0  0  0
   -7.2567   -6.3966    4.5278 C   0  0  0  0  0  0  0  0  0  0  0  0
   -9.4457   -5.3000    4.4725 C   0  0  0  0  0  0  0  0  0  0  0  0
   -8.2583   -5.6035    5.3350 C   0  0  0  0  0  0  0  0  0  0  0  0
 34 35  1  0  0  0
 35 33  1  0  0  0
 33 32  1  0  0  0
 32 30  1  0  0  0
 30 31  1  0  0  0
 30 29  1  0  0  0
 29  1  1  0  0  0
  1  2  2  0  0  0
  2  3  1  0  0  0
  3  4  2  0  0  0
  4  5  1  0  0  0
  5  6  1  0  0  0
  5  7  2  0  0  0
  7  8  1  0  0  0
  8  9  2  0  0  0
  9 10  1  0  0  0
 10 11  2  0  0  0
 11 13  1  0  0  0
 13 14  1  0  0  0
 14 15  2  0  0  0
 14 17  1  0  0  0
 17 18  2  0  0  0
 18 19  1  0  0  0
 19 20  2  0  0  0
 20 21  1  0  0  0
 21 22  2  0  0  0
 20 23  1  0  0  0
 23 24  2  0  0  0
 23 25  1  0  0  0
 25 26  1  0  0  0
 25 27  1  0  0  0
 25 28  1  0  0  0
 11  1  1  0  0  0
 22 17  1  0  0  0
  9  3  1  0  0  0
  6 12  1  0  0  0
 13 16  1  0  0  0
M  END
> <minimizedAffinity>
3.12353

> <CNNscore>
0.3527675569

> <CNNaffinity>
5.8739566803

> <CNN_VS>
2.0721414089

> <CNNaffinity_variance>
0.6893493533

$$$$
[H]Oc1c([H])c([H])c2c([H])c(N([H])C(=O)c3c([H])c([H])c(C(=O)C(F)(F)F)c([H])c3[H])c(C([H])([H])N(C([H])([H])[H])C([H])([H])C([H])([H])C([H])([H])C([H])([H])[H])c([H])c2c1[H]


 35 37  0  0  0  0  0  0  0  0999 V2000
  -12.5376   -7.5300    7.5676 C   0  0  0  0  0  0  0  0  0  0  0  0
  -13.7775   -7.9256    7.9938 C   0  0  0  0  0  0  0  0  0  0  0  0
  -14.0203   -8.1052    9.3613 C   0  0  0  0  0  0  0  0  0  0  0  0
  -15.2728   -8.5047    9.7846 C   0  0  0  0  0  0  0  0  0  0  0  0
  -15.5184   -8.6807   11.1057 C   0  0  0  0  0  0  0  0  0  0  0  0
  -16.7762   -9.0837   11.5558 O   0  0  0  0  0  0  0  0  0  0  0  0
  -14.4959   -8.4534   12.0082 C   0  0  0  0  0  0  0  0  0  0  0  0
  -13.2239   -8.0490   11.5940 C   0  0  0  0  0  0  0  0  0  0  0  0
  -12.9992   -7.8768   10.2446 C   0  0  0  0  0  0  0  0  0  0  0  0
  -11.7356   -7.4716    9.7965 C   0  0  0  0  0  0  0  0  0  0  0  0
  -11.4681   -7.2879    8.4624 C   0  0  0  0  0  0  0  0  0  0  0  0
  -17.0039   -9.2265   12.5240 H   0  0  0  0  0  0  0  0  0  0  0  0
  -10.2449   -6.8836    7.9048 N   0  0  0  0  0  0  0  0  0  0  0  0
   -9.0753   -7.6272    7.7750 C   0  0  0  0  0  0  0  0  0  0  0  0
   -8.9942   -8.8135    8.1665 O   0  0  0  0  0  0  0  0  0  0  0  0
  -10.1993   -5.8777    7.5243 H   0  0  0  0  0  0  0  0  0  0  0  0
   -7.8489   -7.0490    7.1586 C   0  0  0  0  0  0  0  0  0  0  0  0
   -6.7586   -6.7811    7.9081 C   0  0  0  0  0  0  0  0  0  0  0  0
   -5.6199   -6.2295    7.3003 C   0  0  0  0  0  0  0  0  0  0  0  0
   -5.5714   -5.9483    5.9555 C   0  0  0  0  0  0  0  0  0  0  0  0
   -6.6971   -6.2327    5.2203 C   0  0  0  0  0  0  0  0  0  0  0  0
   -7.8286   -6.7763    5.8011 C   0  0  0  0  0  0  0  0  0  0  0  0
   -4.4026   -5.3789    5.3167 C   0  0  0  0  0  0  0  0  0  0  0  0
   -4.5276   -4.3426    4.5722 O   0  0  0  0  0  0  0  0  0  0  0  0
   -3.0447   -5.9323    5.4755 C   0  0  0  0  0  0  0  0  0  0  0  0
   -2.3988   -5.2334    6.4835 F   0  0  0  0  0  0  0  0  0  0  0  0
   -2.3409   -5.7388    4.3186 F   0  0  0  0  0  0  0  0  0  0  0  0
   -3.0617   -7.2938    5.7268 F   0  0  0  0  0  0  0  0  0  0  0  0
  -12.2878   -7.3088    6.1399 C   0  0  0  0  0  0  0  0  0  0  0  0
  -13.5375   -7.1883    5.4148 N   0  0  0  0  0  0  0  0  0  0  0  0
  -14.4236   -6.2419    6.1341 C   0  0  0  0  0  0  0  0  0  0  0  0
  -14.2422   -8.4943    5.4606 C   0  0  0  0  0  0  0  0  0  0  0  0
  -14.7167   -8.8469    4.0844 C   0  0  0  0  0  0  0  0  0  0  0  0
  -17.1190   -8.5517    4.4577 C   0  0  0  0  0  0  0  0  0  0  0  0
  -15.9213   -7.9994    3.7460 C   0  0  0  0  0  0  0  0  0  0  0  0
 34 35  1  0  0  0
 35 33  1  0  0  0
 33 32  1  0  0  0
 32 30  1  0  0  0
 30 31  1  0  0  0
 30 29  1  0  0  0
 29  1  1  0  0  0
  1  2  2  0  0  0
  2  3  1  0  0  0
  3  4  2  0  0  0
  4  5  1  0  0  0
  5  6  1  0  0  0
  5  7  2  0  0  0
  7  8  1  0  0  0
  8  9  2  0  0  0
  9 10  1  0  0  0
 10 11  2  0  0  0
 11 13  1  0  0  0
 13 14  1  0  0  0
 14 15  2  0  0  0
 14 17  1  0  0  0
 17 18  2  0  0  0
 18 19  1  0  0  0
 19 20  2  0  0  0
 20 21  1  0  0  0
 21 22  2  0  0  0
 20 23  1  0  0  0
 23 24  2  0  0  0
 23 25  1  0  0  0
 25 26  1  0  0  0
 25 27  1  0  0  0
 25 28  1  0  0  0
 11  1  1  0  0  0
 22 17  1  0  0  0
  9  3  1  0  0  0
  6 12  1  0  0  0
 13 16  1  0  0  0
M  END
> <minimizedAffinity>
1.09179

> <CNNscore>
0.3435456753

> <CNNaffinity>
6.7520990372

> <CNN_VS>
2.3196544647

> <CNNaffinity_variance>
0.6770377159

$$$$
[H]Oc1c([H])c([H])c2c([H])c(N([H])C(=O)c3c([H])c([H])c(C(=O)C(F)(F)F)c([H])c3[H])c(C([H])([H])N(C([H])([H])[H])C([H])([H])C([H])([H])C([H])([H])C([H])([H])[H])c([H])c2c1[H]


 35 37  0  0  0  0  0  0  0  0999 V2000
  -10.9402   -6.4158    9.4975 C   0  0  0  0  0  0  0  0  0  0  0  0
   -9.8852   -6.2642   10.3577 C   0  0  0  0  0  0  0  0  0  0  0  0
  -10.1173   -5.8857   11.6858 C   0  0  0  0  0  0  0  0  0  0  0  0
   -9.0492   -5.7343   12.5482 C   0  0  0  0  0  0  0  0  0  0  0  0
   -9.2630   -5.3689   13.8355 C   0  0  0  0  0  0  0  0  0  0  0  0
   -8.1989   -5.2103   14.7242 O   0  0  0  0  0  0  0  0  0  0  0  0
  -10.5616   -5.1540   14.2589 C   0  0  0  0  0  0  0  0  0  0  0  0
  -11.6517   -5.3035   13.3973 C   0  0  0  0  0  0  0  0  0  0  0  0
  -11.4080   -5.6760   12.0924 C   0  0  0  0  0  0  0  0  0  0  0  0
  -12.4787   -5.8349   11.2035 C   0  0  0  0  0  0  0  0  0  0  0  0
  -12.2817   -6.2047    9.8959 C   0  0  0  0  0  0  0  0  0  0  0  0
   -8.3095   -4.9413   15.6859 H   0  0  0  0  0  0  0  0  0  0  0  0
  -13.2764   -6.3943    8.9237 N   0  0  0  0  0  0  0  0  0  0  0  0
  -14.2728   -7.3658    8.8959 C   0  0  0  0  0  0  0  0  0  0  0  0
  -14.3910   -8.2239    9.7998 O   0  0  0  0  0  0  0  0  0  0  0  0
  -13.2783   -5.7045    8.0973 H   0  0  0  0  0  0  0  0  0  0  0  0
  -15.2599   -7.4379    7.7829 C   0  0  0  0  0  0  0  0  0  0  0  0
  -16.5212   -7.8656    8.0035 C   0  0  0  0  0  0  0  0  0  0  0  0
  -17.4271   -7.9296    6.9332 C   0  0  0  0  0  0  0  0  0  0  0  0
  -17.0755   -7.5693    5.6539 C   0  0  0  0  0  0  0  0  0  0  0  0
  -15.7848   -7.1382    5.4623 C   0  0  0  0  0  0  0  0  0  0  0  0
  -14.8778   -7.0682    6.5042 C   0  0  0  0  0  0  0  0  0  0  0  0
  -18.0010   -7.6312    4.5412 C   0  0  0  0  0  0  0  0  0  0  0  0
  -18.7689   -8.6495    4.4102 O   0  0  0  0  0  0  0  0  0  0  0  0
  -18.1164   -6.5676    3.5261 C   0  0  0  0  0  0  0  0  0  0  0  0
  -16.9300   -5.8511    3.5011 F   0  0  0  0  0  0  0  0  0  0  0  0
  -19.1151   -5.7056    3.8878 F   0  0  0  0  0  0  0  0  0  0  0  0
  -18.4365   -7.0708    2.2765 F   0  0  0  0  0  0  0  0  0  0  0  0
  -10.7049   -6.8438    8.1151 C   0  0  0  0  0  0  0  0  0  0  0  0
   -9.5507   -7.7181    8.0400 N   0  0  0  0  0  0  0  0  0  0  0  0
   -8.5762   -7.1494    7.0781 C   0  0  0  0  0  0  0  0  0  0  0  0
   -9.9722   -9.0132    7.4488 C   0  0  0  0  0  0  0  0  0  0  0  0
  -11.3555   -9.3426    7.9191 C   0  0  0  0  0  0  0  0  0  0  0  0
  -13.4484  -10.3992    7.2113 C   0  0  0  0  0  0  0  0  0  0  0  0
  -12.2060   -9.7153    6.7267 C   0  0  0  0  0  0  0  0  0  0  0  0
 34 35  1  0  0  0
 35 33  1  0  0  0
 33 32  1  0  0  0
 32 30  1  0  0  0
 30 31  1  0  0  0
 30 29  1  0  0  0
 29  1  1  0  0  0
  1  2  2  0  0  0
  2  3  1  0  0  0
  3  4  2  0  0  0
  4  5  1  0  0  0
  5  6  1  0  0  0
  5  7  2  0  0  0
  7  8  1  0  0  0
  8  9  2  0  0  0
  9 10  1  0  0  0
 10 11  2  0  0  0
 11 13  1  0  0  0
 13 14  1  0  0  0
 14 15  2  0  0  0
 14 17  1  0  0  0
 17 18  2  0  0  0
 18 19  1  0  0  0
 19 20  2  0  0  0
 20 21  1  0  0  0
 21 22  2  0  0  0
 20 23  1  0  0  0
 23 24  2  0  0  0
 23 25  1  0  0  0
 25 26  1  0  0  0
 25 27  1  0  0  0
 25 28  1  0  0  0
 11  1  1  0  0  0
 22 17  1  0  0  0
  9  3  1  0  0  0
  6 12  1  0  0  0
 13 16  1  0  0  0
M  END
> <minimizedAffinity>
-0.99254

> <CNNscore>
0.3136001229

> <CNNaffinity>
6.7332887650

> <CNN_VS>
2.1115601063

> <CNNaffinity_variance>
0.2257739305

$$$$
[H]Oc1c([H])c([H])c2c([H])c(N([H])C(=O)c3c([H])c([H])c(C(=O)C(F)(F)F)c([H])c3[H])c(C([H])([H])N(C([H])([H])[H])C([H])([H])C([H])([H])C([H])([H])C([H])([H])[H])c([H])c2c1[H]


 35 37  0  0  0  0  0  0  0  0999 V2000
   -9.8315   -7.6371    8.6038 C   0  0  0  0  0  0  0  0  0  0  0  0
   -8.5992   -7.4037    9.1540 C   0  0  0  0  0  0  0  0  0  0  0  0
   -7.4500   -7.5106    8.3610 C   0  0  0  0  0  0  0  0  0  0  0  0
   -6.2102   -7.2742    8.9218 C   0  0  0  0  0  0  0  0  0  0  0  0
   -5.0919   -7.3745    8.1629 C   0  0  0  0  0  0  0  0  0  0  0  0
   -3.8292   -7.1399    8.7086 O   0  0  0  0  0  0  0  0  0  0  0  0
   -5.2216   -7.7154    6.8292 C   0  0  0  0  0  0  0  0  0  0  0  0
   -6.4696   -7.9573    6.2487 C   0  0  0  0  0  0  0  0  0  0  0  0
   -7.5922   -7.8489    7.0416 C   0  0  0  0  0  0  0  0  0  0  0  0
   -8.8580   -8.0845    6.4903 C   0  0  0  0  0  0  0  0  0  0  0  0
  -10.0021   -7.9875    7.2433 C   0  0  0  0  0  0  0  0  0  0  0  0
   -2.9739   -7.2023    8.1851 H   0  0  0  0  0  0  0  0  0  0  0  0
  -11.3157   -8.1989    6.7957 N   0  0  0  0  0  0  0  0  0  0  0  0
  -12.2185   -7.2555    6.3134 C   0  0  0  0  0  0  0  0  0  0  0  0
  -11.9268   -6.0416    6.2212 O   0  0  0  0  0  0  0  0  0  0  0  0
  -11.6746   -9.2134    6.8211 H   0  0  0  0  0  0  0  0  0  0  0  0
  -13.5894   -7.6410    5.8770 C   0  0  0  0  0  0  0  0  0  0  0  0
  -14.5931   -6.7383    5.8722 C   0  0  0  0  0  0  0  0  0  0  0  0
  -15.8764   -7.1330    5.4625 C   0  0  0  0  0  0  0  0  0  0  0  0
  -16.1539   -8.4183    5.0614 C   0  0  0  0  0  0  0  0  0  0  0  0
  -15.1110   -9.3131    5.0774 C   0  0  0  0  0  0  0  0  0  0  0  0
  -13.8398   -8.9432    5.4777 C   0  0  0  0  0  0  0  0  0  0  0  0
  -17.4738   -8.8378    4.6368 C   0  0  0  0  0  0  0  0  0  0  0  0
  -17.5938   -9.6972    3.6929 O   0  0  0  0  0  0  0  0  0  0  0  0
  -18.7179   -8.3242    5.2398 C   0  0  0  0  0  0  0  0  0  0  0  0
  -18.4650   -7.9996    6.5636 F   0  0  0  0  0  0  0  0  0  0  0  0
  -19.6656   -9.3105    5.2274 F   0  0  0  0  0  0  0  0  0  0  0  0
  -19.2324   -7.2470    4.5383 F   0  0  0  0  0  0  0  0  0  0  0  0
  -11.0399   -7.4943    9.4218 C   0  0  0  0  0  0  0  0  0  0  0  0
  -11.6820   -6.2194    9.1671 N   0  0  0  0  0  0  0  0  0  0  0  0
  -11.2121   -5.2336   10.1699 C   0  0  0  0  0  0  0  0  0  0  0  0
  -13.1390   -6.3627    9.4136 C   0  0  0  0  0  0  0  0  0  0  0  0
  -13.3563   -7.3315   10.5350 C   0  0  0  0  0  0  0  0  0  0  0  0
  -15.0181   -8.1357    8.9259 C   0  0  0  0  0  0  0  0  0  0  0  0
  -14.7217   -7.9615   10.3846 C   0  0  0  0  0  0  0  0  0  0  0  0
 34 35  1  0  0  0
 35 33  1  0  0  0
 33 32  1  0  0  0
 32 30  1  0  0  0
 30 31  1  0  0  0
 30 29  1  0  0  0
 29  1  1  0  0  0
  1  2  2  0  0  0
  2  3  1  0  0  0
  3  4  2  0  0  0
  4  5  1  0  0  0
  5  6  1  0  0  0
  5  7  2  0  0  0
  7  8  1  0  0  0
  8  9  2  0  0  0
  9 10  1  0  0  0
 10 11  2  0  0  0
 11 13  1  0  0  0
 13 14  1  0  0  0
 14 15  2  0  0  0
 14 17  1  0  0  0
 17 18  2  0  0  0
 18 19  1  0  0  0
 19 20  2  0  0  0
 20 21  1  0  0  0
 21 22  2  0  0  0
 20 23  1  0  0  0
 23 24  2  0  0  0
 23 25  1  0  0  0
 25 26  1  0  0  0
 25 27  1  0  0  0
 25 28  1  0  0  0
 11  1  1  0  0  0
 22 17  1  0  0  0
  9  3  1  0  0  0
  6 12  1  0  0  0
 13 16  1  0  0  0
M  END
> <minimizedAffinity>
0.71642

> <CNNscore>
0.3134967685

> <CNNaffinity>
6.4544005394

> <CNN_VS>
2.0234336853

> <CNNaffinity_variance>
0.3743078709

$$$$
