[H]c1sc2c([H])c([H])c(N([H])S(=O)(=O)c3c([H])c([H])c([H])c(F)c3[H])c([H])c2c1-c1c([H])c([H])c2c(c1[H])N(C(=O)C([H])([H])[H])N=C(C([H])([H])[H])C(C([H])([H])[H])(C([H])([H])[H])O2


 38 42  0  0  0  0  0  0  0  0999 V2000
   -9.4903   -5.7081   12.6606 C   0  0  0  0  0  0  0  0  0  0  0  0
  -10.5102   -5.7587   13.5722 C   0  0  0  0  0  0  0  0  0  0  0  0
  -11.8616   -6.1935   12.6492 S   0  0  0  0  0  0  0  0  0  0  0  0
  -11.1240   -6.3074   11.1149 C   0  0  0  0  0  0  0  0  0  0  0  0
  -11.5900   -6.6216    9.8227 C   0  0  0  0  0  0  0  0  0  0  0  0
  -10.7463   -6.6321    8.7354 C   0  0  0  0  0  0  0  0  0  0  0  0
   -9.4289   -6.3202    8.9723 C   0  0  0  0  0  0  0  0  0  0  0  0
   -8.9688   -6.0139   10.2299 C   0  0  0  0  0  0  0  0  0  0  0  0
   -9.8159   -5.9974   11.3647 C   0  0  0  0  0  0  0  0  0  0  0  0
   -4.2456   -6.4662    9.3668 C   0  0  0  0  0  0  0  0  0  0  0  0
   -5.0936   -5.8081   10.4197 C   0  0  0  0  0  0  0  0  0  0  0  0
   -6.0882   -5.2089    9.9975 O   0  0  0  0  0  0  0  0  0  0  0  0
   -4.7631   -5.8799   11.7820 N   0  0  0  0  0  0  0  0  0  0  0  0
   -3.4598   -6.3456   12.1628 N   0  0  0  0  0  0  0  0  0  0  0  0
   -2.7028   -5.7611   13.0606 C   0  0  0  0  0  0  0  0  0  0  0  0
   -1.3714   -6.4520   13.2824 C   0  0  0  0  0  0  0  0  0  0  0  0
   -2.9410   -4.5476   13.8573 C   0  0  0  0  0  0  0  0  0  0  0  0
   -2.6385   -3.2923   13.0128 C   0  0  0  0  0  0  0  0  0  0  0  0
   -1.9197   -4.4854   14.9904 C   0  0  0  0  0  0  0  0  0  0  0  0
   -4.2297   -4.3914   14.3966 O   0  0  0  0  0  0  0  0  0  0  0  0
   -5.4655   -4.7563   13.8789 C   0  0  0  0  0  0  0  0  0  0  0  0
   -6.5379   -4.3829   14.6601 C   0  0  0  0  0  0  0  0  0  0  0  0
   -7.8186   -4.6980   14.2477 C   0  0  0  0  0  0  0  0  0  0  0  0
   -8.1059   -5.3690   13.0963 C   0  0  0  0  0  0  0  0  0  0  0  0
   -7.0153   -5.7429   12.3127 C   0  0  0  0  0  0  0  0  0  0  0  0
   -5.7420   -5.4361   12.7055 C   0  0  0  0  0  0  0  0  0  0  0  0
   -8.4702   -6.3410    7.9103 N   0  0  0  0  0  0  0  0  0  0  0  0
   -8.3338   -5.4397    7.3394 H   0  0  0  0  0  0  0  0  0  0  0  0
   -7.5768   -7.7493    7.5651 S   0  0  0  0  0  0  0  0  0  0  0  0
   -7.3666   -8.4748    8.8976 O   0  0  0  0  0  0  0  0  0  0  0  0
   -8.3955   -8.7278    6.7453 O   0  0  0  0  0  0  0  0  0  0  0  0
   -6.0117   -7.5053    6.8902 C   0  0  0  0  0  0  0  0  0  0  0  0
   -5.6563   -6.4026    6.0985 C   0  0  0  0  0  0  0  0  0  0  0  0
   -4.4043   -6.2444    5.5816 C   0  0  0  0  0  0  0  0  0  0  0  0
   -3.4257   -7.1896    5.8293 C   0  0  0  0  0  0  0  0  0  0  0  0
   -3.7446   -8.2927    6.6088 C   0  0  0  0  0  0  0  0  0  0  0  0
   -2.7757   -9.2181    6.8477 F   0  0  0  0  0  0  0  0  0  0  0  0
   -5.0205   -8.4372    7.1255 C   0  0  0  0  0  0  0  0  0  0  0  0
 10 11  1  0  0  0
 11 12  2  0  0  0
 11 13  1  0  0  0
 13 14  1  0  0  0
 14 15  2  0  0  0
 15 16  1  0  0  0
 15 17  1  0  0  0
 17 18  1  0  0  0
 17 19  1  0  0  0
 17 20  1  0  0  0
 20 21  1  0  0  0
 21 22  2  0  0  0
 22 23  1  0  0  0
 23 24  2  0  0  0
 24 25  1  0  0  0
 25 26  2  0  0  0
 24  1  1  0  0  0
  1  2  2  0  0  0
  2  3  1  0  0  0
  3  4  1  0  0  0
  4  5  2  0  0  0
  5  6  1  0  0  0
  6  7  2  0  0  0
  7 27  1  0  0  0
 27 29  1  0  0  0
 29 30  2  0  0  0
 29 31  2  0  0  0
 29 32  1  0  0  0
 32 33  2  0  0  0
 33 34  1  0  0  0
 34 35  2  0  0  0
 35 36  1  0  0  0
 36 37  1  0  0  0
 36 38  2  0  0  0
  7  8  1  0  0  0
  8  9  2  0  0  0
 26 13  1  0  0  0
  9  1  1  0  0  0
 26 21  1  0  0  0
  9  4  1  0  0  0
 38 32  1  0  0  0
 27 28  1  0  0  0
M  END
> <minimizedAffinity>
13.19279

> <CNNscore>
0.4638769031

> <CNNaffinity>
6.4125776291

> <CNN_VS>
2.9746465683

> <CNNaffinity_variance>
0.5700331926

$$$$
[H]c1sc2c([H])c([H])c(N([H])S(=O)(=O)c3c([H])c([H])c([H])c(F)c3[H])c([H])c2c1-c1c([H])c([H])c2c(c1[H])N(C(=O)C([H])([H])[H])N=C(C([H])([H])[H])C(C([H])([H])[H])(C([H])([H])[H])O2


 38 42  0  0  0  0  0  0  0  0999 V2000
  -10.3166   -5.5317   13.5431 C   0  0  0  0  0  0  0  0  0  0  0  0
  -11.1268   -5.8246   14.6067 C   0  0  0  0  0  0  0  0  0  0  0  0
  -12.5782   -6.3213   13.8897 S   0  0  0  0  0  0  0  0  0  0  0  0
  -12.1473   -6.1535   12.2474 C   0  0  0  0  0  0  0  0  0  0  0  0
  -12.8209   -6.3707   11.0288 C   0  0  0  0  0  0  0  0  0  0  0  0
  -12.2102   -6.1402    9.8171 C   0  0  0  0  0  0  0  0  0  0  0  0
  -10.9131   -5.6874    9.8549 C   0  0  0  0  0  0  0  0  0  0  0  0
  -10.2513   -5.4746   11.0398 C   0  0  0  0  0  0  0  0  0  0  0  0
  -10.8566   -5.7053   12.2992 C   0  0  0  0  0  0  0  0  0  0  0  0
   -5.1614   -7.7521   10.8183 C   0  0  0  0  0  0  0  0  0  0  0  0
   -5.9761   -6.6852   11.4957 C   0  0  0  0  0  0  0  0  0  0  0  0
   -6.9730   -6.3070   10.8718 O   0  0  0  0  0  0  0  0  0  0  0  0
   -5.6141   -6.1671   12.7490 N   0  0  0  0  0  0  0  0  0  0  0  0
   -4.3078   -6.4495   13.2728 N   0  0  0  0  0  0  0  0  0  0  0  0
   -3.5226   -5.5501   13.8162 C   0  0  0  0  0  0  0  0  0  0  0  0
   -2.1947   -6.1048   14.2938 C   0  0  0  0  0  0  0  0  0  0  0  0
   -3.7271   -4.1065   14.0121 C   0  0  0  0  0  0  0  0  0  0  0  0
   -3.4297   -3.3473   12.7023 C   0  0  0  0  0  0  0  0  0  0  0  0
   -2.6784   -3.5814   14.9895 C   0  0  0  0  0  0  0  0  0  0  0  0
   -5.0006   -3.7050   14.4513 O   0  0  0  0  0  0  0  0  0  0  0  0
   -6.2527   -4.2317   14.1630 C   0  0  0  0  0  0  0  0  0  0  0  0
   -7.3016   -3.5343   14.7225 C   0  0  0  0  0  0  0  0  0  0  0  0
   -8.5955   -3.9696   14.5082 C   0  0  0  0  0  0  0  0  0  0  0  0
   -8.9182   -5.0668   13.7662 C   0  0  0  0  0  0  0  0  0  0  0  0
   -7.8512   -5.7661   13.2045 C   0  0  0  0  0  0  0  0  0  0  0  0
   -6.5653   -5.3465   13.4047 C   0  0  0  0  0  0  0  0  0  0  0  0
  -10.1842   -5.4549    8.6458 N   0  0  0  0  0  0  0  0  0  0  0  0
  -10.5820   -4.7377    7.9499 H   0  0  0  0  0  0  0  0  0  0  0  0
   -8.7348   -6.2889    8.3233 S   0  0  0  0  0  0  0  0  0  0  0  0
   -7.9837   -5.4735    7.2663 O   0  0  0  0  0  0  0  0  0  0  0  0
   -7.8106   -6.2619    9.5253 O   0  0  0  0  0  0  0  0  0  0  0  0
   -8.9033   -7.8787    7.6842 C   0  0  0  0  0  0  0  0  0  0  0  0
   -9.7706   -8.2203    6.6352 C   0  0  0  0  0  0  0  0  0  0  0  0
   -9.8757   -9.4925    6.1558 C   0  0  0  0  0  0  0  0  0  0  0  0
   -9.1117  -10.5068    6.7034 C   0  0  0  0  0  0  0  0  0  0  0  0
   -8.2436  -10.2025    7.7427 C   0  0  0  0  0  0  0  0  0  0  0  0
   -7.4954  -11.2066    8.2758 F   0  0  0  0  0  0  0  0  0  0  0  0
   -8.1496   -8.9056    8.2168 C   0  0  0  0  0  0  0  0  0  0  0  0
 10 11  1  0  0  0
 11 12  2  0  0  0
 11 13  1  0  0  0
 13 14  1  0  0  0
 14 15  2  0  0  0
 15 16  1  0  0  0
 15 17  1  0  0  0
 17 18  1  0  0  0
 17 19  1  0  0  0
 17 20  1  0  0  0
 20 21  1  0  0  0
 21 22  2  0  0  0
 22 23  1  0  0  0
 23 24  2  0  0  0
 24 25  1  0  0  0
 25 26  2  0  0  0
 24  1  1  0  0  0
  1  2  2  0  0  0
  2  3  1  0  0  0
  3  4  1  0  0  0
  4  5  2  0  0  0
  5  6  1  0  0  0
  6  7  2  0  0  0
  7 27  1  0  0  0
 27 29  1  0  0  0
 29 30  2  0  0  0
 29 31  2  0  0  0
 29 32  1  0  0  0
 32 33  2  0  0  0
 33 34  1  0  0  0
 34 35  2  0  0  0
 35 36  1  0  0  0
 36 37  1  0  0  0
 36 38  2  0  0  0
  7  8  1  0  0  0
  8  9  2  0  0  0
 26 13  1  0  0  0
  9  1  1  0  0  0
 26 21  1  0  0  0
  9  4  1  0  0  0
 38 32  1  0  0  0
 27 28  1  0  0  0
M  END
> <minimizedAffinity>
25.02812

> <CNNscore>
0.4612241089

> <CNNaffinity>
6.1844582558

> <CNN_VS>
2.8524212837

> <CNNaffinity_variance>
0.6765064001

$$$$
[H]c1sc2c([H])c([H])c(N([H])S(=O)(=O)c3c([H])c([H])c([H])c(F)c3[H])c([H])c2c1-c1c([H])c([H])c2c(c1[H])N(C(=O)C([H])([H])[H])N=C(C([H])([H])[H])C(C([H])([H])[H])(C([H])([H])[H])O2


 38 42  0  0  0  0  0  0  0  0999 V2000
   -9.1919   -5.2876   13.4364 C   0  0  0  0  0  0  0  0  0  0  0  0
  -10.0291   -5.0873   14.5006 C   0  0  0  0  0  0  0  0  0  0  0  0
  -11.5670   -5.4310   13.8806 S   0  0  0  0  0  0  0  0  0  0  0  0
  -11.1372   -5.8255   12.2773 C   0  0  0  0  0  0  0  0  0  0  0  0
  -11.8629   -6.2186   11.1351 C   0  0  0  0  0  0  0  0  0  0  0  0
  -11.2366   -6.4745    9.9365 C   0  0  0  0  0  0  0  0  0  0  0  0
   -9.8705   -6.3265    9.9090 C   0  0  0  0  0  0  0  0  0  0  0  0
   -9.1578   -5.9442   11.0195 C   0  0  0  0  0  0  0  0  0  0  0  0
   -9.7781   -5.6765   12.2641 C   0  0  0  0  0  0  0  0  0  0  0  0
   -4.7799   -6.8404    9.3067 C   0  0  0  0  0  0  0  0  0  0  0  0
   -5.3357   -6.0331   10.4470 C   0  0  0  0  0  0  0  0  0  0  0  0
   -6.3194   -5.3383   10.1711 O   0  0  0  0  0  0  0  0  0  0  0  0
   -4.7641   -6.0781   11.7282 N   0  0  0  0  0  0  0  0  0  0  0  0
   -3.4722   -6.6802   11.8979 N   0  0  0  0  0  0  0  0  0  0  0  0
   -2.4993   -6.1494   12.5996 C   0  0  0  0  0  0  0  0  0  0  0  0
   -1.2350   -6.9860   12.6242 C   0  0  0  0  0  0  0  0  0  0  0  0
   -2.4469   -4.8784   13.3385 C   0  0  0  0  0  0  0  0  0  0  0  0
   -2.1719   -3.7122   12.3665 C   0  0  0  0  0  0  0  0  0  0  0  0
   -1.2296   -4.8861   14.2600 C   0  0  0  0  0  0  0  0  0  0  0  0
   -3.5852   -4.5399   14.0904 O   0  0  0  0  0  0  0  0  0  0  0  0
   -4.9292   -4.7760   13.8330 C   0  0  0  0  0  0  0  0  0  0  0  0
   -5.7869   -4.2367   14.7675 C   0  0  0  0  0  0  0  0  0  0  0  0
   -7.1493   -4.4128   14.6179 C   0  0  0  0  0  0  0  0  0  0  0  0
   -7.7213   -5.0992   13.5882 C   0  0  0  0  0  0  0  0  0  0  0  0
   -6.8464   -5.6413   12.6481 C   0  0  0  0  0  0  0  0  0  0  0  0
   -5.4959   -5.4734   12.7804 C   0  0  0  0  0  0  0  0  0  0  0  0
   -9.1286   -6.6058    8.7177 N   0  0  0  0  0  0  0  0  0  0  0  0
   -8.5014   -5.8264    8.3227 H   0  0  0  0  0  0  0  0  0  0  0  0
   -9.2383   -8.1240    7.9539 S   0  0  0  0  0  0  0  0  0  0  0  0
   -8.7233   -7.9354    6.5238 O   0  0  0  0  0  0  0  0  0  0  0  0
   -8.2628   -9.1129    8.5624 O   0  0  0  0  0  0  0  0  0  0  0  0
  -10.8204   -8.7900    7.8190 C   0  0  0  0  0  0  0  0  0  0  0  0
  -11.6134   -9.1693    8.9127 C   0  0  0  0  0  0  0  0  0  0  0  0
  -12.8635   -9.6935    8.7649 C   0  0  0  0  0  0  0  0  0  0  0  0
  -13.3980   -9.8704    7.5019 C   0  0  0  0  0  0  0  0  0  0  0  0
  -12.6394   -9.5053    6.3984 C   0  0  0  0  0  0  0  0  0  0  0  0
  -13.1730   -9.6827    5.1591 F   0  0  0  0  0  0  0  0  0  0  0  0
  -11.3723   -8.9746    6.5670 C   0  0  0  0  0  0  0  0  0  0  0  0
 10 11  1  0  0  0
 11 12  2  0  0  0
 11 13  1  0  0  0
 13 14  1  0  0  0
 14 15  2  0  0  0
 15 16  1  0  0  0
 15 17  1  0  0  0
 17 18  1  0  0  0
 17 19  1  0  0  0
 17 20  1  0  0  0
 20 21  1  0  0  0
 21 22  2  0  0  0
 22 23  1  0  0  0
 23 24  2  0  0  0
 24 25  1  0  0  0
 25 26  2  0  0  0
 24  1  1  0  0  0
  1  2  2  0  0  0
  2  3  1  0  0  0
  3  4  1  0  0  0
  4  5  2  0  0  0
  5  6  1  0  0  0
  6  7  2  0  0  0
  7 27  1  0  0  0
 27 29  1  0  0  0
 29 30  2  0  0  0
 29 31  2  0  0  0
 29 32  1  0  0  0
 32 33  2  0  0  0
 33 34  1  0  0  0
 34 35  2  0  0  0
 35 36  1  0  0  0
 36 37  1  0  0  0
 36 38  2  0  0  0
  7  8  1  0  0  0
  8  9  2  0  0  0
 26 13  1  0  0  0
  9  1  1  0  0  0
 26 21  1  0  0  0
  9  4  1  0  0  0
 38 32  1  0  0  0
 27 28  1  0  0  0
M  END
> <minimizedAffinity>
13.55433

> <CNNscore>
0.4278425574

> <CNNaffinity>
6.5522880554

> <CNN_VS>
2.8033475876

> <CNNaffinity_variance>
0.9542337656

$$$$
[H]c1sc2c([H])c([H])c(N([H])S(=O)(=O)c3c([H])c([H])c([H])c(F)c3[H])c([H])c2c1-c1c([H])c([H])c2c(c1[H])N(C(=O)C([H])([H])[H])N=C(C([H])([H])[H])C(C([H])([H])[H])(C([H])([H])[H])O2


 38 42  0  0  0  0  0  0  0  0999 V2000
  -12.6328   -9.1587    5.8481 C   0  0  0  0  0  0  0  0  0  0  0  0
  -11.8810   -9.9565    5.0285 C   0  0  0  0  0  0  0  0  0  0  0  0
  -10.4807  -10.2634    5.9297 S   0  0  0  0  0  0  0  0  0  0  0  0
  -10.8583   -9.3777    7.3383 C   0  0  0  0  0  0  0  0  0  0  0  0
  -10.1899   -9.1374    8.5553 C   0  0  0  0  0  0  0  0  0  0  0  0
  -10.7475   -8.3558    9.5414 C   0  0  0  0  0  0  0  0  0  0  0  0
  -11.9864   -7.8212    9.2797 C   0  0  0  0  0  0  0  0  0  0  0  0
  -12.6430   -8.0527    8.0955 C   0  0  0  0  0  0  0  0  0  0  0  0
  -12.0917   -8.8539    7.0661 C   0  0  0  0  0  0  0  0  0  0  0  0
  -14.2428   -3.2860    4.4877 C   0  0  0  0  0  0  0  0  0  0  0  0
  -14.3739   -4.7800    4.3791 C   0  0  0  0  0  0  0  0  0  0  0  0
  -13.4052   -5.3594    3.8771 O   0  0  0  0  0  0  0  0  0  0  0  0
  -15.5237   -5.4521    4.8223 N   0  0  0  0  0  0  0  0  0  0  0  0
  -16.7037   -4.6943    5.1283 N   0  0  0  0  0  0  0  0  0  0  0  0
  -17.9110   -5.0200    4.7318 C   0  0  0  0  0  0  0  0  0  0  0  0
  -18.9872   -4.0551    5.1900 C   0  0  0  0  0  0  0  0  0  0  0  0
  -18.3661   -6.1516    3.9093 C   0  0  0  0  0  0  0  0  0  0  0  0
  -18.1262   -5.8501    2.4153 C   0  0  0  0  0  0  0  0  0  0  0  0
  -19.8838   -6.2729    4.0225 C   0  0  0  0  0  0  0  0  0  0  0  0
  -17.7874   -7.4027    4.1844 O   0  0  0  0  0  0  0  0  0  0  0  0
  -16.4985   -7.7213    4.5913 C   0  0  0  0  0  0  0  0  0  0  0  0
  -16.2590   -9.0742    4.7017 C   0  0  0  0  0  0  0  0  0  0  0  0
  -15.0114   -9.5105    5.1049 C   0  0  0  0  0  0  0  0  0  0  0  0
  -13.9745   -8.6797    5.4103 C   0  0  0  0  0  0  0  0  0  0  0  0
  -14.2259   -7.3133    5.2960 C   0  0  0  0  0  0  0  0  0  0  0  0
  -15.4542   -6.8656    4.8955 C   0  0  0  0  0  0  0  0  0  0  0  0
  -12.6612   -7.0258   10.2592 N   0  0  0  0  0  0  0  0  0  0  0  0
  -13.5337   -7.4428   10.7300 H   0  0  0  0  0  0  0  0  0  0  0  0
  -12.0976   -5.4702   10.6630 S   0  0  0  0  0  0  0  0  0  0  0  0
  -11.0748   -5.0808    9.5913 O   0  0  0  0  0  0  0  0  0  0  0  0
  -13.1951   -4.4351   10.5090 O   0  0  0  0  0  0  0  0  0  0  0  0
  -11.2942   -5.3270   12.1791 C   0  0  0  0  0  0  0  0  0  0  0  0
  -11.9162   -4.9107   13.3661 C   0  0  0  0  0  0  0  0  0  0  0  0
  -11.2452   -4.8101   14.5490 C   0  0  0  0  0  0  0  0  0  0  0  0
   -9.8998   -5.1233   14.6135 C   0  0  0  0  0  0  0  0  0  0  0  0
   -9.2544   -5.5384   13.4571 C   0  0  0  0  0  0  0  0  0  0  0  0
   -7.9304   -5.8447   13.5294 F   0  0  0  0  0  0  0  0  0  0  0  0
   -9.9511   -5.6349   12.2650 C   0  0  0  0  0  0  0  0  0  0  0  0
 10 11  1  0  0  0
 11 12  2  0  0  0
 11 13  1  0  0  0
 13 14  1  0  0  0
 14 15  2  0  0  0
 15 16  1  0  0  0
 15 17  1  0  0  0
 17 18  1  0  0  0
 17 19  1  0  0  0
 17 20  1  0  0  0
 20 21  1  0  0  0
 21 22  2  0  0  0
 22 23  1  0  0  0
 23 24  2  0  0  0
 24 25  1  0  0  0
 25 26  2  0  0  0
 24  1  1  0  0  0
  1  2  2  0  0  0
  2  3  1  0  0  0
  3  4  1  0  0  0
  4  5  2  0  0  0
  5  6  1  0  0  0
  6  7  2  0  0  0
  7 27  1  0  0  0
 27 29  1  0  0  0
 29 30  2  0  0  0
 29 31  2  0  0  0
 29 32  1  0  0  0
 32 33  2  0  0  0
 33 34  1  0  0  0
 34 35  2  0  0  0
 35 36  1  0  0  0
 36 37  1  0  0  0
 36 38  2  0  0  0
  7  8  1  0  0  0
  8  9  2  0  0  0
 26 13  1  0  0  0
  9  1  1  0  0  0
 26 21  1  0  0  0
  9  4  1  0  0  0
 38 32  1  0  0  0
 27 28  1  0  0  0
M  END
> <minimizedAffinity>
12.04272

> <CNNscore>
0.3994855285

> <CNNaffinity>
7.0154447556

> <CNN_VS>
2.8025686741

> <CNNaffinity_variance>
0.8961461782

$$$$
[H]c1sc2c([H])c([H])c(N([H])S(=O)(=O)c3c([H])c([H])c([H])c(F)c3[H])c([H])c2c1-c1c([H])c([H])c2c(c1[H])N(C(=O)C([H])([H])[H])N=C(C([H])([H])[H])C(C([H])([H])[H])(C([H])([H])[H])O2


 38 42  0  0  0  0  0  0  0  0999 V2000
  -10.7635   -9.1234    8.3282 C   0  0  0  0  0  0  0  0  0  0  0  0
  -10.6638   -9.8796    9.4647 C   0  0  0  0  0  0  0  0  0  0  0  0
  -12.2718  -10.2258    9.8670 S   0  0  0  0  0  0  0  0  0  0  0  0
  -13.0582   -9.4092    8.5921 C   0  0  0  0  0  0  0  0  0  0  0  0
  -14.4072   -9.2256    8.2283 C   0  0  0  0  0  0  0  0  0  0  0  0
  -14.7606   -8.4931    7.1180 C   0  0  0  0  0  0  0  0  0  0  0  0
  -13.7339   -7.9494    6.3836 C   0  0  0  0  0  0  0  0  0  0  0  0
  -12.4171   -8.1257    6.7331 C   0  0  0  0  0  0  0  0  0  0  0  0
  -12.0273   -8.8757    7.8694 C   0  0  0  0  0  0  0  0  0  0  0  0
   -5.7898   -6.4850   11.0175 C   0  0  0  0  0  0  0  0  0  0  0  0
   -6.4831   -7.2612    9.9323 C   0  0  0  0  0  0  0  0  0  0  0  0
   -6.9551   -8.3485   10.2806 O   0  0  0  0  0  0  0  0  0  0  0  0
   -6.5777   -6.7694    8.6210 N   0  0  0  0  0  0  0  0  0  0  0  0
   -5.7707   -5.6471    8.2341 N   0  0  0  0  0  0  0  0  0  0  0  0
   -5.0859   -5.5833    7.1171 C   0  0  0  0  0  0  0  0  0  0  0  0
   -4.3167   -4.2882    6.9435 C   0  0  0  0  0  0  0  0  0  0  0  0
   -4.9415   -6.5699    6.0354 C   0  0  0  0  0  0  0  0  0  0  0  0
   -3.9007   -7.6385    6.4294 C   0  0  0  0  0  0  0  0  0  0  0  0
   -4.3268   -5.8876    4.8158 C   0  0  0  0  0  0  0  0  0  0  0  0
   -6.1089   -7.2453    5.6394 O   0  0  0  0  0  0  0  0  0  0  0  0
   -7.1997   -7.6611    6.3915 C   0  0  0  0  0  0  0  0  0  0  0  0
   -8.1451   -8.3635    5.6754 C   0  0  0  0  0  0  0  0  0  0  0  0
   -9.2783   -8.8233    6.3187 C   0  0  0  0  0  0  0  0  0  0  0  0
   -9.5366   -8.6271    7.6429 C   0  0  0  0  0  0  0  0  0  0  0  0
   -8.5753   -7.9155    8.3590 C   0  0  0  0  0  0  0  0  0  0  0  0
   -7.4472   -7.4563    7.7377 C   0  0  0  0  0  0  0  0  0  0  0  0
  -14.0021   -7.2031    5.1927 N   0  0  0  0  0  0  0  0  0  0  0  0
  -13.1943   -7.0609    4.4968 H   0  0  0  0  0  0  0  0  0  0  0  0
  -15.5511   -6.5628    4.8911 S   0  0  0  0  0  0  0  0  0  0  0  0
  -16.2499   -7.5334    3.9342 O   0  0  0  0  0  0  0  0  0  0  0  0
  -16.4110   -6.6035    6.1396 O   0  0  0  0  0  0  0  0  0  0  0  0
  -15.5962   -5.0160    4.1361 C   0  0  0  0  0  0  0  0  0  0  0  0
  -14.6373   -4.0113    4.3366 C   0  0  0  0  0  0  0  0  0  0  0  0
  -14.7075   -2.7974    3.7192 C   0  0  0  0  0  0  0  0  0  0  0  0
  -15.7513   -2.5156    2.8571 C   0  0  0  0  0  0  0  0  0  0  0  0
  -16.7168   -3.4880    2.6368 C   0  0  0  0  0  0  0  0  0  0  0  0
  -17.7406   -3.2024    1.7869 F   0  0  0  0  0  0  0  0  0  0  0  0
  -16.6299   -4.7147    3.2719 C   0  0  0  0  0  0  0  0  0  0  0  0
 10 11  1  0  0  0
 11 12  2  0  0  0
 11 13  1  0  0  0
 13 14  1  0  0  0
 14 15  2  0  0  0
 15 16  1  0  0  0
 15 17  1  0  0  0
 17 18  1  0  0  0
 17 19  1  0  0  0
 17 20  1  0  0  0
 20 21  1  0  0  0
 21 22  2  0  0  0
 22 23  1  0  0  0
 23 24  2  0  0  0
 24 25  1  0  0  0
 25 26  2  0  0  0
 24  1  1  0  0  0
  1  2  2  0  0  0
  2  3  1  0  0  0
  3  4  1  0  0  0
  4  5  2  0  0  0
  5  6  1  0  0  0
  6  7  2  0  0  0
  7 27  1  0  0  0
 27 29  1  0  0  0
 29 30  2  0  0  0
 29 31  2  0  0  0
 29 32  1  0  0  0
 32 33  2  0  0  0
 33 34  1  0  0  0
 34 35  2  0  0  0
 35 36  1  0  0  0
 36 37  1  0  0  0
 36 38  2  0  0  0
  7  8  1  0  0  0
  8  9  2  0  0  0
 26 13  1  0  0  0
  9  1  1  0  0  0
 26 21  1  0  0  0
  9  4  1  0  0  0
 38 32  1  0  0  0
 27 28  1  0  0  0
M  END
> <minimizedAffinity>
15.94949

> <CNNscore>
0.3992847800

> <CNNaffinity>
6.9603729248

> <CNN_VS>
2.7791709900

> <CNNaffinity_variance>
0.8213270903

$$$$
[H]c1sc2c([H])c([H])c(N([H])S(=O)(=O)c3c([H])c([H])c([H])c(F)c3[H])c([H])c2c1-c1c([H])c([H])c2c(c1[H])N(C(=O)C([H])([H])[H])N=C(C([H])([H])[H])C(C([H])([H])[H])(C([H])([H])[H])O2


 38 42  0  0  0  0  0  0  0  0999 V2000
  -13.2424   -5.7555    8.8597 C   0  0  0  0  0  0  0  0  0  0  0  0
  -13.7958   -5.0663    9.9048 C   0  0  0  0  0  0  0  0  0  0  0  0
  -12.5963   -5.1042   11.0995 S   0  0  0  0  0  0  0  0  0  0  0  0
  -11.4029   -5.9937   10.2656 C   0  0  0  0  0  0  0  0  0  0  0  0
  -10.1082   -6.4446   10.5914 C   0  0  0  0  0  0  0  0  0  0  0  0
   -9.3511   -7.1677    9.6979 C   0  0  0  0  0  0  0  0  0  0  0  0
   -9.9205   -7.4286    8.4745 C   0  0  0  0  0  0  0  0  0  0  0  0
  -11.1819   -6.9910    8.1512 C   0  0  0  0  0  0  0  0  0  0  0  0
  -11.9802   -6.2445    9.0518 C   0  0  0  0  0  0  0  0  0  0  0  0
  -18.5158   -8.9929    8.0588 C   0  0  0  0  0  0  0  0  0  0  0  0
  -17.5342   -7.9074    7.7140 C   0  0  0  0  0  0  0  0  0  0  0  0
  -17.3899   -7.0336    8.5753 O   0  0  0  0  0  0  0  0  0  0  0  0
  -16.8396   -7.9033    6.4942 N   0  0  0  0  0  0  0  0  0  0  0  0
  -17.2648   -8.7837    5.4432 N   0  0  0  0  0  0  0  0  0  0  0  0
  -17.4058   -8.4203    4.1907 C   0  0  0  0  0  0  0  0  0  0  0  0
  -17.8648   -9.5394    3.2764 C   0  0  0  0  0  0  0  0  0  0  0  0
  -17.2055   -7.1087    3.5554 C   0  0  0  0  0  0  0  0  0  0  0  0
  -18.4392   -6.2127    3.7910 C   0  0  0  0  0  0  0  0  0  0  0  0
  -17.1638   -7.2888    2.0399 C   0  0  0  0  0  0  0  0  0  0  0  0
  -16.0731   -6.3801    3.9588 O   0  0  0  0  0  0  0  0  0  0  0  0
  -15.4577   -6.2999    5.2010 C   0  0  0  0  0  0  0  0  0  0  0  0
  -14.3946   -5.4240    5.2495 C   0  0  0  0  0  0  0  0  0  0  0  0
  -13.7010   -5.2655    6.4341 C   0  0  0  0  0  0  0  0  0  0  0  0
  -13.9982   -5.9297    7.5870 C   0  0  0  0  0  0  0  0  0  0  0  0
  -15.0746   -6.8135    7.5286 C   0  0  0  0  0  0  0  0  0  0  0  0
  -15.7729   -6.9795    6.3648 C   0  0  0  0  0  0  0  0  0  0  0  0
   -9.1956   -8.1417    7.4678 N   0  0  0  0  0  0  0  0  0  0  0  0
   -8.2955   -7.6940    7.0854 H   0  0  0  0  0  0  0  0  0  0  0  0
   -9.7440   -9.6496    6.8968 S   0  0  0  0  0  0  0  0  0  0  0  0
   -9.2500   -9.7795    5.4528 O   0  0  0  0  0  0  0  0  0  0  0  0
   -9.0540  -10.7905    7.6193 O   0  0  0  0  0  0  0  0  0  0  0  0
  -11.4516   -9.8647    6.8496 C   0  0  0  0  0  0  0  0  0  0  0  0
  -12.2116  -10.3845    7.9086 C   0  0  0  0  0  0  0  0  0  0  0  0
  -13.5643  -10.5395    7.8330 C   0  0  0  0  0  0  0  0  0  0  0  0
  -14.2417  -10.1800    6.6823 C   0  0  0  0  0  0  0  0  0  0  0  0
  -13.5195   -9.6625    5.6161 C   0  0  0  0  0  0  0  0  0  0  0  0
  -14.1940   -9.3112    4.4875 F   0  0  0  0  0  0  0  0  0  0  0  0
  -12.1468   -9.5119    5.7101 C   0  0  0  0  0  0  0  0  0  0  0  0
 10 11  1  0  0  0
 11 12  2  0  0  0
 11 13  1  0  0  0
 13 14  1  0  0  0
 14 15  2  0  0  0
 15 16  1  0  0  0
 15 17  1  0  0  0
 17 18  1  0  0  0
 17 19  1  0  0  0
 17 20  1  0  0  0
 20 21  1  0  0  0
 21 22  2  0  0  0
 22 23  1  0  0  0
 23 24  2  0  0  0
 24 25  1  0  0  0
 25 26  2  0  0  0
 24  1  1  0  0  0
  1  2  2  0  0  0
  2  3  1  0  0  0
  3  4  1  0  0  0
  4  5  2  0  0  0
  5  6  1  0  0  0
  6  7  2  0  0  0
  7 27  1  0  0  0
 27 29  1  0  0  0
 29 30  2  0  0  0
 29 31  2  0  0  0
 29 32  1  0  0  0
 32 33  2  0  0  0
 33 34  1  0  0  0
 34 35  2  0  0  0
 35 36  1  0  0  0
 36 37  1  0  0  0
 36 38  2  0  0  0
  7  8  1  0  0  0
  8  9  2  0  0  0
 26 13  1  0  0  0
  9  1  1  0  0  0
 26 21  1  0  0  0
  9  4  1  0  0  0
 38 32  1  0  0  0
 27 28  1  0  0  0
M  END
> <minimizedAffinity>
12.00067

> <CNNscore>
0.3939070702

> <CNNaffinity>
7.2426900864

> <CNN_VS>
2.8529467583

> <CNNaffinity_variance>
0.3307098746

$$$$
[H]c1sc2c([H])c([H])c(N([H])S(=O)(=O)c3c([H])c([H])c([H])c(F)c3[H])c([H])c2c1-c1c([H])c([H])c2c(c1[H])N(C(=O)C([H])([H])[H])N=C(C([H])([H])[H])C(C([H])([H])[H])(C([H])([H])[H])O2


 38 42  0  0  0  0  0  0  0  0999 V2000
  -10.5017   -6.3802   10.0138 C   0  0  0  0  0  0  0  0  0  0  0  0
  -10.1549   -6.2704   11.3334 C   0  0  0  0  0  0  0  0  0  0  0  0
  -11.6374   -6.3182   12.1504 S   0  0  0  0  0  0  0  0  0  0  0  0
  -12.6854   -6.4765   10.8134 C   0  0  0  0  0  0  0  0  0  0  0  0
  -14.0835   -6.5776   10.6688 C   0  0  0  0  0  0  0  0  0  0  0  0
  -14.6731   -6.6936    9.4306 C   0  0  0  0  0  0  0  0  0  0  0  0
  -13.8316   -6.7047    8.3439 C   0  0  0  0  0  0  0  0  0  0  0  0
  -12.4680   -6.6073    8.4790 C   0  0  0  0  0  0  0  0  0  0  0  0
  -11.8370   -6.4884    9.7412 C   0  0  0  0  0  0  0  0  0  0  0  0
   -6.8037  -11.1690    8.4893 C   0  0  0  0  0  0  0  0  0  0  0  0
   -7.5417   -9.8905    8.2031 C   0  0  0  0  0  0  0  0  0  0  0  0
   -8.7732   -9.9673    8.2642 O   0  0  0  0  0  0  0  0  0  0  0  0
   -6.8624   -8.7027    7.8901 N   0  0  0  0  0  0  0  0  0  0  0  0
   -5.4655   -8.7597    7.5652 N   0  0  0  0  0  0  0  0  0  0  0  0
   -4.9201   -8.1342    6.5492 C   0  0  0  0  0  0  0  0  0  0  0  0
   -3.4252   -8.3551    6.4249 C   0  0  0  0  0  0  0  0  0  0  0  0
   -5.5342   -7.2799    5.5209 C   0  0  0  0  0  0  0  0  0  0  0  0
   -6.1898   -8.1525    4.4304 C   0  0  0  0  0  0  0  0  0  0  0  0
   -4.4352   -6.5241    4.7779 C   0  0  0  0  0  0  0  0  0  0  0  0
   -6.5014   -6.3602    5.9618 O   0  0  0  0  0  0  0  0  0  0  0  0
   -7.4420   -6.4702    6.9774 C   0  0  0  0  0  0  0  0  0  0  0  0
   -8.2842   -5.3847    7.0877 C   0  0  0  0  0  0  0  0  0  0  0  0
   -9.2581   -5.3798    8.0680 C   0  0  0  0  0  0  0  0  0  0  0  0
   -9.4509   -6.3952    8.9570 C   0  0  0  0  0  0  0  0  0  0  0  0
   -8.5946   -7.4887    8.8382 C   0  0  0  0  0  0  0  0  0  0  0  0
   -7.6276   -7.5101    7.8717 C   0  0  0  0  0  0  0  0  0  0  0  0
  -14.3501   -6.8585    7.0192 N   0  0  0  0  0  0  0  0  0  0  0  0
  -14.0743   -6.1237    6.2838 H   0  0  0  0  0  0  0  0  0  0  0  0
  -15.3703   -8.1639    6.6246 S   0  0  0  0  0  0  0  0  0  0  0  0
  -14.4606   -9.3204    6.1993 O   0  0  0  0  0  0  0  0  0  0  0  0
  -16.0787   -8.6945    7.8560 O   0  0  0  0  0  0  0  0  0  0  0  0
  -16.4658   -7.9006    5.3226 C   0  0  0  0  0  0  0  0  0  0  0  0
  -17.5679   -7.0340    5.3809 C   0  0  0  0  0  0  0  0  0  0  0  0
  -18.4137   -6.8518    4.3268 C   0  0  0  0  0  0  0  0  0  0  0  0
  -18.2038   -7.5328    3.1417 C   0  0  0  0  0  0  0  0  0  0  0  0
  -17.1223   -8.3980    3.0510 C   0  0  0  0  0  0  0  0  0  0  0  0
  -16.9231   -9.0641    1.8811 F   0  0  0  0  0  0  0  0  0  0  0  0
  -16.2739   -8.5708    4.1308 C   0  0  0  0  0  0  0  0  0  0  0  0
 10 11  1  0  0  0
 11 12  2  0  0  0
 11 13  1  0  0  0
 13 14  1  0  0  0
 14 15  2  0  0  0
 15 16  1  0  0  0
 15 17  1  0  0  0
 17 18  1  0  0  0
 17 19  1  0  0  0
 17 20  1  0  0  0
 20 21  1  0  0  0
 21 22  2  0  0  0
 22 23  1  0  0  0
 23 24  2  0  0  0
 24 25  1  0  0  0
 25 26  2  0  0  0
 24  1  1  0  0  0
  1  2  2  0  0  0
  2  3  1  0  0  0
  3  4  1  0  0  0
  4  5  2  0  0  0
  5  6  1  0  0  0
  6  7  2  0  0  0
  7 27  1  0  0  0
 27 29  1  0  0  0
 29 30  2  0  0  0
 29 31  2  0  0  0
 29 32  1  0  0  0
 32 33  2  0  0  0
 33 34  1  0  0  0
 34 35  2  0  0  0
 35 36  1  0  0  0
 36 37  1  0  0  0
 36 38  2  0  0  0
  7  8  1  0  0  0
  8  9  2  0  0  0
 26 13  1  0  0  0
  9  1  1  0  0  0
 26 21  1  0  0  0
  9  4  1  0  0  0
 38 32  1  0  0  0
 27 28  1  0  0  0
M  END
> <minimizedAffinity>
9.07325

> <CNNscore>
0.3909833729

> <CNNaffinity>
6.8328642845

> <CNN_VS>
2.6715362072

> <CNNaffinity_variance>
0.9801312685

$$$$
[H]c1sc2c([H])c([H])c(N([H])S(=O)(=O)c3c([H])c([H])c([H])c(F)c3[H])c([H])c2c1-c1c([H])c([H])c2c(c1[H])N(C(=O)C([H])([H])[H])N=C(C([H])([H])[H])C(C([H])([H])[H])(C([H])([H])[H])O2


 38 42  0  0  0  0  0  0  0  0999 V2000
   -8.8447   -9.2107    6.7874 C   0  0  0  0  0  0  0  0  0  0  0  0
   -8.2681   -9.0739    8.0212 C   0  0  0  0  0  0  0  0  0  0  0  0
   -6.6110   -9.2473    7.7189 S   0  0  0  0  0  0  0  0  0  0  0  0
   -6.6616   -9.4923    6.0312 C   0  0  0  0  0  0  0  0  0  0  0  0
   -5.6832   -9.7176    5.0423 C   0  0  0  0  0  0  0  0  0  0  0  0
   -6.0223   -9.8910    3.7198 C   0  0  0  0  0  0  0  0  0  0  0  0
   -7.3607   -9.8346    3.4123 C   0  0  0  0  0  0  0  0  0  0  0  0
   -8.3187   -9.6144    4.3720 C   0  0  0  0  0  0  0  0  0  0  0  0
   -7.9959   -9.4318    5.7387 C   0  0  0  0  0  0  0  0  0  0  0  0
  -12.7769   -6.0912   10.4937 C   0  0  0  0  0  0  0  0  0  0  0  0
  -12.3487   -6.6924    9.1838 C   0  0  0  0  0  0  0  0  0  0  0  0
  -11.3391   -6.1909    8.6782 O   0  0  0  0  0  0  0  0  0  0  0  0
  -13.0584   -7.7487    8.5916 N   0  0  0  0  0  0  0  0  0  0  0  0
  -14.3625   -8.0824    9.0900 N   0  0  0  0  0  0  0  0  0  0  0  0
  -15.4058   -8.3092    8.3279 C   0  0  0  0  0  0  0  0  0  0  0  0
  -16.6670   -8.6443    9.1000 C   0  0  0  0  0  0  0  0  0  0  0  0
  -15.5367   -8.2706    6.8631 C   0  0  0  0  0  0  0  0  0  0  0  0
  -15.7001   -6.8129    6.3847 C   0  0  0  0  0  0  0  0  0  0  0  0
  -16.8483   -8.9405    6.4609 C   0  0  0  0  0  0  0  0  0  0  0  0
  -14.4876   -8.8416    6.1220 O   0  0  0  0  0  0  0  0  0  0  0  0
  -13.1240   -8.8742    6.3821 C   0  0  0  0  0  0  0  0  0  0  0  0
  -12.3736   -9.4690    5.3907 C   0  0  0  0  0  0  0  0  0  0  0  0
  -11.0034   -9.5637    5.5428 C   0  0  0  0  0  0  0  0  0  0  0  0
  -10.3227   -9.1011    6.6296 C   0  0  0  0  0  0  0  0  0  0  0  0
  -11.0896   -8.5014    7.6273 C   0  0  0  0  0  0  0  0  0  0  0  0
  -12.4460   -8.3974    7.4905 C   0  0  0  0  0  0  0  0  0  0  0  0
   -7.8063   -9.9669    2.0590 N   0  0  0  0  0  0  0  0  0  0  0  0
   -8.0647   -9.0694    1.5256 H   0  0  0  0  0  0  0  0  0  0  0  0
   -7.9221  -11.4976    1.3213 S   0  0  0  0  0  0  0  0  0  0  0  0
   -9.2651  -11.5310    0.5855 O   0  0  0  0  0  0  0  0  0  0  0  0
   -6.8982  -11.6480    0.2128 O   0  0  0  0  0  0  0  0  0  0  0  0
   -7.9144  -12.8519    2.3844 C   0  0  0  0  0  0  0  0  0  0  0  0
   -7.4014  -14.1147    2.0509 C   0  0  0  0  0  0  0  0  0  0  0  0
   -7.4130  -15.1640    2.9217 C   0  0  0  0  0  0  0  0  0  0  0  0
   -7.9437  -15.0092    4.1893 C   0  0  0  0  0  0  0  0  0  0  0  0
   -8.4595  -13.7725    4.5510 C   0  0  0  0  0  0  0  0  0  0  0  0
   -8.9799  -13.6288    5.8003 F   0  0  0  0  0  0  0  0  0  0  0  0
   -8.4395  -12.7183    3.6543 C   0  0  0  0  0  0  0  0  0  0  0  0
 10 11  1  0  0  0
 11 12  2  0  0  0
 11 13  1  0  0  0
 13 14  1  0  0  0
 14 15  2  0  0  0
 15 16  1  0  0  0
 15 17  1  0  0  0
 17 18  1  0  0  0
 17 19  1  0  0  0
 17 20  1  0  0  0
 20 21  1  0  0  0
 21 22  2  0  0  0
 22 23  1  0  0  0
 23 24  2  0  0  0
 24 25  1  0  0  0
 25 26  2  0  0  0
 24  1  1  0  0  0
  1  2  2  0  0  0
  2  3  1  0  0  0
  3  4  1  0  0  0
  4  5  2  0  0  0
  5  6  1  0  0  0
  6  7  2  0  0  0
  7 27  1  0  0  0
 27 29  1  0  0  0
 29 30  2  0  0  0
 29 31  2  0  0  0
 29 32  1  0  0  0
 32 33  2  0  0  0
 33 34  1  0  0  0
 34 35  2  0  0  0
 35 36  1  0  0  0
 36 37  1  0  0  0
 36 38  2  0  0  0
  7  8  1  0  0  0
  8  9  2  0  0  0
 26 13  1  0  0  0
  9  1  1  0  0  0
 26 21  1  0  0  0
  9  4  1  0  0  0
 38 32  1  0  0  0
 27 28  1  0  0  0
M  END
> <minimizedAffinity>
22.07727

> <CNNscore>
0.3849331737

> <CNNaffinity>
6.8894224167

> <CNN_VS>
2.6519672871

> <CNNaffinity_variance>
0.4705390334

$$$$
[H]c1sc2c([H])c([H])c(N([H])S(=O)(=O)c3c([H])c([H])c([H])c(F)c3[H])c([H])c2c1-c1c([H])c([H])c2c(c1[H])N(C(=O)C([H])([H])[H])N=C(C([H])([H])[H])C(C([H])([H])[H])(C([H])([H])[H])O2


 38 42  0  0  0  0  0  0  0  0999 V2000
   -7.1713   -7.4778    8.5830 C   0  0  0  0  0  0  0  0  0  0  0  0
   -6.7935   -6.8025    9.7121 C   0  0  0  0  0  0  0  0  0  0  0  0
   -5.1253   -6.5853    9.5189 S   0  0  0  0  0  0  0  0  0  0  0  0
   -4.9192   -7.3524    8.0090 C   0  0  0  0  0  0  0  0  0  0  0  0
   -3.8107   -7.5906    7.1722 C   0  0  0  0  0  0  0  0  0  0  0  0
   -3.9411   -8.2597    5.9766 C   0  0  0  0  0  0  0  0  0  0  0  0
   -5.2044   -8.6844    5.6406 C   0  0  0  0  0  0  0  0  0  0  0  0
   -6.2888   -8.4544    6.4520 C   0  0  0  0  0  0  0  0  0  0  0  0
   -6.1813   -7.7676    7.6858 C   0  0  0  0  0  0  0  0  0  0  0  0
  -12.1815   -4.4075   10.6812 C   0  0  0  0  0  0  0  0  0  0  0  0
  -11.4582   -5.3135    9.7237 C   0  0  0  0  0  0  0  0  0  0  0  0
  -10.5478   -4.7817    9.0799 O   0  0  0  0  0  0  0  0  0  0  0  0
  -11.8067   -6.6661    9.5843 N   0  0  0  0  0  0  0  0  0  0  0  0
  -13.0406   -7.1332   10.1498 N   0  0  0  0  0  0  0  0  0  0  0  0
  -13.8923   -7.9071    9.5201 C   0  0  0  0  0  0  0  0  0  0  0  0
  -15.1188   -8.2609   10.3384 C   0  0  0  0  0  0  0  0  0  0  0  0
  -13.8443   -8.4588    8.1572 C   0  0  0  0  0  0  0  0  0  0  0  0
  -14.2998   -7.3931    7.1387 C   0  0  0  0  0  0  0  0  0  0  0  0
  -14.8901   -9.5635    8.0284 C   0  0  0  0  0  0  0  0  0  0  0  0
  -12.6029   -8.9536    7.7217 O   0  0  0  0  0  0  0  0  0  0  0  0
  -11.3166   -8.5096    7.9987 C   0  0  0  0  0  0  0  0  0  0  0  0
  -10.3251   -9.2017    7.3371 C   0  0  0  0  0  0  0  0  0  0  0  0
   -9.0039   -8.8514    7.5396 C   0  0  0  0  0  0  0  0  0  0  0  0
   -8.5992   -7.8467    8.3675 C   0  0  0  0  0  0  0  0  0  0  0  0
   -9.6086   -7.1524    9.0325 C   0  0  0  0  0  0  0  0  0  0  0  0
  -10.9209   -7.4850    8.8407 C   0  0  0  0  0  0  0  0  0  0  0  0
   -5.4441   -9.3561    4.4002 N   0  0  0  0  0  0  0  0  0  0  0  0
   -4.6099   -9.8355    3.9195 H   0  0  0  0  0  0  0  0  0  0  0  0
   -7.0012   -9.3926    3.7112 S   0  0  0  0  0  0  0  0  0  0  0  0
   -7.9807   -9.6832    4.8524 O   0  0  0  0  0  0  0  0  0  0  0  0
   -7.4137   -8.0179    3.2215 O   0  0  0  0  0  0  0  0  0  0  0  0
   -7.2713  -10.6026    2.5164 C   0  0  0  0  0  0  0  0  0  0  0  0
   -6.9743  -10.4469    1.1538 C   0  0  0  0  0  0  0  0  0  0  0  0
   -7.2026  -11.4302    0.2369 C   0  0  0  0  0  0  0  0  0  0  0  0
   -7.7467  -12.6379    0.6340 C   0  0  0  0  0  0  0  0  0  0  0  0
   -8.0521  -12.8242    1.9750 C   0  0  0  0  0  0  0  0  0  0  0  0
   -8.5872  -14.0158    2.3572 F   0  0  0  0  0  0  0  0  0  0  0  0
   -7.8136  -11.8154    2.8921 C   0  0  0  0  0  0  0  0  0  0  0  0
 10 11  1  0  0  0
 11 12  2  0  0  0
 11 13  1  0  0  0
 13 14  1  0  0  0
 14 15  2  0  0  0
 15 16  1  0  0  0
 15 17  1  0  0  0
 17 18  1  0  0  0
 17 19  1  0  0  0
 17 20  1  0  0  0
 20 21  1  0  0  0
 21 22  2  0  0  0
 22 23  1  0  0  0
 23 24  2  0  0  0
 24 25  1  0  0  0
 25 26  2  0  0  0
 24  1  1  0  0  0
  1  2  2  0  0  0
  2  3  1  0  0  0
  3  4  1  0  0  0
  4  5  2  0  0  0
  5  6  1  0  0  0
  6  7  2  0  0  0
  7 27  1  0  0  0
 27 29  1  0  0  0
 29 30  2  0  0  0
 29 31  2  0  0  0
 29 32  1  0  0  0
 32 33  2  0  0  0
 33 34  1  0  0  0
 34 35  2  0  0  0
 35 36  1  0  0  0
 36 37  1  0  0  0
 36 38  2  0  0  0
  7  8  1  0  0  0
  8  9  2  0  0  0
 26 13  1  0  0  0
  9  1  1  0  0  0
 26 21  1  0  0  0
  9  4  1  0  0  0
 38 32  1  0  0  0
 27 28  1  0  0  0
M  END
> <minimizedAffinity>
8.97257

> <CNNscore>
0.3750064373

> <CNNaffinity>
6.7860345840

> <CNN_VS>
2.5448067188

> <CNNaffinity_variance>
0.4218228459

$$$$
[H]Oc1c([H])c([H])c2c(N([H])[H])c([H])n(-c3c([H])c([H])c(S(=O)(=O)C([H])([H])[H])c([H])c3[H])c(=O)c2c1[H]


 26 28  0  0  0  0  0  0  0  0999 V2000
   -9.2358   -7.3559    7.9746 N   0  0  0  0  0  0  0  0  0  0  0  0
   -9.7533   -6.3464    8.7000 C   0  0  0  0  0  0  0  0  0  0  0  0
  -11.0722   -6.4341    9.0989 C   0  0  0  0  0  0  0  0  0  0  0  0
  -11.6378   -5.3775    9.8663 N   0  0  0  0  0  0  0  0  0  0  0  0
  -11.8054   -7.5484    8.7400 C   0  0  0  0  0  0  0  0  0  0  0  0
  -13.1308   -7.6744    9.1202 C   0  0  0  0  0  0  0  0  0  0  0  0
  -13.8585   -8.7895    8.7590 C   0  0  0  0  0  0  0  0  0  0  0  0
  -13.3187   -9.8180    8.0157 C   0  0  0  0  0  0  0  0  0  0  0  0
  -14.0750  -10.9432    7.6585 O   0  0  0  0  0  0  0  0  0  0  0  0
  -11.9987   -9.6948    7.6356 C   0  0  0  0  0  0  0  0  0  0  0  0
  -11.2651   -8.5755    7.9972 C   0  0  0  0  0  0  0  0  0  0  0  0
   -9.9434   -8.4441    7.6213 C   0  0  0  0  0  0  0  0  0  0  0  0
   -9.4441   -9.3786    6.9429 O   0  0  0  0  0  0  0  0  0  0  0  0
  -12.2556   -4.6764    9.3687 H   0  0  0  0  0  0  0  0  0  0  0  0
  -11.4547   -5.2925   10.8763 H   0  0  0  0  0  0  0  0  0  0  0  0
  -14.5717  -10.8754    6.7778 H   0  0  0  0  0  0  0  0  0  0  0  0
   -5.1668   -7.0112    6.8849 C   0  0  0  0  0  0  0  0  0  0  0  0
   -5.5540   -7.4460    8.1522 C   0  0  0  0  0  0  0  0  0  0  0  0
   -6.8781   -7.5587    8.5083 C   0  0  0  0  0  0  0  0  0  0  0  0
   -7.8584   -7.2293    7.5772 C   0  0  0  0  0  0  0  0  0  0  0  0
   -7.4832   -6.8025    6.3334 C   0  0  0  0  0  0  0  0  0  0  0  0
   -6.1531   -6.6967    5.9971 C   0  0  0  0  0  0  0  0  0  0  0  0
   -2.5472   -6.2476    7.8986 C   0  0  0  0  0  0  0  0  0  0  0  0
   -3.4617   -6.8917    6.5006 S   0  0  0  0  0  0  0  0  0  0  0  0
   -2.9772   -8.2695    6.1331 O   0  0  0  0  0  0  0  0  0  0  0  0
   -3.2826   -5.9196    5.3785 O   0  0  0  0  0  0  0  0  0  0  0  0
 23 24  1  0  0  0
 24 25  2  0  0  0
 24 26  2  0  0  0
 24 17  1  0  0  0
 17 18  2  0  0  0
 18 19  1  0  0  0
 19 20  2  0  0  0
 20 21  1  0  0  0
 21 22  2  0  0  0
 20  1  1  0  0  0
  1  2  1  0  0  0
  2  3  2  0  0  0
  3  4  1  0  0  0
  3  5  1  0  0  0
  5  6  2  0  0  0
  6  7  1  0  0  0
  7  8  2  0  0  0
  8  9  1  0  0  0
  8 10  1  0  0  0
 10 11  2  0  0  0
 11 12  1  0  0  0
 12 13  2  0  0  0
 22 17  1  0  0  0
 12  1  1  0  0  0
 11  5  1  0  0  0
  4 14  1  0  0  0
  4 15  1  0  0  0
  9 16  1  0  0  0
M  END
> <minimizedAffinity>
-8.22341

> <CNNscore>
0.5718734264

> <CNNaffinity>
6.1824698448

> <CNN_VS>
3.5355901718

> <CNNaffinity_variance>
0.0459890254

$$$$
[H]Oc1c([H])c([H])c2c(N([H])[H])c([H])n(-c3c([H])c([H])c(S(=O)(=O)C([H])([H])[H])c([H])c3[H])c(=O)c2c1[H]


 26 28  0  0  0  0  0  0  0  0999 V2000
  -14.2368   -7.4376    8.2269 N   0  0  0  0  0  0  0  0  0  0  0  0
  -13.8549   -8.7000    8.4981 C   0  0  0  0  0  0  0  0  0  0  0  0
  -13.0024   -8.9129    9.5632 C   0  0  0  0  0  0  0  0  0  0  0  0
  -12.5871  -10.2399    9.8662 N   0  0  0  0  0  0  0  0  0  0  0  0
  -12.5771   -7.8280   10.3050 C   0  0  0  0  0  0  0  0  0  0  0  0
  -11.7222   -7.9993   11.3806 C   0  0  0  0  0  0  0  0  0  0  0  0
  -11.3005   -6.9123   12.1181 C   0  0  0  0  0  0  0  0  0  0  0  0
  -11.6979   -5.6231   11.8317 C   0  0  0  0  0  0  0  0  0  0  0  0
  -11.2580   -4.5314   12.5934 O   0  0  0  0  0  0  0  0  0  0  0  0
  -12.5493   -5.4499   10.7607 C   0  0  0  0  0  0  0  0  0  0  0  0
  -12.9747   -6.5404   10.0180 C   0  0  0  0  0  0  0  0  0  0  0  0
  -13.8270   -6.3762    8.9446 C   0  0  0  0  0  0  0  0  0  0  0  0
  -14.1937   -5.2027    8.6773 O   0  0  0  0  0  0  0  0  0  0  0  0
  -11.6219  -10.5428    9.5542 H   0  0  0  0  0  0  0  0  0  0  0  0
  -13.2033  -10.8906   10.3739 H   0  0  0  0  0  0  0  0  0  0  0  0
  -10.4017   -4.0923   12.2756 H   0  0  0  0  0  0  0  0  0  0  0  0
  -16.7876   -6.8518    4.9082 C   0  0  0  0  0  0  0  0  0  0  0  0
  -15.5180   -6.2777    4.9699 C   0  0  0  0  0  0  0  0  0  0  0  0
  -14.6867   -6.4675    6.0494 C   0  0  0  0  0  0  0  0  0  0  0  0
  -15.1255   -7.2547    7.1097 C   0  0  0  0  0  0  0  0  0  0  0  0
  -16.3697   -7.8195    7.0535 C   0  0  0  0  0  0  0  0  0  0  0  0
  -17.1859   -7.6172    5.9644 C   0  0  0  0  0  0  0  0  0  0  0  0
  -17.8699   -4.8175    3.1297 C   0  0  0  0  0  0  0  0  0  0  0  0
  -17.7927   -6.5671    3.5018 S   0  0  0  0  0  0  0  0  0  0  0  0
  -17.1968   -7.3333    2.3502 O   0  0  0  0  0  0  0  0  0  0  0  0
  -19.1888   -7.0097    3.8035 O   0  0  0  0  0  0  0  0  0  0  0  0
 23 24  1  0  0  0
 24 25  2  0  0  0
 24 26  2  0  0  0
 24 17  1  0  0  0
 17 18  2  0  0  0
 18 19  1  0  0  0
 19 20  2  0  0  0
 20 21  1  0  0  0
 21 22  2  0  0  0
 20  1  1  0  0  0
  1  2  1  0  0  0
  2  3  2  0  0  0
  3  4  1  0  0  0
  3  5  1  0  0  0
  5  6  2  0  0  0
  6  7  1  0  0  0
  7  8  2  0  0  0
  8  9  1  0  0  0
  8 10  1  0  0  0
 10 11  2  0  0  0
 11 12  1  0  0  0
 12 13  2  0  0  0
 22 17  1  0  0  0
 12  1  1  0  0  0
 11  5  1  0  0  0
  4 14  1  0  0  0
  4 15  1  0  0  0
  9 16  1  0  0  0
M  END
> <minimizedAffinity>
7.58455

> <CNNscore>
0.4637961984

> <CNNaffinity>
6.2711844444

> <CNN_VS>
2.9085514545

> <CNNaffinity_variance>
0.7557780743

$$$$
[H]Oc1c([H])c([H])c2c(N([H])[H])c([H])n(-c3c([H])c([H])c(S(=O)(=O)C([H])([H])[H])c([H])c3[H])c(=O)c2c1[H]


 26 28  0  0  0  0  0  0  0  0999 V2000
  -15.1476   -7.9330    7.4846 N   0  0  0  0  0  0  0  0  0  0  0  0
  -16.1081   -7.0075    7.3004 C   0  0  0  0  0  0  0  0  0  0  0  0
  -16.4712   -6.6874    6.0073 C   0  0  0  0  0  0  0  0  0  0  0  0
  -17.4844   -5.7117    5.7914 N   0  0  0  0  0  0  0  0  0  0  0  0
  -15.8381   -7.3259    4.9586 C   0  0  0  0  0  0  0  0  0  0  0  0
  -16.1733   -7.0331    3.6475 C   0  0  0  0  0  0  0  0  0  0  0  0
  -15.5377   -7.6738    2.6040 C   0  0  0  0  0  0  0  0  0  0  0  0
  -14.5549   -8.6204    2.8038 C   0  0  0  0  0  0  0  0  0  0  0  0
  -13.9207   -9.2604    1.7297 O   0  0  0  0  0  0  0  0  0  0  0  0
  -14.2192   -8.9137    4.1089 C   0  0  0  0  0  0  0  0  0  0  0  0
  -14.8562   -8.2715    5.1594 C   0  0  0  0  0  0  0  0  0  0  0  0
  -14.5265   -8.5590    6.4687 C   0  0  0  0  0  0  0  0  0  0  0  0
  -13.6307   -9.4217    6.6587 O   0  0  0  0  0  0  0  0  0  0  0  0
  -17.1838   -4.7336    5.5201 H   0  0  0  0  0  0  0  0  0  0  0  0
  -18.4823   -5.9448    5.8948 H   0  0  0  0  0  0  0  0  0  0  0  0
  -13.0870   -8.8038    1.3783 H   0  0  0  0  0  0  0  0  0  0  0  0
  -14.0322   -8.8286   11.4616 C   0  0  0  0  0  0  0  0  0  0  0  0
  -13.0836   -8.5633   10.4742 C   0  0  0  0  0  0  0  0  0  0  0  0
  -13.4452   -8.2717    9.1793 C   0  0  0  0  0  0  0  0  0  0  0  0
  -14.7959   -8.2406    8.8458 C   0  0  0  0  0  0  0  0  0  0  0  0
  -15.7294   -8.5002    9.8109 C   0  0  0  0  0  0  0  0  0  0  0  0
  -15.3467   -8.7898   11.1005 C   0  0  0  0  0  0  0  0  0  0  0  0
  -12.7727  -10.8275   13.1619 C   0  0  0  0  0  0  0  0  0  0  0  0
  -13.4992   -9.1927   13.0904 S   0  0  0  0  0  0  0  0  0  0  0  0
  -12.4955   -8.1431   13.4894 O   0  0  0  0  0  0  0  0  0  0  0  0
  -14.6861   -9.2040   13.9999 O   0  0  0  0  0  0  0  0  0  0  0  0
 23 24  1  0  0  0
 24 25  2  0  0  0
 24 26  2  0  0  0
 24 17  1  0  0  0
 17 18  2  0  0  0
 18 19  1  0  0  0
 19 20  2  0  0  0
 20 21  1  0  0  0
 21 22  2  0  0  0
 20  1  1  0  0  0
  1  2  1  0  0  0
  2  3  2  0  0  0
  3  4  1  0  0  0
  3  5  1  0  0  0
  5  6  2  0  0  0
  6  7  1  0  0  0
  7  8  2  0  0  0
  8  9  1  0  0  0
  8 10  1  0  0  0
 10 11  2  0  0  0
 11 12  1  0  0  0
 12 13  2  0  0  0
 22 17  1  0  0  0
 12  1  1  0  0  0
 11  5  1  0  0  0
  4 14  1  0  0  0
  4 15  1  0  0  0
  9 16  1  0  0  0
M  END
> <minimizedAffinity>
14.43740

> <CNNscore>
0.4001540840

> <CNNaffinity>
5.9076075554

> <CNN_VS>
2.3639533520

> <CNNaffinity_variance>
1.0084236860

$$$$
[H]Oc1c([H])c([H])c2c(N([H])[H])c([H])n(-c3c([H])c([H])c(S(=O)(=O)C([H])([H])[H])c([H])c3[H])c(=O)c2c1[H]


 26 28  0  0  0  0  0  0  0  0999 V2000
  -14.5759   -7.4132    8.2632 N   0  0  0  0  0  0  0  0  0  0  0  0
  -15.8905   -7.5772    8.5043 C   0  0  0  0  0  0  0  0  0  0  0  0
  -16.7067   -7.9589    7.4581 C   0  0  0  0  0  0  0  0  0  0  0  0
  -18.0989   -8.1375    7.6924 N   0  0  0  0  0  0  0  0  0  0  0  0
  -16.1455   -8.1565    6.2114 C   0  0  0  0  0  0  0  0  0  0  0  0
  -16.9296   -8.5394    5.1365 C   0  0  0  0  0  0  0  0  0  0  0  0
  -16.3639   -8.7354    3.8935 C   0  0  0  0  0  0  0  0  0  0  0  0
  -15.0160   -8.5647    3.6574 C   0  0  0  0  0  0  0  0  0  0  0  0
  -14.4602   -8.7687    2.3865 O   0  0  0  0  0  0  0  0  0  0  0  0
  -14.2328   -8.1831    4.7265 C   0  0  0  0  0  0  0  0  0  0  0  0
  -14.7985   -7.9856    5.9766 C   0  0  0  0  0  0  0  0  0  0  0  0
  -14.0221   -7.6038    7.0522 C   0  0  0  0  0  0  0  0  0  0  0  0
  -12.7914   -7.4460    6.8442 O   0  0  0  0  0  0  0  0  0  0  0  0
  -18.7572   -7.3642    7.3935 H   0  0  0  0  0  0  0  0  0  0  0  0
  -18.4609   -8.9919    8.1393 H   0  0  0  0  0  0  0  0  0  0  0  0
  -14.4338   -7.9542    1.7842 H   0  0  0  0  0  0  0  0  0  0  0  0
  -12.1805   -6.1628   11.5131 C   0  0  0  0  0  0  0  0  0  0  0  0
  -12.7413   -5.2506   10.6195 C   0  0  0  0  0  0  0  0  0  0  0  0
  -13.5212   -5.6561    9.5613 C   0  0  0  0  0  0  0  0  0  0  0  0
  -13.7569   -7.0152    9.3777 C   0  0  0  0  0  0  0  0  0  0  0  0
  -13.2089   -7.9132   10.2514 C   0  0  0  0  0  0  0  0  0  0  0  0
  -12.4315   -7.4868   11.3037 C   0  0  0  0  0  0  0  0  0  0  0  0
   -9.4594   -5.8282   12.4911 C   0  0  0  0  0  0  0  0  0  0  0  0
  -11.1973   -5.5747   12.8386 S   0  0  0  0  0  0  0  0  0  0  0  0
  -11.4991   -4.1101   13.0181 O   0  0  0  0  0  0  0  0  0  0  0  0
  -11.5149   -6.3645   14.0680 O   0  0  0  0  0  0  0  0  0  0  0  0
 23 24  1  0  0  0
 24 25  2  0  0  0
 24 26  2  0  0  0
 24 17  1  0  0  0
 17 18  2  0  0  0
 18 19  1  0  0  0
 19 20  2  0  0  0
 20 21  1  0  0  0
 21 22  2  0  0  0
 20  1  1  0  0  0
  1  2  1  0  0  0
  2  3  2  0  0  0
  3  4  1  0  0  0
  3  5  1  0  0  0
  5  6  2  0  0  0
  6  7  1  0  0  0
  7  8  2  0  0  0
  8  9  1  0  0  0
  8 10  1  0  0  0
 10 11  2  0  0  0
 11 12  1  0  0  0
 12 13  2  0  0  0
 22 17  1  0  0  0
 12  1  1  0  0  0
 11  5  1  0  0  0
  4 14  1  0  0  0
  4 15  1  0  0  0
  9 16  1  0  0  0
M  END
> <minimizedAffinity>
3.18633

> <CNNscore>
0.3954416811

> <CNNaffinity>
6.1306600571

> <CNN_VS>
2.4243185520

> <CNNaffinity_variance>
0.6686346531

$$$$
[H]Oc1c([H])c([H])c2c(N([H])[H])c([H])n(-c3c([H])c([H])c(S(=O)(=O)C([H])([H])[H])c([H])c3[H])c(=O)c2c1[H]


 26 28  0  0  0  0  0  0  0  0999 V2000
  -13.2563   -6.8985    7.8371 N   0  0  0  0  0  0  0  0  0  0  0  0
  -12.0561   -7.1513    7.2815 C   0  0  0  0  0  0  0  0  0  0  0  0
  -10.9255   -6.9780    8.0550 C   0  0  0  0  0  0  0  0  0  0  0  0
   -9.6476   -7.2400    7.4862 N   0  0  0  0  0  0  0  0  0  0  0  0
  -11.0694   -6.5542    9.3619 C   0  0  0  0  0  0  0  0  0  0  0  0
   -9.9607   -6.3685   10.1702 C   0  0  0  0  0  0  0  0  0  0  0  0
  -10.1101   -5.9450   11.4748 C   0  0  0  0  0  0  0  0  0  0  0  0
  -11.3443   -5.6888   12.0341 C   0  0  0  0  0  0  0  0  0  0  0  0
  -11.4752   -5.2591   13.3622 O   0  0  0  0  0  0  0  0  0  0  0  0
  -12.4502   -5.8731   11.2309 C   0  0  0  0  0  0  0  0  0  0  0  0
  -12.3030   -6.2985    9.9198 C   0  0  0  0  0  0  0  0  0  0  0  0
  -13.4044   -6.4856    9.1088 C   0  0  0  0  0  0  0  0  0  0  0  0
  -14.5338   -6.2538    9.6124 O   0  0  0  0  0  0  0  0  0  0  0  0
   -9.0657   -6.4148    7.1682 H   0  0  0  0  0  0  0  0  0  0  0  0
   -9.2944   -8.2021    7.3845 H   0  0  0  0  0  0  0  0  0  0  0  0
  -11.4606   -4.2553   13.5011 H   0  0  0  0  0  0  0  0  0  0  0  0
  -16.6213   -7.3993    5.3294 C   0  0  0  0  0  0  0  0  0  0  0  0
  -15.6417   -6.4430    5.0627 C   0  0  0  0  0  0  0  0  0  0  0  0
  -14.5459   -6.2789    5.8781 C   0  0  0  0  0  0  0  0  0  0  0  0
  -14.4115   -7.0903    7.0006 C   0  0  0  0  0  0  0  0  0  0  0  0
  -15.3697   -8.0292    7.2659 C   0  0  0  0  0  0  0  0  0  0  0  0
  -16.4584   -8.1774    6.4375 C   0  0  0  0  0  0  0  0  0  0  0  0
  -19.1308   -8.7941    4.8501 C   0  0  0  0  0  0  0  0  0  0  0  0
  -17.9904   -7.5526    4.2471 S   0  0  0  0  0  0  0  0  0  0  0  0
  -18.6605   -6.2065    4.1624 O   0  0  0  0  0  0  0  0  0  0  0  0
  -17.5055   -8.0194    2.9118 O   0  0  0  0  0  0  0  0  0  0  0  0
 23 24  1  0  0  0
 24 25  2  0  0  0
 24 26  2  0  0  0
 24 17  1  0  0  0
 17 18  2  0  0  0
 18 19  1  0  0  0
 19 20  2  0  0  0
 20 21  1  0  0  0
 21 22  2  0  0  0
 20  1  1  0  0  0
  1  2  1  0  0  0
  2  3  2  0  0  0
  3  4  1  0  0  0
  3  5  1  0  0  0
  5  6  2  0  0  0
  6  7  1  0  0  0
  7  8  2  0  0  0
  8  9  1  0  0  0
  8 10  1  0  0  0
 10 11  2  0  0  0
 11 12  1  0  0  0
 12 13  2  0  0  0
 22 17  1  0  0  0
 12  1  1  0  0  0
 11  5  1  0  0  0
  4 14  1  0  0  0
  4 15  1  0  0  0
  9 16  1  0  0  0
M  END
> <minimizedAffinity>
-1.46281

> <CNNscore>
0.3546873927

> <CNNaffinity>
6.0300245285

> <CNN_VS>
2.1387736797

> <CNNaffinity_variance>
0.2727052569

$$$$
[H]Oc1c([H])c([H])c2c(N([H])[H])c([H])n(-c3c([H])c([H])c(S(=O)(=O)C([H])([H])[H])c([H])c3[H])c(=O)c2c1[H]


 26 28  0  0  0  0  0  0  0  0999 V2000
   -7.7353   -7.6447    7.3408 N   0  0  0  0  0  0  0  0  0  0  0  0
   -7.1121   -8.6820    6.7501 C   0  0  0  0  0  0  0  0  0  0  0  0
   -5.7754   -8.5486    6.4308 C   0  0  0  0  0  0  0  0  0  0  0  0
   -5.0987   -9.6335    5.8061 N   0  0  0  0  0  0  0  0  0  0  0  0
   -5.1331   -7.3624    6.7284 C   0  0  0  0  0  0  0  0  0  0  0  0
   -3.7935   -7.1890    6.4244 C   0  0  0  0  0  0  0  0  0  0  0  0
   -3.1569   -6.0021    6.7238 C   0  0  0  0  0  0  0  0  0  0  0  0
   -3.8047   -4.9458    7.3290 C   0  0  0  0  0  0  0  0  0  0  0  0
   -3.1400   -3.7474    7.6251 O   0  0  0  0  0  0  0  0  0  0  0  0
   -5.1392   -5.1161    7.6328 C   0  0  0  0  0  0  0  0  0  0  0  0
   -5.7813   -6.3075    7.3331 C   0  0  0  0  0  0  0  0  0  0  0  0
   -7.1167   -6.4866    7.6337 C   0  0  0  0  0  0  0  0  0  0  0  0
   -7.7142   -5.5271    8.1860 O   0  0  0  0  0  0  0  0  0  0  0  0
   -4.9381   -9.5844    4.7609 H   0  0  0  0  0  0  0  0  0  0  0  0
   -4.7726  -10.4451    6.3500 H   0  0  0  0  0  0  0  0  0  0  0  0
   -3.1614   -3.0432    6.8967 H   0  0  0  0  0  0  0  0  0  0  0  0
  -11.8330   -8.2121    8.2065 C   0  0  0  0  0  0  0  0  0  0  0  0
  -11.2220   -8.8215    7.1109 C   0  0  0  0  0  0  0  0  0  0  0  0
   -9.8883   -8.6378    6.8279 C   0  0  0  0  0  0  0  0  0  0  0  0
   -9.1278   -7.8205    7.6587 C   0  0  0  0  0  0  0  0  0  0  0  0
   -9.7229   -7.2208    8.7341 C   0  0  0  0  0  0  0  0  0  0  0  0
  -11.0586   -7.4177    8.9997 C   0  0  0  0  0  0  0  0  0  0  0  0
  -14.3485   -9.0700    7.0194 C   0  0  0  0  0  0  0  0  0  0  0  0
  -13.5365   -8.4910    8.5063 S   0  0  0  0  0  0  0  0  0  0  0  0
  -13.6466   -9.5117    9.6082 O   0  0  0  0  0  0  0  0  0  0  0  0
  -14.1837   -7.1955    8.8790 O   0  0  0  0  0  0  0  0  0  0  0  0
 23 24  1  0  0  0
 24 25  2  0  0  0
 24 26  2  0  0  0
 24 17  1  0  0  0
 17 18  2  0  0  0
 18 19  1  0  0  0
 19 20  2  0  0  0
 20 21  1  0  0  0
 21 22  2  0  0  0
 20  1  1  0  0  0
  1  2  1  0  0  0
  2  3  2  0  0  0
  3  4  1  0  0  0
  3  5  1  0  0  0
  5  6  2  0  0  0
  6  7  1  0  0  0
  7  8  2  0  0  0
  8  9  1  0  0  0
  8 10  1  0  0  0
 10 11  2  0  0  0
 11 12  1  0  0  0
 12 13  2  0  0  0
 22 17  1  0  0  0
 12  1  1  0  0  0
 11  5  1  0  0  0
  4 14  1  0  0  0
  4 15  1  0  0  0
  9 16  1  0  0  0
M  END
> <minimizedAffinity>
-0.32585

> <CNNscore>
0.3123552203

> <CNNaffinity>
5.5294709206

> <CNN_VS>
1.7271591425

> <CNNaffinity_variance>
0.5156604052

$$$$
[H]Oc1c([H])c([H])c2c(N([H])[H])c([H])n(-c3c([H])c([H])c(S(=O)(=O)C([H])([H])[H])c([H])c3[H])c(=O)c2c1[H]


 26 28  0  0  0  0  0  0  0  0999 V2000
  -10.7053   -8.2520    7.6442 N   0  0  0  0  0  0  0  0  0  0  0  0
  -11.3226   -8.8896    6.6315 C   0  0  0  0  0  0  0  0  0  0  0  0
  -12.6764   -9.1381    6.7408 C   0  0  0  0  0  0  0  0  0  0  0  0
  -13.3472   -9.8108    5.6813 N   0  0  0  0  0  0  0  0  0  0  0  0
  -13.3411   -8.7249    7.8791 C   0  0  0  0  0  0  0  0  0  0  0  0
  -14.6983   -8.9550    8.0272 C   0  0  0  0  0  0  0  0  0  0  0  0
  -15.3573   -8.5402    9.1662 C   0  0  0  0  0  0  0  0  0  0  0  0
  -14.7153   -7.8878   10.1977 C   0  0  0  0  0  0  0  0  0  0  0  0
  -15.4029   -7.4742   11.3475 O   0  0  0  0  0  0  0  0  0  0  0  0
  -13.3633   -7.6575   10.0526 C   0  0  0  0  0  0  0  0  0  0  0  0
  -12.6987   -8.0731    8.9092 C   0  0  0  0  0  0  0  0  0  0  0  0
  -11.3457   -7.8467    8.7556 C   0  0  0  0  0  0  0  0  0  0  0  0
  -10.7534   -7.2519    9.6928 O   0  0  0  0  0  0  0  0  0  0  0  0
  -13.5583  -10.8412    5.8006 H   0  0  0  0  0  0  0  0  0  0  0  0
  -13.6215   -9.3146    4.8214 H   0  0  0  0  0  0  0  0  0  0  0  0
  -15.4381   -8.1486   12.1030 H   0  0  0  0  0  0  0  0  0  0  0  0
   -6.5789   -7.4618    7.1845 C   0  0  0  0  0  0  0  0  0  0  0  0
   -7.5432   -6.4744    6.9839 C   0  0  0  0  0  0  0  0  0  0  0  0
   -8.8867   -6.7302    7.1332 C   0  0  0  0  0  0  0  0  0  0  0  0
   -9.2945   -8.0106    7.4946 C   0  0  0  0  0  0  0  0  0  0  0  0
   -8.3523   -8.9819    7.6922 C   0  0  0  0  0  0  0  0  0  0  0  0
   -7.0133   -8.7054    7.5377 C   0  0  0  0  0  0  0  0  0  0  0  0
   -4.6885   -5.7830    5.7421 C   0  0  0  0  0  0  0  0  0  0  0  0
   -4.8853   -7.0646    6.9766 S   0  0  0  0  0  0  0  0  0  0  0  0
   -4.3545   -6.6090    8.3104 O   0  0  0  0  0  0  0  0  0  0  0  0
   -4.1610   -8.2710    6.4706 O   0  0  0  0  0  0  0  0  0  0  0  0
 23 24  1  0  0  0
 24 25  2  0  0  0
 24 26  2  0  0  0
 24 17  1  0  0  0
 17 18  2  0  0  0
 18 19  1  0  0  0
 19 20  2  0  0  0
 20 21  1  0  0  0
 21 22  2  0  0  0
 20  1  1  0  0  0
  1  2  1  0  0  0
  2  3  2  0  0  0
  3  4  1  0  0  0
  3  5  1  0  0  0
  5  6  2  0  0  0
  6  7  1  0  0  0
  7  8  2  0  0  0
  8  9  1  0  0  0
  8 10  1  0  0  0
 10 11  2  0  0  0
 11 12  1  0  0  0
 12 13  2  0  0  0
 22 17  1  0  0  0
 12  1  1  0  0  0
 11  5  1  0  0  0
  4 14  1  0  0  0
  4 15  1  0  0  0
  9 16  1  0  0  0
M  END
> <minimizedAffinity>
-4.88897

> <CNNscore>
0.2312377393

> <CNNaffinity>
5.9370832443

> <CNN_VS>
1.3728777170

> <CNNaffinity_variance>
0.1190321222

$$$$
[H]Oc1c([H])c([H])c2c(N([H])[H])c([H])n(-c3c([H])c([H])c(S(=O)(=O)C([H])([H])[H])c([H])c3[H])c(=O)c2c1[H]


 26 28  0  0  0  0  0  0  0  0999 V2000
  -13.4207   -7.9280    7.3021 N   0  0  0  0  0  0  0  0  0  0  0  0
  -14.2549   -8.5031    8.1890 C   0  0  0  0  0  0  0  0  0  0  0  0
  -15.6127   -8.3044    8.0366 C   0  0  0  0  0  0  0  0  0  0  0  0
  -16.5110   -8.9036    8.9635 N   0  0  0  0  0  0  0  0  0  0  0  0
  -16.0598   -7.5273    6.9856 C   0  0  0  0  0  0  0  0  0  0  0  0
  -17.4134   -7.3039    6.7983 C   0  0  0  0  0  0  0  0  0  0  0  0
  -17.8545   -6.5270    5.7470 C   0  0  0  0  0  0  0  0  0  0  0  0
  -16.9913   -5.9425    4.8441 C   0  0  0  0  0  0  0  0  0  0  0  0
  -17.4595   -5.1561    3.7820 O   0  0  0  0  0  0  0  0  0  0  0  0
  -15.6426   -6.1635    5.0287 C   0  0  0  0  0  0  0  0  0  0  0  0
  -15.1965   -6.9437    6.0841 C   0  0  0  0  0  0  0  0  0  0  0  0
  -13.8484   -7.1702    6.2763 C   0  0  0  0  0  0  0  0  0  0  0  0
  -13.0549   -6.6400    5.4564 O   0  0  0  0  0  0  0  0  0  0  0  0
  -16.9163   -8.2946    9.7286 H   0  0  0  0  0  0  0  0  0  0  0  0
  -16.7627   -9.9001    8.8966 H   0  0  0  0  0  0  0  0  0  0  0  0
  -17.5562   -4.1668    3.9792 H   0  0  0  0  0  0  0  0  0  0  0  0
   -9.2947   -8.6791    7.8266 C   0  0  0  0  0  0  0  0  0  0  0  0
  -10.1434   -9.6165    7.2384 C   0  0  0  0  0  0  0  0  0  0  0  0
  -11.4866   -9.3733    7.0670 C   0  0  0  0  0  0  0  0  0  0  0  0
  -12.0128   -8.1575    7.4929 C   0  0  0  0  0  0  0  0  0  0  0  0
  -11.1842   -7.2355    8.0703 C   0  0  0  0  0  0  0  0  0  0  0  0
   -9.8433   -7.4983    8.2326 C   0  0  0  0  0  0  0  0  0  0  0  0
   -6.7066   -8.7192    6.4952 C   0  0  0  0  0  0  0  0  0  0  0  0
   -7.5940   -9.0565    8.0130 S   0  0  0  0  0  0  0  0  0  0  0  0
   -7.0596   -8.2168    9.1433 O   0  0  0  0  0  0  0  0  0  0  0  0
   -7.4472  -10.5192    8.2869 O   0  0  0  0  0  0  0  0  0  0  0  0
 23 24  1  0  0  0
 24 25  2  0  0  0
 24 26  2  0  0  0
 24 17  1  0  0  0
 17 18  2  0  0  0
 18 19  1  0  0  0
 19 20  2  0  0  0
 20 21  1  0  0  0
 21 22  2  0  0  0
 20  1  1  0  0  0
  1  2  1  0  0  0
  2  3  2  0  0  0
  3  4  1  0  0  0
  3  5  1  0  0  0
  5  6  2  0  0  0
  6  7  1  0  0  0
  7  8  2  0  0  0
  8  9  1  0  0  0
  8 10  1  0  0  0
 10 11  2  0  0  0
 11 12  1  0  0  0
 12 13  2  0  0  0
 22 17  1  0  0  0
 12  1  1  0  0  0
 11  5  1  0  0  0
  4 14  1  0  0  0
  4 15  1  0  0  0
  9 16  1  0  0  0
M  END
> <minimizedAffinity>
-7.41107

> <CNNscore>
0.2259446830

> <CNNaffinity>
6.3052153587

> <CNN_VS>
1.4246299267

> <CNNaffinity_variance>
0.0844342485

$$$$
[H]Oc1c([H])c([H])c2c(N([H])[H])c([H])n(-c3c([H])c([H])c(S(=O)(=O)C([H])([H])[H])c([H])c3[H])c(=O)c2c1[H]


 26 28  0  0  0  0  0  0  0  0999 V2000
   -7.1396   -7.6989    7.7714 N   0  0  0  0  0  0  0  0  0  0  0  0
   -6.7663   -6.8354    8.7347 C   0  0  0  0  0  0  0  0  0  0  0  0
   -5.4314   -6.4955    8.8297 C   0  0  0  0  0  0  0  0  0  0  0  0
   -5.0166   -5.5844    9.8411 N   0  0  0  0  0  0  0  0  0  0  0  0
   -4.5358   -7.0519    7.9373 C   0  0  0  0  0  0  0  0  0  0  0  0
   -3.1889   -6.7369    7.9992 C   0  0  0  0  0  0  0  0  0  0  0  0
   -2.2987   -7.2956    7.1054 C   0  0  0  0  0  0  0  0  0  0  0  0
   -2.6917   -8.1792    6.1223 C   0  0  0  0  0  0  0  0  0  0  0  0
   -1.7714   -8.7363    5.2232 O   0  0  0  0  0  0  0  0  0  0  0  0
   -4.0328   -8.4947    6.0586 C   0  0  0  0  0  0  0  0  0  0  0  0
   -4.9295   -7.9348    6.9554 C   0  0  0  0  0  0  0  0  0  0  0  0
   -6.2734   -8.2448    6.8988 C   0  0  0  0  0  0  0  0  0  0  0  0
   -6.6393   -9.0504    6.0043 O   0  0  0  0  0  0  0  0  0  0  0  0
   -4.5622   -5.9800   10.7116 H   0  0  0  0  0  0  0  0  0  0  0  0
   -5.1522   -4.5689    9.7347 H   0  0  0  0  0  0  0  0  0  0  0  0
   -1.3469   -9.6089    5.5156 H   0  0  0  0  0  0  0  0  0  0  0  0
  -11.2274   -8.7498    7.5527 C   0  0  0  0  0  0  0  0  0  0  0  0
  -10.2155   -9.6851    7.3369 C   0  0  0  0  0  0  0  0  0  0  0  0
   -8.8845   -9.3444    7.4078 C   0  0  0  0  0  0  0  0  0  0  0  0
   -8.5386   -8.0293    7.7031 C   0  0  0  0  0  0  0  0  0  0  0  0
   -9.5276   -7.1090    7.9153 C   0  0  0  0  0  0  0  0  0  0  0  0
  -10.8532   -7.4702    7.8398 C   0  0  0  0  0  0  0  0  0  0  0  0
  -13.4575   -9.2296    5.7445 C   0  0  0  0  0  0  0  0  0  0  0  0
  -12.9017   -9.2546    7.4463 S   0  0  0  0  0  0  0  0  0  0  0  0
  -12.9989  -10.6434    8.0206 O   0  0  0  0  0  0  0  0  0  0  0  0
  -13.7526   -8.2800    8.1961 O   0  0  0  0  0  0  0  0  0  0  0  0
 23 24  1  0  0  0
 24 25  2  0  0  0
 24 26  2  0  0  0
 24 17  1  0  0  0
 17 18  2  0  0  0
 18 19  1  0  0  0
 19 20  2  0  0  0
 20 21  1  0  0  0
 21 22  2  0  0  0
 20  1  1  0  0  0
  1  2  1  0  0  0
  2  3  2  0  0  0
  3  4  1  0  0  0
  3  5  1  0  0  0
  5  6  2  0  0  0
  6  7  1  0  0  0
  7  8  2  0  0  0
  8  9  1  0  0  0
  8 10  1  0  0  0
 10 11  2  0  0  0
 11 12  1  0  0  0
 12 13  2  0  0  0
 22 17  1  0  0  0
 12  1  1  0  0  0
 11  5  1  0  0  0
  4 14  1  0  0  0
  4 15  1  0  0  0
  9 16  1  0  0  0
M  END
> <minimizedAffinity>
-6.94499

> <CNNscore>
0.2230380028

> <CNNaffinity>
5.4323215485

> <CNN_VS>
1.2116141319

> <CNNaffinity_variance>
0.0939375609

$$$$
[H]Oc1c([H])c([H])c([H])c(C(=O)c2c([H])c(F)c([H])c([H])c2S(=O)(=O)C([H])([H])[H])c1[H]


 21 22  0  0  0  0  0  0  0  0999 V2000
  -11.9806   -8.1010    8.2414 C   0  0  0  0  0  0  0  0  0  0  0  0
  -10.5791   -8.1820    8.2688 C   0  0  0  0  0  0  0  0  0  0  0  0
   -9.8657   -9.1013    7.5302 C   0  0  0  0  0  0  0  0  0  0  0  0
  -10.5643   -9.9605    6.7454 C   0  0  0  0  0  0  0  0  0  0  0  0
   -9.8859  -10.8849    5.9991 F   0  0  0  0  0  0  0  0  0  0  0  0
  -11.9156   -9.8971    6.7074 C   0  0  0  0  0  0  0  0  0  0  0  0
  -12.6903   -8.9759    7.4445 C   0  0  0  0  0  0  0  0  0  0  0  0
  -11.6347   -5.7074    9.9161 C   0  0  0  0  0  0  0  0  0  0  0  0
  -12.7455   -6.8589    9.1818 S   0  0  0  0  0  0  0  0  0  0  0  0
  -13.5567   -7.4801   10.2865 O   0  0  0  0  0  0  0  0  0  0  0  0
  -13.7966   -6.1237    8.3374 O   0  0  0  0  0  0  0  0  0  0  0  0
  -14.1294   -8.9914    7.3439 C   0  0  0  0  0  0  0  0  0  0  0  0
  -14.9145   -9.3901    8.2168 O   0  0  0  0  0  0  0  0  0  0  0  0
  -14.7753   -8.5033    6.1222 C   0  0  0  0  0  0  0  0  0  0  0  0
  -14.3824   -8.8944    4.8653 C   0  0  0  0  0  0  0  0  0  0  0  0
  -14.9646   -8.4325    3.6957 C   0  0  0  0  0  0  0  0  0  0  0  0
  -15.9954   -7.5318    3.7869 C   0  0  0  0  0  0  0  0  0  0  0  0
  -16.4185   -7.1156    5.0413 C   0  0  0  0  0  0  0  0  0  0  0  0
  -17.4705   -6.1988    5.0871 O   0  0  0  0  0  0  0  0  0  0  0  0
  -15.8166   -7.5953    6.1768 C   0  0  0  0  0  0  0  0  0  0  0  0
  -17.3525   -5.2037    5.0815 H   0  0  0  0  0  0  0  0  0  0  0  0
  8  9  1  0  0  0
  9 10  2  0  0  0
  9 11  2  0  0  0
  9  1  1  0  0  0
  1  2  2  0  0  0
  2  3  1  0  0  0
  3  4  2  0  0  0
  4  5  1  0  0  0
  4  6  1  0  0  0
  6  7  2  0  0  0
  7 12  1  0  0  0
 12 13  2  0  0  0
 12 14  1  0  0  0
 14 15  2  0  0  0
 15 16  1  0  0  0
 16 17  2  0  0  0
 17 18  1  0  0  0
 18 19  1  0  0  0
 18 20  2  0  0  0
  7  1  1  0  0  0
 20 14  1  0  0  0
 19 21  1  0  0  0
M  END
> <minimizedAffinity>
-8.14838

> <CNNscore>
0.5150013566

> <CNNaffinity>
5.6475868225

> <CNN_VS>
2.9085149765

> <CNNaffinity_variance>
0.0560607389

$$$$
[H]Oc1c([H])c([H])c([H])c(C(=O)c2c([H])c(F)c([H])c([H])c2S(=O)(=O)C([H])([H])[H])c1[H]


 21 22  0  0  0  0  0  0  0  0999 V2000
   -7.1186   -7.5726    6.5218 C   0  0  0  0  0  0  0  0  0  0  0  0
   -8.4154   -7.9849    6.8681 C   0  0  0  0  0  0  0  0  0  0  0  0
   -8.6731   -8.8722    7.8908 C   0  0  0  0  0  0  0  0  0  0  0  0
   -7.6143   -9.3607    8.5854 C   0  0  0  0  0  0  0  0  0  0  0  0
   -7.8361  -10.2430    9.6073 F   0  0  0  0  0  0  0  0  0  0  0  0
   -6.3574   -8.9747    8.2648 C   0  0  0  0  0  0  0  0  0  0  0  0
   -6.0426   -8.0709    7.2274 C   0  0  0  0  0  0  0  0  0  0  0  0
   -5.5493   -5.3481    5.4072 C   0  0  0  0  0  0  0  0  0  0  0  0
   -6.9451   -6.4086    5.2462 S   0  0  0  0  0  0  0  0  0  0  0  0
   -8.1727   -5.5412    5.1747 O   0  0  0  0  0  0  0  0  0  0  0  0
   -6.9264   -7.1134    3.8819 O   0  0  0  0  0  0  0  0  0  0  0  0
   -4.6684   -7.7262    6.9553 C   0  0  0  0  0  0  0  0  0  0  0  0
   -3.9904   -8.1397    6.0031 O   0  0  0  0  0  0  0  0  0  0  0  0
   -3.9606   -6.8085    7.8525 C   0  0  0  0  0  0  0  0  0  0  0  0
   -2.5944   -6.6656    7.8445 C   0  0  0  0  0  0  0  0  0  0  0  0
   -1.9015   -5.8193    8.6954 C   0  0  0  0  0  0  0  0  0  0  0  0
   -2.6122   -5.0752    9.6027 C   0  0  0  0  0  0  0  0  0  0  0  0
   -3.9943   -5.1943    9.6379 C   0  0  0  0  0  0  0  0  0  0  0  0
   -4.6771   -4.4183   10.5764 O   0  0  0  0  0  0  0  0  0  0  0  0
   -4.6448   -6.0436    8.7791 C   0  0  0  0  0  0  0  0  0  0  0  0
   -4.8862   -4.7161   11.5101 H   0  0  0  0  0  0  0  0  0  0  0  0
  8  9  1  0  0  0
  9 10  2  0  0  0
  9 11  2  0  0  0
  9  1  1  0  0  0
  1  2  2  0  0  0
  2  3  1  0  0  0
  3  4  2  0  0  0
  4  5  1  0  0  0
  4  6  1  0  0  0
  6  7  2  0  0  0
  7 12  1  0  0  0
 12 13  2  0  0  0
 12 14  1  0  0  0
 14 15  2  0  0  0
 15 16  1  0  0  0
 16 17  2  0  0  0
 17 18  1  0  0  0
 18 19  1  0  0  0
 18 20  2  0  0  0
  7  1  1  0  0  0
 20 14  1  0  0  0
 19 21  1  0  0  0
M  END
> <minimizedAffinity>
-1.01056

> <CNNscore>
0.4849475324

> <CNNaffinity>
4.4293360710

> <CNN_VS>
2.1479957104

> <CNNaffinity_variance>
0.5494862795

$$$$
[H]Oc1c([H])c([H])c([H])c(C(=O)c2c([H])c(F)c([H])c([H])c2S(=O)(=O)C([H])([H])[H])c1[H]


 21 22  0  0  0  0  0  0  0  0999 V2000
  -12.6586   -8.1030    8.1678 C   0  0  0  0  0  0  0  0  0  0  0  0
  -11.4683   -7.6885    8.7867 C   0  0  0  0  0  0  0  0  0  0  0  0
  -11.3984   -6.5955    9.6234 C   0  0  0  0  0  0  0  0  0  0  0  0
  -12.5408   -5.8985    9.8495 C   0  0  0  0  0  0  0  0  0  0  0  0
  -12.5055   -4.8087   10.6757 F   0  0  0  0  0  0  0  0  0  0  0  0
  -13.6970   -6.2835    9.2606 C   0  0  0  0  0  0  0  0  0  0  0  0
  -13.8194   -7.3930    8.3969 C   0  0  0  0  0  0  0  0  0  0  0  0
  -10.9923  -10.1165    6.8176 C   0  0  0  0  0  0  0  0  0  0  0  0
  -12.6118   -9.5297    7.1805 S   0  0  0  0  0  0  0  0  0  0  0  0
  -13.3079   -9.2692    5.8721 O   0  0  0  0  0  0  0  0  0  0  0  0
  -13.4543  -10.6448    7.8170 O   0  0  0  0  0  0  0  0  0  0  0  0
  -15.0958   -7.7200    7.8095 C   0  0  0  0  0  0  0  0  0  0  0  0
  -15.9148   -8.5355    8.2585 O   0  0  0  0  0  0  0  0  0  0  0  0
  -15.5135   -7.0586    6.5701 C   0  0  0  0  0  0  0  0  0  0  0  0
  -14.7552   -6.0972    5.9474 C   0  0  0  0  0  0  0  0  0  0  0  0
  -15.1374   -5.4446    4.7862 C   0  0  0  0  0  0  0  0  0  0  0  0
  -16.3419   -5.7707    4.2161 C   0  0  0  0  0  0  0  0  0  0  0  0
  -17.1333   -6.7384    4.8185 C   0  0  0  0  0  0  0  0  0  0  0  0
  -18.3505   -7.0390    4.2042 O   0  0  0  0  0  0  0  0  0  0  0  0
  -16.7207   -7.3624    5.9684 C   0  0  0  0  0  0  0  0  0  0  0  0
  -19.2150   -6.5748    4.4073 H   0  0  0  0  0  0  0  0  0  0  0  0
  8  9  1  0  0  0
  9 10  2  0  0  0
  9 11  2  0  0  0
  9  1  1  0  0  0
  1  2  2  0  0  0
  2  3  1  0  0  0
  3  4  2  0  0  0
  4  5  1  0  0  0
  4  6  1  0  0  0
  6  7  2  0  0  0
  7 12  1  0  0  0
 12 13  2  0  0  0
 12 14  1  0  0  0
 14 15  2  0  0  0
 15 16  1  0  0  0
 16 17  2  0  0  0
 17 18  1  0  0  0
 18 19  1  0  0  0
 18 20  2  0  0  0
  7  1  1  0  0  0
 20 14  1  0  0  0
 19 21  1  0  0  0
M  END
> <minimizedAffinity>
-8.97137

> <CNNscore>
0.4414116740

> <CNNaffinity>
5.6518793106

> <CNN_VS>
2.4948055744

> <CNNaffinity_variance>
0.1502382010

$$$$
[H]Oc1c([H])c([H])c([H])c(C(=O)c2c([H])c(F)c([H])c([H])c2S(=O)(=O)C([H])([H])[H])c1[H]


 21 22  0  0  0  0  0  0  0  0999 V2000
  -11.5180   -7.6255    8.7179 C   0  0  0  0  0  0  0  0  0  0  0  0
  -10.2389   -7.0503    8.7863 C   0  0  0  0  0  0  0  0  0  0  0  0
   -9.1438   -7.5755    8.1346 C   0  0  0  0  0  0  0  0  0  0  0  0
   -9.3266   -8.7001    7.3971 C   0  0  0  0  0  0  0  0  0  0  0  0
   -8.2599   -9.2463    6.7372 F   0  0  0  0  0  0  0  0  0  0  0  0
  -10.5525   -9.2683    7.3206 C   0  0  0  0  0  0  0  0  0  0  0  0
  -11.7027   -8.7697    7.9692 C   0  0  0  0  0  0  0  0  0  0  0  0
  -12.3061   -5.6170   10.7175 C   0  0  0  0  0  0  0  0  0  0  0  0
  -12.8177   -6.8272    9.5460 S   0  0  0  0  0  0  0  0  0  0  0  0
  -13.6597   -7.8405   10.2732 O   0  0  0  0  0  0  0  0  0  0  0  0
  -13.7950   -6.2118    8.5338 O   0  0  0  0  0  0  0  0  0  0  0  0
  -12.9669   -9.4516    7.8340 C   0  0  0  0  0  0  0  0  0  0  0  0
  -13.3720  -10.3797    8.5493 O   0  0  0  0  0  0  0  0  0  0  0  0
  -13.8953   -9.0522    6.7725 C   0  0  0  0  0  0  0  0  0  0  0  0
  -13.6124   -9.2106    5.4377 C   0  0  0  0  0  0  0  0  0  0  0  0
  -14.4653   -8.8236    4.4164 C   0  0  0  0  0  0  0  0  0  0  0  0
  -15.6659   -8.2478    4.7468 C   0  0  0  0  0  0  0  0  0  0  0  0
  -15.9845   -8.0731    6.0861 C   0  0  0  0  0  0  0  0  0  0  0  0
  -17.2163   -7.4836    6.3764 O   0  0  0  0  0  0  0  0  0  0  0  0
  -15.1133   -8.4690    7.0691 C   0  0  0  0  0  0  0  0  0  0  0  0
  -17.3594   -6.4973    6.4805 H   0  0  0  0  0  0  0  0  0  0  0  0
  8  9  1  0  0  0
  9 10  2  0  0  0
  9 11  2  0  0  0
  9  1  1  0  0  0
  1  2  2  0  0  0
  2  3  1  0  0  0
  3  4  2  0  0  0
  4  5  1  0  0  0
  4  6  1  0  0  0
  6  7  2  0  0  0
  7 12  1  0  0  0
 12 13  2  0  0  0
 12 14  1  0  0  0
 14 15  2  0  0  0
 15 16  1  0  0  0
 16 17  2  0  0  0
 17 18  1  0  0  0
 18 19  1  0  0  0
 18 20  2  0  0  0
  7  1  1  0  0  0
 20 14  1  0  0  0
 19 21  1  0  0  0
M  END
> <minimizedAffinity>
-8.31769

> <CNNscore>
0.4191173911

> <CNNaffinity>
5.4913072586

> <CNN_VS>
2.3015024662

> <CNNaffinity_variance>
0.0489981882

$$$$
[H]Oc1c([H])c([H])c([H])c(C(=O)c2c([H])c(F)c([H])c([H])c2S(=O)(=O)C([H])([H])[H])c1[H]


 21 22  0  0  0  0  0  0  0  0999 V2000
   -7.1172   -7.7006    6.4761 C   0  0  0  0  0  0  0  0  0  0  0  0
   -8.1534   -8.6364    6.3276 C   0  0  0  0  0  0  0  0  0  0  0  0
   -8.3849   -9.6500    7.2323 C   0  0  0  0  0  0  0  0  0  0  0  0
   -7.5653   -9.7339    8.3109 C   0  0  0  0  0  0  0  0  0  0  0  0
   -7.7687  -10.7283    9.2282 F   0  0  0  0  0  0  0  0  0  0  0  0
   -6.5610   -8.8407    8.4696 C   0  0  0  0  0  0  0  0  0  0  0  0
   -6.2833   -7.7874    7.5721 C   0  0  0  0  0  0  0  0  0  0  0  0
   -5.4710   -5.5321    5.3620 C   0  0  0  0  0  0  0  0  0  0  0  0
   -6.9747   -6.4443    5.2872 S   0  0  0  0  0  0  0  0  0  0  0  0
   -8.1099   -5.4678    5.4363 O   0  0  0  0  0  0  0  0  0  0  0  0
   -7.1816   -7.0193    3.8783 O   0  0  0  0  0  0  0  0  0  0  0  0
   -5.1828   -6.8891    7.8233 C   0  0  0  0  0  0  0  0  0  0  0  0
   -5.2755   -5.7260    8.2428 O   0  0  0  0  0  0  0  0  0  0  0  0
   -3.8098   -7.3393    7.5781 C   0  0  0  0  0  0  0  0  0  0  0  0
   -2.7324   -6.8612    8.2836 C   0  0  0  0  0  0  0  0  0  0  0  0
   -1.4239   -7.2572    8.0572 C   0  0  0  0  0  0  0  0  0  0  0  0
   -1.1787   -8.1812    7.0733 C   0  0  0  0  0  0  0  0  0  0  0  0
   -2.2441   -8.6860    6.3413 C   0  0  0  0  0  0  0  0  0  0  0  0
   -1.9488   -9.6241    5.3504 O   0  0  0  0  0  0  0  0  0  0  0  0
   -3.5262   -8.2689    6.5946 C   0  0  0  0  0  0  0  0  0  0  0  0
   -1.7396   -9.3925    4.3982 H   0  0  0  0  0  0  0  0  0  0  0  0
  8  9  1  0  0  0
  9 10  2  0  0  0
  9 11  2  0  0  0
  9  1  1  0  0  0
  1  2  2  0  0  0
  2  3  1  0  0  0
  3  4  2  0  0  0
  4  5  1  0  0  0
  4  6  1  0  0  0
  6  7  2  0  0  0
  7 12  1  0  0  0
 12 13  2  0  0  0
 12 14  1  0  0  0
 14 15  2  0  0  0
 15 16  1  0  0  0
 16 17  2  0  0  0
 17 18  1  0  0  0
 18 19  1  0  0  0
 18 20  2  0  0  0
  7  1  1  0  0  0
 20 14  1  0  0  0
 19 21  1  0  0  0
M  END
> <minimizedAffinity>
-1.39492

> <CNNscore>
0.4154673517

> <CNNaffinity>
4.3442735672

> <CNN_VS>
1.8049038649

> <CNNaffinity_variance>
0.3183884323

$$$$
[H]Oc1c([H])c([H])c([H])c(C(=O)c2c([H])c(F)c([H])c([H])c2S(=O)(=O)C([H])([H])[H])c1[H]


 21 22  0  0  0  0  0  0  0  0999 V2000
  -12.6023   -8.0967    8.1779 C   0  0  0  0  0  0  0  0  0  0  0  0
  -11.3968   -7.6449    8.7386 C   0  0  0  0  0  0  0  0  0  0  0  0
  -11.3185   -6.5426    9.5621 C   0  0  0  0  0  0  0  0  0  0  0  0
  -12.4679   -5.8739    9.8341 C   0  0  0  0  0  0  0  0  0  0  0  0
  -12.4245   -4.7757   10.6488 F   0  0  0  0  0  0  0  0  0  0  0  0
  -13.6387   -6.2949    9.3016 C   0  0  0  0  0  0  0  0  0  0  0  0
  -13.7701   -7.4155    8.4535 C   0  0  0  0  0  0  0  0  0  0  0  0
  -10.9446  -10.1134    6.8220 C   0  0  0  0  0  0  0  0  0  0  0  0
  -12.5619   -9.5309    7.2014 S   0  0  0  0  0  0  0  0  0  0  0  0
  -13.2761   -9.2840    5.9001 O   0  0  0  0  0  0  0  0  0  0  0  0
  -13.3910  -10.6447    7.8575 O   0  0  0  0  0  0  0  0  0  0  0  0
  -15.0626   -7.7817    7.9275 C   0  0  0  0  0  0  0  0  0  0  0  0
  -15.8238   -8.6382    8.4012 O   0  0  0  0  0  0  0  0  0  0  0  0
  -15.5718   -7.1131    6.7267 C   0  0  0  0  0  0  0  0  0  0  0  0
  -16.8118   -7.3762    6.1975 C   0  0  0  0  0  0  0  0  0  0  0  0
  -17.3073   -6.7714    5.0534 C   0  0  0  0  0  0  0  0  0  0  0  0
  -16.5215   -5.8537    4.4034 C   0  0  0  0  0  0  0  0  0  0  0  0
  -15.2630   -5.5633    4.9109 C   0  0  0  0  0  0  0  0  0  0  0  0
  -14.4978   -4.6234    4.2179 O   0  0  0  0  0  0  0  0  0  0  0  0
  -14.8071   -6.1834    6.0465 C   0  0  0  0  0  0  0  0  0  0  0  0
  -13.8628   -4.8489    3.4763 H   0  0  0  0  0  0  0  0  0  0  0  0
  8  9  1  0  0  0
  9 10  2  0  0  0
  9 11  2  0  0  0
  9  1  1  0  0  0
  1  2  2  0  0  0
  2  3  1  0  0  0
  3  4  2  0  0  0
  4  5  1  0  0  0
  4  6  1  0  0  0
  6  7  2  0  0  0
  7 12  1  0  0  0
 12 13  2  0  0  0
 12 14  1  0  0  0
 14 15  2  0  0  0
 15 16  1  0  0  0
 16 17  2  0  0  0
 17 18  1  0  0  0
 18 19  1  0  0  0
 18 20  2  0  0  0
  7  1  1  0  0  0
 20 14  1  0  0  0
 19 21  1  0  0  0
M  END
> <minimizedAffinity>
-8.86007

> <CNNscore>
0.3896258175

> <CNNaffinity>
5.6252555847

> <CNN_VS>
2.1917448044

> <CNNaffinity_variance>
0.2649453282

$$$$
[H]Oc1c([H])c([H])c([H])c(C(=O)c2c([H])c(F)c([H])c([H])c2S(=O)(=O)C([H])([H])[H])c1[H]


 21 22  0  0  0  0  0  0  0  0999 V2000
   -3.2115   -4.2794    7.7709 C   0  0  0  0  0  0  0  0  0  0  0  0
   -3.0966   -3.3186    8.7884 C   0  0  0  0  0  0  0  0  0  0  0  0
   -3.6365   -3.4879   10.0451 C   0  0  0  0  0  0  0  0  0  0  0  0
   -4.3066   -4.6414   10.2950 C   0  0  0  0  0  0  0  0  0  0  0  0
   -4.8539   -4.8408   11.5330 F   0  0  0  0  0  0  0  0  0  0  0  0
   -4.4276   -5.5781    9.3257 C   0  0  0  0  0  0  0  0  0  0  0  0
   -3.8943   -5.4512    8.0251 C   0  0  0  0  0  0  0  0  0  0  0  0
   -3.4598   -4.2011    4.8407 C   0  0  0  0  0  0  0  0  0  0  0  0
   -2.4362   -3.9570    6.2519 S   0  0  0  0  0  0  0  0  0  0  0  0
   -1.2266   -4.8388    6.0976 O   0  0  0  0  0  0  0  0  0  0  0  0
   -1.8468   -2.5389    6.2460 O   0  0  0  0  0  0  0  0  0  0  0  0
   -4.0831   -6.5030    7.0559 C   0  0  0  0  0  0  0  0  0  0  0  0
   -5.0763   -6.6511    6.3287 O   0  0  0  0  0  0  0  0  0  0  0  0
   -3.0388   -7.5149    6.8724 C   0  0  0  0  0  0  0  0  0  0  0  0
   -2.5143   -7.8286    5.6422 C   0  0  0  0  0  0  0  0  0  0  0  0
   -1.5409   -8.7942    5.4413 C   0  0  0  0  0  0  0  0  0  0  0  0
   -1.0654   -9.4829    6.5283 C   0  0  0  0  0  0  0  0  0  0  0  0
   -1.5727   -9.1909    7.7866 C   0  0  0  0  0  0  0  0  0  0  0  0
   -1.0601   -9.9156    8.8642 O   0  0  0  0  0  0  0  0  0  0  0  0
   -2.5368   -8.2280    7.9453 C   0  0  0  0  0  0  0  0  0  0  0  0
   -1.4418  -10.7810    9.1950 H   0  0  0  0  0  0  0  0  0  0  0  0
  8  9  1  0  0  0
  9 10  2  0  0  0
  9 11  2  0  0  0
  9  1  1  0  0  0
  1  2  2  0  0  0
  2  3  1  0  0  0
  3  4  2  0  0  0
  4  5  1  0  0  0
  4  6  1  0  0  0
  6  7  2  0  0  0
  7 12  1  0  0  0
 12 13  2  0  0  0
 12 14  1  0  0  0
 14 15  2  0  0  0
 15 16  1  0  0  0
 16 17  2  0  0  0
 17 18  1  0  0  0
 18 19  1  0  0  0
 18 20  2  0  0  0
  7  1  1  0  0  0
 20 14  1  0  0  0
 19 21  1  0  0  0
M  END
> <minimizedAffinity>
-3.35400

> <CNNscore>
0.2906362414

> <CNNaffinity>
3.8529160023

> <CNN_VS>
1.1197969913

> <CNNaffinity_variance>
0.0738363713

$$$$
[H]Oc1c([H])c([H])c([H])c(C(=O)c2c([H])c(F)c([H])c([H])c2S(=O)(=O)C([H])([H])[H])c1[H]


 21 22  0  0  0  0  0  0  0  0999 V2000
   -9.7139   -8.5663    7.7978 C   0  0  0  0  0  0  0  0  0  0  0  0
  -11.1141   -8.5408    7.6965 C   0  0  0  0  0  0  0  0  0  0  0  0
  -11.8852   -7.5184    8.2062 C   0  0  0  0  0  0  0  0  0  0  0  0
  -11.2470   -6.4969    8.8317 C   0  0  0  0  0  0  0  0  0  0  0  0
  -11.9834   -5.4660    9.3482 F   0  0  0  0  0  0  0  0  0  0  0  0
   -9.8979   -6.5054    8.9391 C   0  0  0  0  0  0  0  0  0  0  0  0
   -9.0658   -7.5282    8.4352 C   0  0  0  0  0  0  0  0  0  0  0  0
   -7.6312  -10.6245    8.0808 C   0  0  0  0  0  0  0  0  0  0  0  0
   -8.8658   -9.8904    7.0631 S   0  0  0  0  0  0  0  0  0  0  0  0
   -8.1991   -9.4302    5.7950 O   0  0  0  0  0  0  0  0  0  0  0  0
   -9.8604  -10.9549    6.5772 O   0  0  0  0  0  0  0  0  0  0  0  0
   -7.6353   -7.4522    8.6065 C   0  0  0  0  0  0  0  0  0  0  0  0
   -6.9994   -7.8516    9.5931 O   0  0  0  0  0  0  0  0  0  0  0  0
   -6.8099   -6.8593    7.5505 C   0  0  0  0  0  0  0  0  0  0  0  0
   -7.2537   -6.6995    6.2603 C   0  0  0  0  0  0  0  0  0  0  0  0
   -6.4858   -6.1596    5.2409 C   0  0  0  0  0  0  0  0  0  0  0  0
   -5.2056   -5.7571    5.5262 C   0  0  0  0  0  0  0  0  0  0  0  0
   -4.7250   -5.9034    6.8198 C   0  0  0  0  0  0  0  0  0  0  0  0
   -3.4174   -5.4803    7.0654 O   0  0  0  0  0  0  0  0  0  0  0  0
   -5.5157   -6.4430    7.8024 C   0  0  0  0  0  0  0  0  0  0  0  0
   -2.6087   -6.0650    6.9749 H   0  0  0  0  0  0  0  0  0  0  0  0
  8  9  1  0  0  0
  9 10  2  0  0  0
  9 11  2  0  0  0
  9  1  1  0  0  0
  1  2  2  0  0  0
  2  3  1  0  0  0
  3  4  2  0  0  0
  4  5  1  0  0  0
  4  6  1  0  0  0
  6  7  2  0  0  0
  7 12  1  0  0  0
 12 13  2  0  0  0
 12 14  1  0  0  0
 14 15  2  0  0  0
 15 16  1  0  0  0
 16 17  2  0  0  0
 17 18  1  0  0  0
 18 19  1  0  0  0
 18 20  2  0  0  0
  7  1  1  0  0  0
 20 14  1  0  0  0
 19 21  1  0  0  0
M  END
> <minimizedAffinity>
-4.59386

> <CNNscore>
0.2686039507

> <CNNaffinity>
4.5352749825

> <CNN_VS>
1.2181928158

> <CNNaffinity_variance>
0.2421102226

$$$$
[H]Oc1c([H])c([H])c([H])c(C(=O)c2c([H])c(F)c([H])c([H])c2S(=O)(=O)C([H])([H])[H])c1[H]


 21 22  0  0  0  0  0  0  0  0999 V2000
   -9.4962   -8.1550    7.8578 C   0  0  0  0  0  0  0  0  0  0  0  0
  -10.5608   -8.3423    8.7541 C   0  0  0  0  0  0  0  0  0  0  0  0
  -11.2154   -7.2981    9.3709 C   0  0  0  0  0  0  0  0  0  0  0  0
  -10.8005   -6.0370    9.0886 C   0  0  0  0  0  0  0  0  0  0  0  0
  -11.4300   -4.9781    9.6838 F   0  0  0  0  0  0  0  0  0  0  0  0
   -9.7754   -5.8379    8.2276 C   0  0  0  0  0  0  0  0  0  0  0  0
   -9.0738   -6.8727    7.5725 C   0  0  0  0  0  0  0  0  0  0  0  0
   -9.9680  -10.6763    6.4176 C   0  0  0  0  0  0  0  0  0  0  0  0
   -8.7988   -9.5590    7.1131 S   0  0  0  0  0  0  0  0  0  0  0  0
   -7.9823  -10.3207    8.1219 O   0  0  0  0  0  0  0  0  0  0  0  0
   -7.7639   -9.1427    6.0577 O   0  0  0  0  0  0  0  0  0  0  0  0
   -7.9871   -6.5605    6.6765 C   0  0  0  0  0  0  0  0  0  0  0  0
   -8.0944   -6.2852    5.4724 O   0  0  0  0  0  0  0  0  0  0  0  0
   -6.6113   -6.5532    7.1816 C   0  0  0  0  0  0  0  0  0  0  0  0
   -6.3065   -6.6965    8.5134 C   0  0  0  0  0  0  0  0  0  0  0  0
   -5.0156   -6.6738    9.0169 C   0  0  0  0  0  0  0  0  0  0  0  0
   -3.9731   -6.4992    8.1424 C   0  0  0  0  0  0  0  0  0  0  0  0
   -4.2448   -6.3519    6.7896 C   0  0  0  0  0  0  0  0  0  0  0  0
   -3.1540   -6.1770    5.9359 O   0  0  0  0  0  0  0  0  0  0  0  0
   -5.5367   -6.3794    6.3290 C   0  0  0  0  0  0  0  0  0  0  0  0
   -2.7661   -5.2862    5.6910 H   0  0  0  0  0  0  0  0  0  0  0  0
  8  9  1  0  0  0
  9 10  2  0  0  0
  9 11  2  0  0  0
  9  1  1  0  0  0
  1  2  2  0  0  0
  2  3  1  0  0  0
  3  4  2  0  0  0
  4  5  1  0  0  0
  4  6  1  0  0  0
  6  7  2  0  0  0
  7 12  1  0  0  0
 12 13  2  0  0  0
 12 14  1  0  0  0
 14 15  2  0  0  0
 15 16  1  0  0  0
 16 17  2  0  0  0
 17 18  1  0  0  0
 18 19  1  0  0  0
 18 20  2  0  0  0
  7  1  1  0  0  0
 20 14  1  0  0  0
 19 21  1  0  0  0
M  END
> <minimizedAffinity>
-4.85167

> <CNNscore>
0.2648187280

> <CNNaffinity>
4.5251712799

> <CNN_VS>
1.1983500719

> <CNNaffinity_variance>
0.2731379867

$$$$
[H]c1c([H])c(N2C([H])([H])C([H])([H])[C@@]([H])(C([H])([H])[H])[C@]([H])(N(C([H])([H])[H])S(=O)(=O)c3c([H])c(F)c(C([H])([H])[H])c([H])c3F)C2([H])[H])c([H])c(F)c1C#N


 30 32  0  0  0  0  0  0  0  0999 V2000
   -5.8092   -7.3627    7.5440 C   0  0  0  0  0  0  0  0  0  0  0  0
   -5.5031   -6.3570    8.5884 C   0  0  0  0  0  0  0  0  0  0  0  0
   -4.2452   -5.6887    8.5034 N   0  0  0  0  0  0  0  0  0  0  0  0
   -3.3765   -5.6945    7.3494 C   0  0  0  0  0  0  0  0  0  0  0  0
   -4.2935   -5.9411    6.1486 C   0  0  0  0  0  0  0  0  0  0  0  0
   -4.8854   -7.3161    6.3510 C   0  0  0  0  0  0  0  0  0  0  0  0
   -3.7320   -8.3187    6.5010 C   0  0  0  0  0  0  0  0  0  0  0  0
   -3.8165   -4.9510    9.6508 C   0  0  0  0  0  0  0  0  0  0  0  0
   -2.7598   -4.0709    9.6021 C   0  0  0  0  0  0  0  0  0  0  0  0
   -2.4199   -3.3976   10.7531 C   0  0  0  0  0  0  0  0  0  0  0  0
   -3.0708   -3.5476   11.9556 C   0  0  0  0  0  0  0  0  0  0  0  0
   -4.1315   -4.4375   11.9850 C   0  0  0  0  0  0  0  0  0  0  0  0
   -4.8252   -4.6363   13.1503 F   0  0  0  0  0  0  0  0  0  0  0  0
   -4.4876   -5.1214   10.8430 C   0  0  0  0  0  0  0  0  0  0  0  0
   -2.6829   -2.8223   13.1403 C   0  0  0  0  0  0  0  0  0  0  0  0
   -2.3583   -2.2465   14.0765 N   0  0  0  0  0  0  0  0  0  0  0  0
   -7.5434   -6.4919    6.1033 C   0  0  0  0  0  0  0  0  0  0  0  0
   -7.1789   -7.3028    7.1830 N   0  0  0  0  0  0  0  0  0  0  0  0
   -8.1550   -8.5900    7.5878 S   0  0  0  0  0  0  0  0  0  0  0  0
   -7.5861   -9.2886    8.8079 O   0  0  0  0  0  0  0  0  0  0  0  0
   -8.3303   -9.6323    6.5386 O   0  0  0  0  0  0  0  0  0  0  0  0
   -9.7452   -8.0187    8.0450 C   0  0  0  0  0  0  0  0  0  0  0  0
   -9.9197   -6.8033    8.7027 C   0  0  0  0  0  0  0  0  0  0  0  0
  -11.1599   -6.3397    9.0695 C   0  0  0  0  0  0  0  0  0  0  0  0
  -11.2901   -5.1573    9.7056 F   0  0  0  0  0  0  0  0  0  0  0  0
  -12.2905   -7.0728    8.7948 C   0  0  0  0  0  0  0  0  0  0  0  0
  -13.6236   -6.5784    9.1870 C   0  0  0  0  0  0  0  0  0  0  0  0
  -12.1377   -8.2762    8.1455 C   0  0  0  0  0  0  0  0  0  0  0  0
  -10.8840   -8.7323    7.7815 C   0  0  0  0  0  0  0  0  0  0  0  0
  -10.7850   -9.9225    7.1437 F   0  0  0  0  0  0  0  0  0  0  0  0
 17 18  1  0  0  0
 18  1  1  0  0  0
  1  2  1  0  0  0
  2  3  1  0  0  0
  3  4  1  0  0  0
  4  5  1  0  0  0
  5  6  1  0  0  0
  6  7  1  0  0  0
  3  8  1  0  0  0
  8  9  2  0  0  0
  9 10  1  0  0  0
 10 11  2  0  0  0
 11 15  1  0  0  0
 15 16  3  0  0  0
 11 12  1  0  0  0
 12 13  1  0  0  0
 12 14  2  0  0  0
 18 19  1  0  0  0
 19 20  2  0  0  0
 19 21  2  0  0  0
 19 22  1  0  0  0
 22 23  2  0  0  0
 23 24  1  0  0  0
 24 25  1  0  0  0
 24 26  2  0  0  0
 26 27  1  0  0  0
 26 28  1  0  0  0
 28 29  2  0  0  0
 29 30  1  0  0  0
  6  1  1  0  0  0
 14  8  1  0  0  0
 29 22  1  0  0  0
M  END
> <minimizedAffinity>
-7.49484

> <CNNscore>
0.4328499138

> <CNNaffinity>
6.3962206841

> <CNN_VS>
2.7686035633

> <CNNaffinity_variance>
0.2103969604

$$$$
[H]c1c([H])c(N2C([H])([H])C([H])([H])[C@@]([H])(C([H])([H])[H])[C@]([H])(N(C([H])([H])[H])S(=O)(=O)c3c([H])c(F)c(C([H])([H])[H])c([H])c3F)C2([H])[H])c([H])c(F)c1C#N


 30 32  0  0  0  0  0  0  0  0999 V2000
   -5.9908   -7.2741    7.6811 C   0  0  0  0  0  0  0  0  0  0  0  0
   -5.5339   -6.1992    8.5932 C   0  0  0  0  0  0  0  0  0  0  0  0
   -4.2779   -5.5870    8.3042 N   0  0  0  0  0  0  0  0  0  0  0  0
   -3.5550   -5.7183    7.0606 C   0  0  0  0  0  0  0  0  0  0  0  0
   -4.6164   -6.0271    6.0014 C   0  0  0  0  0  0  0  0  0  0  0  0
   -5.2166   -7.3584    6.3880 C   0  0  0  0  0  0  0  0  0  0  0  0
   -4.0811   -8.3876    6.4854 C   0  0  0  0  0  0  0  0  0  0  0  0
   -3.6942   -4.7752    9.3264 C   0  0  0  0  0  0  0  0  0  0  0  0
   -4.0733   -4.8745   10.6454 C   0  0  0  0  0  0  0  0  0  0  0  0
   -3.4535   -4.0587   11.5641 C   0  0  0  0  0  0  0  0  0  0  0  0
   -2.4745   -3.1454   11.2483 C   0  0  0  0  0  0  0  0  0  0  0  0
   -2.1064   -3.0598    9.9161 C   0  0  0  0  0  0  0  0  0  0  0  0
   -1.1370   -2.1708    9.5302 F   0  0  0  0  0  0  0  0  0  0  0  0
   -2.7151   -3.8682    8.9808 C   0  0  0  0  0  0  0  0  0  0  0  0
   -1.8491   -2.3080   12.2421 C   0  0  0  0  0  0  0  0  0  0  0  0
   -1.3676   -1.6369   13.0366 N   0  0  0  0  0  0  0  0  0  0  0  0
   -7.8898   -6.1349    6.7132 C   0  0  0  0  0  0  0  0  0  0  0  0
   -7.3918   -7.1930    7.4804 N   0  0  0  0  0  0  0  0  0  0  0  0
   -8.2840   -8.5948    7.5923 S   0  0  0  0  0  0  0  0  0  0  0  0
   -7.7767   -9.4222    8.7579 O   0  0  0  0  0  0  0  0  0  0  0  0
   -8.2626   -9.4804    6.3952 O   0  0  0  0  0  0  0  0  0  0  0  0
   -9.9558   -8.2171    7.9483 C   0  0  0  0  0  0  0  0  0  0  0  0
  -10.3074   -7.0680    8.6526 C   0  0  0  0  0  0  0  0  0  0  0  0
  -11.6140   -6.7562    8.9412 C   0  0  0  0  0  0  0  0  0  0  0  0
  -11.9166   -5.6340    9.6259 F   0  0  0  0  0  0  0  0  0  0  0  0
  -12.6364   -7.5824    8.5374 C   0  0  0  0  0  0  0  0  0  0  0  0
  -14.0402   -7.2510    8.8453 C   0  0  0  0  0  0  0  0  0  0  0  0
  -12.3082   -8.7223    7.8402 C   0  0  0  0  0  0  0  0  0  0  0  0
  -10.9893   -9.0255    7.5558 C   0  0  0  0  0  0  0  0  0  0  0  0
  -10.7166  -10.1585    6.8665 F   0  0  0  0  0  0  0  0  0  0  0  0
 17 18  1  0  0  0
 18  1  1  0  0  0
  1  2  1  0  0  0
  2  3  1  0  0  0
  3  4  1  0  0  0
  4  5  1  0  0  0
  5  6  1  0  0  0
  6  7  1  0  0  0
  3  8  1  0  0  0
  8  9  2  0  0  0
  9 10  1  0  0  0
 10 11  2  0  0  0
 11 15  1  0  0  0
 15 16  3  0  0  0
 11 12  1  0  0  0
 12 13  1  0  0  0
 12 14  2  0  0  0
 18 19  1  0  0  0
 19 20  2  0  0  0
 19 21  2  0  0  0
 19 22  1  0  0  0
 22 23  2  0  0  0
 23 24  1  0  0  0
 24 25  1  0  0  0
 24 26  2  0  0  0
 26 27  1  0  0  0
 26 28  1  0  0  0
 28 29  2  0  0  0
 29 30  1  0  0  0
  6  1  1  0  0  0
 14  8  1  0  0  0
 29 22  1  0  0  0
M  END
> <minimizedAffinity>
-6.99600

> <CNNscore>
0.4313457310

> <CNNaffinity>
6.3325362206

> <CNN_VS>
2.7315125465

> <CNNaffinity_variance>
0.1541109383

$$$$
[H]c1c([H])c(N2C([H])([H])C([H])([H])[C@@]([H])(C([H])([H])[H])[C@]([H])(N(C([H])([H])[H])S(=O)(=O)c3c([H])c(F)c(C([H])([H])[H])c([H])c3F)C2([H])[H])c([H])c(F)c1C#N


 30 32  0  0  0  0  0  0  0  0999 V2000
  -12.0795   -8.3161    7.0802 C   0  0  0  0  0  0  0  0  0  0  0  0
  -10.7474   -7.6871    6.9204 C   0  0  0  0  0  0  0  0  0  0  0  0
   -9.6044   -8.5090    7.1529 N   0  0  0  0  0  0  0  0  0  0  0  0
   -9.6218   -9.9501    7.2489 C   0  0  0  0  0  0  0  0  0  0  0  0
  -10.8449  -10.3986    6.4447 C   0  0  0  0  0  0  0  0  0  0  0  0
  -12.0464   -9.8234    7.1568 C   0  0  0  0  0  0  0  0  0  0  0  0
  -12.0180  -10.3059    8.6144 C   0  0  0  0  0  0  0  0  0  0  0  0
   -8.3428   -7.8514    7.2958 C   0  0  0  0  0  0  0  0  0  0  0  0
   -7.6676   -7.8159    8.4942 C   0  0  0  0  0  0  0  0  0  0  0  0
   -6.4552   -7.1665    8.5394 C   0  0  0  0  0  0  0  0  0  0  0  0
   -5.8710   -6.5470    7.4590 C   0  0  0  0  0  0  0  0  0  0  0  0
   -6.5654   -6.5932    6.2617 C   0  0  0  0  0  0  0  0  0  0  0  0
   -6.0420   -5.9965    5.1442 F   0  0  0  0  0  0  0  0  0  0  0  0
   -7.7810   -7.2388    6.1959 C   0  0  0  0  0  0  0  0  0  0  0  0
   -4.5974   -5.8762    7.5482 C   0  0  0  0  0  0  0  0  0  0  0  0
   -3.5774   -5.3581    7.6160 N   0  0  0  0  0  0  0  0  0  0  0  0
  -12.9502   -8.4259    4.8283 C   0  0  0  0  0  0  0  0  0  0  0  0
  -12.9779   -7.8339    6.0952 N   0  0  0  0  0  0  0  0  0  0  0  0
  -14.3784   -7.0911    6.6054 S   0  0  0  0  0  0  0  0  0  0  0  0
  -15.5440   -7.5886    5.7722 O   0  0  0  0  0  0  0  0  0  0  0  0
  -14.3962   -5.6042    6.5248 O   0  0  0  0  0  0  0  0  0  0  0  0
  -14.7296   -7.5411    8.2602 C   0  0  0  0  0  0  0  0  0  0  0  0
  -15.7333   -8.4568    8.5673 C   0  0  0  0  0  0  0  0  0  0  0  0
  -16.0228   -8.8211    9.8600 C   0  0  0  0  0  0  0  0  0  0  0  0
  -17.0026   -9.7114   10.1191 F   0  0  0  0  0  0  0  0  0  0  0  0
  -15.3192   -8.2845   10.9126 C   0  0  0  0  0  0  0  0  0  0  0  0
  -15.6272   -8.6731   12.3018 C   0  0  0  0  0  0  0  0  0  0  0  0
  -14.3238   -7.3781   10.6287 C   0  0  0  0  0  0  0  0  0  0  0  0
  -14.0417   -7.0193    9.3233 C   0  0  0  0  0  0  0  0  0  0  0  0
  -13.0523   -6.1238    9.0945 F   0  0  0  0  0  0  0  0  0  0  0  0
 17 18  1  0  0  0
 18  1  1  0  0  0
  1  2  1  0  0  0
  2  3  1  0  0  0
  3  4  1  0  0  0
  4  5  1  0  0  0
  5  6  1  0  0  0
  6  7  1  0  0  0
  3  8  1  0  0  0
  8  9  2  0  0  0
  9 10  1  0  0  0
 10 11  2  0  0  0
 11 15  1  0  0  0
 15 16  3  0  0  0
 11 12  1  0  0  0
 12 13  1  0  0  0
 12 14  2  0  0  0
 18 19  1  0  0  0
 19 20  2  0  0  0
 19 21  2  0  0  0
 19 22  1  0  0  0
 22 23  2  0  0  0
 23 24  1  0  0  0
 24 25  1  0  0  0
 24 26  2  0  0  0
 26 27  1  0  0  0
 26 28  1  0  0  0
 28 29  2  0  0  0
 29 30  1  0  0  0
  6  1  1  0  0  0
 14  8  1  0  0  0
 29 22  1  0  0  0
M  END
> <minimizedAffinity>
3.14526

> <CNNscore>
0.2981112003

> <CNNaffinity>
6.6793060303

> <CNN_VS>
1.9911758900

> <CNNaffinity_variance>
0.4046906531

$$$$
[H]c1c([H])c(N2C([H])([H])C([H])([H])[C@@]([H])(C([H])([H])[H])[C@]([H])(N(C([H])([H])[H])S(=O)(=O)c3c([H])c(F)c(C([H])([H])[H])c([H])c3F)C2([H])[H])c([H])c(F)c1C#N


 30 32  0  0  0  0  0  0  0  0999 V2000
   -5.4892   -7.3109    6.9724 C   0  0  0  0  0  0  0  0  0  0  0  0
   -4.8287   -6.7435    8.1714 C   0  0  0  0  0  0  0  0  0  0  0  0
   -5.6360   -6.5493    9.3319 N   0  0  0  0  0  0  0  0  0  0  0  0
   -6.9507   -7.1123    9.5343 C   0  0  0  0  0  0  0  0  0  0  0  0
   -6.9931   -8.3736    8.6677 C   0  0  0  0  0  0  0  0  0  0  0  0
   -6.8518   -7.9033    7.2392 C   0  0  0  0  0  0  0  0  0  0  0  0
   -7.9661   -6.8856    6.9556 C   0  0  0  0  0  0  0  0  0  0  0  0
   -5.0953   -5.7378   10.3777 C   0  0  0  0  0  0  0  0  0  0  0  0
   -4.1139   -4.8019   10.1447 C   0  0  0  0  0  0  0  0  0  0  0  0
   -3.6564   -4.0596   11.2092 C   0  0  0  0  0  0  0  0  0  0  0  0
   -4.1185   -4.1926   12.4980 C   0  0  0  0  0  0  0  0  0  0  0  0
   -5.1060   -5.1394   12.7129 C   0  0  0  0  0  0  0  0  0  0  0  0
   -5.6126   -5.3253   13.9729 F   0  0  0  0  0  0  0  0  0  0  0  0
   -5.5775   -5.8928   11.6600 C   0  0  0  0  0  0  0  0  0  0  0  0
   -3.6120   -3.3942   13.5870 C   0  0  0  0  0  0  0  0  0  0  0  0
   -3.2158   -2.7457   14.4449 N   0  0  0  0  0  0  0  0  0  0  0  0
   -5.0543   -8.7824    5.1052 C   0  0  0  0  0  0  0  0  0  0  0  0
   -4.6191   -8.2088    6.3042 N   0  0  0  0  0  0  0  0  0  0  0  0
   -2.9829   -8.0708    6.5825 S   0  0  0  0  0  0  0  0  0  0  0  0
   -2.2250   -8.8427    5.5194 O   0  0  0  0  0  0  0  0  0  0  0  0
   -2.5001   -8.5678    7.9007 O   0  0  0  0  0  0  0  0  0  0  0  0
   -2.4849   -6.4000    6.4259 C   0  0  0  0  0  0  0  0  0  0  0  0
   -1.9630   -5.6926    7.5063 C   0  0  0  0  0  0  0  0  0  0  0  0
   -1.5677   -4.3810    7.4017 C   0  0  0  0  0  0  0  0  0  0  0  0
   -1.0666   -3.7278    8.4704 F   0  0  0  0  0  0  0  0  0  0  0  0
   -1.6758   -3.7107    6.2059 C   0  0  0  0  0  0  0  0  0  0  0  0
   -1.2524   -2.3025    6.0897 C   0  0  0  0  0  0  0  0  0  0  0  0
   -2.1891   -4.3933    5.1272 C   0  0  0  0  0  0  0  0  0  0  0  0
   -2.5837   -5.7134    5.2450 C   0  0  0  0  0  0  0  0  0  0  0  0
   -3.0823   -6.3428    4.1548 F   0  0  0  0  0  0  0  0  0  0  0  0
 17 18  1  0  0  0
 18  1  1  0  0  0
  1  2  1  0  0  0
  2  3  1  0  0  0
  3  4  1  0  0  0
  4  5  1  0  0  0
  5  6  1  0  0  0
  6  7  1  0  0  0
  3  8  1  0  0  0
  8  9  2  0  0  0
  9 10  1  0  0  0
 10 11  2  0  0  0
 11 15  1  0  0  0
 15 16  3  0  0  0
 11 12  1  0  0  0
 12 13  1  0  0  0
 12 14  2  0  0  0
 18 19  1  0  0  0
 19 20  2  0  0  0
 19 21  2  0  0  0
 19 22  1  0  0  0
 22 23  2  0  0  0
 23 24  1  0  0  0
 24 25  1  0  0  0
 24 26  2  0  0  0
 26 27  1  0  0  0
 26 28  1  0  0  0
 28 29  2  0  0  0
 29 30  1  0  0  0
  6  1  1  0  0  0
 14  8  1  0  0  0
 29 22  1  0  0  0
M  END
> <minimizedAffinity>
-1.00713

> <CNNscore>
0.2629137039

> <CNNaffinity>
5.8759994507

> <CNN_VS>
1.5448807478

> <CNNaffinity_variance>
0.9517444372

$$$$
[H]c1c([H])c(N2C([H])([H])C([H])([H])[C@@]([H])(C([H])([H])[H])[C@]([H])(N(C([H])([H])[H])S(=O)(=O)c3c([H])c(F)c(C([H])([H])[H])c([H])c3F)C2([H])[H])c([H])c(F)c1C#N


 30 32  0  0  0  0  0  0  0  0999 V2000
  -12.1436   -6.1964    5.3392 C   0  0  0  0  0  0  0  0  0  0  0  0
  -10.7920   -6.4504    5.8908 C   0  0  0  0  0  0  0  0  0  0  0  0
   -9.6919   -5.8108    5.2453 N   0  0  0  0  0  0  0  0  0  0  0  0
   -9.7999   -4.7281    4.2953 C   0  0  0  0  0  0  0  0  0  0  0  0
  -11.1208   -4.0270    4.6230 C   0  0  0  0  0  0  0  0  0  0  0  0
  -12.2078   -5.0440    4.3663 C   0  0  0  0  0  0  0  0  0  0  0  0
  -12.0768   -5.5322    2.9162 C   0  0  0  0  0  0  0  0  0  0  0  0
   -8.3800   -6.2768    5.5712 C   0  0  0  0  0  0  0  0  0  0  0  0
   -7.3916   -6.4035    4.6223 C   0  0  0  0  0  0  0  0  0  0  0  0
   -6.1553   -6.8532    5.0260 C   0  0  0  0  0  0  0  0  0  0  0  0
   -5.8412   -7.1862    6.3232 C   0  0  0  0  0  0  0  0  0  0  0  0
   -6.8486   -7.0523    7.2639 C   0  0  0  0  0  0  0  0  0  0  0  0
   -6.6055   -7.3666    8.5758 F   0  0  0  0  0  0  0  0  0  0  0  0
   -8.0935   -6.6035    6.8796 C   0  0  0  0  0  0  0  0  0  0  0  0
   -4.5318   -7.6543    6.7057 C   0  0  0  0  0  0  0  0  0  0  0  0
   -3.4964   -8.0423    7.0073 N   0  0  0  0  0  0  0  0  0  0  0  0
  -14.4331   -5.8717    6.0420 C   0  0  0  0  0  0  0  0  0  0  0  0
  -13.0946   -6.0883    6.3851 N   0  0  0  0  0  0  0  0  0  0  0  0
  -12.7452   -6.8138    7.8428 S   0  0  0  0  0  0  0  0  0  0  0  0
  -12.4762   -5.7452    8.8849 O   0  0  0  0  0  0  0  0  0  0  0  0
  -11.5702   -7.7288    7.8522 O   0  0  0  0  0  0  0  0  0  0  0  0
  -14.1316   -7.7181    8.4123 C   0  0  0  0  0  0  0  0  0  0  0  0
  -14.4908   -7.7271    9.7581 C   0  0  0  0  0  0  0  0  0  0  0  0
  -15.5751   -8.4314   10.2228 C   0  0  0  0  0  0  0  0  0  0  0  0
  -15.8925   -8.4167   11.5338 F   0  0  0  0  0  0  0  0  0  0  0  0
  -16.3559   -9.1638    9.3598 C   0  0  0  0  0  0  0  0  0  0  0  0
  -17.5208   -9.9212    9.8549 C   0  0  0  0  0  0  0  0  0  0  0  0
  -16.0166   -9.1668    8.0264 C   0  0  0  0  0  0  0  0  0  0  0  0
  -14.9227   -8.4540    7.5707 C   0  0  0  0  0  0  0  0  0  0  0  0
  -14.6293   -8.4874    6.2494 F   0  0  0  0  0  0  0  0  0  0  0  0
 17 18  1  0  0  0
 18  1  1  0  0  0
  1  2  1  0  0  0
  2  3  1  0  0  0
  3  4  1  0  0  0
  4  5  1  0  0  0
  5  6  1  0  0  0
  6  7  1  0  0  0
  3  8  1  0  0  0
  8  9  2  0  0  0
  9 10  1  0  0  0
 10 11  2  0  0  0
 11 15  1  0  0  0
 15 16  3  0  0  0
 11 12  1  0  0  0
 12 13  1  0  0  0
 12 14  2  0  0  0
 18 19  1  0  0  0
 19 20  2  0  0  0
 19 21  2  0  0  0
 19 22  1  0  0  0
 22 23  2  0  0  0
 23 24  1  0  0  0
 24 25  1  0  0  0
 24 26  2  0  0  0
 26 27  1  0  0  0
 26 28  1  0  0  0
 28 29  2  0  0  0
 29 30  1  0  0  0
  6  1  1  0  0  0
 14  8  1  0  0  0
 29 22  1  0  0  0
M  END
> <minimizedAffinity>
35.65931

> <CNNscore>
0.2310627103

> <CNNaffinity>
6.1939568520

> <CNN_VS>
1.4311923981

> <CNNaffinity_variance>
0.7235697508

$$$$
[H]c1c([H])c(N2C([H])([H])C([H])([H])[C@@]([H])(C([H])([H])[H])[C@]([H])(N(C([H])([H])[H])S(=O)(=O)c3c([H])c(F)c(C([H])([H])[H])c([H])c3F)C2([H])[H])c([H])c(F)c1C#N


 30 32  0  0  0  0  0  0  0  0999 V2000
  -12.8188   -7.2705    8.6841 C   0  0  0  0  0  0  0  0  0  0  0  0
  -11.4256   -7.5993    8.3011 C   0  0  0  0  0  0  0  0  0  0  0  0
  -10.3850   -6.8197    8.8888 N   0  0  0  0  0  0  0  0  0  0  0  0
  -10.5439   -5.9410   10.0241 C   0  0  0  0  0  0  0  0  0  0  0  0
  -11.7395   -6.4935   10.8046 C   0  0  0  0  0  0  0  0  0  0  0  0
  -12.9323   -6.3652    9.8867 C   0  0  0  0  0  0  0  0  0  0  0  0
  -13.0587   -4.8939    9.4655 C   0  0  0  0  0  0  0  0  0  0  0  0
   -9.0819   -6.9232    8.3094 C   0  0  0  0  0  0  0  0  0  0  0  0
   -8.0107   -7.4362    9.0043 C   0  0  0  0  0  0  0  0  0  0  0  0
   -6.7935   -7.5053    8.3661 C   0  0  0  0  0  0  0  0  0  0  0  0
   -6.5764   -7.0928    7.0719 C   0  0  0  0  0  0  0  0  0  0  0  0
   -7.6662   -6.5795    6.3887 C   0  0  0  0  0  0  0  0  0  0  0  0
   -7.5217   -6.1493    5.0953 F   0  0  0  0  0  0  0  0  0  0  0  0
   -8.8935   -6.5020    7.0103 C   0  0  0  0  0  0  0  0  0  0  0  0
   -5.2837   -7.1822    6.4387 C   0  0  0  0  0  0  0  0  0  0  0  0
   -4.2554   -7.2696    5.9402 N   0  0  0  0  0  0  0  0  0  0  0  0
  -14.6053   -8.4810    9.7725 C   0  0  0  0  0  0  0  0  0  0  0  0
  -13.5916   -8.4525    8.8092 N   0  0  0  0  0  0  0  0  0  0  0  0
  -13.7109   -9.4569    7.4861 S   0  0  0  0  0  0  0  0  0  0  0  0
  -14.3888  -10.7502    7.8959 O   0  0  0  0  0  0  0  0  0  0  0  0
  -12.4263   -9.8330    6.8334 O   0  0  0  0  0  0  0  0  0  0  0  0
  -14.7363   -8.7287    6.2685 C   0  0  0  0  0  0  0  0  0  0  0  0
  -14.3860   -8.7419    4.9204 C   0  0  0  0  0  0  0  0  0  0  0  0
  -15.1781   -8.1749    3.9516 C   0  0  0  0  0  0  0  0  0  0  0  0
  -14.8060   -8.2069    2.6553 F   0  0  0  0  0  0  0  0  0  0  0  0
  -16.3642   -7.5647    4.2859 C   0  0  0  0  0  0  0  0  0  0  0  0
  -17.2173   -6.9550    3.2487 C   0  0  0  0  0  0  0  0  0  0  0  0
  -16.7270   -7.5419    5.6130 C   0  0  0  0  0  0  0  0  0  0  0  0
  -15.9211   -8.1160    6.5791 C   0  0  0  0  0  0  0  0  0  0  0  0
  -16.3213   -8.0687    7.8717 F   0  0  0  0  0  0  0  0  0  0  0  0
 17 18  1  0  0  0
 18  1  1  0  0  0
  1  2  1  0  0  0
  2  3  1  0  0  0
  3  4  1  0  0  0
  4  5  1  0  0  0
  5  6  1  0  0  0
  6  7  1  0  0  0
  3  8  1  0  0  0
  8  9  2  0  0  0
  9 10  1  0  0  0
 10 11  2  0  0  0
 11 15  1  0  0  0
 15 16  3  0  0  0
 11 12  1  0  0  0
 12 13  1  0  0  0
 12 14  2  0  0  0
 18 19  1  0  0  0
 19 20  2  0  0  0
 19 21  2  0  0  0
 19 22  1  0  0  0
 22 23  2  0  0  0
 23 24  1  0  0  0
 24 25  1  0  0  0
 24 26  2  0  0  0
 26 27  1  0  0  0
 26 28  1  0  0  0
 28 29  2  0  0  0
 29 30  1  0  0  0
  6  1  1  0  0  0
 14  8  1  0  0  0
 29 22  1  0  0  0
M  END
> <minimizedAffinity>
-7.31870

> <CNNscore>
0.2132453620

> <CNNaffinity>
6.9108228683

> <CNN_VS>
1.4737008810

> <CNNaffinity_variance>
0.1096488833

$$$$
[H]c1c([H])c(N2C([H])([H])C([H])([H])[C@@]([H])(C([H])([H])[H])[C@]([H])(N(C([H])([H])[H])S(=O)(=O)c3c([H])c(F)c(C([H])([H])[H])c([H])c3F)C2([H])[H])c([H])c(F)c1C#N


 30 32  0  0  0  0  0  0  0  0999 V2000
   -5.3901   -7.0958    7.5368 C   0  0  0  0  0  0  0  0  0  0  0  0
   -5.1590   -6.0565    8.5675 C   0  0  0  0  0  0  0  0  0  0  0  0
   -4.0379   -5.1929    8.3848 N   0  0  0  0  0  0  0  0  0  0  0  0
   -3.2851   -5.0549    7.1598 C   0  0  0  0  0  0  0  0  0  0  0  0
   -4.2530   -5.4438    6.0392 C   0  0  0  0  0  0  0  0  0  0  0  0
   -4.5951   -6.8970    6.2691 C   0  0  0  0  0  0  0  0  0  0  0  0
   -3.2865   -7.6999    6.3014 C   0  0  0  0  0  0  0  0  0  0  0  0
   -3.6339   -4.3984    9.5029 C   0  0  0  0  0  0  0  0  0  0  0  0
   -3.8977   -4.7731   10.8003 C   0  0  0  0  0  0  0  0  0  0  0  0
   -3.4659   -3.9510   11.8159 C   0  0  0  0  0  0  0  0  0  0  0  0
   -2.7842   -2.7728   11.6178 C   0  0  0  0  0  0  0  0  0  0  0  0
   -2.5280   -2.4123   10.3055 C   0  0  0  0  0  0  0  0  0  0  0  0
   -1.8531   -1.2505   10.0347 F   0  0  0  0  0  0  0  0  0  0  0  0
   -2.9521   -3.2221    9.2744 C   0  0  0  0  0  0  0  0  0  0  0  0
   -2.3485   -1.9387   12.7107 C   0  0  0  0  0  0  0  0  0  0  0  0
   -2.0163   -1.2802   13.5879 N   0  0  0  0  0  0  0  0  0  0  0  0
   -7.3203   -6.6888    6.1404 C   0  0  0  0  0  0  0  0  0  0  0  0
   -6.7780   -7.2578    7.2973 N   0  0  0  0  0  0  0  0  0  0  0  0
   -7.5474   -8.5631    7.9883 S   0  0  0  0  0  0  0  0  0  0  0  0
   -7.2006   -8.6285    9.4634 O   0  0  0  0  0  0  0  0  0  0  0  0
   -7.2197   -9.8959    7.4103 O   0  0  0  0  0  0  0  0  0  0  0  0
   -9.2832   -8.3543    7.9002 C   0  0  0  0  0  0  0  0  0  0  0  0
  -10.0999   -9.3052    7.2929 C   0  0  0  0  0  0  0  0  0  0  0  0
  -11.4636   -9.1575    7.2142 C   0  0  0  0  0  0  0  0  0  0  0  0
  -12.2228  -10.0998    6.6181 F   0  0  0  0  0  0  0  0  0  0  0  0
  -12.0788   -8.0464    7.7415 C   0  0  0  0  0  0  0  0  0  0  0  0
  -13.5425   -7.8843    7.6589 C   0  0  0  0  0  0  0  0  0  0  0  0
  -11.2881   -7.0961    8.3454 C   0  0  0  0  0  0  0  0  0  0  0  0
   -9.9164   -7.2561    8.4184 C   0  0  0  0  0  0  0  0  0  0  0  0
   -9.1808   -6.2936    9.0233 F   0  0  0  0  0  0  0  0  0  0  0  0
 17 18  1  0  0  0
 18  1  1  0  0  0
  1  2  1  0  0  0
  2  3  1  0  0  0
  3  4  1  0  0  0
  4  5  1  0  0  0
  5  6  1  0  0  0
  6  7  1  0  0  0
  3  8  1  0  0  0
  8  9  2  0  0  0
  9 10  1  0  0  0
 10 11  2  0  0  0
 11 15  1  0  0  0
 15 16  3  0  0  0
 11 12  1  0  0  0
 12 13  1  0  0  0
 12 14  2  0  0  0
 18 19  1  0  0  0
 19 20  2  0  0  0
 19 21  2  0  0  0
 19 22  1  0  0  0
 22 23  2  0  0  0
 23 24  1  0  0  0
 24 25  1  0  0  0
 24 26  2  0  0  0
 26 27  1  0  0  0
 26 28  1  0  0  0
 28 29  2  0  0  0
 29 30  1  0  0  0
  6  1  1  0  0  0
 14  8  1  0  0  0
 29 22  1  0  0  0
M  END
> <minimizedAffinity>
-6.36822

> <CNNscore>
0.2063689232

> <CNNaffinity>
5.9815340042

> <CNN_VS>
1.2344027758

> <CNNaffinity_variance>
0.1563804299

$$$$
[H]c1c([H])c(N2C([H])([H])C([H])([H])[C@@]([H])(C([H])([H])[H])[C@]([H])(N(C([H])([H])[H])S(=O)(=O)c3c([H])c(F)c(C([H])([H])[H])c([H])c3F)C2([H])[H])c([H])c(F)c1C#N


 30 32  0  0  0  0  0  0  0  0999 V2000
  -11.7341   -7.8669    7.8139 C   0  0  0  0  0  0  0  0  0  0  0  0
  -12.9831   -7.5412    7.0860 C   0  0  0  0  0  0  0  0  0  0  0  0
  -13.7108   -8.6289    6.5174 N   0  0  0  0  0  0  0  0  0  0  0  0
  -13.4975  -10.0238    6.8256 C   0  0  0  0  0  0  0  0  0  0  0  0
  -12.8955  -10.0442    8.2331 C   0  0  0  0  0  0  0  0  0  0  0  0
  -11.5666   -9.3337    8.1288 C   0  0  0  0  0  0  0  0  0  0  0  0
  -10.7263  -10.0407    7.0554 C   0  0  0  0  0  0  0  0  0  0  0  0
  -14.7354   -8.3090    5.5727 C   0  0  0  0  0  0  0  0  0  0  0  0
  -14.8208   -8.9296    4.3476 C   0  0  0  0  0  0  0  0  0  0  0  0
  -15.8440   -8.5646    3.5029 C   0  0  0  0  0  0  0  0  0  0  0  0
  -16.7920   -7.6147    3.8048 C   0  0  0  0  0  0  0  0  0  0  0  0
  -16.6897   -7.0011    5.0421 C   0  0  0  0  0  0  0  0  0  0  0  0
  -17.6007   -6.0449    5.4087 F   0  0  0  0  0  0  0  0  0  0  0  0
  -15.6723   -7.3528    5.9023 C   0  0  0  0  0  0  0  0  0  0  0  0
  -17.8497   -7.2604    2.8906 C   0  0  0  0  0  0  0  0  0  0  0  0
  -18.6843   -6.9629    2.1637 N   0  0  0  0  0  0  0  0  0  0  0  0
  -12.3646   -7.3337   10.0853 C   0  0  0  0  0  0  0  0  0  0  0  0
  -11.5943   -7.0385    8.9558 N   0  0  0  0  0  0  0  0  0  0  0  0
  -10.1656   -6.2056    9.1520 S   0  0  0  0  0  0  0  0  0  0  0  0
   -9.7025   -6.3329   10.5906 O   0  0  0  0  0  0  0  0  0  0  0  0
  -10.2102   -4.7496    8.8421 O   0  0  0  0  0  0  0  0  0  0  0  0
   -8.9101   -6.9239    8.1661 C   0  0  0  0  0  0  0  0  0  0  0  0
   -8.2451   -8.0809    8.5651 C   0  0  0  0  0  0  0  0  0  0  0  0
   -7.2572   -8.6579    7.8044 C   0  0  0  0  0  0  0  0  0  0  0  0
   -6.6348   -9.7790    8.2234 F   0  0  0  0  0  0  0  0  0  0  0  0
   -6.8852   -8.1030    6.6024 C   0  0  0  0  0  0  0  0  0  0  0  0
   -5.8251   -8.7196    5.7830 C   0  0  0  0  0  0  0  0  0  0  0  0
   -7.5312   -6.9598    6.1917 C   0  0  0  0  0  0  0  0  0  0  0  0
   -8.5240   -6.3882    6.9662 C   0  0  0  0  0  0  0  0  0  0  0  0
   -9.1311   -5.2636    6.5191 F   0  0  0  0  0  0  0  0  0  0  0  0
 17 18  1  0  0  0
 18  1  1  0  0  0
  1  2  1  0  0  0
  2  3  1  0  0  0
  3  4  1  0  0  0
  4  5  1  0  0  0
  5  6  1  0  0  0
  6  7  1  0  0  0
  3  8  1  0  0  0
  8  9  2  0  0  0
  9 10  1  0  0  0
 10 11  2  0  0  0
 11 15  1  0  0  0
 15 16  3  0  0  0
 11 12  1  0  0  0
 12 13  1  0  0  0
 12 14  2  0  0  0
 18 19  1  0  0  0
 19 20  2  0  0  0
 19 21  2  0  0  0
 19 22  1  0  0  0
 22 23  2  0  0  0
 23 24  1  0  0  0
 24 25  1  0  0  0
 24 26  2  0  0  0
 26 27  1  0  0  0
 26 28  1  0  0  0
 28 29  2  0  0  0
 29 30  1  0  0  0
  6  1  1  0  0  0
 14  8  1  0  0  0
 29 22  1  0  0  0
M  END
> <minimizedAffinity>
-4.42840

> <CNNscore>
0.2034417093

> <CNNaffinity>
7.0706810951

> <CNN_VS>
1.4384714365

> <CNNaffinity_variance>
0.1347671598

$$$$
[H]c1c([H])c(N2C([H])([H])C([H])([H])[C@@]([H])(C([H])([H])[H])[C@]([H])(N(C([H])([H])[H])S(=O)(=O)c3c([H])c(F)c(C([H])([H])[H])c([H])c3F)C2([H])[H])c([H])c(F)c1C#N


 30 32  0  0  0  0  0  0  0  0999 V2000
  -13.2092   -6.8720    8.2375 C   0  0  0  0  0  0  0  0  0  0  0  0
  -11.8679   -7.3501    7.8275 C   0  0  0  0  0  0  0  0  0  0  0  0
  -10.7736   -7.0467    8.6915 N   0  0  0  0  0  0  0  0  0  0  0  0
  -10.8935   -6.5718   10.0503 C   0  0  0  0  0  0  0  0  0  0  0  0
  -12.2527   -7.0769   10.5415 C   0  0  0  0  0  0  0  0  0  0  0  0
  -13.2874   -6.4041    9.6706 C   0  0  0  0  0  0  0  0  0  0  0  0
  -13.0867   -4.8850    9.7717 C   0  0  0  0  0  0  0  0  0  0  0  0
   -9.4555   -7.2343    8.1699 C   0  0  0  0  0  0  0  0  0  0  0  0
   -8.7427   -6.2070    7.5956 C   0  0  0  0  0  0  0  0  0  0  0  0
   -7.4775   -6.4756    7.1258 C   0  0  0  0  0  0  0  0  0  0  0  0
   -6.8755   -7.7106    7.1931 C   0  0  0  0  0  0  0  0  0  0  0  0
   -7.6083   -8.7319    7.7743 C   0  0  0  0  0  0  0  0  0  0  0  0
   -7.0701   -9.9885    7.8744 F   0  0  0  0  0  0  0  0  0  0  0  0
   -8.8770   -8.4831    8.2509 C   0  0  0  0  0  0  0  0  0  0  0  0
   -5.5460   -7.9510    6.6885 C   0  0  0  0  0  0  0  0  0  0  0  0
   -4.4831   -8.1325    6.3000 N   0  0  0  0  0  0  0  0  0  0  0  0
  -15.2730   -7.9976    8.7985 C   0  0  0  0  0  0  0  0  0  0  0  0
  -14.1991   -7.8349    7.9173 N   0  0  0  0  0  0  0  0  0  0  0  0
  -14.4009   -8.2522    6.3177 S   0  0  0  0  0  0  0  0  0  0  0  0
  -14.7779   -9.7183    6.2240 O   0  0  0  0  0  0  0  0  0  0  0  0
  -13.2163   -8.0559    5.4368 O   0  0  0  0  0  0  0  0  0  0  0  0
  -15.7361   -7.3561    5.6261 C   0  0  0  0  0  0  0  0  0  0  0  0
  -16.8998   -7.9951    5.2046 C   0  0  0  0  0  0  0  0  0  0  0  0
  -17.9571   -7.3079    4.6591 C   0  0  0  0  0  0  0  0  0  0  0  0
  -19.0685   -7.9611    4.2619 F   0  0  0  0  0  0  0  0  0  0  0  0
  -17.9011   -5.9422    4.5083 C   0  0  0  0  0  0  0  0  0  0  0  0
  -19.0341   -5.2010    3.9231 C   0  0  0  0  0  0  0  0  0  0  0  0
  -16.7594   -5.2935    4.9191 C   0  0  0  0  0  0  0  0  0  0  0  0
  -15.7017   -5.9963    5.4667 C   0  0  0  0  0  0  0  0  0  0  0  0
  -14.5996   -5.3132    5.8567 F   0  0  0  0  0  0  0  0  0  0  0  0
 17 18  1  0  0  0
 18  1  1  0  0  0
  1  2  1  0  0  0
  2  3  1  0  0  0
  3  4  1  0  0  0
  4  5  1  0  0  0
  5  6  1  0  0  0
  6  7  1  0  0  0
  3  8  1  0  0  0
  8  9  2  0  0  0
  9 10  1  0  0  0
 10 11  2  0  0  0
 11 15  1  0  0  0
 15 16  3  0  0  0
 11 12  1  0  0  0
 12 13  1  0  0  0
 12 14  2  0  0  0
 18 19  1  0  0  0
 19 20  2  0  0  0
 19 21  2  0  0  0
 19 22  1  0  0  0
 22 23  2  0  0  0
 23 24  1  0  0  0
 24 25  1  0  0  0
 24 26  2  0  0  0
 26 27  1  0  0  0
 26 28  1  0  0  0
 28 29  2  0  0  0
 29 30  1  0  0  0
  6  1  1  0  0  0
 14  8  1  0  0  0
 29 22  1  0  0  0
M  END
> <minimizedAffinity>
-7.51865

> <CNNscore>
0.1903676391

> <CNNaffinity>
6.9039373398

> <CNN_VS>
1.3142862320

> <CNNaffinity_variance>
0.1084918976

$$$$
[H]OC([H])([H])C(=O)[C@@]1([H])C([H])([H])C([H])([H])[C@]2(O[H])C([H])([H])[C@@]3([H])[C@]4([H])C([H])([H])C([H])([H])C([H])([H])[C@]([H])(O[H])C([H])([H])[C@]4(C([H])([H])[H])[C@@]3(C([H])([H])[H])[C@@]([H])(O[H])C([H])([H])[C@]2(C([H])([H])[H])[C@]([H])(C([H])([H])C([H])([H])[H])C1([H])[H]


 35 38  0  0  0  0  0  0  0  0999 V2000
  -16.9126   -6.1826    3.2468 C   0  0  0  0  0  0  0  0  0  0  0  0
  -18.2986   -5.6122    3.3972 C   0  0  0  0  0  0  0  0  0  0  0  0
  -18.3995   -4.4242    4.3000 C   0  0  0  0  0  0  0  0  0  0  0  0
  -17.8043   -4.7528    5.6296 C   0  0  0  0  0  0  0  0  0  0  0  0
  -18.1255   -6.1589    5.9042 C   0  0  0  0  0  0  0  0  0  0  0  0
  -17.0633   -7.1863    5.6042 C   0  0  0  0  0  0  0  0  0  0  0  0
  -17.9171   -8.3495    5.6923 O   0  0  0  0  0  0  0  0  0  0  0  0
  -16.1583   -7.3347    6.7467 C   0  0  0  0  0  0  0  0  0  0  0  0
  -14.7935   -6.8409    6.8178 C   0  0  0  0  0  0  0  0  0  0  0  0
  -14.1511   -7.3555    8.1278 C   0  0  0  0  0  0  0  0  0  0  0  0
  -13.5260   -6.2686    8.9245 C   0  0  0  0  0  0  0  0  0  0  0  0
  -13.0916   -6.7887   10.2584 C   0  0  0  0  0  0  0  0  0  0  0  0
  -12.7153   -8.2507   10.2209 C   0  0  0  0  0  0  0  0  0  0  0  0
  -11.6013   -8.5350    9.2667 C   0  0  0  0  0  0  0  0  0  0  0  0
  -10.4713   -7.8321    9.7529 O   0  0  0  0  0  0  0  0  0  0  0  0
  -11.8270   -8.0713    7.8709 C   0  0  0  0  0  0  0  0  0  0  0  0
  -13.2683   -8.2802    7.3903 C   0  0  0  0  0  0  0  0  0  0  0  0
  -13.5191   -9.7550    7.4583 C   0  0  0  0  0  0  0  0  0  0  0  0
  -13.6760   -7.6038    6.1751 C   0  0  0  0  0  0  0  0  0  0  0  0
  -12.6072   -6.6716    5.6020 C   0  0  0  0  0  0  0  0  0  0  0  0
  -14.3324   -8.2968    5.0086 C   0  0  0  0  0  0  0  0  0  0  0  0
  -15.0345   -9.4045    5.2927 O   0  0  0  0  0  0  0  0  0  0  0  0
  -14.9796   -7.2021    4.2401 C   0  0  0  0  0  0  0  0  0  0  0  0
  -16.5205   -7.2330    4.2184 C   0  0  0  0  0  0  0  0  0  0  0  0
  -16.8011   -8.5869    3.5262 C   0  0  0  0  0  0  0  0  0  0  0  0
  -18.1539   -8.4436    6.6494 H   0  0  0  0  0  0  0  0  0  0  0  0
   -9.7067   -7.9340    9.1346 H   0  0  0  0  0  0  0  0  0  0  0  0
  -14.7819  -10.2263    4.7917 H   0  0  0  0  0  0  0  0  0  0  0  0
  -15.2075   -4.5255    4.0497 C   0  0  0  0  0  0  0  0  0  0  0  0
  -15.9686   -5.1212    2.8446 C   0  0  0  0  0  0  0  0  0  0  0  0
  -19.8633   -4.1643    4.4986 C   0  0  0  0  0  0  0  0  0  0  0  0
  -20.6501   -5.0266    4.1540 O   0  0  0  0  0  0  0  0  0  0  0  0
  -20.4216   -2.9458    5.0782 C   0  0  0  0  0  0  0  0  0  0  0  0
  -21.6734   -2.7007    4.5246 O   0  0  0  0  0  0  0  0  0  0  0  0
  -22.1025   -3.5834    4.3363 H   0  0  0  0  0  0  0  0  0  0  0  0
 29 30  1  0  0  0
 30  1  1  0  0  0
  1  2  1  0  0  0
  2  3  1  0  0  0
  3  4  1  0  0  0
  4  5  1  0  0  0
  5  6  1  0  0  0
  6  7  1  0  0  0
  6  8  1  0  0  0
  8  9  1  0  0  0
  9 10  1  0  0  0
 10 11  1  0  0  0
 11 12  1  0  0  0
 12 13  1  0  0  0
 13 14  1  0  0  0
 14 15  1  0  0  0
 14 16  1  0  0  0
 16 17  1  0  0  0
 17 18  1  0  0  0
 17 19  1  0  0  0
 19 20  1  0  0  0
 19 21  1  0  0  0
 21 22  1  0  0  0
 21 23  1  0  0  0
 23 24  1  0  0  0
 24 25  1  0  0  0
  3 31  1  0  0  0
 31 32  2  0  0  0
 31 33  1  0  0  0
 33 34  1  0  0  0
 24  1  1  0  0  0
 24  6  1  0  0  0
 19  9  1  0  0  0
 17 10  1  0  0  0
  7 26  1  0  0  0
 15 27  1  0  0  0
 22 28  1  0  0  0
 34 35  1  0  0  0
M  END
> <minimizedAffinity>
2.83209

> <CNNscore>
0.4830296338

> <CNNaffinity>
7.2368211746

> <CNN_VS>
3.4955990314

> <CNNaffinity_variance>
0.9979674220

$$$$
[H]OC([H])([H])C(=O)[C@@]1([H])C([H])([H])C([H])([H])[C@]2(O[H])C([H])([H])[C@@]3([H])[C@]4([H])C([H])([H])C([H])([H])C([H])([H])[C@]([H])(O[H])C([H])([H])[C@]4(C([H])([H])[H])[C@@]3(C([H])([H])[H])[C@@]([H])(O[H])C([H])([H])[C@]2(C([H])([H])[H])[C@]([H])(C([H])([H])C([H])([H])[H])C1([H])[H]


 35 38  0  0  0  0  0  0  0  0999 V2000
   -4.3529   -6.7735    7.5577 C   0  0  0  0  0  0  0  0  0  0  0  0
   -3.6723   -6.0743    6.4101 C   0  0  0  0  0  0  0  0  0  0  0  0
   -4.3096   -4.7904    5.9837 C   0  0  0  0  0  0  0  0  0  0  0  0
   -5.7562   -5.0207    5.6933 C   0  0  0  0  0  0  0  0  0  0  0  0
   -5.8624   -6.3559    5.0918 C   0  0  0  0  0  0  0  0  0  0  0  0
   -6.2570   -7.4965    5.9957 C   0  0  0  0  0  0  0  0  0  0  0  0
   -5.8990   -8.5663    5.0917 O   0  0  0  0  0  0  0  0  0  0  0  0
   -7.7158   -7.5953    6.0874 C   0  0  0  0  0  0  0  0  0  0  0  0
   -8.5216   -7.2145    7.2352 C   0  0  0  0  0  0  0  0  0  0  0  0
   -9.9865   -7.6352    6.9698 C   0  0  0  0  0  0  0  0  0  0  0  0
  -10.9494   -6.5247    7.1857 C   0  0  0  0  0  0  0  0  0  0  0  0
  -12.3172   -6.9306    6.7355 C   0  0  0  0  0  0  0  0  0  0  0  0
  -12.5609   -8.4146    6.8729 C   0  0  0  0  0  0  0  0  0  0  0  0
  -12.4127   -8.8954    8.2797 C   0  0  0  0  0  0  0  0  0  0  0  0
  -13.4199   -8.2421    9.0320 O   0  0  0  0  0  0  0  0  0  0  0  0
  -11.1136   -8.5698    8.9284 C   0  0  0  0  0  0  0  0  0  0  0  0
   -9.9146   -8.7068    7.9822 C   0  0  0  0  0  0  0  0  0  0  0  0
   -9.8929  -10.1386    7.5439 C   0  0  0  0  0  0  0  0  0  0  0  0
   -8.6530   -8.1354    8.4092 C   0  0  0  0  0  0  0  0  0  0  0  0
   -8.7416   -7.3658    9.7282 C   0  0  0  0  0  0  0  0  0  0  0  0
   -7.3504   -8.8936    8.4244 C   0  0  0  0  0  0  0  0  0  0  0  0
   -7.2373   -9.8999    7.5438 O   0  0  0  0  0  0  0  0  0  0  0  0
   -6.3048   -7.8387    8.4622 C   0  0  0  0  0  0  0  0  0  0  0  0
   -5.4208   -7.7407    7.2034 C   0  0  0  0  0  0  0  0  0  0  0  0
   -4.7496   -9.1334    7.1776 C   0  0  0  0  0  0  0  0  0  0  0  0
   -6.5597   -8.5345    4.3545 H   0  0  0  0  0  0  0  0  0  0  0  0
  -13.3444   -8.4757    9.9897 H   0  0  0  0  0  0  0  0  0  0  0  0
   -7.0013  -10.7901    7.9206 H   0  0  0  0  0  0  0  0  0  0  0  0
   -3.1553   -5.5059    9.3623 C   0  0  0  0  0  0  0  0  0  0  0  0
   -4.5069   -5.8467    8.6964 C   0  0  0  0  0  0  0  0  0  0  0  0
   -3.6383   -4.3868    4.7045 C   0  0  0  0  0  0  0  0  0  0  0  0
   -2.7666   -5.1116    4.2617 O   0  0  0  0  0  0  0  0  0  0  0  0
   -3.9526   -3.1807    3.9436 C   0  0  0  0  0  0  0  0  0  0  0  0
   -3.2067   -3.1656    2.7702 O   0  0  0  0  0  0  0  0  0  0  0  0
   -3.0944   -4.1113    2.4671 H   0  0  0  0  0  0  0  0  0  0  0  0
 29 30  1  0  0  0
 30  1  1  0  0  0
  1  2  1  0  0  0
  2  3  1  0  0  0
  3  4  1  0  0  0
  4  5  1  0  0  0
  5  6  1  0  0  0
  6  7  1  0  0  0
  6  8  1  0  0  0
  8  9  1  0  0  0
  9 10  1  0  0  0
 10 11  1  0  0  0
 11 12  1  0  0  0
 12 13  1  0  0  0
 13 14  1  0  0  0
 14 15  1  0  0  0
 14 16  1  0  0  0
 16 17  1  0  0  0
 17 18  1  0  0  0
 17 19  1  0  0  0
 19 20  1  0  0  0
 19 21  1  0  0  0
 21 22  1  0  0  0
 21 23  1  0  0  0
 23 24  1  0  0  0
 24 25  1  0  0  0
  3 31  1  0  0  0
 31 32  2  0  0  0
 31 33  1  0  0  0
 33 34  1  0  0  0
 24  1  1  0  0  0
 24  6  1  0  0  0
 19  9  1  0  0  0
 17 10  1  0  0  0
  7 26  1  0  0  0
 15 27  1  0  0  0
 22 28  1  0  0  0
 34 35  1  0  0  0
M  END
> <minimizedAffinity>
0.80047

> <CNNscore>
0.4423268735

> <CNNaffinity>
5.9975481033

> <CNN_VS>
2.6528766155

> <CNNaffinity_variance>
0.7875711322

$$$$
[H]OC([H])([H])C(=O)[C@@]1([H])C([H])([H])C([H])([H])[C@]2(O[H])C([H])([H])[C@@]3([H])[C@]4([H])C([H])([H])C([H])([H])C([H])([H])[C@]([H])(O[H])C([H])([H])[C@]4(C([H])([H])[H])[C@@]3(C([H])([H])[H])[C@@]([H])(O[H])C([H])([H])[C@]2(C([H])([H])[H])[C@]([H])(C([H])([H])C([H])([H])[H])C1([H])[H]


 35 38  0  0  0  0  0  0  0  0999 V2000
   -2.2802   -6.8310    7.9788 C   0  0  0  0  0  0  0  0  0  0  0  0
   -1.7015   -5.5488    8.5173 C   0  0  0  0  0  0  0  0  0  0  0  0
   -2.2153   -5.1375    9.8602 C   0  0  0  0  0  0  0  0  0  0  0  0
   -3.7075   -5.0857    9.8319 C   0  0  0  0  0  0  0  0  0  0  0  0
   -4.0915   -4.5994    8.5008 C   0  0  0  0  0  0  0  0  0  0  0  0
   -4.4903   -5.6280    7.4729 C   0  0  0  0  0  0  0  0  0  0  0  0
   -4.4322   -4.7551    6.3221 O   0  0  0  0  0  0  0  0  0  0  0  0
   -5.9153   -5.9459    7.5938 C   0  0  0  0  0  0  0  0  0  0  0  0
   -6.4673   -7.1739    8.1408 C   0  0  0  0  0  0  0  0  0  0  0  0
   -7.9997   -7.1625    7.9282 C   0  0  0  0  0  0  0  0  0  0  0  0
   -8.7532   -7.4456    9.1768 C   0  0  0  0  0  0  0  0  0  0  0  0
  -10.2181   -7.2363    8.9561 C   0  0  0  0  0  0  0  0  0  0  0  0
  -10.6392   -7.5095    7.5319 C   0  0  0  0  0  0  0  0  0  0  0  0
  -10.3362   -8.9072    7.0992 C   0  0  0  0  0  0  0  0  0  0  0  0
  -11.1106   -9.7570    7.9270 O   0  0  0  0  0  0  0  0  0  0  0  0
   -8.9179   -9.3281    7.2596 C   0  0  0  0  0  0  0  0  0  0  0  0
   -7.9158   -8.2228    6.9049 C   0  0  0  0  0  0  0  0  0  0  0  0
   -8.1620   -7.8847    5.4670 C   0  0  0  0  0  0  0  0  0  0  0  0
   -6.5355   -8.4141    7.3036 C   0  0  0  0  0  0  0  0  0  0  0  0
   -6.3056   -9.6759    8.1372 C   0  0  0  0  0  0  0  0  0  0  0  0
   -5.3645   -8.2835    6.3638 C   0  0  0  0  0  0  0  0  0  0  0  0
   -5.5332   -7.4664    5.3128 O   0  0  0  0  0  0  0  0  0  0  0  0
   -4.1908   -8.0909    7.2542 C   0  0  0  0  0  0  0  0  0  0  0  0
   -3.5140   -6.7090    7.1638 C   0  0  0  0  0  0  0  0  0  0  0  0
   -3.0542   -6.6767    5.6879 C   0  0  0  0  0  0  0  0  0  0  0  0
   -5.1913   -4.1260    6.4169 H   0  0  0  0  0  0  0  0  0  0  0  0
  -10.9162  -10.7059    7.7287 H   0  0  0  0  0  0  0  0  0  0  0  0
   -5.3653   -7.8628    4.4156 H   0  0  0  0  0  0  0  0  0  0  0  0
   -1.0611   -8.9520    8.5382 C   0  0  0  0  0  0  0  0  0  0  0  0
   -2.1211   -7.9142    8.9691 C   0  0  0  0  0  0  0  0  0  0  0  0
   -1.7075   -3.7470   10.1021 C   0  0  0  0  0  0  0  0  0  0  0  0
   -1.0630   -3.2110    9.2196 O   0  0  0  0  0  0  0  0  0  0  0  0
   -1.9285   -2.9807   11.3254 C   0  0  0  0  0  0  0  0  0  0  0  0
   -1.4132   -3.6812   12.4104 O   0  0  0  0  0  0  0  0  0  0  0  0
   -0.6066   -4.1810   12.0964 H   0  0  0  0  0  0  0  0  0  0  0  0
 29 30  1  0  0  0
 30  1  1  0  0  0
  1  2  1  0  0  0
  2  3  1  0  0  0
  3  4  1  0  0  0
  4  5  1  0  0  0
  5  6  1  0  0  0
  6  7  1  0  0  0
  6  8  1  0  0  0
  8  9  1  0  0  0
  9 10  1  0  0  0
 10 11  1  0  0  0
 11 12  1  0  0  0
 12 13  1  0  0  0
 13 14  1  0  0  0
 14 15  1  0  0  0
 14 16  1  0  0  0
 16 17  1  0  0  0
 17 18  1  0  0  0
 17 19  1  0  0  0
 19 20  1  0  0  0
 19 21  1  0  0  0
 21 22  1  0  0  0
 21 23  1  0  0  0
 23 24  1  0  0  0
 24 25  1  0  0  0
  3 31  1  0  0  0
 31 32  2  0  0  0
 31 33  1  0  0  0
 33 34  1  0  0  0
 24  1  1  0  0  0
 24  6  1  0  0  0
 19  9  1  0  0  0
 17 10  1  0  0  0
  7 26  1  0  0  0
 15 27  1  0  0  0
 22 28  1  0  0  0
 34 35  1  0  0  0
M  END
> <minimizedAffinity>
-2.48749

> <CNNscore>
0.4346393347

> <CNNaffinity>
5.7350721359

> <CNN_VS>
2.4926879406

> <CNNaffinity_variance>
0.6887200475

$$$$
[H]OC([H])([H])C(=O)[C@@]1([H])C([H])([H])C([H])([H])[C@]2(O[H])C([H])([H])[C@@]3([H])[C@]4([H])C([H])([H])C([H])([H])C([H])([H])[C@]([H])(O[H])C([H])([H])[C@]4(C([H])([H])[H])[C@@]3(C([H])([H])[H])[C@@]([H])(O[H])C([H])([H])[C@]2(C([H])([H])[H])[C@]([H])(C([H])([H])C([H])([H])[H])C1([H])[H]


 35 38  0  0  0  0  0  0  0  0999 V2000
   -7.9569   -9.2841    8.6296 C   0  0  0  0  0  0  0  0  0  0  0  0
   -9.4594   -9.1768    8.6286 C   0  0  0  0  0  0  0  0  0  0  0  0
  -10.0788   -8.9802    7.2817 C   0  0  0  0  0  0  0  0  0  0  0  0
   -9.4536   -7.8025    6.6092 C   0  0  0  0  0  0  0  0  0  0  0  0
   -9.1737   -6.8129    7.6571 C   0  0  0  0  0  0  0  0  0  0  0  0
   -7.7704   -6.7595    8.2062 C   0  0  0  0  0  0  0  0  0  0  0  0
   -8.0680   -5.9476    9.3646 O   0  0  0  0  0  0  0  0  0  0  0  0
   -6.9308   -5.8882    7.3802 C   0  0  0  0  0  0  0  0  0  0  0  0
   -5.8972   -6.3305    6.4593 C   0  0  0  0  0  0  0  0  0  0  0  0
   -5.1513   -5.0862    5.9218 C   0  0  0  0  0  0  0  0  0  0  0  0
   -5.0646   -5.0668    4.4389 C   0  0  0  0  0  0  0  0  0  0  0  0
   -4.5063   -3.7603    3.9701 C   0  0  0  0  0  0  0  0  0  0  0  0
   -3.5569   -3.1394    4.9669 C   0  0  0  0  0  0  0  0  0  0  0  0
   -2.3887   -4.0186    5.2751 C   0  0  0  0  0  0  0  0  0  0  0  0
   -1.6717   -4.1678    4.0623 O   0  0  0  0  0  0  0  0  0  0  0  0
   -2.7314   -5.3892    5.7423 C   0  0  0  0  0  0  0  0  0  0  0  0
   -3.9364   -5.4208    6.6903 C   0  0  0  0  0  0  0  0  0  0  0  0
   -3.5560   -4.5856    7.8737 C   0  0  0  0  0  0  0  0  0  0  0  0
   -4.5399   -6.7091    6.9672 C   0  0  0  0  0  0  0  0  0  0  0  0
   -3.9319   -7.8587    6.1617 C   0  0  0  0  0  0  0  0  0  0  0  0
   -4.8037   -7.2313    8.3562 C   0  0  0  0  0  0  0  0  0  0  0  0
   -4.9942   -6.3092    9.3124 O   0  0  0  0  0  0  0  0  0  0  0  0
   -5.8157   -8.3025    8.1664 C   0  0  0  0  0  0  0  0  0  0  0  0
   -7.2031   -8.0142    8.7730 C   0  0  0  0  0  0  0  0  0  0  0  0
   -6.8701   -7.8781   10.2767 C   0  0  0  0  0  0  0  0  0  0  0  0
   -8.2819   -5.0445    9.0186 H   0  0  0  0  0  0  0  0  0  0  0  0
   -0.9100   -4.7863    4.1833 H   0  0  0  0  0  0  0  0  0  0  0  0
   -4.4043   -6.3750   10.1111 H   0  0  0  0  0  0  0  0  0  0  0  0
   -6.8822  -11.5398    8.3957 C   0  0  0  0  0  0  0  0  0  0  0  0
   -7.5226  -10.3290    7.6815 C   0  0  0  0  0  0  0  0  0  0  0  0
  -11.5253   -8.6637    7.5211 C   0  0  0  0  0  0  0  0  0  0  0  0
  -11.9965   -8.9279    8.6117 O   0  0  0  0  0  0  0  0  0  0  0  0
  -12.4191   -8.0582    6.5378 C   0  0  0  0  0  0  0  0  0  0  0  0
  -12.2333   -6.6802    6.5294 O   0  0  0  0  0  0  0  0  0  0  0  0
  -11.2699   -6.5004    6.7257 H   0  0  0  0  0  0  0  0  0  0  0  0
 29 30  1  0  0  0
 30  1  1  0  0  0
  1  2  1  0  0  0
  2  3  1  0  0  0
  3  4  1  0  0  0
  4  5  1  0  0  0
  5  6  1  0  0  0
  6  7  1  0  0  0
  6  8  1  0  0  0
  8  9  1  0  0  0
  9 10  1  0  0  0
 10 11  1  0  0  0
 11 12  1  0  0  0
 12 13  1  0  0  0
 13 14  1  0  0  0
 14 15  1  0  0  0
 14 16  1  0  0  0
 16 17  1  0  0  0
 17 18  1  0  0  0
 17 19  1  0  0  0
 19 20  1  0  0  0
 19 21  1  0  0  0
 21 22  1  0  0  0
 21 23  1  0  0  0
 23 24  1  0  0  0
 24 25  1  0  0  0
  3 31  1  0  0  0
 31 32  2  0  0  0
 31 33  1  0  0  0
 33 34  1  0  0  0
 24  1  1  0  0  0
 24  6  1  0  0  0
 19  9  1  0  0  0
 17 10  1  0  0  0
  7 26  1  0  0  0
 15 27  1  0  0  0
 22 28  1  0  0  0
 34 35  1  0  0  0
M  END
> <minimizedAffinity>
7.33677

> <CNNscore>
0.4088341892

> <CNNaffinity>
5.7110700607

> <CNN_VS>
2.3348805904

> <CNNaffinity_variance>
0.9943159819

$$$$
[H]OC([H])([H])C(=O)[C@@]1([H])C([H])([H])C([H])([H])[C@]2(O[H])C([H])([H])[C@@]3([H])[C@]4([H])C([H])([H])C([H])([H])C([H])([H])[C@]([H])(O[H])C([H])([H])[C@]4(C([H])([H])[H])[C@@]3(C([H])([H])[H])[C@@]([H])(O[H])C([H])([H])[C@]2(C([H])([H])[H])[C@]([H])(C([H])([H])C([H])([H])[H])C1([H])[H]


 35 38  0  0  0  0  0  0  0  0999 V2000
   -5.1954   -8.4238    6.9003 C   0  0  0  0  0  0  0  0  0  0  0  0
   -3.9647   -7.6001    7.1761 C   0  0  0  0  0  0  0  0  0  0  0  0
   -3.7483   -7.2473    8.6131 C   0  0  0  0  0  0  0  0  0  0  0  0
   -4.9722   -6.5870    9.1572 C   0  0  0  0  0  0  0  0  0  0  0  0
   -5.5325   -5.7700    8.0737 C   0  0  0  0  0  0  0  0  0  0  0  0
   -6.6701   -6.3571    7.2768 C   0  0  0  0  0  0  0  0  0  0  0  0
   -6.6314   -5.4039    6.1907 O   0  0  0  0  0  0  0  0  0  0  0  0
   -7.9503   -6.0810    7.9333 C   0  0  0  0  0  0  0  0  0  0  0  0
   -8.7625   -7.0495    8.6505 C   0  0  0  0  0  0  0  0  0  0  0  0
  -10.1008   -6.3780    9.0397 C   0  0  0  0  0  0  0  0  0  0  0  0
  -10.4221   -6.5345   10.4816 C   0  0  0  0  0  0  0  0  0  0  0  0
  -11.6198   -5.7116   10.8375 C   0  0  0  0  0  0  0  0  0  0  0  0
  -12.5782   -5.5452    9.6824 C   0  0  0  0  0  0  0  0  0  0  0  0
  -13.0926   -6.8501    9.1676 C   0  0  0  0  0  0  0  0  0  0  0  0
  -13.8258   -7.4358   10.2290 O   0  0  0  0  0  0  0  0  0  0  0  0
  -12.0476   -7.8337    8.7740 C   0  0  0  0  0  0  0  0  0  0  0  0
  -10.8505   -7.1914    8.0626 C   0  0  0  0  0  0  0  0  0  0  0  0
  -11.3988   -6.5455    6.8278 C   0  0  0  0  0  0  0  0  0  0  0  0
   -9.6539   -7.9936    7.9036 C   0  0  0  0  0  0  0  0  0  0  0  0
   -9.7343   -9.3599    8.5868 C   0  0  0  0  0  0  0  0  0  0  0  0
   -8.9479   -8.1962    6.5875 C   0  0  0  0  0  0  0  0  0  0  0  0
   -9.0877   -7.2173    5.6803 O   0  0  0  0  0  0  0  0  0  0  0  0
   -7.5842   -8.6523    6.9617 C   0  0  0  0  0  0  0  0  0  0  0  0
   -6.4440   -7.6735    6.6186 C   0  0  0  0  0  0  0  0  0  0  0  0
   -6.5550   -7.5839    5.0790 C   0  0  0  0  0  0  0  0  0  0  0  0
   -6.9503   -4.5455    6.5681 H   0  0  0  0  0  0  0  0  0  0  0  0
  -14.1517   -8.3331    9.9720 H   0  0  0  0  0  0  0  0  0  0  0  0
   -9.4313   -7.4906    4.7873 H   0  0  0  0  0  0  0  0  0  0  0  0
   -6.6225   -9.9978    8.2357 C   0  0  0  0  0  0  0  0  0  0  0  0
   -5.2020   -9.6273    7.7552 C   0  0  0  0  0  0  0  0  0  0  0  0
   -2.6303   -6.2478    8.6418 C   0  0  0  0  0  0  0  0  0  0  0  0
   -2.6130   -5.4335    9.5463 O   0  0  0  0  0  0  0  0  0  0  0  0
   -1.5522   -6.1757    7.6594 C   0  0  0  0  0  0  0  0  0  0  0  0
   -2.0445   -5.6528    6.4688 O   0  0  0  0  0  0  0  0  0  0  0  0
   -2.7573   -4.9905    6.6973 H   0  0  0  0  0  0  0  0  0  0  0  0
 29 30  1  0  0  0
 30  1  1  0  0  0
  1  2  1  0  0  0
  2  3  1  0  0  0
  3  4  1  0  0  0
  4  5  1  0  0  0
  5  6  1  0  0  0
  6  7  1  0  0  0
  6  8  1  0  0  0
  8  9  1  0  0  0
  9 10  1  0  0  0
 10 11  1  0  0  0
 11 12  1  0  0  0
 12 13  1  0  0  0
 13 14  1  0  0  0
 14 15  1  0  0  0
 14 16  1  0  0  0
 16 17  1  0  0  0
 17 18  1  0  0  0
 17 19  1  0  0  0
 19 20  1  0  0  0
 19 21  1  0  0  0
 21 22  1  0  0  0
 21 23  1  0  0  0
 23 24  1  0  0  0
 24 25  1  0  0  0
  3 31  1  0  0  0
 31 32  2  0  0  0
 31 33  1  0  0  0
 33 34  1  0  0  0
 24  1  1  0  0  0
 24  6  1  0  0  0
 19  9  1  0  0  0
 17 10  1  0  0  0
  7 26  1  0  0  0
 15 27  1  0  0  0
 22 28  1  0  0  0
 34 35  1  0  0  0
M  END
> <minimizedAffinity>
4.69977

> <CNNscore>
0.4000657201

> <CNNaffinity>
5.9310202599

> <CNN_VS>
2.3727979660

> <CNNaffinity_variance>
0.6852678061

$$$$
[H]OC([H])([H])C(=O)[C@@]1([H])C([H])([H])C([H])([H])[C@]2(O[H])C([H])([H])[C@@]3([H])[C@]4([H])C([H])([H])C([H])([H])C([H])([H])[C@]([H])(O[H])C([H])([H])[C@]4(C([H])([H])[H])[C@@]3(C([H])([H])[H])[C@@]([H])(O[H])C([H])([H])[C@]2(C([H])([H])[H])[C@]([H])(C([H])([H])C([H])([H])[H])C1([H])[H]


 35 38  0  0  0  0  0  0  0  0999 V2000
  -13.5412   -8.2922   10.2986 C   0  0  0  0  0  0  0  0  0  0  0  0
  -12.4817   -7.4188   10.9180 C   0  0  0  0  0  0  0  0  0  0  0  0
  -12.8456   -5.9735   11.0415 C   0  0  0  0  0  0  0  0  0  0  0  0
  -13.2677   -5.4470    9.7093 C   0  0  0  0  0  0  0  0  0  0  0  0
  -12.4297   -6.1119    8.7037 C   0  0  0  0  0  0  0  0  0  0  0  0
  -13.0143   -7.3041    7.9892 C   0  0  0  0  0  0  0  0  0  0  0  0
  -11.7784   -7.7852    7.4141 O   0  0  0  0  0  0  0  0  0  0  0  0
  -13.7918   -6.8719    6.8251 C   0  0  0  0  0  0  0  0  0  0  0  0
  -15.2415   -6.8734    6.7249 C   0  0  0  0  0  0  0  0  0  0  0  0
  -15.6355   -6.4983    5.2766 C   0  0  0  0  0  0  0  0  0  0  0  0
  -16.6306   -5.3967    5.2208 C   0  0  0  0  0  0  0  0  0  0  0  0
  -16.8305   -4.9508    3.8067 C   0  0  0  0  0  0  0  0  0  0  0  0
  -16.6147   -6.0625    2.8077 C   0  0  0  0  0  0  0  0  0  0  0  0
  -17.5338   -7.2201    3.0259 C   0  0  0  0  0  0  0  0  0  0  0  0
  -18.8470   -6.7305    2.8187 O   0  0  0  0  0  0  0  0  0  0  0  0
  -17.5048   -7.8047    4.3940 C   0  0  0  0  0  0  0  0  0  0  0  0
  -16.0945   -7.8720    4.9926 C   0  0  0  0  0  0  0  0  0  0  0  0
  -15.2949   -8.7445    4.0749 C   0  0  0  0  0  0  0  0  0  0  0  0
  -15.9792   -8.1391    6.4125 C   0  0  0  0  0  0  0  0  0  0  0  0
  -17.3250   -8.2062    7.1367 C   0  0  0  0  0  0  0  0  0  0  0  0
  -15.1073   -9.2217    6.9949 C   0  0  0  0  0  0  0  0  0  0  0  0
  -14.0326   -9.5733    6.2723 O   0  0  0  0  0  0  0  0  0  0  0  0
  -14.9319   -8.8343    8.4186 C   0  0  0  0  0  0  0  0  0  0  0  0
  -13.4980   -8.4391    8.8229 C   0  0  0  0  0  0  0  0  0  0  0  0
  -12.7179   -9.7443    8.5423 C   0  0  0  0  0  0  0  0  0  0  0  0
  -11.5231   -7.1247    6.7216 H   0  0  0  0  0  0  0  0  0  0  0  0
  -19.5137   -7.4374    3.0009 H   0  0  0  0  0  0  0  0  0  0  0  0
  -13.9494  -10.5393    6.0487 H   0  0  0  0  0  0  0  0  0  0  0  0
  -14.8902   -8.9653   12.3049 C   0  0  0  0  0  0  0  0  0  0  0  0
  -14.8214   -8.1204   11.0135 C   0  0  0  0  0  0  0  0  0  0  0  0
  -11.5947   -5.2535   11.4496 C   0  0  0  0  0  0  0  0  0  0  0  0
  -11.2083   -4.3353   10.7504 O   0  0  0  0  0  0  0  0  0  0  0  0
  -10.7981   -5.5724   12.6312 C   0  0  0  0  0  0  0  0  0  0  0  0
  -11.4990   -5.2066   13.7751 O   0  0  0  0  0  0  0  0  0  0  0  0
  -12.4723   -5.3438   13.5943 H   0  0  0  0  0  0  0  0  0  0  0  0
 29 30  1  0  0  0
 30  1  1  0  0  0
  1  2  1  0  0  0
  2  3  1  0  0  0
  3  4  1  0  0  0
  4  5  1  0  0  0
  5  6  1  0  0  0
  6  7  1  0  0  0
  6  8  1  0  0  0
  8  9  1  0  0  0
  9 10  1  0  0  0
 10 11  1  0  0  0
 11 12  1  0  0  0
 12 13  1  0  0  0
 13 14  1  0  0  0
 14 15  1  0  0  0
 14 16  1  0  0  0
 16 17  1  0  0  0
 17 18  1  0  0  0
 17 19  1  0  0  0
 19 20  1  0  0  0
 19 21  1  0  0  0
 21 22  1  0  0  0
 21 23  1  0  0  0
 23 24  1  0  0  0
 24 25  1  0  0  0
  3 31  1  0  0  0
 31 32  2  0  0  0
 31 33  1  0  0  0
 33 34  1  0  0  0
 24  1  1  0  0  0
 24  6  1  0  0  0
 19  9  1  0  0  0
 17 10  1  0  0  0
  7 26  1  0  0  0
 15 27  1  0  0  0
 22 28  1  0  0  0
 34 35  1  0  0  0
M  END
> <minimizedAffinity>
-1.37635

> <CNNscore>
0.3973647654

> <CNNaffinity>
6.7460632324

> <CNN_VS>
2.6806478500

> <CNNaffinity_variance>
0.2059343755

$$$$
[H]OC([H])([H])C(=O)[C@@]1([H])C([H])([H])C([H])([H])[C@]2(O[H])C([H])([H])[C@@]3([H])[C@]4([H])C([H])([H])C([H])([H])C([H])([H])[C@]([H])(O[H])C([H])([H])[C@]4(C([H])([H])[H])[C@@]3(C([H])([H])[H])[C@@]([H])(O[H])C([H])([H])[C@]2(C([H])([H])[H])[C@]([H])(C([H])([H])C([H])([H])[H])C1([H])[H]


 35 38  0  0  0  0  0  0  0  0999 V2000
  -15.1911   -7.8623    4.1615 C   0  0  0  0  0  0  0  0  0  0  0  0
  -16.6161   -7.5288    3.8048 C   0  0  0  0  0  0  0  0  0  0  0  0
  -17.0119   -6.1065    4.0433 C   0  0  0  0  0  0  0  0  0  0  0  0
  -16.7077   -5.7315    5.4563 C   0  0  0  0  0  0  0  0  0  0  0  0
  -16.9700   -6.9195    6.2781 C   0  0  0  0  0  0  0  0  0  0  0  0
  -15.7896   -7.7783    6.6560 C   0  0  0  0  0  0  0  0  0  0  0  0
  -16.5462   -8.9209    7.1159 O   0  0  0  0  0  0  0  0  0  0  0  0
  -15.1567   -7.2696    7.8754 C   0  0  0  0  0  0  0  0  0  0  0  0
  -13.8866   -6.5666    7.9424 C   0  0  0  0  0  0  0  0  0  0  0  0
  -13.5175   -6.3571    9.4302 C   0  0  0  0  0  0  0  0  0  0  0  0
  -13.1764   -4.9454    9.7423 C   0  0  0  0  0  0  0  0  0  0  0  0
  -13.0141   -4.7663   11.2188 C   0  0  0  0  0  0  0  0  0  0  0  0
  -12.5244   -6.0172   11.9086 C   0  0  0  0  0  0  0  0  0  0  0  0
  -11.2049   -6.4847   11.3862 C   0  0  0  0  0  0  0  0  0  0  0  0
  -10.2731   -5.4597   11.6836 O   0  0  0  0  0  0  0  0  0  0  0  0
  -11.1461   -6.7044    9.9156 C   0  0  0  0  0  0  0  0  0  0  0  0
  -12.4206   -7.3412    9.3483 C   0  0  0  0  0  0  0  0  0  0  0  0
  -12.5626   -8.6662   10.0317 C   0  0  0  0  0  0  0  0  0  0  0  0
  -12.5961   -7.3265    7.9097 C   0  0  0  0  0  0  0  0  0  0  0  0
  -11.5029   -6.5584    7.1648 C   0  0  0  0  0  0  0  0  0  0  0  0
  -12.9154   -8.5506    7.0904 C   0  0  0  0  0  0  0  0  0  0  0  0
  -13.5734   -9.5347    7.7224 O   0  0  0  0  0  0  0  0  0  0  0  0
  -13.4573   -8.0151    5.8148 C   0  0  0  0  0  0  0  0  0  0  0  0
  -14.9462   -8.3158    5.5528 C   0  0  0  0  0  0  0  0  0  0  0  0
  -14.9553   -9.8614    5.5102 C   0  0  0  0  0  0  0  0  0  0  0  0
  -16.9845   -8.6384    7.9579 H   0  0  0  0  0  0  0  0  0  0  0  0
   -9.3831   -5.6821   11.3150 H   0  0  0  0  0  0  0  0  0  0  0  0
  -13.1499  -10.4348    7.6963 H   0  0  0  0  0  0  0  0  0  0  0  0
  -14.1510   -5.5795    4.2315 C   0  0  0  0  0  0  0  0  0  0  0  0
  -14.2679   -6.9282    3.4874 C   0  0  0  0  0  0  0  0  0  0  0  0
  -18.4987   -6.0418    3.8559 C   0  0  0  0  0  0  0  0  0  0  0  0
  -19.0738   -7.0489    3.4865 O   0  0  0  0  0  0  0  0  0  0  0  0
  -19.3159   -4.8534    4.0843 C   0  0  0  0  0  0  0  0  0  0  0  0
  -18.7547   -4.0944    5.1054 O   0  0  0  0  0  0  0  0  0  0  0  0
  -17.7620   -4.1969    5.0523 H   0  0  0  0  0  0  0  0  0  0  0  0
 29 30  1  0  0  0
 30  1  1  0  0  0
  1  2  1  0  0  0
  2  3  1  0  0  0
  3  4  1  0  0  0
  4  5  1  0  0  0
  5  6  1  0  0  0
  6  7  1  0  0  0
  6  8  1  0  0  0
  8  9  1  0  0  0
  9 10  1  0  0  0
 10 11  1  0  0  0
 11 12  1  0  0  0
 12 13  1  0  0  0
 13 14  1  0  0  0
 14 15  1  0  0  0
 14 16  1  0  0  0
 16 17  1  0  0  0
 17 18  1  0  0  0
 17 19  1  0  0  0
 19 20  1  0  0  0
 19 21  1  0  0  0
 21 22  1  0  0  0
 21 23  1  0  0  0
 23 24  1  0  0  0
 24 25  1  0  0  0
  3 31  1  0  0  0
 31 32  2  0  0  0
 31 33  1  0  0  0
 33 34  1  0  0  0
 24  1  1  0  0  0
 24  6  1  0  0  0
 19  9  1  0  0  0
 17 10  1  0  0  0
  7 26  1  0  0  0
 15 27  1  0  0  0
 22 28  1  0  0  0
 34 35  1  0  0  0
M  END
> <minimizedAffinity>
0.24062

> <CNNscore>
0.3464483619

> <CNNaffinity>
6.7678861618

> <CNN_VS>
2.3447229862

> <CNNaffinity_variance>
0.3098496795

$$$$
[H]OC([H])([H])C(=O)[C@@]1([H])C([H])([H])C([H])([H])[C@]2(O[H])C([H])([H])[C@@]3([H])[C@]4([H])C([H])([H])C([H])([H])C([H])([H])[C@]([H])(O[H])C([H])([H])[C@]4(C([H])([H])[H])[C@@]3(C([H])([H])[H])[C@@]([H])(O[H])C([H])([H])[C@]2(C([H])([H])[H])[C@]([H])(C([H])([H])C([H])([H])[H])C1([H])[H]


 35 38  0  0  0  0  0  0  0  0999 V2000
  -16.3155   -8.5061    6.3951 C   0  0  0  0  0  0  0  0  0  0  0  0
  -17.1420   -7.4198    5.7579 C   0  0  0  0  0  0  0  0  0  0  0  0
  -16.5994   -6.8841    4.4714 C   0  0  0  0  0  0  0  0  0  0  0  0
  -15.1868   -6.4417    4.6684 C   0  0  0  0  0  0  0  0  0  0  0  0
  -15.1027   -5.8751    6.0203 C   0  0  0  0  0  0  0  0  0  0  0  0
  -14.5725   -6.7654    7.1158 C   0  0  0  0  0  0  0  0  0  0  0  0
  -14.9918   -5.9417    8.2272 O   0  0  0  0  0  0  0  0  0  0  0  0
  -13.1100   -6.6968    7.1675 C   0  0  0  0  0  0  0  0  0  0  0  0
  -12.1956   -7.7347    6.7221 C   0  0  0  0  0  0  0  0  0  0  0  0
  -10.7556   -7.3211    7.1079 C   0  0  0  0  0  0  0  0  0  0  0  0
   -9.8128   -7.3926    5.9621 C   0  0  0  0  0  0  0  0  0  0  0  0
   -8.4902   -6.8058    6.3425 C   0  0  0  0  0  0  0  0  0  0  0  0
   -8.1829   -6.9625    7.8127 C   0  0  0  0  0  0  0  0  0  0  0  0
   -8.1584   -8.3919    8.2474 C   0  0  0  0  0  0  0  0  0  0  0  0
   -7.0968   -9.0057    7.5379 O   0  0  0  0  0  0  0  0  0  0  0  0
   -9.3881   -9.1707    7.9381 C   0  0  0  0  0  0  0  0  0  0  0  0
  -10.6790   -8.3690    8.1445 C   0  0  0  0  0  0  0  0  0  0  0  0
  -10.7007   -7.9819    9.5910 C   0  0  0  0  0  0  0  0  0  0  0  0
  -11.9043   -8.9156    7.5964 C   0  0  0  0  0  0  0  0  0  0  0  0
  -11.6964  -10.1912    6.7780 C   0  0  0  0  0  0  0  0  0  0  0  0
  -13.1708   -9.1003    8.3923 C   0  0  0  0  0  0  0  0  0  0  0  0
  -13.3466   -8.2705    9.4321 O   0  0  0  0  0  0  0  0  0  0  0  0
  -14.2409   -9.2208    7.3685 C   0  0  0  0  0  0  0  0  0  0  0  0
  -15.2614   -8.0660    7.3418 C   0  0  0  0  0  0  0  0  0  0  0  0
  -15.8839   -8.1598    8.7541 C   0  0  0  0  0  0  0  0  0  0  0  0
  -14.4182   -5.1347    8.2019 H   0  0  0  0  0  0  0  0  0  0  0  0
   -7.0581   -9.9728    7.7395 H   0  0  0  0  0  0  0  0  0  0  0  0
  -13.5093   -8.6996   10.3150 H   0  0  0  0  0  0  0  0  0  0  0  0
  -14.6378   -9.5418    4.8426 C   0  0  0  0  0  0  0  0  0  0  0  0
  -16.0681   -9.5903    5.4242 C   0  0  0  0  0  0  0  0  0  0  0  0
  -17.4212   -5.6756    4.1338 C   0  0  0  0  0  0  0  0  0  0  0  0
  -17.3399   -4.7054    4.8641 O   0  0  0  0  0  0  0  0  0  0  0  0
  -18.3191   -5.5730    2.9867 C   0  0  0  0  0  0  0  0  0  0  0  0
  -17.8708   -4.5688    2.1358 O   0  0  0  0  0  0  0  0  0  0  0  0
  -16.8725   -4.5540    2.1796 H   0  0  0  0  0  0  0  0  0  0  0  0
 29 30  1  0  0  0
 30  1  1  0  0  0
  1  2  1  0  0  0
  2  3  1  0  0  0
  3  4  1  0  0  0
  4  5  1  0  0  0
  5  6  1  0  0  0
  6  7  1  0  0  0
  6  8  1  0  0  0
  8  9  1  0  0  0
  9 10  1  0  0  0
 10 11  1  0  0  0
 11 12  1  0  0  0
 12 13  1  0  0  0
 13 14  1  0  0  0
 14 15  1  0  0  0
 14 16  1  0  0  0
 16 17  1  0  0  0
 17 18  1  0  0  0
 17 19  1  0  0  0
 19 20  1  0  0  0
 19 21  1  0  0  0
 21 22  1  0  0  0
 21 23  1  0  0  0
 23 24  1  0  0  0
 24 25  1  0  0  0
  3 31  1  0  0  0
 31 32  2  0  0  0
 31 33  1  0  0  0
 33 34  1  0  0  0
 24  1  1  0  0  0
 24  6  1  0  0  0
 19  9  1  0  0  0
 17 10  1  0  0  0
  7 26  1  0  0  0
 15 27  1  0  0  0
 22 28  1  0  0  0
 34 35  1  0  0  0
M  END
> <minimizedAffinity>
4.53459

> <CNNscore>
0.3452849388

> <CNNaffinity>
6.7178244591

> <CNN_VS>
2.3195636272

> <CNNaffinity_variance>
0.8753519058

$$$$
[H]OC([H])([H])C(=O)[C@@]1([H])C([H])([H])C([H])([H])[C@]2(O[H])C([H])([H])[C@@]3([H])[C@]4([H])C([H])([H])C([H])([H])C([H])([H])[C@]([H])(O[H])C([H])([H])[C@]4(C([H])([H])[H])[C@@]3(C([H])([H])[H])[C@@]([H])(O[H])C([H])([H])[C@]2(C([H])([H])[H])[C@]([H])(C([H])([H])C([H])([H])[H])C1([H])[H]


 35 38  0  0  0  0  0  0  0  0999 V2000
  -10.6464   -9.4322    7.4507 C   0  0  0  0  0  0  0  0  0  0  0  0
  -11.9567   -8.7489    7.7425 C   0  0  0  0  0  0  0  0  0  0  0  0
  -12.3889   -7.7462    6.7206 C   0  0  0  0  0  0  0  0  0  0  0  0
  -11.2980   -6.7501    6.5027 C   0  0  0  0  0  0  0  0  0  0  0  0
  -10.6539   -6.5325    7.8040 C   0  0  0  0  0  0  0  0  0  0  0  0
   -9.3815   -7.2911    8.0858 C   0  0  0  0  0  0  0  0  0  0  0  0
   -9.3385   -7.0360    9.5080 O   0  0  0  0  0  0  0  0  0  0  0  0
   -8.2237   -6.5578    7.5681 C   0  0  0  0  0  0  0  0  0  0  0  0
   -7.4512   -6.9140    6.3899 C   0  0  0  0  0  0  0  0  0  0  0  0
   -6.2270   -5.9723    6.3004 C   0  0  0  0  0  0  0  0  0  0  0  0
   -6.0934   -5.3319    4.9666 C   0  0  0  0  0  0  0  0  0  0  0  0
   -5.0141   -4.2963    4.9954 C   0  0  0  0  0  0  0  0  0  0  0  0
   -3.9222   -4.6180    5.9877 C   0  0  0  0  0  0  0  0  0  0  0  0
   -3.2546   -5.9248    5.7066 C   0  0  0  0  0  0  0  0  0  0  0  0
   -2.6329   -5.7903    4.4407 O   0  0  0  0  0  0  0  0  0  0  0  0
   -4.1668   -7.0969    5.6142 C   0  0  0  0  0  0  0  0  0  0  0  0
   -5.2982   -7.0651    6.6490 C   0  0  0  0  0  0  0  0  0  0  0  0
   -4.6339   -7.0717    7.9911 C   0  0  0  0  0  0  0  0  0  0  0  0
   -6.4044   -7.9829    6.4634 C   0  0  0  0  0  0  0  0  0  0  0  0
   -6.3233   -8.7893    5.1660 C   0  0  0  0  0  0  0  0  0  0  0  0
   -6.9106   -8.9148    7.5344 C   0  0  0  0  0  0  0  0  0  0  0  0
   -6.7172   -8.5240    8.8034 O   0  0  0  0  0  0  0  0  0  0  0  0
   -8.2777   -9.2886    7.0883 C   0  0  0  0  0  0  0  0  0  0  0  0
   -9.4257   -8.7757    7.9800 C   0  0  0  0  0  0  0  0  0  0  0  0
   -9.1142   -9.4672    9.3275 C   0  0  0  0  0  0  0  0  0  0  0  0
   -9.1332   -6.0721    9.6073 H   0  0  0  0  0  0  0  0  0  0  0  0
   -2.2145   -6.6432    4.1671 H   0  0  0  0  0  0  0  0  0  0  0  0
   -6.2382   -9.1661    9.3936 H   0  0  0  0  0  0  0  0  0  0  0  0
   -9.9256  -11.3727    6.0319 C   0  0  0  0  0  0  0  0  0  0  0  0
  -10.6727  -10.0222    6.0977 C   0  0  0  0  0  0  0  0  0  0  0  0
  -13.5665   -7.0240    7.3050 C   0  0  0  0  0  0  0  0  0  0  0  0
  -14.2208   -6.3071    6.5707 O   0  0  0  0  0  0  0  0  0  0  0  0
  -13.9915   -7.1156    8.6991 C   0  0  0  0  0  0  0  0  0  0  0  0
  -13.5936   -5.9709    9.3809 O   0  0  0  0  0  0  0  0  0  0  0  0
  -13.6339   -5.2043    8.7410 H   0  0  0  0  0  0  0  0  0  0  0  0
 29 30  1  0  0  0
 30  1  1  0  0  0
  1  2  1  0  0  0
  2  3  1  0  0  0
  3  4  1  0  0  0
  4  5  1  0  0  0
  5  6  1  0  0  0
  6  7  1  0  0  0
  6  8  1  0  0  0
  8  9  1  0  0  0
  9 10  1  0  0  0
 10 11  1  0  0  0
 11 12  1  0  0  0
 12 13  1  0  0  0
 13 14  1  0  0  0
 14 15  1  0  0  0
 14 16  1  0  0  0
 16 17  1  0  0  0
 17 18  1  0  0  0
 17 19  1  0  0  0
 19 20  1  0  0  0
 19 21  1  0  0  0
 21 22  1  0  0  0
 21 23  1  0  0  0
 23 24  1  0  0  0
 24 25  1  0  0  0
  3 31  1  0  0  0
 31 32  2  0  0  0
 31 33  1  0  0  0
 33 34  1  0  0  0
 24  1  1  0  0  0
 24  6  1  0  0  0
 19  9  1  0  0  0
 17 10  1  0  0  0
  7 26  1  0  0  0
 15 27  1  0  0  0
 22 28  1  0  0  0
 34 35  1  0  0  0
M  END
> <minimizedAffinity>
2.56277

> <CNNscore>
0.3293630481

> <CNNaffinity>
6.1637978554

> <CNN_VS>
2.0301272869

> <CNNaffinity_variance>
0.8003591299

$$$$
[H]c1c([H])c(N2C(=S)N([H])C(C([H])([H])[H])(C([H])([H])[H])c3c([H])c([N+](=O)[O-])c([H])c([H])c3S2(=O)=O)c([H])c([N+](=O)[O-])c1[H]


 29 31  0  0  0  0  0  0  0  0999 V2000
  -12.9047  -11.0171    8.1016 C   0  0  0  0  0  0  0  0  0  0  0  0
  -13.4028   -9.7350    7.4942 C   0  0  0  0  0  0  0  0  0  0  0  0
  -14.5280   -9.2323    8.4074 C   0  0  0  0  0  0  0  0  0  0  0  0
  -13.9445  -10.0399    6.1780 N   0  0  0  0  0  0  0  0  0  0  0  0
  -14.7379   -9.1687    5.3452 C   0  0  0  0  0  0  0  0  0  0  0  0
  -15.6064   -9.9364    4.1953 S   0  0  0  0  0  0  0  0  0  0  0  0
  -14.8425   -7.7488    5.4159 N   0  0  0  0  0  0  0  0  0  0  0  0
  -13.9321   -6.5885    6.3147 S   0  0  0  0  0  0  0  0  0  0  0  0
  -13.4931   -5.4444    5.4094 O   0  0  0  0  0  0  0  0  0  0  0  0
  -14.7280   -5.9734    7.4148 O   0  0  0  0  0  0  0  0  0  0  0  0
  -12.5079   -7.4274    6.9246 C   0  0  0  0  0  0  0  0  0  0  0  0
  -11.4255   -6.5679    6.8849 C   0  0  0  0  0  0  0  0  0  0  0  0
  -10.1615   -6.9760    7.3129 C   0  0  0  0  0  0  0  0  0  0  0  0
  -10.0336   -8.2615    7.7745 C   0  0  0  0  0  0  0  0  0  0  0  0
  -11.1262   -9.1084    7.8076 C   0  0  0  0  0  0  0  0  0  0  0  0
  -12.3580   -8.7048    7.3884 C   0  0  0  0  0  0  0  0  0  0  0  0
  -13.7373  -10.9955    5.7906 H   0  0  0  0  0  0  0  0  0  0  0  0
  -15.8685   -7.1767    4.6136 C   0  0  0  0  0  0  0  0  0  0  0  0
  -16.0242   -7.6205    3.3164 C   0  0  0  0  0  0  0  0  0  0  0  0
  -17.0323   -7.0616    2.5211 C   0  0  0  0  0  0  0  0  0  0  0  0
  -17.8290   -6.0968    3.0512 C   0  0  0  0  0  0  0  0  0  0  0  0
  -17.6889   -5.6401    4.3452 C   0  0  0  0  0  0  0  0  0  0  0  0
  -16.6888   -6.2013    5.1194 C   0  0  0  0  0  0  0  0  0  0  0  0
  -18.5384   -4.6301    4.8688 N   0  0  0  0  0  0  0  0  0  0  0  0
  -19.7152   -4.3523    4.2446 O   0  0  0  0  0  0  0  0  0  0  0  0
  -18.1969   -4.0156    5.8865 O   0  0  0  0  0  0  0  0  0  0  0  0
   -8.7654   -8.7235    8.2215 N   0  0  0  0  0  0  0  0  0  0  0  0
   -8.4325  -10.0417    8.1646 O   0  0  0  0  0  0  0  0  0  0  0  0
   -7.9167   -7.9288    8.6812 O   0  0  0  0  0  0  0  0  0  0  0  0
  1  2  1  0  0  0
  2  3  1  0  0  0
  2  4  1  0  0  0
  4  5  1  0  0  0
  5  6  2  0  0  0
  5  7  1  0  0  0
  7 18  1  0  0  0
 18 19  2  0  0  0
 19 20  1  0  0  0
 20 21  2  0  0  0
 21 22  1  0  0  0
 22 23  2  0  0  0
 22 24  1  0  0  0
 24 25  1  0  0  0
 24 26  2  0  0  0
  7  8  1  0  0  0
  8  9  2  0  0  0
  8 10  2  0  0  0
  8 11  1  0  0  0
 11 12  2  0  0  0
 12 13  1  0  0  0
 13 14  2  0  0  0
 14 15  1  0  0  0
 15 16  2  0  0  0
 14 27  1  0  0  0
 27 28  1  0  0  0
 27 29  2  0  0  0
 16  2  1  0  0  0
 23 18  1  0  0  0
 16 11  1  0  0  0
  4 17  1  0  0  0
M  CHG 1  24   1
M  CHG 1  25  -1
M  CHG 1  27   1
M  CHG 1  28  -1
M  END
> <minimizedAffinity>
1.61554

> <CNNscore>
0.4859629869

> <CNNaffinity>
6.6770620346

> <CNN_VS>
3.2448050976

> <CNNaffinity_variance>
1.0256706476

$$$$
[H]c1c([H])c(N2C(=S)N([H])C(C([H])([H])[H])(C([H])([H])[H])c3c([H])c([N+](=O)[O-])c([H])c([H])c3S2(=O)=O)c([H])c([N+](=O)[O-])c1[H]


 29 31  0  0  0  0  0  0  0  0999 V2000
  -14.5451   -8.3626    2.8541 C   0  0  0  0  0  0  0  0  0  0  0  0
  -14.1634   -7.9020    4.2335 C   0  0  0  0  0  0  0  0  0  0  0  0
  -13.5525   -6.5047    4.0693 C   0  0  0  0  0  0  0  0  0  0  0  0
  -13.1554   -8.8155    4.7514 N   0  0  0  0  0  0  0  0  0  0  0  0
  -12.3374   -8.6272    5.9251 C   0  0  0  0  0  0  0  0  0  0  0  0
  -10.9856   -9.5420    5.9629 S   0  0  0  0  0  0  0  0  0  0  0  0
  -12.5756   -7.7525    7.0252 N   0  0  0  0  0  0  0  0  0  0  0  0
  -13.9664   -6.8223    7.4534 S   0  0  0  0  0  0  0  0  0  0  0  0
  -14.3113   -7.0323    8.9224 O   0  0  0  0  0  0  0  0  0  0  0  0
  -13.7446   -5.3588    7.2779 O   0  0  0  0  0  0  0  0  0  0  0  0
  -15.2933   -7.4097    6.4541 C   0  0  0  0  0  0  0  0  0  0  0  0
  -16.4581   -7.4011    7.1991 C   0  0  0  0  0  0  0  0  0  0  0  0
  -17.6709   -7.8203    6.6505 C   0  0  0  0  0  0  0  0  0  0  0  0
  -17.6637   -8.2408    5.3447 C   0  0  0  0  0  0  0  0  0  0  0  0
  -16.4900   -8.2431    4.6135 C   0  0  0  0  0  0  0  0  0  0  0  0
  -15.3087   -7.8328    5.1542 C   0  0  0  0  0  0  0  0  0  0  0  0
  -13.0053   -9.7080    4.2155 H   0  0  0  0  0  0  0  0  0  0  0  0
  -11.4897   -7.6128    7.9335 C   0  0  0  0  0  0  0  0  0  0  0  0
  -11.7587   -7.5280    9.2842 C   0  0  0  0  0  0  0  0  0  0  0  0
  -10.6944   -7.3905   10.1839 C   0  0  0  0  0  0  0  0  0  0  0  0
   -9.4256   -7.3444    9.6994 C   0  0  0  0  0  0  0  0  0  0  0  0
   -9.1367   -7.4275    8.3531 C   0  0  0  0  0  0  0  0  0  0  0  0
  -10.1981   -7.5633    7.4760 C   0  0  0  0  0  0  0  0  0  0  0  0
   -7.7992   -7.3762    7.8795 N   0  0  0  0  0  0  0  0  0  0  0  0
   -7.5410   -7.6304    6.5679 O   0  0  0  0  0  0  0  0  0  0  0  0
   -6.8856   -7.1007    8.6666 O   0  0  0  0  0  0  0  0  0  0  0  0
  -18.8749   -8.6773    4.7415 N   0  0  0  0  0  0  0  0  0  0  0  0
  -19.1708   -8.3734    3.4485 O   0  0  0  0  0  0  0  0  0  0  0  0
  -19.7056   -9.3555    5.3841 O   0  0  0  0  0  0  0  0  0  0  0  0
  1  2  1  0  0  0
  2  3  1  0  0  0
  2  4  1  0  0  0
  4  5  1  0  0  0
  5  6  2  0  0  0
  5  7  1  0  0  0
  7 18  1  0  0  0
 18 19  2  0  0  0
 19 20  1  0  0  0
 20 21  2  0  0  0
 21 22  1  0  0  0
 22 23  2  0  0  0
 22 24  1  0  0  0
 24 25  1  0  0  0
 24 26  2  0  0  0
  7  8  1  0  0  0
  8  9  2  0  0  0
  8 10  2  0  0  0
  8 11  1  0  0  0
 11 12  2  0  0  0
 12 13  1  0  0  0
 13 14  2  0  0  0
 14 15  1  0  0  0
 15 16  2  0  0  0
 14 27  1  0  0  0
 27 28  1  0  0  0
 27 29  2  0  0  0
 16  2  1  0  0  0
 23 18  1  0  0  0
 16 11  1  0  0  0
  4 17  1  0  0  0
M  CHG 1  24   1
M  CHG 1  25  -1
M  CHG 1  27   1
M  CHG 1  28  -1
M  END
> <minimizedAffinity>
7.50625

> <CNNscore>
0.4659514725

> <CNNaffinity>
6.7173323631

> <CNN_VS>
3.1299510002

> <CNNaffinity_variance>
1.2923072577

$$$$
[H]c1c([H])c(N2C(=S)N([H])C(C([H])([H])[H])(C([H])([H])[H])c3c([H])c([N+](=O)[O-])c([H])c([H])c3S2(=O)=O)c([H])c([N+](=O)[O-])c1[H]


 29 31  0  0  0  0  0  0  0  0999 V2000
  -14.9723   -5.5223    2.5226 C   0  0  0  0  0  0  0  0  0  0  0  0
  -14.8598   -6.0103    3.9403 C   0  0  0  0  0  0  0  0  0  0  0  0
  -13.6799   -5.2555    4.5653 C   0  0  0  0  0  0  0  0  0  0  0  0
  -14.5619   -7.4347    3.9048 N   0  0  0  0  0  0  0  0  0  0  0  0
  -14.1379   -8.2584    5.0111 C   0  0  0  0  0  0  0  0  0  0  0  0
  -13.4055   -9.6516    4.5769 S   0  0  0  0  0  0  0  0  0  0  0  0
  -14.2852   -7.9943    6.4041 N   0  0  0  0  0  0  0  0  0  0  0  0
  -15.1835   -6.7778    7.2385 S   0  0  0  0  0  0  0  0  0  0  0  0
  -16.0078   -7.4028    8.3570 O   0  0  0  0  0  0  0  0  0  0  0  0
  -14.3007   -5.7637    7.8821 O   0  0  0  0  0  0  0  0  0  0  0  0
  -16.2660   -6.0491    6.0548 C   0  0  0  0  0  0  0  0  0  0  0  0
  -17.4722   -5.7576    6.6648 C   0  0  0  0  0  0  0  0  0  0  0  0
  -18.5192   -5.1700    5.9536 C   0  0  0  0  0  0  0  0  0  0  0  0
  -18.3066   -4.8925    4.6270 C   0  0  0  0  0  0  0  0  0  0  0  0
  -17.0943   -5.1904    4.0322 C   0  0  0  0  0  0  0  0  0  0  0  0
  -16.0755   -5.7642    4.7313 C   0  0  0  0  0  0  0  0  0  0  0  0
  -14.6660   -7.9171    2.9760 H   0  0  0  0  0  0  0  0  0  0  0  0
  -13.5761   -8.8766    7.2657 C   0  0  0  0  0  0  0  0  0  0  0  0
  -12.7627   -9.8412    6.7072 C   0  0  0  0  0  0  0  0  0  0  0  0
  -12.0618  -10.7130    7.5497 C   0  0  0  0  0  0  0  0  0  0  0  0
  -12.2035  -10.5833    8.8949 C   0  0  0  0  0  0  0  0  0  0  0  0
  -13.0115   -9.6257    9.4719 C   0  0  0  0  0  0  0  0  0  0  0  0
  -13.6979   -8.7713    8.6274 C   0  0  0  0  0  0  0  0  0  0  0  0
  -13.1376   -9.5168   10.8819 N   0  0  0  0  0  0  0  0  0  0  0  0
  -13.5504   -8.3419   11.4305 O   0  0  0  0  0  0  0  0  0  0  0  0
  -12.8701  -10.4925   11.5935 O   0  0  0  0  0  0  0  0  0  0  0  0
  -19.3437   -4.2938    3.8605 N   0  0  0  0  0  0  0  0  0  0  0  0
  -20.5949   -4.1294    4.3697 O   0  0  0  0  0  0  0  0  0  0  0  0
  -19.1348   -3.8997    2.6926 O   0  0  0  0  0  0  0  0  0  0  0  0
  1  2  1  0  0  0
  2  3  1  0  0  0
  2  4  1  0  0  0
  4  5  1  0  0  0
  5  6  2  0  0  0
  5  7  1  0  0  0
  7 18  1  0  0  0
 18 19  2  0  0  0
 19 20  1  0  0  0
 20 21  2  0  0  0
 21 22  1  0  0  0
 22 23  2  0  0  0
 22 24  1  0  0  0
 24 25  1  0  0  0
 24 26  2  0  0  0
  7  8  1  0  0  0
  8  9  2  0  0  0
  8 10  2  0  0  0
  8 11  1  0  0  0
 11 12  2  0  0  0
 12 13  1  0  0  0
 13 14  2  0  0  0
 14 15  1  0  0  0
 15 16  2  0  0  0
 14 27  1  0  0  0
 27 28  1  0  0  0
 27 29  2  0  0  0
 16  2  1  0  0  0
 23 18  1  0  0  0
 16 11  1  0  0  0
  4 17  1  0  0  0
M  CHG 1  24   1
M  CHG 1  25  -1
M  CHG 1  27   1
M  CHG 1  28  -1
M  END
> <minimizedAffinity>
18.64346

> <CNNscore>
0.4359224439

> <CNNaffinity>
6.4006705284

> <CNN_VS>
2.7901959419

> <CNNaffinity_variance>
2.1832540035

$$$$
[H]c1c([H])c(N2C(=S)N([H])C(C([H])([H])[H])(C([H])([H])[H])c3c([H])c([N+](=O)[O-])c([H])c([H])c3S2(=O)=O)c([H])c([N+](=O)[O-])c1[H]


 29 31  0  0  0  0  0  0  0  0999 V2000
   -3.2210   -8.3676    5.4588 C   0  0  0  0  0  0  0  0  0  0  0  0
   -3.0284   -7.4234    6.6129 C   0  0  0  0  0  0  0  0  0  0  0  0
   -2.0990   -8.1353    7.6039 C   0  0  0  0  0  0  0  0  0  0  0  0
   -4.3253   -7.2019    7.2359 N   0  0  0  0  0  0  0  0  0  0  0  0
   -4.5783   -6.5654    8.5059 C   0  0  0  0  0  0  0  0  0  0  0  0
   -6.0339   -6.9118    9.1594 S   0  0  0  0  0  0  0  0  0  0  0  0
   -3.7182   -5.6907    9.2320 N   0  0  0  0  0  0  0  0  0  0  0  0
   -2.2389   -4.9225    8.7796 S   0  0  0  0  0  0  0  0  0  0  0  0
   -2.2828   -3.4411    9.1329 O   0  0  0  0  0  0  0  0  0  0  0  0
   -1.0629   -5.4919    9.4970 O   0  0  0  0  0  0  0  0  0  0  0  0
   -2.0917   -5.1004    7.0330 C   0  0  0  0  0  0  0  0  0  0  0  0
   -1.5339   -3.9497    6.5070 C   0  0  0  0  0  0  0  0  0  0  0  0
   -1.3030   -3.8184    5.1370 C   0  0  0  0  0  0  0  0  0  0  0  0
   -1.6503   -4.8738    4.3322 C   0  0  0  0  0  0  0  0  0  0  0  0
   -2.2071   -6.0176    4.8743 C   0  0  0  0  0  0  0  0  0  0  0  0
   -2.4303   -6.1403    6.2126 C   0  0  0  0  0  0  0  0  0  0  0  0
   -5.1687   -7.5405    6.7065 H   0  0  0  0  0  0  0  0  0  0  0  0
   -4.1387   -5.3911   10.5575 C   0  0  0  0  0  0  0  0  0  0  0  0
   -5.3570   -5.8702   10.9935 C   0  0  0  0  0  0  0  0  0  0  0  0
   -5.7770   -5.5789   12.2973 C   0  0  0  0  0  0  0  0  0  0  0  0
   -4.9710   -4.8315   13.0962 C   0  0  0  0  0  0  0  0  0  0  0  0
   -3.7502   -4.3437   12.6786 C   0  0  0  0  0  0  0  0  0  0  0  0
   -3.3481   -4.6393   11.3882 C   0  0  0  0  0  0  0  0  0  0  0  0
   -2.9316   -3.5653   13.5389 N   0  0  0  0  0  0  0  0  0  0  0  0
   -3.4855   -2.5495   14.2552 O   0  0  0  0  0  0  0  0  0  0  0  0
   -1.7246   -3.8214   13.6257 O   0  0  0  0  0  0  0  0  0  0  0  0
   -1.4344   -4.7872    2.9296 N   0  0  0  0  0  0  0  0  0  0  0  0
   -1.3702   -3.5842    2.2967 O   0  0  0  0  0  0  0  0  0  0  0  0
   -1.2966   -5.8176    2.2351 O   0  0  0  0  0  0  0  0  0  0  0  0
  1  2  1  0  0  0
  2  3  1  0  0  0
  2  4  1  0  0  0
  4  5  1  0  0  0
  5  6  2  0  0  0
  5  7  1  0  0  0
  7 18  1  0  0  0
 18 19  2  0  0  0
 19 20  1  0  0  0
 20 21  2  0  0  0
 21 22  1  0  0  0
 22 23  2  0  0  0
 22 24  1  0  0  0
 24 25  1  0  0  0
 24 26  2  0  0  0
  7  8  1  0  0  0
  8  9  2  0  0  0
  8 10  2  0  0  0
  8 11  1  0  0  0
 11 12  2  0  0  0
 12 13  1  0  0  0
 13 14  2  0  0  0
 14 15  1  0  0  0
 15 16  2  0  0  0
 14 27  1  0  0  0
 27 28  1  0  0  0
 27 29  2  0  0  0
 16  2  1  0  0  0
 23 18  1  0  0  0
 16 11  1  0  0  0
  4 17  1  0  0  0
M  CHG 1  24   1
M  CHG 1  25  -1
M  CHG 1  27   1
M  CHG 1  28  -1
M  END
> <minimizedAffinity>
-2.03897

> <CNNscore>
0.4045841694

> <CNNaffinity>
5.2657876015

> <CNN_VS>
2.1304543018

> <CNNaffinity_variance>
0.9942010641

$$$$
[H]c1c([H])c(N2C(=S)N([H])C(C([H])([H])[H])(C([H])([H])[H])c3c([H])c([N+](=O)[O-])c([H])c([H])c3S2(=O)=O)c([H])c([N+](=O)[O-])c1[H]


 29 31  0  0  0  0  0  0  0  0999 V2000
   -5.7925   -5.1804    5.6855 C   0  0  0  0  0  0  0  0  0  0  0  0
   -6.7125   -6.3088    6.0609 C   0  0  0  0  0  0  0  0  0  0  0  0
   -7.4729   -6.6898    4.7844 C   0  0  0  0  0  0  0  0  0  0  0  0
   -7.6515   -5.8131    7.0566 N   0  0  0  0  0  0  0  0  0  0  0  0
   -8.8495   -6.4707    7.5199 C   0  0  0  0  0  0  0  0  0  0  0  0
   -9.9351   -5.4793    8.2301 S   0  0  0  0  0  0  0  0  0  0  0  0
   -9.1786   -7.8545    7.4270 N   0  0  0  0  0  0  0  0  0  0  0  0
   -8.2237   -9.2184    6.9677 S   0  0  0  0  0  0  0  0  0  0  0  0
   -8.3846  -10.3428    7.9832 O   0  0  0  0  0  0  0  0  0  0  0  0
   -8.6351   -9.7795    5.6495 O   0  0  0  0  0  0  0  0  0  0  0  0
   -6.5464   -8.6793    6.9570 C   0  0  0  0  0  0  0  0  0  0  0  0
   -5.7405   -9.7005    7.4258 C   0  0  0  0  0  0  0  0  0  0  0  0
   -4.3573   -9.5437    7.5236 C   0  0  0  0  0  0  0  0  0  0  0  0
   -3.8276   -8.3386    7.1373 C   0  0  0  0  0  0  0  0  0  0  0  0
   -4.6476   -7.3277    6.6707 C   0  0  0  0  0  0  0  0  0  0  0  0
   -5.9974   -7.4862    6.5773 C   0  0  0  0  0  0  0  0  0  0  0  0
   -7.4365   -4.8771    7.4854 H   0  0  0  0  0  0  0  0  0  0  0  0
  -10.5202   -8.1819    7.7682 C   0  0  0  0  0  0  0  0  0  0  0  0
  -10.8279   -8.4357    9.0892 C   0  0  0  0  0  0  0  0  0  0  0  0
  -12.1467   -8.7585    9.4320 C   0  0  0  0  0  0  0  0  0  0  0  0
  -13.0865   -8.8124    8.4519 C   0  0  0  0  0  0  0  0  0  0  0  0
  -12.7985   -8.5621    7.1264 C   0  0  0  0  0  0  0  0  0  0  0  0
  -11.4915   -8.2443    6.8023 C   0  0  0  0  0  0  0  0  0  0  0  0
  -13.8043   -8.6268    6.1264 N   0  0  0  0  0  0  0  0  0  0  0  0
  -14.8951   -7.8185    6.2177 O   0  0  0  0  0  0  0  0  0  0  0  0
  -13.6752   -9.4180    5.1844 O   0  0  0  0  0  0  0  0  0  0  0  0
   -2.4234   -8.1311    7.2187 N   0  0  0  0  0  0  0  0  0  0  0  0
   -1.5705   -9.1586    7.4805 O   0  0  0  0  0  0  0  0  0  0  0  0
   -1.9303   -6.9944    7.0514 O   0  0  0  0  0  0  0  0  0  0  0  0
  1  2  1  0  0  0
  2  3  1  0  0  0
  2  4  1  0  0  0
  4  5  1  0  0  0
  5  6  2  0  0  0
  5  7  1  0  0  0
  7 18  1  0  0  0
 18 19  2  0  0  0
 19 20  1  0  0  0
 20 21  2  0  0  0
 21 22  1  0  0  0
 22 23  2  0  0  0
 22 24  1  0  0  0
 24 25  1  0  0  0
 24 26  2  0  0  0
  7  8  1  0  0  0
  8  9  2  0  0  0
  8 10  2  0  0  0
  8 11  1  0  0  0
 11 12  2  0  0  0
 12 13  1  0  0  0
 13 14  2  0  0  0
 14 15  1  0  0  0
 15 16  2  0  0  0
 14 27  1  0  0  0
 27 28  1  0  0  0
 27 29  2  0  0  0
 16  2  1  0  0  0
 23 18  1  0  0  0
 16 11  1  0  0  0
  4 17  1  0  0  0
M  CHG 1  24   1
M  CHG 1  25  -1
M  CHG 1  27   1
M  CHG 1  28  -1
M  END
> <minimizedAffinity>
1.64597

> <CNNscore>
0.3907141089

> <CNNaffinity>
5.9256391525

> <CNN_VS>
2.3152308464

> <CNNaffinity_variance>
0.4253133833

$$$$
[H]c1c([H])c(N2C(=S)N([H])C(C([H])([H])[H])(C([H])([H])[H])c3c([H])c([N+](=O)[O-])c([H])c([H])c3S2(=O)=O)c([H])c([N+](=O)[O-])c1[H]


 29 31  0  0  0  0  0  0  0  0999 V2000
  -17.0131   -8.3379    8.6037 C   0  0  0  0  0  0  0  0  0  0  0  0
  -15.6245   -8.2129    8.0408 C   0  0  0  0  0  0  0  0  0  0  0  0
  -15.0555   -9.6357    7.9729 C   0  0  0  0  0  0  0  0  0  0  0  0
  -14.8325   -7.4161    8.9664 N   0  0  0  0  0  0  0  0  0  0  0  0
  -13.4000   -7.2434    8.9535 C   0  0  0  0  0  0  0  0  0  0  0  0
  -12.7659   -6.7350   10.3696 S   0  0  0  0  0  0  0  0  0  0  0  0
  -12.5030   -7.4627    7.8676 N   0  0  0  0  0  0  0  0  0  0  0  0
  -12.8021   -7.7693    6.1944 S   0  0  0  0  0  0  0  0  0  0  0  0
  -11.9405   -6.8595    5.3277 O   0  0  0  0  0  0  0  0  0  0  0  0
  -12.4617   -9.1674    5.8055 O   0  0  0  0  0  0  0  0  0  0  0  0
  -14.5022   -7.4045    5.9108 C   0  0  0  0  0  0  0  0  0  0  0  0
  -14.6374   -6.8213    4.6643 C   0  0  0  0  0  0  0  0  0  0  0  0
  -15.8861   -6.4286    4.1809 C   0  0  0  0  0  0  0  0  0  0  0  0
  -16.9741   -6.6430    4.9887 C   0  0  0  0  0  0  0  0  0  0  0  0
  -16.8216   -7.2275    6.2326 C   0  0  0  0  0  0  0  0  0  0  0  0
  -15.6000   -7.6089    6.6996 C   0  0  0  0  0  0  0  0  0  0  0  0
  -15.3572   -6.9120    9.7259 H   0  0  0  0  0  0  0  0  0  0  0  0
  -11.1218   -7.4250    8.2063 C   0  0  0  0  0  0  0  0  0  0  0  0
  -10.6624   -6.4055    9.0146 C   0  0  0  0  0  0  0  0  0  0  0  0
   -9.3039   -6.3625    9.3519 C   0  0  0  0  0  0  0  0  0  0  0  0
   -8.4765   -7.3279    8.8724 C   0  0  0  0  0  0  0  0  0  0  0  0
   -8.9167   -8.3547    8.0633 C   0  0  0  0  0  0  0  0  0  0  0  0
  -10.2613   -8.3846    7.7383 C   0  0  0  0  0  0  0  0  0  0  0  0
   -8.0256   -9.3482    7.5788 N   0  0  0  0  0  0  0  0  0  0  0  0
   -7.9024  -10.5251    8.2507 O   0  0  0  0  0  0  0  0  0  0  0  0
   -7.3724   -9.1301    6.5513 O   0  0  0  0  0  0  0  0  0  0  0  0
  -18.2676   -6.2597    4.5398 N   0  0  0  0  0  0  0  0  0  0  0  0
  -19.1203   -7.1634    3.9850 O   0  0  0  0  0  0  0  0  0  0  0  0
  -18.6599   -5.0771    4.6426 O   0  0  0  0  0  0  0  0  0  0  0  0
  1  2  1  0  0  0
  2  3  1  0  0  0
  2  4  1  0  0  0
  4  5  1  0  0  0
  5  6  2  0  0  0
  5  7  1  0  0  0
  7 18  1  0  0  0
 18 19  2  0  0  0
 19 20  1  0  0  0
 20 21  2  0  0  0
 21 22  1  0  0  0
 22 23  2  0  0  0
 22 24  1  0  0  0
 24 25  1  0  0  0
 24 26  2  0  0  0
  7  8  1  0  0  0
  8  9  2  0  0  0
  8 10  2  0  0  0
  8 11  1  0  0  0
 11 12  2  0  0  0
 12 13  1  0  0  0
 13 14  2  0  0  0
 14 15  1  0  0  0
 15 16  2  0  0  0
 14 27  1  0  0  0
 27 28  1  0  0  0
 27 29  2  0  0  0
 16  2  1  0  0  0
 23 18  1  0  0  0
 16 11  1  0  0  0
  4 17  1  0  0  0
M  CHG 1  24   1
M  CHG 1  25  -1
M  CHG 1  27   1
M  CHG 1  28  -1
M  END
> <minimizedAffinity>
-0.22259

> <CNNscore>
0.3729830384

> <CNNaffinity>
6.4813222885

> <CNN_VS>
2.4174232483

> <CNNaffinity_variance>
0.1987403631

$$$$
[H]c1c([H])c(N2C(=S)N([H])C(C([H])([H])[H])(C([H])([H])[H])c3c([H])c([N+](=O)[O-])c([H])c([H])c3S2(=O)=O)c([H])c([N+](=O)[O-])c1[H]


 29 31  0  0  0  0  0  0  0  0999 V2000
   -8.7014  -11.1560    6.7582 C   0  0  0  0  0  0  0  0  0  0  0  0
   -8.3411   -9.6967    6.7226 C   0  0  0  0  0  0  0  0  0  0  0  0
   -8.1041   -9.3454    5.2485 C   0  0  0  0  0  0  0  0  0  0  0  0
   -7.1045   -9.5189    7.4698 N   0  0  0  0  0  0  0  0  0  0  0  0
   -6.2715   -8.3410    7.4977 C   0  0  0  0  0  0  0  0  0  0  0  0
   -4.7383   -8.6069    7.9921 S   0  0  0  0  0  0  0  0  0  0  0  0
   -6.6327   -7.0067    7.1496 N   0  0  0  0  0  0  0  0  0  0  0  0
   -8.1723   -6.3003    6.8128 S   0  0  0  0  0  0  0  0  0  0  0  0
   -8.3441   -5.0067    7.5991 O   0  0  0  0  0  0  0  0  0  0  0  0
   -8.3285   -5.9426    5.3742 O   0  0  0  0  0  0  0  0  0  0  0  0
   -9.3868   -7.4648    7.3353 C   0  0  0  0  0  0  0  0  0  0  0  0
  -10.4591   -6.7846    7.8825 C   0  0  0  0  0  0  0  0  0  0  0  0
  -11.5705   -7.4662    8.3801 C   0  0  0  0  0  0  0  0  0  0  0  0
  -11.5590   -8.8361    8.3058 C   0  0  0  0  0  0  0  0  0  0  0  0
  -10.4786   -9.5009    7.7554 C   0  0  0  0  0  0  0  0  0  0  0  0
   -9.3961   -8.8304    7.2711 C   0  0  0  0  0  0  0  0  0  0  0  0
   -6.7818  -10.3335    8.0517 H   0  0  0  0  0  0  0  0  0  0  0  0
   -5.5487   -6.0897    7.0613 C   0  0  0  0  0  0  0  0  0  0  0  0
   -4.9844   -5.6122    8.2264 C   0  0  0  0  0  0  0  0  0  0  0  0
   -3.9170   -4.7092    8.1466 C   0  0  0  0  0  0  0  0  0  0  0  0
   -3.4675   -4.3291    6.9218 C   0  0  0  0  0  0  0  0  0  0  0  0
   -4.0184   -4.7952    5.7463 C   0  0  0  0  0  0  0  0  0  0  0  0
   -5.0722   -5.6868    5.8403 C   0  0  0  0  0  0  0  0  0  0  0  0
   -3.5248   -4.3779    4.4821 N   0  0  0  0  0  0  0  0  0  0  0  0
   -4.0853   -3.3031    3.8638 O   0  0  0  0  0  0  0  0  0  0  0  0
   -2.5908   -4.9978    3.9591 O   0  0  0  0  0  0  0  0  0  0  0  0
  -12.6688   -9.5749    8.7998 N   0  0  0  0  0  0  0  0  0  0  0  0
  -13.2849  -10.5195    8.0385 O   0  0  0  0  0  0  0  0  0  0  0  0
  -13.1116   -9.3770    9.9521 O   0  0  0  0  0  0  0  0  0  0  0  0
  1  2  1  0  0  0
  2  3  1  0  0  0
  2  4  1  0  0  0
  4  5  1  0  0  0
  5  6  2  0  0  0
  5  7  1  0  0  0
  7 18  1  0  0  0
 18 19  2  0  0  0
 19 20  1  0  0  0
 20 21  2  0  0  0
 21 22  1  0  0  0
 22 23  2  0  0  0
 22 24  1  0  0  0
 24 25  1  0  0  0
 24 26  2  0  0  0
  7  8  1  0  0  0
  8  9  2  0  0  0
  8 10  2  0  0  0
  8 11  1  0  0  0
 11 12  2  0  0  0
 12 13  1  0  0  0
 13 14  2  0  0  0
 14 15  1  0  0  0
 15 16  2  0  0  0
 14 27  1  0  0  0
 27 28  1  0  0  0
 27 29  2  0  0  0
 16  2  1  0  0  0
 23 18  1  0  0  0
 16 11  1  0  0  0
  4 17  1  0  0  0
M  CHG 1  24   1
M  CHG 1  25  -1
M  CHG 1  27   1
M  CHG 1  28  -1
M  END
> <minimizedAffinity>
0.18771

> <CNNscore>
0.3616677523

> <CNNaffinity>
5.9371194839

> <CNN_VS>
2.1472647190

> <CNNaffinity_variance>
0.5209146142

$$$$
[H]c1c([H])c(N2C(=S)N([H])C(C([H])([H])[H])(C([H])([H])[H])c3c([H])c([N+](=O)[O-])c([H])c([H])c3S2(=O)=O)c([H])c([N+](=O)[O-])c1[H]


 29 31  0  0  0  0  0  0  0  0999 V2000
  -11.1728  -10.8343    7.2535 C   0  0  0  0  0  0  0  0  0  0  0  0
  -12.3101   -9.8509    7.2645 C   0  0  0  0  0  0  0  0  0  0  0  0
  -13.3909  -10.4495    8.1733 C   0  0  0  0  0  0  0  0  0  0  0  0
  -12.8234   -9.7396    5.9068 N   0  0  0  0  0  0  0  0  0  0  0  0
  -14.0506   -9.1021    5.4947 C   0  0  0  0  0  0  0  0  0  0  0  0
  -14.5986   -9.5705    4.0297 S   0  0  0  0  0  0  0  0  0  0  0  0
  -14.8153   -8.1341    6.2089 N   0  0  0  0  0  0  0  0  0  0  0  0
  -14.4570   -7.2393    7.6421 S   0  0  0  0  0  0  0  0  0  0  0  0
  -14.7620   -5.7613    7.4329 O   0  0  0  0  0  0  0  0  0  0  0  0
  -15.2803   -7.6788    8.8045 O   0  0  0  0  0  0  0  0  0  0  0  0
  -12.7332   -7.4409    7.9450 C   0  0  0  0  0  0  0  0  0  0  0  0
  -12.2185   -6.2544    8.4341 C   0  0  0  0  0  0  0  0  0  0  0  0
  -10.8675   -6.1320    8.7610 C   0  0  0  0  0  0  0  0  0  0  0  0
  -10.0695   -7.2330    8.5789 C   0  0  0  0  0  0  0  0  0  0  0  0
  -10.6000   -8.4122    8.0888 C   0  0  0  0  0  0  0  0  0  0  0  0
  -11.9199   -8.5260    7.7712 C   0  0  0  0  0  0  0  0  0  0  0  0
  -12.2401  -10.1682    5.1437 H   0  0  0  0  0  0  0  0  0  0  0  0
  -16.0946   -7.8465    5.6574 C   0  0  0  0  0  0  0  0  0  0  0  0
  -16.8711   -8.8905    5.1977 C   0  0  0  0  0  0  0  0  0  0  0  0
  -18.1315   -8.6144    4.6536 C   0  0  0  0  0  0  0  0  0  0  0  0
  -18.5538   -7.3241    4.5941 C   0  0  0  0  0  0  0  0  0  0  0  0
  -17.7923   -6.2673    5.0482 C   0  0  0  0  0  0  0  0  0  0  0  0
  -16.5492   -6.5550    5.5833 C   0  0  0  0  0  0  0  0  0  0  0  0
  -18.2632   -4.9301    4.9714 N   0  0  0  0  0  0  0  0  0  0  0  0
  -19.2423   -4.6129    4.0812 O   0  0  0  0  0  0  0  0  0  0  0  0
  -17.7764   -4.0703    5.7157 O   0  0  0  0  0  0  0  0  0  0  0  0
   -8.6860   -7.1572    8.8978 N   0  0  0  0  0  0  0  0  0  0  0  0
   -8.1318   -7.9679    9.8398 O   0  0  0  0  0  0  0  0  0  0  0  0
   -7.9363   -6.3408    8.3195 O   0  0  0  0  0  0  0  0  0  0  0  0
  1  2  1  0  0  0
  2  3  1  0  0  0
  2  4  1  0  0  0
  4  5  1  0  0  0
  5  6  2  0  0  0
  5  7  1  0  0  0
  7 18  1  0  0  0
 18 19  2  0  0  0
 19 20  1  0  0  0
 20 21  2  0  0  0
 21 22  1  0  0  0
 22 23  2  0  0  0
 22 24  1  0  0  0
 24 25  1  0  0  0
 24 26  2  0  0  0
  7  8  1  0  0  0
  8  9  2  0  0  0
  8 10  2  0  0  0
  8 11  1  0  0  0
 11 12  2  0  0  0
 12 13  1  0  0  0
 13 14  2  0  0  0
 14 15  1  0  0  0
 15 16  2  0  0  0
 14 27  1  0  0  0
 27 28  1  0  0  0
 27 29  2  0  0  0
 16  2  1  0  0  0
 23 18  1  0  0  0
 16 11  1  0  0  0
  4 17  1  0  0  0
M  CHG 1  24   1
M  CHG 1  25  -1
M  CHG 1  27   1
M  CHG 1  28  -1
M  END
> <minimizedAffinity>
-0.49813

> <CNNscore>
0.3513424993

> <CNNaffinity>
6.4945168495

> <CNN_VS>
2.2817997932

> <CNNaffinity_variance>
0.4343965650

$$$$
[H]c1c([H])c(N2C(=S)N([H])C(C([H])([H])[H])(C([H])([H])[H])c3c([H])c([N+](=O)[O-])c([H])c([H])c3S2(=O)=O)c([H])c([N+](=O)[O-])c1[H]


 29 31  0  0  0  0  0  0  0  0999 V2000
   -8.8189  -11.1374    6.8504 C   0  0  0  0  0  0  0  0  0  0  0  0
   -8.4337   -9.6866    6.7646 C   0  0  0  0  0  0  0  0  0  0  0  0
   -8.2244   -9.3819    5.2759 C   0  0  0  0  0  0  0  0  0  0  0  0
   -7.1773   -9.5103    7.4783 N   0  0  0  0  0  0  0  0  0  0  0  0
   -6.3230   -8.3477    7.4533 C   0  0  0  0  0  0  0  0  0  0  0  0
   -4.7838   -8.6275    7.9206 S   0  0  0  0  0  0  0  0  0  0  0  0
   -6.6684   -7.0174    7.0750 N   0  0  0  0  0  0  0  0  0  0  0  0
   -8.2026   -6.2927    6.7525 S   0  0  0  0  0  0  0  0  0  0  0  0
   -8.3332   -4.9742    7.5047 O   0  0  0  0  0  0  0  0  0  0  0  0
   -8.3854   -5.9734    5.3081 O   0  0  0  0  0  0  0  0  0  0  0  0
   -9.4252   -7.4192    7.3357 C   0  0  0  0  0  0  0  0  0  0  0  0
  -10.4724   -6.7041    7.8870 C   0  0  0  0  0  0  0  0  0  0  0  0
  -11.5839   -7.3506    8.4290 C   0  0  0  0  0  0  0  0  0  0  0  0
  -11.5984   -8.7220    8.3941 C   0  0  0  0  0  0  0  0  0  0  0  0
  -10.5430   -9.4221    7.8390 C   0  0  0  0  0  0  0  0  0  0  0  0
   -9.4602   -8.7857    7.3113 C   0  0  0  0  0  0  0  0  0  0  0  0
   -6.8558  -10.3138    8.0761 H   0  0  0  0  0  0  0  0  0  0  0  0
   -5.5706   -6.1235    6.9358 C   0  0  0  0  0  0  0  0  0  0  0  0
   -5.1031   -5.8356    5.6699 C   0  0  0  0  0  0  0  0  0  0  0  0
   -4.0227   -4.9564    5.5258 C   0  0  0  0  0  0  0  0  0  0  0  0
   -3.4654   -4.4115    6.6389 C   0  0  0  0  0  0  0  0  0  0  0  0
   -3.9184   -4.6869    7.9123 C   0  0  0  0  0  0  0  0  0  0  0  0
   -4.9865   -5.5572    8.0396 C   0  0  0  0  0  0  0  0  0  0  0  0
   -3.3135   -4.1004    9.0551 N   0  0  0  0  0  0  0  0  0  0  0  0
   -3.4127   -4.7225   10.2613 O   0  0  0  0  0  0  0  0  0  0  0  0
   -2.7036   -3.0306    8.9387 O   0  0  0  0  0  0  0  0  0  0  0  0
  -12.7095   -9.4259    8.9341 N   0  0  0  0  0  0  0  0  0  0  0  0
  -13.3781  -10.3594    8.2040 O   0  0  0  0  0  0  0  0  0  0  0  0
  -13.1053   -9.2064   10.0996 O   0  0  0  0  0  0  0  0  0  0  0  0
  1  2  1  0  0  0
  2  3  1  0  0  0
  2  4  1  0  0  0
  4  5  1  0  0  0
  5  6  2  0  0  0
  5  7  1  0  0  0
  7 18  1  0  0  0
 18 19  2  0  0  0
 19 20  1  0  0  0
 20 21  2  0  0  0
 21 22  1  0  0  0
 22 23  2  0  0  0
 22 24  1  0  0  0
 24 25  1  0  0  0
 24 26  2  0  0  0
  7  8  1  0  0  0
  8  9  2  0  0  0
  8 10  2  0  0  0
  8 11  1  0  0  0
 11 12  2  0  0  0
 12 13  1  0  0  0
 13 14  2  0  0  0
 14 15  1  0  0  0
 15 16  2  0  0  0
 14 27  1  0  0  0
 27 28  1  0  0  0
 27 29  2  0  0  0
 16  2  1  0  0  0
 23 18  1  0  0  0
 16 11  1  0  0  0
  4 17  1  0  0  0
M  CHG 1  24   1
M  CHG 1  25  -1
M  CHG 1  27   1
M  CHG 1  28  -1
M  END
> <minimizedAffinity>
0.19526

> <CNNscore>
0.3429617286

> <CNNaffinity>
5.8737192154

> <CNN_VS>
2.0144608021

> <CNNaffinity_variance>
0.5069605112

$$$$
[H]c1c([H])c([H])c(C([H])([H])O[C@@]([H])(C([H])([H])C([H])(C([H])([H])[H])C([H])([H])[H])[C@@]([H])(N2C([H])([H])C([H])([H])[C@]([H])(c3c([H])c([H])c([H])c([H])c3[H])[C@@]([H])(C([H])([H])[H])C2([H])[H])C([H])([H])[H])c([H])c1[H]


 28 30  0  0  0  0  0  0  0  0999 V2000
  -12.2172   -9.1867    7.8555 C   0  0  0  0  0  0  0  0  0  0  0  0
  -11.1911   -9.9007    6.9363 C   0  0  0  0  0  0  0  0  0  0  0  0
  -13.4427   -9.0426    7.2535 N   0  0  0  0  0  0  0  0  0  0  0  0
  -14.6881   -9.0251    7.8370 C   0  0  0  0  0  0  0  0  0  0  0  0
  -15.6763   -8.0254    7.2514 C   0  0  0  0  0  0  0  0  0  0  0  0
  -15.1860   -7.5436    5.8850 C   0  0  0  0  0  0  0  0  0  0  0  0
  -14.7354   -8.8196    5.1889 C   0  0  0  0  0  0  0  0  0  0  0  0
  -14.6180   -8.6226    3.6969 C   0  0  0  0  0  0  0  0  0  0  0  0
  -13.4291   -9.2187    5.8071 C   0  0  0  0  0  0  0  0  0  0  0  0
  -16.2564   -6.8357    5.1558 C   0  0  0  0  0  0  0  0  0  0  0  0
  -16.1270   -5.5269    4.7764 C   0  0  0  0  0  0  0  0  0  0  0  0
  -17.1477   -4.8997    4.0954 C   0  0  0  0  0  0  0  0  0  0  0  0
  -18.3047   -5.5867    3.7929 C   0  0  0  0  0  0  0  0  0  0  0  0
  -18.4603   -6.9096    4.1652 C   0  0  0  0  0  0  0  0  0  0  0  0
  -17.4217   -7.5028    4.8429 C   0  0  0  0  0  0  0  0  0  0  0  0
  -11.4580   -8.1212    8.5326 C   0  0  0  0  0  0  0  0  0  0  0  0
  -12.0459   -6.8514    8.9542 C   0  0  0  0  0  0  0  0  0  0  0  0
  -13.0533   -5.1524   10.4775 C   0  0  0  0  0  0  0  0  0  0  0  0
  -12.4966   -6.5576   10.3138 C   0  0  0  0  0  0  0  0  0  0  0  0
  -13.7498   -7.4730   10.6351 C   0  0  0  0  0  0  0  0  0  0  0  0
  -10.5506   -7.6389    7.4420 O   0  0  0  0  0  0  0  0  0  0  0  0
   -9.5077   -6.9379    8.0276 C   0  0  0  0  0  0  0  0  0  0  0  0
   -8.2656   -7.3288    7.3359 C   0  0  0  0  0  0  0  0  0  0  0  0
   -7.5763   -8.4600    7.7353 C   0  0  0  0  0  0  0  0  0  0  0  0
   -6.4224   -8.8300    7.0986 C   0  0  0  0  0  0  0  0  0  0  0  0
   -5.9258   -8.0943    6.0583 C   0  0  0  0  0  0  0  0  0  0  0  0
   -6.5992   -6.9510    5.6357 C   0  0  0  0  0  0  0  0  0  0  0  0
   -7.7722   -6.5833    6.2896 C   0  0  0  0  0  0  0  0  0  0  0  0
 18 19  1  0  0  0
 19 20  1  0  0  0
 19 17  1  0  0  0
 17 16  1  0  0  0
 16 21  1  0  0  0
 21 22  1  0  0  0
 22 23  1  0  0  0
 23 24  2  0  0  0
 24 25  1  0  0  0
 25 26  2  0  0  0
 26 27  1  0  0  0
 27 28  2  0  0  0
 16  1  1  0  0  0
  1  2  1  0  0  0
  1  3  1  0  0  0
  3  4  1  0  0  0
  4  5  1  0  0  0
  5  6  1  0  0  0
  6  7  1  0  0  0
  7  8  1  0  0  0
  7  9  1  0  0  0
  6 10  1  0  0  0
 10 11  2  0  0  0
 11 12  1  0  0  0
 12 13  2  0  0  0
 13 14  1  0  0  0
 14 15  2  0  0  0
 28 23  1  0  0  0
  9  3  1  0  0  0
 15 10  1  0  0  0
M  END
> <minimizedAffinity>
-10.41555

> <CNNscore>
0.8865515590

> <CNNaffinity>
7.7839951515

> <CNN_VS>
6.9009132385

> <CNNaffinity_variance>
0.1194712967

$$$$
[H]c1c([H])c([H])c(C([H])([H])O[C@@]([H])(C([H])([H])C([H])(C([H])([H])[H])C([H])([H])[H])[C@@]([H])(N2C([H])([H])C([H])([H])[C@]([H])(c3c([H])c([H])c([H])c([H])c3[H])[C@@]([H])(C([H])([H])[H])C2([H])[H])C([H])([H])[H])c([H])c1[H]


 28 30  0  0  0  0  0  0  0  0999 V2000
  -12.7226   -9.3391    7.8033 C   0  0  0  0  0  0  0  0  0  0  0  0
  -11.7565   -9.8840    6.7181 C   0  0  0  0  0  0  0  0  0  0  0  0
  -13.8992   -8.8773    7.2674 N   0  0  0  0  0  0  0  0  0  0  0  0
  -14.9960   -8.3647    7.9203 C   0  0  0  0  0  0  0  0  0  0  0  0
  -15.6740   -7.1821    7.2416 C   0  0  0  0  0  0  0  0  0  0  0  0
  -15.2192   -7.0836    5.7845 C   0  0  0  0  0  0  0  0  0  0  0  0
  -15.2856   -8.5192    5.2842 C   0  0  0  0  0  0  0  0  0  0  0  0
  -15.2873   -8.5786    3.7758 C   0  0  0  0  0  0  0  0  0  0  0  0
  -14.1126   -9.2437    5.8734 C   0  0  0  0  0  0  0  0  0  0  0  0
  -16.0847   -6.1652    5.0189 C   0  0  0  0  0  0  0  0  0  0  0  0
  -17.3940   -6.4623    4.7519 C   0  0  0  0  0  0  0  0  0  0  0  0
  -18.1717   -5.5789    4.0350 C   0  0  0  0  0  0  0  0  0  0  0  0
  -17.6353   -4.3916    3.5826 C   0  0  0  0  0  0  0  0  0  0  0  0
  -16.3153   -4.0681    3.8388 C   0  0  0  0  0  0  0  0  0  0  0  0
  -15.5696   -4.9728    4.5567 C   0  0  0  0  0  0  0  0  0  0  0  0
  -11.8664   -8.6146    8.7583 C   0  0  0  0  0  0  0  0  0  0  0  0
  -11.9507   -7.1740    8.9892 C   0  0  0  0  0  0  0  0  0  0  0  0
  -11.3460   -6.1917   11.2008 C   0  0  0  0  0  0  0  0  0  0  0  0
  -12.4474   -6.5594   10.2195 C   0  0  0  0  0  0  0  0  0  0  0  0
  -13.0805   -5.1525    9.8566 C   0  0  0  0  0  0  0  0  0  0  0  0
  -10.5225   -8.6950    8.1007 O   0  0  0  0  0  0  0  0  0  0  0  0
  -10.1495   -7.4139    7.7242 C   0  0  0  0  0  0  0  0  0  0  0  0
   -8.6779   -7.3872    7.6355 C   0  0  0  0  0  0  0  0  0  0  0  0
   -7.9432   -8.5133    7.9618 C   0  0  0  0  0  0  0  0  0  0  0  0
   -6.5768   -8.4971    7.8820 C   0  0  0  0  0  0  0  0  0  0  0  0
   -5.9087   -7.3735    7.4804 C   0  0  0  0  0  0  0  0  0  0  0  0
   -6.6231   -6.2259    7.1463 C   0  0  0  0  0  0  0  0  0  0  0  0
   -8.0127   -6.2527    7.2303 C   0  0  0  0  0  0  0  0  0  0  0  0
 18 19  1  0  0  0
 19 20  1  0  0  0
 19 17  1  0  0  0
 17 16  1  0  0  0
 16 21  1  0  0  0
 21 22  1  0  0  0
 22 23  1  0  0  0
 23 24  2  0  0  0
 24 25  1  0  0  0
 25 26  2  0  0  0
 26 27  1  0  0  0
 27 28  2  0  0  0
 16  1  1  0  0  0
  1  2  1  0  0  0
  1  3  1  0  0  0
  3  4  1  0  0  0
  4  5  1  0  0  0
  5  6  1  0  0  0
  6  7  1  0  0  0
  7  8  1  0  0  0
  7  9  1  0  0  0
  6 10  1  0  0  0
 10 11  2  0  0  0
 11 12  1  0  0  0
 12 13  2  0  0  0
 13 14  1  0  0  0
 14 15  2  0  0  0
 28 23  1  0  0  0
  9  3  1  0  0  0
 15 10  1  0  0  0
M  END
> <minimizedAffinity>
-7.98615

> <CNNscore>
0.6341425180

> <CNNaffinity>
7.4673395157

> <CNN_VS>
4.7353572845

> <CNNaffinity_variance>
0.1327873617

$$$$
[H]c1c([H])c([H])c(C([H])([H])O[C@@]([H])(C([H])([H])C([H])(C([H])([H])[H])C([H])([H])[H])[C@@]([H])(N2C([H])([H])C([H])([H])[C@]([H])(c3c([H])c([H])c([H])c([H])c3[H])[C@@]([H])(C([H])([H])[H])C2([H])[H])C([H])([H])[H])c([H])c1[H]


 28 30  0  0  0  0  0  0  0  0999 V2000
  -11.0440   -9.3806    7.3300 C   0  0  0  0  0  0  0  0  0  0  0  0
  -10.5513  -10.5542    6.4425 C   0  0  0  0  0  0  0  0  0  0  0  0
  -12.3474   -9.0401    7.0653 N   0  0  0  0  0  0  0  0  0  0  0  0
  -13.3314   -8.6621    7.9490 C   0  0  0  0  0  0  0  0  0  0  0  0
  -14.2536   -7.5483    7.4716 C   0  0  0  0  0  0  0  0  0  0  0  0
  -14.1241   -7.3744    5.9574 C   0  0  0  0  0  0  0  0  0  0  0  0
  -14.1450   -8.7994    5.4239 C   0  0  0  0  0  0  0  0  0  0  0  0
  -14.4539   -8.8312    3.9466 C   0  0  0  0  0  0  0  0  0  0  0  0
  -12.8069   -9.4022    5.7308 C   0  0  0  0  0  0  0  0  0  0  0  0
  -15.2196   -6.5421    5.4228 C   0  0  0  0  0  0  0  0  0  0  0  0
  -14.9769   -5.4524    4.6306 C   0  0  0  0  0  0  0  0  0  0  0  0
  -16.0260   -4.6999    4.1486 C   0  0  0  0  0  0  0  0  0  0  0  0
  -17.3253   -5.0402    4.4618 C   0  0  0  0  0  0  0  0  0  0  0  0
  -17.5971   -6.1362    5.2603 C   0  0  0  0  0  0  0  0  0  0  0  0
  -16.5262   -6.8635    5.7230 C   0  0  0  0  0  0  0  0  0  0  0  0
   -9.9071   -8.4470    7.4072 C   0  0  0  0  0  0  0  0  0  0  0  0
   -8.5087   -8.8695    7.3651 C   0  0  0  0  0  0  0  0  0  0  0  0
   -7.5849   -6.8505    6.2284 C   0  0  0  0  0  0  0  0  0  0  0  0
   -7.5160   -8.3569    6.4218 C   0  0  0  0  0  0  0  0  0  0  0  0
   -6.0751   -8.5665    7.0477 C   0  0  0  0  0  0  0  0  0  0  0  0
   -9.9911   -7.9646    8.8234 O   0  0  0  0  0  0  0  0  0  0  0  0
  -10.0179   -6.5787    8.8057 C   0  0  0  0  0  0  0  0  0  0  0  0
  -11.2087   -6.1473    9.5607 C   0  0  0  0  0  0  0  0  0  0  0  0
  -12.0304   -7.0880   10.1559 C   0  0  0  0  0  0  0  0  0  0  0  0
  -13.1379   -6.6962   10.8587 C   0  0  0  0  0  0  0  0  0  0  0  0
  -13.4570   -5.3727   10.9884 C   0  0  0  0  0  0  0  0  0  0  0  0
  -12.6477   -4.4048   10.3993 C   0  0  0  0  0  0  0  0  0  0  0  0
  -11.5233   -4.8136    9.6870 C   0  0  0  0  0  0  0  0  0  0  0  0
 18 19  1  0  0  0
 19 20  1  0  0  0
 19 17  1  0  0  0
 17 16  1  0  0  0
 16 21  1  0  0  0
 21 22  1  0  0  0
 22 23  1  0  0  0
 23 24  2  0  0  0
 24 25  1  0  0  0
 25 26  2  0  0  0
 26 27  1  0  0  0
 27 28  2  0  0  0
 16  1  1  0  0  0
  1  2  1  0  0  0
  1  3  1  0  0  0
  3  4  1  0  0  0
  4  5  1  0  0  0
  5  6  1  0  0  0
  6  7  1  0  0  0
  7  8  1  0  0  0
  7  9  1  0  0  0
  6 10  1  0  0  0
 10 11  2  0  0  0
 11 12  1  0  0  0
 12 13  2  0  0  0
 13 14  1  0  0  0
 14 15  2  0  0  0
 28 23  1  0  0  0
  9  3  1  0  0  0
 15 10  1  0  0  0
M  END
> <minimizedAffinity>
-8.52906

> <CNNscore>
0.5553357005

> <CNNaffinity>
7.3948311806

> <CNN_VS>
4.1066136360

> <CNNaffinity_variance>
0.1314617395

$$$$
[H]c1c([H])c([H])c(C([H])([H])O[C@@]([H])(C([H])([H])C([H])(C([H])([H])[H])C([H])([H])[H])[C@@]([H])(N2C([H])([H])C([H])([H])[C@]([H])(c3c([H])c([H])c([H])c([H])c3[H])[C@@]([H])(C([H])([H])[H])C2([H])[H])C([H])([H])[H])c([H])c1[H]


 28 30  0  0  0  0  0  0  0  0999 V2000
   -8.1154   -9.7065    6.1049 C   0  0  0  0  0  0  0  0  0  0  0  0
   -9.0040  -10.7274    5.3460 C   0  0  0  0  0  0  0  0  0  0  0  0
   -8.7519   -9.1758    7.1996 N   0  0  0  0  0  0  0  0  0  0  0  0
   -8.2406   -8.3466    8.1706 C   0  0  0  0  0  0  0  0  0  0  0  0
   -9.1732   -7.2440    8.6537 C   0  0  0  0  0  0  0  0  0  0  0  0
  -10.6111   -7.5530    8.2334 C   0  0  0  0  0  0  0  0  0  0  0  0
  -10.7777   -9.0293    8.5627 C   0  0  0  0  0  0  0  0  0  0  0  0
  -12.2344   -9.4209    8.6205 C   0  0  0  0  0  0  0  0  0  0  0  0
  -10.0304   -9.7993    7.5155 C   0  0  0  0  0  0  0  0  0  0  0  0
  -11.5709   -6.6902    8.9495 C   0  0  0  0  0  0  0  0  0  0  0  0
  -11.1854   -5.8953    9.9952 C   0  0  0  0  0  0  0  0  0  0  0  0
  -12.1102   -5.1018   10.6387 C   0  0  0  0  0  0  0  0  0  0  0  0
  -13.4284   -5.1043   10.2332 C   0  0  0  0  0  0  0  0  0  0  0  0
  -13.8434   -5.8984    9.1797 C   0  0  0  0  0  0  0  0  0  0  0  0
  -12.8937   -6.6767    8.5613 C   0  0  0  0  0  0  0  0  0  0  0  0
   -7.4195   -8.9408    5.0563 C   0  0  0  0  0  0  0  0  0  0  0  0
   -6.7688   -9.5566    3.9017 C   0  0  0  0  0  0  0  0  0  0  0  0
   -6.4725   -9.7738    1.4345 C   0  0  0  0  0  0  0  0  0  0  0  0
   -7.4239   -9.8122    2.6197 C   0  0  0  0  0  0  0  0  0  0  0  0
   -7.9386  -11.3111    2.6102 C   0  0  0  0  0  0  0  0  0  0  0  0
   -6.2181   -8.4244    5.7879 O   0  0  0  0  0  0  0  0  0  0  0  0
   -6.3476   -7.0498    5.9130 C   0  0  0  0  0  0  0  0  0  0  0  0
   -5.0666   -6.5272    6.4231 C   0  0  0  0  0  0  0  0  0  0  0  0
   -4.3422   -5.6164    5.6747 C   0  0  0  0  0  0  0  0  0  0  0  0
   -3.1522   -5.1262    6.1410 C   0  0  0  0  0  0  0  0  0  0  0  0
   -2.6534   -5.5230    7.3509 C   0  0  0  0  0  0  0  0  0  0  0  0
   -3.3617   -6.4387    8.1247 C   0  0  0  0  0  0  0  0  0  0  0  0
   -4.5712   -6.9311    7.6418 C   0  0  0  0  0  0  0  0  0  0  0  0
 18 19  1  0  0  0
 19 20  1  0  0  0
 19 17  1  0  0  0
 17 16  1  0  0  0
 16 21  1  0  0  0
 21 22  1  0  0  0
 22 23  1  0  0  0
 23 24  2  0  0  0
 24 25  1  0  0  0
 25 26  2  0  0  0
 26 27  1  0  0  0
 27 28  2  0  0  0
 16  1  1  0  0  0
  1  2  1  0  0  0
  1  3  1  0  0  0
  3  4  1  0  0  0
  4  5  1  0  0  0
  5  6  1  0  0  0
  6  7  1  0  0  0
  7  8  1  0  0  0
  7  9  1  0  0  0
  6 10  1  0  0  0
 10 11  2  0  0  0
 11 12  1  0  0  0
 12 13  2  0  0  0
 13 14  1  0  0  0
 14 15  2  0  0  0
 28 23  1  0  0  0
  9  3  1  0  0  0
 15 10  1  0  0  0
M  END
> <minimizedAffinity>
1.10536

> <CNNscore>
0.4267956913

> <CNNaffinity>
6.3096337318

> <CNN_VS>
2.6929244995

> <CNNaffinity_variance>
0.3702437580

$$$$
[H]c1c([H])c([H])c(C([H])([H])O[C@@]([H])(C([H])([H])C([H])(C([H])([H])[H])C([H])([H])[H])[C@@]([H])(N2C([H])([H])C([H])([H])[C@]([H])(c3c([H])c([H])c([H])c([H])c3[H])[C@@]([H])(C([H])([H])[H])C2([H])[H])C([H])([H])[H])c([H])c1[H]


 28 30  0  0  0  0  0  0  0  0999 V2000
  -12.5576   -8.9933    6.9921 C   0  0  0  0  0  0  0  0  0  0  0  0
  -13.1914  -10.3349    7.4462 C   0  0  0  0  0  0  0  0  0  0  0  0
  -11.2407   -8.8875    7.3657 N   0  0  0  0  0  0  0  0  0  0  0  0
  -10.3250   -9.8925    7.5742 C   0  0  0  0  0  0  0  0  0  0  0  0
   -8.9118   -9.6088    7.0831 C   0  0  0  0  0  0  0  0  0  0  0  0
   -8.7379   -8.1111    6.8254 C   0  0  0  0  0  0  0  0  0  0  0  0
   -9.3762   -7.4556    8.0414 C   0  0  0  0  0  0  0  0  0  0  0  0
   -8.9386   -6.0182    8.1871 C   0  0  0  0  0  0  0  0  0  0  0  0
  -10.8614   -7.5764    7.8758 C   0  0  0  0  0  0  0  0  0  0  0  0
   -7.3130   -7.7619    6.6631 C   0  0  0  0  0  0  0  0  0  0  0  0
   -6.3257   -8.4281    7.3376 C   0  0  0  0  0  0  0  0  0  0  0  0
   -5.0058   -8.0746    7.1591 C   0  0  0  0  0  0  0  0  0  0  0  0
   -4.6726   -7.0479    6.3006 C   0  0  0  0  0  0  0  0  0  0  0  0
   -5.6512   -6.3590    5.6075 C   0  0  0  0  0  0  0  0  0  0  0  0
   -6.9568   -6.7390    5.8101 C   0  0  0  0  0  0  0  0  0  0  0  0
  -13.6007   -7.9763    7.2104 C   0  0  0  0  0  0  0  0  0  0  0  0
  -14.5327   -8.0016    8.3358 C   0  0  0  0  0  0  0  0  0  0  0  0
  -13.2652   -8.2034   10.4746 C   0  0  0  0  0  0  0  0  0  0  0  0
  -14.2652   -7.4121    9.6468 C   0  0  0  0  0  0  0  0  0  0  0  0
  -13.5265   -6.0264    9.4318 C   0  0  0  0  0  0  0  0  0  0  0  0
  -14.5477   -8.2489    6.0815 O   0  0  0  0  0  0  0  0  0  0  0  0
  -15.8082   -7.8148    6.4620 C   0  0  0  0  0  0  0  0  0  0  0  0
  -16.2250   -6.7699    5.5088 C   0  0  0  0  0  0  0  0  0  0  0  0
  -15.3552   -5.7457    5.1788 C   0  0  0  0  0  0  0  0  0  0  0  0
  -15.7342   -4.7717    4.2947 C   0  0  0  0  0  0  0  0  0  0  0  0
  -16.9749   -4.7874    3.7199 C   0  0  0  0  0  0  0  0  0  0  0  0
  -17.8704   -5.8063    4.0343 C   0  0  0  0  0  0  0  0  0  0  0  0
  -17.4753   -6.7925    4.9343 C   0  0  0  0  0  0  0  0  0  0  0  0
 18 19  1  0  0  0
 19 20  1  0  0  0
 19 17  1  0  0  0
 17 16  1  0  0  0
 16 21  1  0  0  0
 21 22  1  0  0  0
 22 23  1  0  0  0
 23 24  2  0  0  0
 24 25  1  0  0  0
 25 26  2  0  0  0
 26 27  1  0  0  0
 27 28  2  0  0  0
 16  1  1  0  0  0
  1  2  1  0  0  0
  1  3  1  0  0  0
  3  4  1  0  0  0
  4  5  1  0  0  0
  5  6  1  0  0  0
  6  7  1  0  0  0
  7  8  1  0  0  0
  7  9  1  0  0  0
  6 10  1  0  0  0
 10 11  2  0  0  0
 11 12  1  0  0  0
 12 13  2  0  0  0
 13 14  1  0  0  0
 14 15  2  0  0  0
 28 23  1  0  0  0
  9  3  1  0  0  0
 15 10  1  0  0  0
M  END
> <minimizedAffinity>
-8.86489

> <CNNscore>
0.3602346480

> <CNNaffinity>
7.0882887840

> <CNN_VS>
2.5534472466

> <CNNaffinity_variance>
0.0324510150

$$$$
[H]c1c([H])c([H])c(C([H])([H])O[C@@]([H])(C([H])([H])C([H])(C([H])([H])[H])C([H])([H])[H])[C@@]([H])(N2C([H])([H])C([H])([H])[C@]([H])(c3c([H])c([H])c([H])c([H])c3[H])[C@@]([H])(C([H])([H])[H])C2([H])[H])C([H])([H])[H])c([H])c1[H]


 28 30  0  0  0  0  0  0  0  0999 V2000
  -12.5712   -8.9688    6.9990 C   0  0  0  0  0  0  0  0  0  0  0  0
  -13.1802  -10.3265    7.4387 C   0  0  0  0  0  0  0  0  0  0  0  0
  -11.2552   -8.8446    7.3702 N   0  0  0  0  0  0  0  0  0  0  0  0
  -10.3286   -9.8372    7.5893 C   0  0  0  0  0  0  0  0  0  0  0  0
   -8.9189   -9.5441    7.0936 C   0  0  0  0  0  0  0  0  0  0  0  0
   -8.7613   -8.0477    6.8186 C   0  0  0  0  0  0  0  0  0  0  0  0
   -9.4055   -7.3852    8.0276 C   0  0  0  0  0  0  0  0  0  0  0  0
   -8.9833   -5.9416    8.1564 C   0  0  0  0  0  0  0  0  0  0  0  0
  -10.8895   -7.5237    7.8648 C   0  0  0  0  0  0  0  0  0  0  0  0
   -7.3403   -7.6852    6.6510 C   0  0  0  0  0  0  0  0  0  0  0  0
   -6.9402   -6.7311    5.7546 C   0  0  0  0  0  0  0  0  0  0  0  0
   -5.6042   -6.4184    5.6271 C   0  0  0  0  0  0  0  0  0  0  0  0
   -4.6635   -7.0648    6.4012 C   0  0  0  0  0  0  0  0  0  0  0  0
   -5.0417   -8.0326    7.3140 C   0  0  0  0  0  0  0  0  0  0  0  0
   -6.3827   -8.3185    7.4142 C   0  0  0  0  0  0  0  0  0  0  0  0
  -13.6311   -7.9727    7.2324 C   0  0  0  0  0  0  0  0  0  0  0  0
  -14.5370   -8.0085    8.3786 C   0  0  0  0  0  0  0  0  0  0  0  0
  -13.2138   -8.2587   10.4782 C   0  0  0  0  0  0  0  0  0  0  0  0
  -14.2323   -7.4470    9.6938 C   0  0  0  0  0  0  0  0  0  0  0  0
  -13.4940   -6.0598    9.4875 C   0  0  0  0  0  0  0  0  0  0  0  0
  -14.5968   -8.2753    6.1274 O   0  0  0  0  0  0  0  0  0  0  0  0
  -15.8424   -7.7937    6.4995 C   0  0  0  0  0  0  0  0  0  0  0  0
  -16.2168   -6.7398    5.5387 C   0  0  0  0  0  0  0  0  0  0  0  0
  -17.4708   -6.7484    4.9541 C   0  0  0  0  0  0  0  0  0  0  0  0
  -17.8266   -5.7737    4.0612 C   0  0  0  0  0  0  0  0  0  0  0  0
  -16.9557   -4.7737    3.7272 C   0  0  0  0  0  0  0  0  0  0  0  0
  -15.6870   -4.7408    4.3003 C   0  0  0  0  0  0  0  0  0  0  0  0
  -15.3350   -5.7365    5.2077 C   0  0  0  0  0  0  0  0  0  0  0  0
 18 19  1  0  0  0
 19 20  1  0  0  0
 19 17  1  0  0  0
 17 16  1  0  0  0
 16 21  1  0  0  0
 21 22  1  0  0  0
 22 23  1  0  0  0
 23 24  2  0  0  0
 24 25  1  0  0  0
 25 26  2  0  0  0
 26 27  1  0  0  0
 27 28  2  0  0  0
 16  1  1  0  0  0
  1  2  1  0  0  0
  1  3  1  0  0  0
  3  4  1  0  0  0
  4  5  1  0  0  0
  5  6  1  0  0  0
  6  7  1  0  0  0
  7  8  1  0  0  0
  7  9  1  0  0  0
  6 10  1  0  0  0
 10 11  2  0  0  0
 11 12  1  0  0  0
 12 13  2  0  0  0
 13 14  1  0  0  0
 14 15  2  0  0  0
 28 23  1  0  0  0
  9  3  1  0  0  0
 15 10  1  0  0  0
M  END
> <minimizedAffinity>
-8.87851

> <CNNscore>
0.3442093730

> <CNNaffinity>
7.0798950195

> <CNN_VS>
2.4369661808

> <CNNaffinity_variance>
0.0286314692

$$$$
[H]c1c([H])c([H])c(C([H])([H])O[C@@]([H])(C([H])([H])C([H])(C([H])([H])[H])C([H])([H])[H])[C@@]([H])(N2C([H])([H])C([H])([H])[C@]([H])(c3c([H])c([H])c([H])c([H])c3[H])[C@@]([H])(C([H])([H])[H])C2([H])[H])C([H])([H])[H])c([H])c1[H]


 28 30  0  0  0  0  0  0  0  0999 V2000
   -9.9961   -8.3217    7.1895 C   0  0  0  0  0  0  0  0  0  0  0  0
   -9.9875   -9.8605    7.3889 C   0  0  0  0  0  0  0  0  0  0  0  0
   -8.7895   -7.7493    7.5081 N   0  0  0  0  0  0  0  0  0  0  0  0
   -8.2029   -7.6174    8.7452 C   0  0  0  0  0  0  0  0  0  0  0  0
   -6.6961   -7.8335    8.7866 C   0  0  0  0  0  0  0  0  0  0  0  0
   -6.1174   -7.7578    7.3728 C   0  0  0  0  0  0  0  0  0  0  0  0
   -6.7975   -6.5395    6.7654 C   0  0  0  0  0  0  0  0  0  0  0  0
   -6.0598   -6.0472    5.5439 C   0  0  0  0  0  0  0  0  0  0  0  0
   -8.2076   -6.9375    6.4473 C   0  0  0  0  0  0  0  0  0  0  0  0
   -4.6464   -7.6405    7.4065 C   0  0  0  0  0  0  0  0  0  0  0  0
   -3.8402   -8.4594    6.6628 C   0  0  0  0  0  0  0  0  0  0  0  0
   -2.4705   -8.3189    6.7192 C   0  0  0  0  0  0  0  0  0  0  0  0
   -1.9048   -7.3532    7.5250 C   0  0  0  0  0  0  0  0  0  0  0  0
   -2.6972   -6.5134    8.2863 C   0  0  0  0  0  0  0  0  0  0  0  0
   -4.0591   -6.6822    8.2050 C   0  0  0  0  0  0  0  0  0  0  0  0
  -11.3160   -7.8746    7.6670 C   0  0  0  0  0  0  0  0  0  0  0  0
  -11.7475   -7.9699    9.0600 C   0  0  0  0  0  0  0  0  0  0  0  0
  -11.0411   -5.6199    9.5077 C   0  0  0  0  0  0  0  0  0  0  0  0
  -11.8083   -6.8415    9.9879 C   0  0  0  0  0  0  0  0  0  0  0  0
  -13.3035   -6.3190   10.0441 C   0  0  0  0  0  0  0  0  0  0  0  0
  -12.2346   -8.8790    7.0403 O   0  0  0  0  0  0  0  0  0  0  0  0
  -13.5298   -8.5861    7.4388 C   0  0  0  0  0  0  0  0  0  0  0  0
  -14.1802   -7.8560    6.3350 C   0  0  0  0  0  0  0  0  0  0  0  0
  -14.4746   -8.5084    5.1509 C   0  0  0  0  0  0  0  0  0  0  0  0
  -15.0784   -7.8382    4.1213 C   0  0  0  0  0  0  0  0  0  0  0  0
  -15.4031   -6.5149    4.2378 C   0  0  0  0  0  0  0  0  0  0  0  0
  -15.1180   -5.8336    5.4182 C   0  0  0  0  0  0  0  0  0  0  0  0
  -14.5041   -6.5244    6.4597 C   0  0  0  0  0  0  0  0  0  0  0  0
 18 19  1  0  0  0
 19 20  1  0  0  0
 19 17  1  0  0  0
 17 16  1  0  0  0
 16 21  1  0  0  0
 21 22  1  0  0  0
 22 23  1  0  0  0
 23 24  2  0  0  0
 24 25  1  0  0  0
 25 26  2  0  0  0
 26 27  1  0  0  0
 27 28  2  0  0  0
 16  1  1  0  0  0
  1  2  1  0  0  0
  1  3  1  0  0  0
  3  4  1  0  0  0
  4  5  1  0  0  0
  5  6  1  0  0  0
  6  7  1  0  0  0
  7  8  1  0  0  0
  7  9  1  0  0  0
  6 10  1  0  0  0
 10 11  2  0  0  0
 11 12  1  0  0  0
 12 13  2  0  0  0
 13 14  1  0  0  0
 14 15  2  0  0  0
 28 23  1  0  0  0
  9  3  1  0  0  0
 15 10  1  0  0  0
M  END
> <minimizedAffinity>
-8.12702

> <CNNscore>
0.3250584006

> <CNNaffinity>
6.6710395813

> <CNN_VS>
2.1684775352

> <CNNaffinity_variance>
0.1437918991

$$$$
[H]c1c([H])c([H])c(C([H])([H])O[C@@]([H])(C([H])([H])C([H])(C([H])([H])[H])C([H])([H])[H])[C@@]([H])(N2C([H])([H])C([H])([H])[C@]([H])(c3c([H])c([H])c([H])c([H])c3[H])[C@@]([H])(C([H])([H])[H])C2([H])[H])C([H])([H])[H])c([H])c1[H]


 28 30  0  0  0  0  0  0  0  0999 V2000
  -11.3217   -8.6476    7.3617 C   0  0  0  0  0  0  0  0  0  0  0  0
  -12.0798   -9.7334    8.1704 C   0  0  0  0  0  0  0  0  0  0  0  0
   -9.9603   -8.8186    7.4105 N   0  0  0  0  0  0  0  0  0  0  0  0
   -9.1914   -9.7649    6.7740 C   0  0  0  0  0  0  0  0  0  0  0  0
   -7.8559   -9.2733    6.2321 C   0  0  0  0  0  0  0  0  0  0  0  0
   -7.4961   -7.9291    6.8673 C   0  0  0  0  0  0  0  0  0  0  0  0
   -7.8069   -8.1288    8.3434 C   0  0  0  0  0  0  0  0  0  0  0  0
   -7.1311   -7.0824    9.1963 C   0  0  0  0  0  0  0  0  0  0  0  0
   -9.2989   -8.0918    8.4864 C   0  0  0  0  0  0  0  0  0  0  0  0
   -6.0829   -7.5845    6.6166 C   0  0  0  0  0  0  0  0  0  0  0  0
   -5.0682   -8.4649    6.8795 C   0  0  0  0  0  0  0  0  0  0  0  0
   -3.7606   -8.1079    6.6310 C   0  0  0  0  0  0  0  0  0  0  0  0
   -3.4673   -6.8623    6.1167 C   0  0  0  0  0  0  0  0  0  0  0  0
   -4.4741   -5.9546    5.8426 C   0  0  0  0  0  0  0  0  0  0  0  0
   -5.7663   -6.3449    6.1028 C   0  0  0  0  0  0  0  0  0  0  0  0
  -12.0435   -7.3908    7.6254 C   0  0  0  0  0  0  0  0  0  0  0  0
  -12.8196   -7.1426    8.8386 C   0  0  0  0  0  0  0  0  0  0  0  0
  -11.0045   -5.7277    9.8004 C   0  0  0  0  0  0  0  0  0  0  0  0
  -12.2954   -6.4942   10.0397 C   0  0  0  0  0  0  0  0  0  0  0  0
  -13.3066   -5.3543   10.4755 C   0  0  0  0  0  0  0  0  0  0  0  0
  -13.1488   -7.4442    6.6152 O   0  0  0  0  0  0  0  0  0  0  0  0
  -14.3148   -7.0131    7.2288 C   0  0  0  0  0  0  0  0  0  0  0  0
  -15.1997   -6.4794    6.1770 C   0  0  0  0  0  0  0  0  0  0  0  0
  -16.4659   -7.0090    6.0018 C   0  0  0  0  0  0  0  0  0  0  0  0
  -17.2938   -6.5193    5.0278 C   0  0  0  0  0  0  0  0  0  0  0  0
  -16.8913   -5.5007    4.2089 C   0  0  0  0  0  0  0  0  0  0  0  0
  -15.6220   -4.9493    4.3630 C   0  0  0  0  0  0  0  0  0  0  0  0
  -14.7876   -5.4541    5.3569 C   0  0  0  0  0  0  0  0  0  0  0  0
 18 19  1  0  0  0
 19 20  1  0  0  0
 19 17  1  0  0  0
 17 16  1  0  0  0
 16 21  1  0  0  0
 21 22  1  0  0  0
 22 23  1  0  0  0
 23 24  2  0  0  0
 24 25  1  0  0  0
 25 26  2  0  0  0
 26 27  1  0  0  0
 27 28  2  0  0  0
 16  1  1  0  0  0
  1  2  1  0  0  0
  1  3  1  0  0  0
  3  4  1  0  0  0
  4  5  1  0  0  0
  5  6  1  0  0  0
  6  7  1  0  0  0
  7  8  1  0  0  0
  7  9  1  0  0  0
  6 10  1  0  0  0
 10 11  2  0  0  0
 11 12  1  0  0  0
 12 13  2  0  0  0
 13 14  1  0  0  0
 14 15  2  0  0  0
 28 23  1  0  0  0
  9  3  1  0  0  0
 15 10  1  0  0  0
M  END
> <minimizedAffinity>
-8.33833

> <CNNscore>
0.2952001095

> <CNNaffinity>
6.8577041626

> <CNN_VS>
2.0243949890

> <CNNaffinity_variance>
0.0578308888

$$$$
[H]c1c([H])c([H])c(C([H])([H])O[C@@]([H])(C([H])([H])C([H])(C([H])([H])[H])C([H])([H])[H])[C@@]([H])(N2C([H])([H])C([H])([H])[C@]([H])(c3c([H])c([H])c([H])c([H])c3[H])[C@@]([H])(C([H])([H])[H])C2([H])[H])C([H])([H])[H])c([H])c1[H]


 28 30  0  0  0  0  0  0  0  0999 V2000
   -9.9075   -6.6991    8.6515 C   0  0  0  0  0  0  0  0  0  0  0  0
   -9.7654   -6.2694   10.1357 C   0  0  0  0  0  0  0  0  0  0  0  0
  -11.0808   -7.3716    8.4148 N   0  0  0  0  0  0  0  0  0  0  0  0
  -11.8401   -8.1073    9.2946 C   0  0  0  0  0  0  0  0  0  0  0  0
  -13.3485   -7.9619    9.1448 C   0  0  0  0  0  0  0  0  0  0  0  0
  -13.6821   -7.3360    7.7896 C   0  0  0  0  0  0  0  0  0  0  0  0
  -12.7865   -8.0836    6.8126 C   0  0  0  0  0  0  0  0  0  0  0  0
  -13.2620   -7.9171    5.3896 C   0  0  0  0  0  0  0  0  0  0  0  0
  -11.3948   -7.5598    7.0044 C   0  0  0  0  0  0  0  0  0  0  0  0
  -15.1182   -7.4759    7.4789 C   0  0  0  0  0  0  0  0  0  0  0  0
  -15.7100   -6.7673    6.4682 C   0  0  0  0  0  0  0  0  0  0  0  0
  -17.0537   -6.9257    6.2068 C   0  0  0  0  0  0  0  0  0  0  0  0
  -17.8092   -7.7982    6.9617 C   0  0  0  0  0  0  0  0  0  0  0  0
  -17.2354   -8.5257    7.9885 C   0  0  0  0  0  0  0  0  0  0  0  0
  -15.8928   -8.3423    8.2206 C   0  0  0  0  0  0  0  0  0  0  0  0
   -8.5626   -7.1405    8.2435 C   0  0  0  0  0  0  0  0  0  0  0  0
   -8.2943   -8.4202    7.5907 C   0  0  0  0  0  0  0  0  0  0  0  0
   -6.3125   -8.3142    6.0797 C   0  0  0  0  0  0  0  0  0  0  0  0
   -7.8053   -8.5652    6.2204 C   0  0  0  0  0  0  0  0  0  0  0  0
   -7.9488  -10.0852    5.7953 C   0  0  0  0  0  0  0  0  0  0  0  0
   -7.8943   -7.3762    9.5638 O   0  0  0  0  0  0  0  0  0  0  0  0
   -6.5702   -7.7092    9.3232 C   0  0  0  0  0  0  0  0  0  0  0  0
   -5.7344   -6.6095    9.8393 C   0  0  0  0  0  0  0  0  0  0  0  0
   -5.8522   -6.2097   11.1587 C   0  0  0  0  0  0  0  0  0  0  0  0
   -5.0800   -5.1898   11.6459 C   0  0  0  0  0  0  0  0  0  0  0  0
   -4.1788   -4.5450   10.8445 C   0  0  0  0  0  0  0  0  0  0  0  0
   -4.0398   -4.9267    9.5127 C   0  0  0  0  0  0  0  0  0  0  0  0
   -4.8295   -5.9655    9.0268 C   0  0  0  0  0  0  0  0  0  0  0  0
 18 19  1  0  0  0
 19 20  1  0  0  0
 19 17  1  0  0  0
 17 16  1  0  0  0
 16 21  1  0  0  0
 21 22  1  0  0  0
 22 23  1  0  0  0
 23 24  2  0  0  0
 24 25  1  0  0  0
 25 26  2  0  0  0
 26 27  1  0  0  0
 27 28  2  0  0  0
 16  1  1  0  0  0
  1  2  1  0  0  0
  1  3  1  0  0  0
  3  4  1  0  0  0
  4  5  1  0  0  0
  5  6  1  0  0  0
  6  7  1  0  0  0
  7  8  1  0  0  0
  7  9  1  0  0  0
  6 10  1  0  0  0
 10 11  2  0  0  0
 11 12  1  0  0  0
 12 13  2  0  0  0
 13 14  1  0  0  0
 14 15  2  0  0  0
 28 23  1  0  0  0
  9  3  1  0  0  0
 15 10  1  0  0  0
M  END
> <minimizedAffinity>
0.16182

> <CNNscore>
0.2727178931

> <CNNaffinity>
6.2133817673

> <CNN_VS>
1.6945003271

> <CNNaffinity_variance>
0.4678711891

$$$$
[H]c1c([H])c([H])c(Oc2c([H])c(C([H])([H])[H])c3c(c2[H])C(C([H])([H])[H])(C([H])([H])[H])C([H])([H])C(=O)N3[H])c(C#N)c1[H]


 24 26  0  0  0  0  0  0  0  0999 V2000
   -8.5522  -11.1823    7.8661 C   0  0  0  0  0  0  0  0  0  0  0  0
   -8.4814   -9.8651    7.0849 C   0  0  0  0  0  0  0  0  0  0  0  0
   -9.9113   -9.4137    6.8749 C   0  0  0  0  0  0  0  0  0  0  0  0
   -7.8961  -10.1794    5.7461 C   0  0  0  0  0  0  0  0  0  0  0  0
   -7.0669   -9.1278    5.1703 C   0  0  0  0  0  0  0  0  0  0  0  0
   -6.9990   -9.0007    3.9322 O   0  0  0  0  0  0  0  0  0  0  0  0
   -6.3285   -8.2376    5.9929 N   0  0  0  0  0  0  0  0  0  0  0  0
   -6.6761   -8.1673    7.3705 C   0  0  0  0  0  0  0  0  0  0  0  0
   -5.9806   -7.3121    8.2057 C   0  0  0  0  0  0  0  0  0  0  0  0
   -4.8726   -6.4651    7.6778 C   0  0  0  0  0  0  0  0  0  0  0  0
   -6.3100   -7.2371    9.5407 C   0  0  0  0  0  0  0  0  0  0  0  0
   -7.3377   -8.0014   10.1070 C   0  0  0  0  0  0  0  0  0  0  0  0
   -8.0090   -8.8413    9.2499 C   0  0  0  0  0  0  0  0  0  0  0  0
   -7.6890   -8.9316    7.8890 C   0  0  0  0  0  0  0  0  0  0  0  0
   -5.5639   -7.6705    5.5654 H   0  0  0  0  0  0  0  0  0  0  0  0
   -7.5650   -7.8398   11.4331 O   0  0  0  0  0  0  0  0  0  0  0  0
   -7.0724   -6.9816   12.3429 C   0  0  0  0  0  0  0  0  0  0  0  0
   -5.8785   -7.2623   12.9703 C   0  0  0  0  0  0  0  0  0  0  0  0
   -5.3278   -6.4051   13.9175 C   0  0  0  0  0  0  0  0  0  0  0  0
   -5.9747   -5.2472   14.2481 C   0  0  0  0  0  0  0  0  0  0  0  0
   -7.1672   -4.9591   13.6260 C   0  0  0  0  0  0  0  0  0  0  0  0
   -7.7227   -5.8199   12.6728 C   0  0  0  0  0  0  0  0  0  0  0  0
   -8.9510   -5.4116   12.0762 C   0  0  0  0  0  0  0  0  0  0  0  0
   -9.9287   -5.0865   11.5768 N   0  0  0  0  0  0  0  0  0  0  0  0
  1  2  1  0  0  0
  2  3  1  0  0  0
  2  4  1  0  0  0
  4  5  1  0  0  0
  5  6  2  0  0  0
  5  7  1  0  0  0
  7  8  1  0  0  0
  8  9  2  0  0  0
  9 10  1  0  0  0
  9 11  1  0  0  0
 11 12  2  0  0  0
 12 16  1  0  0  0
 16 17  1  0  0  0
 17 18  2  0  0  0
 18 19  1  0  0  0
 19 20  2  0  0  0
 20 21  1  0  0  0
 21 22  2  0  0  0
 22 23  1  0  0  0
 23 24  3  0  0  0
 12 13  1  0  0  0
 13 14  2  0  0  0
 14  2  1  0  0  0
 14  8  1  0  0  0
 22 17  1  0  0  0
  7 15  1  0  0  0
M  END
> <minimizedAffinity>
21.69753

> <CNNscore>
0.4929114878

> <CNNaffinity>
5.1762456894

> <CNN_VS>
2.5514309406

> <CNNaffinity_variance>
1.6565738916

$$$$
[H]c1c([H])c([H])c(Oc2c([H])c(C([H])([H])[H])c3c(c2[H])C(C([H])([H])[H])(C([H])([H])[H])C([H])([H])C(=O)N3[H])c(C#N)c1[H]


 24 26  0  0  0  0  0  0  0  0999 V2000
  -14.7937   -5.6136    4.2224 C   0  0  0  0  0  0  0  0  0  0  0  0
  -15.3262   -7.0185    4.5280 C   0  0  0  0  0  0  0  0  0  0  0  0
  -14.6755   -7.9507    3.5280 C   0  0  0  0  0  0  0  0  0  0  0  0
  -16.7952   -7.0008    4.2535 C   0  0  0  0  0  0  0  0  0  0  0  0
  -17.5974   -7.8564    5.1191 C   0  0  0  0  0  0  0  0  0  0  0  0
  -18.6506   -8.3628    4.6854 O   0  0  0  0  0  0  0  0  0  0  0  0
  -17.2046   -8.1290    6.4553 N   0  0  0  0  0  0  0  0  0  0  0  0
  -15.8606   -7.8409    6.8218 C   0  0  0  0  0  0  0  0  0  0  0  0
  -15.4383   -8.0922    8.1145 C   0  0  0  0  0  0  0  0  0  0  0  0
  -16.3755   -8.6605    9.1257 C   0  0  0  0  0  0  0  0  0  0  0  0
  -14.1391   -7.8166    8.4785 C   0  0  0  0  0  0  0  0  0  0  0  0
  -13.2034   -7.2825    7.5840 C   0  0  0  0  0  0  0  0  0  0  0  0
  -13.6552   -7.0444    6.3073 C   0  0  0  0  0  0  0  0  0  0  0  0
  -14.9727   -7.3180    5.9178 C   0  0  0  0  0  0  0  0  0  0  0  0
  -17.9060   -8.5271    7.1175 H   0  0  0  0  0  0  0  0  0  0  0  0
  -11.9564   -7.0536    8.0624 O   0  0  0  0  0  0  0  0  0  0  0  0
  -10.7770   -7.6657    7.8589 C   0  0  0  0  0  0  0  0  0  0  0  0
   -9.6056   -6.9530    7.9928 C   0  0  0  0  0  0  0  0  0  0  0  0
   -8.3612   -7.5421    7.7937 C   0  0  0  0  0  0  0  0  0  0  0  0
   -8.2782   -8.8639    7.4552 C   0  0  0  0  0  0  0  0  0  0  0  0
   -9.4430   -9.5829    7.3197 C   0  0  0  0  0  0  0  0  0  0  0  0
  -10.6957   -8.9921    7.5199 C   0  0  0  0  0  0  0  0  0  0  0  0
  -11.8349   -9.8362    7.3743 C   0  0  0  0  0  0  0  0  0  0  0  0
  -12.7587  -10.4998    7.2426 N   0  0  0  0  0  0  0  0  0  0  0  0
  1  2  1  0  0  0
  2  3  1  0  0  0
  2  4  1  0  0  0
  4  5  1  0  0  0
  5  6  2  0  0  0
  5  7  1  0  0  0
  7  8  1  0  0  0
  8  9  2  0  0  0
  9 10  1  0  0  0
  9 11  1  0  0  0
 11 12  2  0  0  0
 12 16  1  0  0  0
 16 17  1  0  0  0
 17 18  2  0  0  0
 18 19  1  0  0  0
 19 20  2  0  0  0
 20 21  1  0  0  0
 21 22  2  0  0  0
 22 23  1  0  0  0
 23 24  3  0  0  0
 12 13  1  0  0  0
 13 14  2  0  0  0
 14  2  1  0  0  0
 14  8  1  0  0  0
 22 17  1  0  0  0
  7 15  1  0  0  0
M  END
> <minimizedAffinity>
-8.61821

> <CNNscore>
0.3736803532

> <CNNaffinity>
6.6686048508

> <CNN_VS>
2.4919266701

> <CNNaffinity_variance>
0.0988021940

$$$$
[H]c1c([H])c([H])c(Oc2c([H])c(C([H])([H])[H])c3c(c2[H])C(C([H])([H])[H])(C([H])([H])[H])C([H])([H])C(=O)N3[H])c(C#N)c1[H]


 24 26  0  0  0  0  0  0  0  0999 V2000
  -14.3827   -3.2035    2.3039 C   0  0  0  0  0  0  0  0  0  0  0  0
  -15.1561   -3.1317    3.6257 C   0  0  0  0  0  0  0  0  0  0  0  0
  -16.6053   -2.8869    3.2618 C   0  0  0  0  0  0  0  0  0  0  0  0
  -14.6566   -1.9309    4.3621 C   0  0  0  0  0  0  0  0  0  0  0  0
  -14.6357   -2.0591    5.8140 C   0  0  0  0  0  0  0  0  0  0  0  0
  -14.7964   -1.0496    6.5273 O   0  0  0  0  0  0  0  0  0  0  0  0
  -14.4350   -3.3168    6.4403 N   0  0  0  0  0  0  0  0  0  0  0  0
  -14.5981   -4.4853    5.6455 C   0  0  0  0  0  0  0  0  0  0  0  0
  -14.4114   -5.7302    6.2183 C   0  0  0  0  0  0  0  0  0  0  0  0
  -14.0415   -5.8594    7.6572 C   0  0  0  0  0  0  0  0  0  0  0  0
  -14.5672   -6.8669    5.4569 C   0  0  0  0  0  0  0  0  0  0  0  0
  -14.9132   -6.8236    4.1008 C   0  0  0  0  0  0  0  0  0  0  0  0
  -15.0913   -5.5710    3.5621 C   0  0  0  0  0  0  0  0  0  0  0  0
  -14.9376   -4.4030    4.3200 C   0  0  0  0  0  0  0  0  0  0  0  0
  -14.1774   -3.3431    7.4512 H   0  0  0  0  0  0  0  0  0  0  0  0
  -15.0351   -8.0109    3.4589 O   0  0  0  0  0  0  0  0  0  0  0  0
  -15.8459   -9.0669    3.6449 C   0  0  0  0  0  0  0  0  0  0  0  0
  -15.3738  -10.3398    3.4113 C   0  0  0  0  0  0  0  0  0  0  0  0
  -16.1737  -11.4637    3.5906 C   0  0  0  0  0  0  0  0  0  0  0  0
  -17.4670  -11.3211    4.0097 C   0  0  0  0  0  0  0  0  0  0  0  0
  -17.9462  -10.0535    4.2456 C   0  0  0  0  0  0  0  0  0  0  0  0
  -17.1430   -8.9217    4.0661 C   0  0  0  0  0  0  0  0  0  0  0  0
  -17.7359   -7.6595    4.3607 C   0  0  0  0  0  0  0  0  0  0  0  0
  -18.2276   -6.6559    4.6097 N   0  0  0  0  0  0  0  0  0  0  0  0
  1  2  1  0  0  0
  2  3  1  0  0  0
  2  4  1  0  0  0
  4  5  1  0  0  0
  5  6  2  0  0  0
  5  7  1  0  0  0
  7  8  1  0  0  0
  8  9  2  0  0  0
  9 10  1  0  0  0
  9 11  1  0  0  0
 11 12  2  0  0  0
 12 16  1  0  0  0
 16 17  1  0  0  0
 17 18  2  0  0  0
 18 19  1  0  0  0
 19 20  2  0  0  0
 20 21  1  0  0  0
 21 22  2  0  0  0
 22 23  1  0  0  0
 23 24  3  0  0  0
 12 13  1  0  0  0
 13 14  2  0  0  0
 14  2  1  0  0  0
 14  8  1  0  0  0
 22 17  1  0  0  0
  7 15  1  0  0  0
M  END
> <minimizedAffinity>
30.37352

> <CNNscore>
0.3590774536

> <CNNaffinity>
6.0233182907

> <CNN_VS>
2.1628377438

> <CNNaffinity_variance>
0.9910449982

$$$$
[H]c1c([H])c([H])c(Oc2c([H])c(C([H])([H])[H])c3c(c2[H])C(C([H])([H])[H])(C([H])([H])[H])C([H])([H])C(=O)N3[H])c(C#N)c1[H]


 24 26  0  0  0  0  0  0  0  0999 V2000
  -12.1981   -6.9466   10.1371 C   0  0  0  0  0  0  0  0  0  0  0  0
  -12.4598   -7.6170    8.7834 C   0  0  0  0  0  0  0  0  0  0  0  0
  -13.1974   -6.6009    7.9372 C   0  0  0  0  0  0  0  0  0  0  0  0
  -13.3828   -8.7656    9.0332 C   0  0  0  0  0  0  0  0  0  0  0  0
  -13.1818   -9.9213    8.1677 C   0  0  0  0  0  0  0  0  0  0  0  0
  -14.1489  -10.6508    7.8742 O   0  0  0  0  0  0  0  0  0  0  0  0
  -11.9002  -10.2383    7.6469 N   0  0  0  0  0  0  0  0  0  0  0  0
  -10.8971   -9.2310    7.6989 C   0  0  0  0  0  0  0  0  0  0  0  0
   -9.6350   -9.5003    7.2017 C   0  0  0  0  0  0  0  0  0  0  0  0
   -9.3160  -10.8329    6.6132 C   0  0  0  0  0  0  0  0  0  0  0  0
   -8.6575   -8.5315    7.2477 C   0  0  0  0  0  0  0  0  0  0  0  0
   -8.8835   -7.2584    7.7852 C   0  0  0  0  0  0  0  0  0  0  0  0
  -10.1483   -7.0231    8.2710 C   0  0  0  0  0  0  0  0  0  0  0  0
  -11.1560   -7.9955    8.2331 C   0  0  0  0  0  0  0  0  0  0  0  0
  -11.7376  -11.1886    7.2475 H   0  0  0  0  0  0  0  0  0  0  0  0
   -7.8411   -6.3925    7.7749 O   0  0  0  0  0  0  0  0  0  0  0  0
   -6.5240   -6.5565    7.5619 C   0  0  0  0  0  0  0  0  0  0  0  0
   -5.6739   -6.7190    8.6338 C   0  0  0  0  0  0  0  0  0  0  0  0
   -4.3042   -6.8932    8.4644 C   0  0  0  0  0  0  0  0  0  0  0  0
   -3.7682   -6.9062    7.2069 C   0  0  0  0  0  0  0  0  0  0  0  0
   -4.6101   -6.7450    6.1311 C   0  0  0  0  0  0  0  0  0  0  0  0
   -5.9882   -6.5700    6.2995 C   0  0  0  0  0  0  0  0  0  0  0  0
   -6.7683   -6.4341    5.1144 C   0  0  0  0  0  0  0  0  0  0  0  0
   -7.4094   -6.3120    4.1736 N   0  0  0  0  0  0  0  0  0  0  0  0
  1  2  1  0  0  0
  2  3  1  0  0  0
  2  4  1  0  0  0
  4  5  1  0  0  0
  5  6  2  0  0  0
  5  7  1  0  0  0
  7  8  1  0  0  0
  8  9  2  0  0  0
  9 10  1  0  0  0
  9 11  1  0  0  0
 11 12  2  0  0  0
 12 16  1  0  0  0
 16 17  1  0  0  0
 17 18  2  0  0  0
 18 19  1  0  0  0
 19 20  2  0  0  0
 20 21  1  0  0  0
 21 22  2  0  0  0
 22 23  1  0  0  0
 23 24  3  0  0  0
 12 13  1  0  0  0
 13 14  2  0  0  0
 14  2  1  0  0  0
 14  8  1  0  0  0
 22 17  1  0  0  0
  7 15  1  0  0  0
M  END
> <minimizedAffinity>
-7.47602

> <CNNscore>
0.3406229615

> <CNNaffinity>
6.1803855896

> <CNN_VS>
2.1051812172

> <CNNaffinity_variance>
0.1607916057

$$$$
[H]c1c([H])c([H])c(Oc2c([H])c(C([H])([H])[H])c3c(c2[H])C(C([H])([H])[H])(C([H])([H])[H])C([H])([H])C(=O)N3[H])c(C#N)c1[H]


 24 26  0  0  0  0  0  0  0  0999 V2000
   -9.5089  -10.8329    7.4597 C   0  0  0  0  0  0  0  0  0  0  0  0
   -9.1409   -9.3603    7.2442 C   0  0  0  0  0  0  0  0  0  0  0  0
   -8.8251   -9.2084    5.7712 C   0  0  0  0  0  0  0  0  0  0  0  0
   -7.8854   -9.1041    8.0135 C   0  0  0  0  0  0  0  0  0  0  0  0
   -7.7670   -7.7652    8.5775 C   0  0  0  0  0  0  0  0  0  0  0  0
   -6.6405   -7.2517    8.7224 O   0  0  0  0  0  0  0  0  0  0  0  0
   -8.9135   -7.0260    8.9691 N   0  0  0  0  0  0  0  0  0  0  0  0
  -10.1790   -7.4646    8.4899 C   0  0  0  0  0  0  0  0  0  0  0  0
  -11.3207   -6.7714    8.8487 C   0  0  0  0  0  0  0  0  0  0  0  0
  -11.2385   -5.5719    9.7309 C   0  0  0  0  0  0  0  0  0  0  0  0
  -12.5502   -7.1885    8.3897 C   0  0  0  0  0  0  0  0  0  0  0  0
  -12.7049   -8.3049    7.5587 C   0  0  0  0  0  0  0  0  0  0  0  0
  -11.5507   -8.9716    7.2210 C   0  0  0  0  0  0  0  0  0  0  0  0
  -10.2909   -8.5630    7.6776 C   0  0  0  0  0  0  0  0  0  0  0  0
   -8.7922   -6.1948    9.5883 H   0  0  0  0  0  0  0  0  0  0  0  0
  -13.9669   -8.6157    7.1749 O   0  0  0  0  0  0  0  0  0  0  0  0
  -14.5967   -8.5611    5.9886 C   0  0  0  0  0  0  0  0  0  0  0  0
  -13.9170   -8.8970    4.8384 C   0  0  0  0  0  0  0  0  0  0  0  0
  -14.5256   -8.8574    3.5881 C   0  0  0  0  0  0  0  0  0  0  0  0
  -15.8339   -8.4770    3.4776 C   0  0  0  0  0  0  0  0  0  0  0  0
  -16.5201   -8.1404    4.6213 C   0  0  0  0  0  0  0  0  0  0  0  0
  -15.9097   -8.1799    5.8799 C   0  0  0  0  0  0  0  0  0  0  0  0
  -16.7209   -7.8315    6.9988 C   0  0  0  0  0  0  0  0  0  0  0  0
  -17.3586   -7.5628    7.9110 N   0  0  0  0  0  0  0  0  0  0  0  0
  1  2  1  0  0  0
  2  3  1  0  0  0
  2  4  1  0  0  0
  4  5  1  0  0  0
  5  6  2  0  0  0
  5  7  1  0  0  0
  7  8  1  0  0  0
  8  9  2  0  0  0
  9 10  1  0  0  0
  9 11  1  0  0  0
 11 12  2  0  0  0
 12 16  1  0  0  0
 16 17  1  0  0  0
 17 18  2  0  0  0
 18 19  1  0  0  0
 19 20  2  0  0  0
 20 21  1  0  0  0
 21 22  2  0  0  0
 22 23  1  0  0  0
 23 24  3  0  0  0
 12 13  1  0  0  0
 13 14  2  0  0  0
 14  2  1  0  0  0
 14  8  1  0  0  0
 22 17  1  0  0  0
  7 15  1  0  0  0
M  END
> <minimizedAffinity>
-5.62239

> <CNNscore>
0.3326523602

> <CNNaffinity>
6.3765707016

> <CNN_VS>
2.1211812496

> <CNNaffinity_variance>
0.3500750661

$$$$
[H]c1c([H])c([H])c(Oc2c([H])c(C([H])([H])[H])c3c(c2[H])C(C([H])([H])[H])(C([H])([H])[H])C([H])([H])C(=O)N3[H])c(C#N)c1[H]


 24 26  0  0  0  0  0  0  0  0999 V2000
   -9.5076  -10.6109    7.2354 C   0  0  0  0  0  0  0  0  0  0  0  0
   -9.0072   -9.1618    7.2470 C   0  0  0  0  0  0  0  0  0  0  0  0
   -8.5207   -8.8649    5.8442 C   0  0  0  0  0  0  0  0  0  0  0  0
   -7.8281   -9.1116    8.1640 C   0  0  0  0  0  0  0  0  0  0  0  0
   -7.6709   -7.8650    8.9030 C   0  0  0  0  0  0  0  0  0  0  0  0
   -6.5314   -7.4746    9.2237 O   0  0  0  0  0  0  0  0  0  0  0  0
   -8.7940   -7.0783    9.2693 N   0  0  0  0  0  0  0  0  0  0  0  0
  -10.0288   -7.3424    8.6144 C   0  0  0  0  0  0  0  0  0  0  0  0
  -11.1470   -6.5979    8.9429 C   0  0  0  0  0  0  0  0  0  0  0  0
  -11.0713   -5.5237    9.9745 C   0  0  0  0  0  0  0  0  0  0  0  0
  -12.3467   -6.8463    8.3142 C   0  0  0  0  0  0  0  0  0  0  0  0
  -12.4936   -7.8380    7.3365 C   0  0  0  0  0  0  0  0  0  0  0  0
  -11.3633   -8.5600    7.0334 C   0  0  0  0  0  0  0  0  0  0  0  0
  -10.1340   -8.3224    7.6616 C   0  0  0  0  0  0  0  0  0  0  0  0
   -8.6786   -6.3406    9.9984 H   0  0  0  0  0  0  0  0  0  0  0  0
  -13.7256   -7.9874    6.7924 O   0  0  0  0  0  0  0  0  0  0  0  0
  -14.5038   -7.1689    6.0633 C   0  0  0  0  0  0  0  0  0  0  0  0
  -13.9554   -6.4548    5.0205 C   0  0  0  0  0  0  0  0  0  0  0  0
  -14.7197   -5.5965    4.2367 C   0  0  0  0  0  0  0  0  0  0  0  0
  -16.0538   -5.4441    4.4931 C   0  0  0  0  0  0  0  0  0  0  0  0
  -16.6093   -6.1537    5.5323 C   0  0  0  0  0  0  0  0  0  0  0  0
  -15.8422   -7.0179    6.3216 C   0  0  0  0  0  0  0  0  0  0  0  0
  -16.5255   -7.7190    7.3575 C   0  0  0  0  0  0  0  0  0  0  0  0
  -17.0861   -8.2932    8.1742 N   0  0  0  0  0  0  0  0  0  0  0  0
  1  2  1  0  0  0
  2  3  1  0  0  0
  2  4  1  0  0  0
  4  5  1  0  0  0
  5  6  2  0  0  0
  5  7  1  0  0  0
  7  8  1  0  0  0
  8  9  2  0  0  0
  9 10  1  0  0  0
  9 11  1  0  0  0
 11 12  2  0  0  0
 12 16  1  0  0  0
 16 17  1  0  0  0
 17 18  2  0  0  0
 18 19  1  0  0  0
 19 20  2  0  0  0
 20 21  1  0  0  0
 21 22  2  0  0  0
 22 23  1  0  0  0
 23 24  3  0  0  0
 12 13  1  0  0  0
 13 14  2  0  0  0
 14  2  1  0  0  0
 14  8  1  0  0  0
 22 17  1  0  0  0
  7 15  1  0  0  0
M  END
> <minimizedAffinity>
-5.45460

> <CNNscore>
0.2812426090

> <CNNaffinity>
6.3322801590

> <CNN_VS>
1.7809070349

> <CNNaffinity_variance>
0.3173539340

$$$$
[H]c1c([H])c([H])c(Oc2c([H])c(C([H])([H])[H])c3c(c2[H])C(C([H])([H])[H])(C([H])([H])[H])C([H])([H])C(=O)N3[H])c(C#N)c1[H]


 24 26  0  0  0  0  0  0  0  0999 V2000
  -15.2070   -4.6129    3.8477 C   0  0  0  0  0  0  0  0  0  0  0  0
  -15.6701   -6.0744    3.8416 C   0  0  0  0  0  0  0  0  0  0  0  0
  -14.6864   -6.8322    2.9752 C   0  0  0  0  0  0  0  0  0  0  0  0
  -17.0025   -6.1101    3.1655 C   0  0  0  0  0  0  0  0  0  0  0  0
  -17.9283   -7.1147    3.6740 C   0  0  0  0  0  0  0  0  0  0  0  0
  -18.7704   -7.6244    2.9093 O   0  0  0  0  0  0  0  0  0  0  0  0
  -17.8935   -7.5298    5.0307 N   0  0  0  0  0  0  0  0  0  0  0  0
  -16.7343   -7.2104    5.7909 C   0  0  0  0  0  0  0  0  0  0  0  0
  -16.6614   -7.5972    7.1167 C   0  0  0  0  0  0  0  0  0  0  0  0
  -17.7831   -8.3437    7.7558 C   0  0  0  0  0  0  0  0  0  0  0  0
  -15.5433   -7.2925    7.8606 C   0  0  0  0  0  0  0  0  0  0  0  0
  -14.4519   -6.5947    7.3287 C   0  0  0  0  0  0  0  0  0  0  0  0
  -14.5563   -6.2247    6.0085 C   0  0  0  0  0  0  0  0  0  0  0  0
  -15.6851   -6.5253    5.2353 C   0  0  0  0  0  0  0  0  0  0  0  0
  -18.7096   -8.0496    5.4217 H   0  0  0  0  0  0  0  0  0  0  0  0
  -13.4108   -6.3538    8.1620 O   0  0  0  0  0  0  0  0  0  0  0  0
  -13.1533   -6.7260    9.4278 C   0  0  0  0  0  0  0  0  0  0  0  0
  -13.1841   -8.0609    9.7668 C   0  0  0  0  0  0  0  0  0  0  0  0
  -12.9236   -8.4953   11.0625 C   0  0  0  0  0  0  0  0  0  0  0  0
  -12.6269   -7.5872   12.0401 C   0  0  0  0  0  0  0  0  0  0  0  0
  -12.5937   -6.2522   11.7100 C   0  0  0  0  0  0  0  0  0  0  0  0
  -12.8551   -5.8133   10.4072 C   0  0  0  0  0  0  0  0  0  0  0  0
  -12.7719   -4.4098   10.1730 C   0  0  0  0  0  0  0  0  0  0  0  0
  -12.6854   -3.2820    9.9955 N   0  0  0  0  0  0  0  0  0  0  0  0
  1  2  1  0  0  0
  2  3  1  0  0  0
  2  4  1  0  0  0
  4  5  1  0  0  0
  5  6  2  0  0  0
  5  7  1  0  0  0
  7  8  1  0  0  0
  8  9  2  0  0  0
  9 10  1  0  0  0
  9 11  1  0  0  0
 11 12  2  0  0  0
 12 16  1  0  0  0
 16 17  1  0  0  0
 17 18  2  0  0  0
 18 19  1  0  0  0
 19 20  2  0  0  0
 20 21  1  0  0  0
 21 22  2  0  0  0
 22 23  1  0  0  0
 23 24  3  0  0  0
 12 13  1  0  0  0
 13 14  2  0  0  0
 14  2  1  0  0  0
 14  8  1  0  0  0
 22 17  1  0  0  0
  7 15  1  0  0  0
M  END
> <minimizedAffinity>
1.00269

> <CNNscore>
0.2623844445

> <CNNaffinity>
6.0603361130

> <CNN_VS>
1.5901379585

> <CNNaffinity_variance>
0.3369489312

$$$$
[H]c1c([H])c([H])c(Oc2c([H])c(C([H])([H])[H])c3c(c2[H])C(C([H])([H])[H])(C([H])([H])[H])C([H])([H])C(=O)N3[H])c(C#N)c1[H]


 24 26  0  0  0  0  0  0  0  0999 V2000
   -6.6990   -8.8265    4.9645 C   0  0  0  0  0  0  0  0  0  0  0  0
   -6.2578   -7.5288    5.6514 C   0  0  0  0  0  0  0  0  0  0  0  0
   -6.7029   -6.3949    4.7521 C   0  0  0  0  0  0  0  0  0  0  0  0
   -4.7636   -7.5338    5.6814 C   0  0  0  0  0  0  0  0  0  0  0  0
   -4.1653   -6.8948    6.8471 C   0  0  0  0  0  0  0  0  0  0  0  0
   -3.0524   -6.3424    6.7476 O   0  0  0  0  0  0  0  0  0  0  0  0
   -4.8256   -6.8866    8.1034 N   0  0  0  0  0  0  0  0  0  0  0  0
   -6.2123   -7.2031    8.1243 C   0  0  0  0  0  0  0  0  0  0  0  0
   -6.8922   -7.2062    9.3286 C   0  0  0  0  0  0  0  0  0  0  0  0
   -6.1878   -6.8819   10.6023 C   0  0  0  0  0  0  0  0  0  0  0  0
   -8.2346   -7.5113    9.3586 C   0  0  0  0  0  0  0  0  0  0  0  0
   -8.9617   -7.8257    8.2039 C   0  0  0  0  0  0  0  0  0  0  0  0
   -8.2564   -7.8140    7.0236 C   0  0  0  0  0  0  0  0  0  0  0  0
   -6.8907   -7.5061    6.9723 C   0  0  0  0  0  0  0  0  0  0  0  0
   -4.2788   -6.6514    8.9606 H   0  0  0  0  0  0  0  0  0  0  0  0
  -10.2770   -8.1099    8.3637 O   0  0  0  0  0  0  0  0  0  0  0  0
  -11.2856   -7.4478    8.9566 C   0  0  0  0  0  0  0  0  0  0  0  0
  -11.0591   -6.2019    9.4990 C   0  0  0  0  0  0  0  0  0  0  0  0
  -12.0705   -5.4775   10.1215 C   0  0  0  0  0  0  0  0  0  0  0  0
  -13.3308   -6.0000   10.2071 C   0  0  0  0  0  0  0  0  0  0  0  0
  -13.5656   -7.2433    9.6677 C   0  0  0  0  0  0  0  0  0  0  0  0
  -12.5496   -7.9734    9.0408 C   0  0  0  0  0  0  0  0  0  0  0  0
  -12.9101   -9.2412    8.4984 C   0  0  0  0  0  0  0  0  0  0  0  0
  -13.2187  -10.2591    8.0744 N   0  0  0  0  0  0  0  0  0  0  0  0
  1  2  1  0  0  0
  2  3  1  0  0  0
  2  4  1  0  0  0
  4  5  1  0  0  0
  5  6  2  0  0  0
  5  7  1  0  0  0
  7  8  1  0  0  0
  8  9  2  0  0  0
  9 10  1  0  0  0
  9 11  1  0  0  0
 11 12  2  0  0  0
 12 16  1  0  0  0
 16 17  1  0  0  0
 17 18  2  0  0  0
 18 19  1  0  0  0
 19 20  2  0  0  0
 20 21  1  0  0  0
 21 22  2  0  0  0
 22 23  1  0  0  0
 23 24  3  0  0  0
 12 13  1  0  0  0
 13 14  2  0  0  0
 14  2  1  0  0  0
 14  8  1  0  0  0
 22 17  1  0  0  0
  7 15  1  0  0  0
M  END
> <minimizedAffinity>
-4.99694

> <CNNscore>
0.2610314786

> <CNNaffinity>
5.6614389420

> <CNN_VS>
1.4778137207

> <CNNaffinity_variance>
0.1816840917

$$$$
[H]c1c([H])c([H])c(Oc2c([H])c(C([H])([H])[H])c3c(c2[H])C(C([H])([H])[H])(C([H])([H])[H])C([H])([H])C(=O)N3[H])c(C#N)c1[H]


 24 26  0  0  0  0  0  0  0  0999 V2000
  -13.5122   -9.4465    9.9879 C   0  0  0  0  0  0  0  0  0  0  0  0
  -14.3145   -8.2453    9.4743 C   0  0  0  0  0  0  0  0  0  0  0  0
  -14.3215   -7.2245   10.5926 C   0  0  0  0  0  0  0  0  0  0  0  0
  -15.7193   -8.7115    9.2672 C   0  0  0  0  0  0  0  0  0  0  0  0
  -16.4244   -8.0800    8.1586 C   0  0  0  0  0  0  0  0  0  0  0  0
  -17.6609   -7.9335    8.2142 O   0  0  0  0  0  0  0  0  0  0  0  0
  -15.7305   -7.6240    7.0075 N   0  0  0  0  0  0  0  0  0  0  0  0
  -14.3182   -7.4806    7.0998 C   0  0  0  0  0  0  0  0  0  0  0  0
  -13.6052   -7.0389    6.0002 C   0  0  0  0  0  0  0  0  0  0  0  0
  -14.3004   -6.7124    4.7219 C   0  0  0  0  0  0  0  0  0  0  0  0
  -12.2378   -6.8970    6.0800 C   0  0  0  0  0  0  0  0  0  0  0  0
  -11.5175   -7.1843    7.2459 C   0  0  0  0  0  0  0  0  0  0  0  0
  -12.2559   -7.6212    8.3204 C   0  0  0  0  0  0  0  0  0  0  0  0
  -13.6473   -7.7719    8.2591 C   0  0  0  0  0  0  0  0  0  0  0  0
  -16.2725   -7.4112    6.1415 H   0  0  0  0  0  0  0  0  0  0  0  0
  -10.1749   -7.0064    7.1989 O   0  0  0  0  0  0  0  0  0  0  0  0
   -9.1441   -7.7295    7.6695 C   0  0  0  0  0  0  0  0  0  0  0  0
   -8.1081   -7.0977    8.3218 C   0  0  0  0  0  0  0  0  0  0  0  0
   -7.0205   -7.8026    8.8274 C   0  0  0  0  0  0  0  0  0  0  0  0
   -6.9603   -9.1605    8.6825 C   0  0  0  0  0  0  0  0  0  0  0  0
   -7.9908   -9.7993    8.0327 C   0  0  0  0  0  0  0  0  0  0  0  0
   -9.0858   -9.0920    7.5238 C   0  0  0  0  0  0  0  0  0  0  0  0
  -10.1062   -9.8576    6.8881 C   0  0  0  0  0  0  0  0  0  0  0  0
  -10.9390  -10.4695    6.3952 N   0  0  0  0  0  0  0  0  0  0  0  0
  1  2  1  0  0  0
  2  3  1  0  0  0
  2  4  1  0  0  0
  4  5  1  0  0  0
  5  6  2  0  0  0
  5  7  1  0  0  0
  7  8  1  0  0  0
  8  9  2  0  0  0
  9 10  1  0  0  0
  9 11  1  0  0  0
 11 12  2  0  0  0
 12 16  1  0  0  0
 16 17  1  0  0  0
 17 18  2  0  0  0
 18 19  1  0  0  0
 19 20  2  0  0  0
 20 21  1  0  0  0
 21 22  2  0  0  0
 22 23  1  0  0  0
 23 24  3  0  0  0
 12 13  1  0  0  0
 13 14  2  0  0  0
 14  2  1  0  0  0
 14  8  1  0  0  0
 22 17  1  0  0  0
  7 15  1  0  0  0
M  END
> <minimizedAffinity>
-1.57342

> <CNNscore>
0.2421002537

> <CNNaffinity>
5.9543352127

> <CNN_VS>
1.4415460825

> <CNNaffinity_variance>
0.3568798900

$$$$
[H]Oc1c([H])c2c(c([H])c1F)OC([H])([H])/C(=C(/[H])c1c([H])c(C([H])([H])[H])c(O[H])c(C([H])([H])[H])c1[H])C2=O


 25 27  0  0  0  0  0  0  0  0999 V2000
  -13.4308   -7.3558    6.1942 C   0  0  0  0  0  0  0  0  0  0  0  0
  -13.2287   -6.7312    7.3213 C   0  0  0  0  0  0  0  0  0  0  0  0
  -14.3006   -5.9849    7.9750 C   0  0  0  0  0  0  0  0  0  0  0  0
  -14.1514   -6.0018    9.4072 O   0  0  0  0  0  0  0  0  0  0  0  0
  -12.9459   -5.9990   10.0542 C   0  0  0  0  0  0  0  0  0  0  0  0
  -12.8169   -5.6367   11.3989 C   0  0  0  0  0  0  0  0  0  0  0  0
  -11.6018   -5.6340   12.0503 C   0  0  0  0  0  0  0  0  0  0  0  0
  -11.5689   -5.2743   13.3349 F   0  0  0  0  0  0  0  0  0  0  0  0
  -10.4510   -5.9957   11.3846 C   0  0  0  0  0  0  0  0  0  0  0  0
   -9.2049   -6.0003   12.0272 O   0  0  0  0  0  0  0  0  0  0  0  0
  -10.5718   -6.3542   10.0576 C   0  0  0  0  0  0  0  0  0  0  0  0
  -11.7862   -6.3585    9.4004 C   0  0  0  0  0  0  0  0  0  0  0  0
  -11.9114   -6.7374    7.9979 C   0  0  0  0  0  0  0  0  0  0  0  0
  -10.8900   -7.0704    7.3654 O   0  0  0  0  0  0  0  0  0  0  0  0
   -8.3593   -6.2653   11.5403 H   0  0  0  0  0  0  0  0  0  0  0  0
  -17.4276   -9.6038    4.2066 C   0  0  0  0  0  0  0  0  0  0  0  0
  -16.5843   -8.4061    4.4550 C   0  0  0  0  0  0  0  0  0  0  0  0
  -15.4344   -8.5146    5.2101 C   0  0  0  0  0  0  0  0  0  0  0  0
  -14.6652   -7.4194    5.4357 C   0  0  0  0  0  0  0  0  0  0  0  0
  -15.0677   -6.1876    4.8861 C   0  0  0  0  0  0  0  0  0  0  0  0
  -16.2061   -6.0713    4.1366 C   0  0  0  0  0  0  0  0  0  0  0  0
  -16.6362   -4.7809    3.5552 C   0  0  0  0  0  0  0  0  0  0  0  0
  -16.9766   -7.1966    3.9171 C   0  0  0  0  0  0  0  0  0  0  0  0
  -18.1269   -7.0682    3.1570 O   0  0  0  0  0  0  0  0  0  0  0  0
  -18.4084   -6.1854    2.7672 H   0  0  0  0  0  0  0  0  0  0  0  0
 16 17  1  0  0  0
 17 18  2  0  0  0
 18 19  1  0  0  0
 19  1  1  0  0  0
  1  2  2  0  0  0
  2  3  1  0  0  0
  3  4  1  0  0  0
  4  5  1  0  0  0
  5  6  2  0  0  0
  6  7  1  0  0  0
  7  8  1  0  0  0
  7  9  2  0  0  0
  9 10  1  0  0  0
  9 11  1  0  0  0
 11 12  2  0  0  0
 12 13  1  0  0  0
 13 14  2  0  0  0
 19 20  2  0  0  0
 20 21  1  0  0  0
 21 22  1  0  0  0
 21 23  2  0  0  0
 23 24  1  0  0  0
 23 17  1  0  0  0
 13  2  1  0  0  0
 12  5  1  0  0  0
 10 15  1  0  0  0
 24 25  1  0  0  0
M  END
> <minimizedAffinity>
-0.32699

> <CNNscore>
0.4907103777

> <CNNaffinity>
6.0463652611

> <CNN_VS>
2.9670140743

> <CNNaffinity_variance>
0.6064900160

$$$$
[H]Oc1c([H])c2c(c([H])c1F)OC([H])([H])/C(=C(/[H])c1c([H])c(C([H])([H])[H])c(O[H])c(C([H])([H])[H])c1[H])C2=O


 25 27  0  0  0  0  0  0  0  0999 V2000
  -14.8105   -5.9921    4.8110 C   0  0  0  0  0  0  0  0  0  0  0  0
  -14.5180   -6.5387    5.9586 C   0  0  0  0  0  0  0  0  0  0  0  0
  -15.5409   -6.7449    6.9805 C   0  0  0  0  0  0  0  0  0  0  0  0
  -15.2573   -7.9109    7.7766 O   0  0  0  0  0  0  0  0  0  0  0  0
  -13.9967   -8.3285    8.1057 C   0  0  0  0  0  0  0  0  0  0  0  0
  -13.7504   -9.2089    9.1641 C   0  0  0  0  0  0  0  0  0  0  0  0
  -12.4798   -9.6293    9.4953 C   0  0  0  0  0  0  0  0  0  0  0  0
  -12.3347  -10.4708   10.5207 F   0  0  0  0  0  0  0  0  0  0  0  0
  -11.3885   -9.1871    8.7799 C   0  0  0  0  0  0  0  0  0  0  0  0
  -10.0878   -9.6016    9.0990 O   0  0  0  0  0  0  0  0  0  0  0  0
  -11.6252   -8.3182    7.7343 C   0  0  0  0  0  0  0  0  0  0  0  0
  -12.8955   -7.8940    7.3985 C   0  0  0  0  0  0  0  0  0  0  0  0
  -13.1431   -6.9754    6.2934 C   0  0  0  0  0  0  0  0  0  0  0  0
  -12.1782   -6.5558    5.6249 O   0  0  0  0  0  0  0  0  0  0  0  0
   -9.2857   -9.2781    8.5752 H   0  0  0  0  0  0  0  0  0  0  0  0
  -19.8018   -6.0099    4.5584 C   0  0  0  0  0  0  0  0  0  0  0  0
  -18.4716   -5.4602    4.1901 C   0  0  0  0  0  0  0  0  0  0  0  0
  -17.3231   -6.0240    4.7073 C   0  0  0  0  0  0  0  0  0  0  0  0
  -16.1088   -5.5207    4.3695 C   0  0  0  0  0  0  0  0  0  0  0  0
  -16.0547   -4.4229    3.4900 C   0  0  0  0  0  0  0  0  0  0  0  0
  -17.1881   -3.8579    2.9730 C   0  0  0  0  0  0  0  0  0  0  0  0
  -17.1401   -2.7045    2.0480 C   0  0  0  0  0  0  0  0  0  0  0  0
  -18.4153   -4.3836    3.3276 C   0  0  0  0  0  0  0  0  0  0  0  0
  -19.5565   -3.8045    2.7987 O   0  0  0  0  0  0  0  0  0  0  0  0
  -19.5106   -3.0208    2.1708 H   0  0  0  0  0  0  0  0  0  0  0  0
 16 17  1  0  0  0
 17 18  2  0  0  0
 18 19  1  0  0  0
 19  1  1  0  0  0
  1  2  2  0  0  0
  2  3  1  0  0  0
  3  4  1  0  0  0
  4  5  1  0  0  0
  5  6  2  0  0  0
  6  7  1  0  0  0
  7  8  1  0  0  0
  7  9  2  0  0  0
  9 10  1  0  0  0
  9 11  1  0  0  0
 11 12  2  0  0  0
 12 13  1  0  0  0
 13 14  2  0  0  0
 19 20  2  0  0  0
 20 21  1  0  0  0
 21 22  1  0  0  0
 21 23  2  0  0  0
 23 24  1  0  0  0
 23 17  1  0  0  0
 13  2  1  0  0  0
 12  5  1  0  0  0
 10 15  1  0  0  0
 24 25  1  0  0  0
M  END
> <minimizedAffinity>
17.40435

> <CNNscore>
0.4624664187

> <CNNaffinity>
6.1031208038

> <CNN_VS>
2.8224883080

> <CNNaffinity_variance>
2.5552263260

$$$$
[H]Oc1c([H])c2c(c([H])c1F)OC([H])([H])/C(=C(/[H])c1c([H])c(C([H])([H])[H])c(O[H])c(C([H])([H])[H])c1[H])C2=O


 25 27  0  0  0  0  0  0  0  0999 V2000
  -12.8476   -6.6551    6.6116 C   0  0  0  0  0  0  0  0  0  0  0  0
  -13.9736   -7.2930    6.4489 C   0  0  0  0  0  0  0  0  0  0  0  0
  -14.5811   -8.0458    7.5431 C   0  0  0  0  0  0  0  0  0  0  0  0
  -16.0178   -8.0460    7.4435 O   0  0  0  0  0  0  0  0  0  0  0  0
  -16.7059   -8.0576    6.2610 C   0  0  0  0  0  0  0  0  0  0  0  0
  -18.0498   -8.4357    6.1788 C   0  0  0  0  0  0  0  0  0  0  0  0
  -18.7428   -8.4472    4.9869 C   0  0  0  0  0  0  0  0  0  0  0  0
  -20.0234   -8.8220    4.9985 F   0  0  0  0  0  0  0  0  0  0  0  0
  -18.1214   -8.0790    3.8135 C   0  0  0  0  0  0  0  0  0  0  0  0
  -18.8067   -8.0832    2.5904 O   0  0  0  0  0  0  0  0  0  0  0  0
  -16.7953   -7.7048    3.8883 C   0  0  0  0  0  0  0  0  0  0  0  0
  -16.0967   -7.6916    5.0793 C   0  0  0  0  0  0  0  0  0  0  0  0
  -14.6953   -7.2962    5.1557 C   0  0  0  0  0  0  0  0  0  0  0  0
  -14.1024   -6.9568    4.1129 O   0  0  0  0  0  0  0  0  0  0  0  0
  -18.3524   -7.8134    1.7283 H   0  0  0  0  0  0  0  0  0  0  0  0
  -11.9998   -5.7086   11.4452 C   0  0  0  0  0  0  0  0  0  0  0  0
  -11.5583   -6.1552   10.0987 C   0  0  0  0  0  0  0  0  0  0  0  0
  -12.4531   -6.1733    9.0483 C   0  0  0  0  0  0  0  0  0  0  0  0
  -12.0478   -6.5813    7.8190 C   0  0  0  0  0  0  0  0  0  0  0  0
  -10.7087   -6.9803    7.6482 C   0  0  0  0  0  0  0  0  0  0  0  0
   -9.8153   -6.9656    8.6840 C   0  0  0  0  0  0  0  0  0  0  0  0
   -8.4065   -7.3829    8.5132 C   0  0  0  0  0  0  0  0  0  0  0  0
  -10.2454   -6.5470    9.9282 C   0  0  0  0  0  0  0  0  0  0  0  0
   -9.3334   -6.5357   10.9700 O   0  0  0  0  0  0  0  0  0  0  0  0
   -8.3783   -6.8217   10.8410 H   0  0  0  0  0  0  0  0  0  0  0  0
 16 17  1  0  0  0
 17 18  2  0  0  0
 18 19  1  0  0  0
 19  1  1  0  0  0
  1  2  2  0  0  0
  2  3  1  0  0  0
  3  4  1  0  0  0
  4  5  1  0  0  0
  5  6  2  0  0  0
  6  7  1  0  0  0
  7  8  1  0  0  0
  7  9  2  0  0  0
  9 10  1  0  0  0
  9 11  1  0  0  0
 11 12  2  0  0  0
 12 13  1  0  0  0
 13 14  2  0  0  0
 19 20  2  0  0  0
 20 21  1  0  0  0
 21 22  1  0  0  0
 21 23  2  0  0  0
 23 24  1  0  0  0
 23 17  1  0  0  0
 13  2  1  0  0  0
 12  5  1  0  0  0
 10 15  1  0  0  0
 24 25  1  0  0  0
M  END
> <minimizedAffinity>
-0.10664

> <CNNscore>
0.4217004776

> <CNNaffinity>
5.9668035507

> <CNN_VS>
2.5162038803

> <CNNaffinity_variance>
0.9745796919

$$$$
[H]Oc1c([H])c2c(c([H])c1F)OC([H])([H])/C(=C(/[H])c1c([H])c(C([H])([H])[H])c(O[H])c(C([H])([H])[H])c1[H])C2=O


 25 27  0  0  0  0  0  0  0  0999 V2000
   -6.7749   -5.6733    6.0291 C   0  0  0  0  0  0  0  0  0  0  0  0
   -7.6173   -6.6613    6.1533 C   0  0  0  0  0  0  0  0  0  0  0  0
   -7.1565   -8.0464    6.2008 C   0  0  0  0  0  0  0  0  0  0  0  0
   -8.0238   -8.8585    7.0147 O   0  0  0  0  0  0  0  0  0  0  0  0
   -9.3767   -8.6793    7.1114 C   0  0  0  0  0  0  0  0  0  0  0  0
  -10.2340   -9.6783    7.5836 C   0  0  0  0  0  0  0  0  0  0  0  0
  -11.5973   -9.4971    7.6807 C   0  0  0  0  0  0  0  0  0  0  0  0
  -12.3421  -10.5036    8.1420 F   0  0  0  0  0  0  0  0  0  0  0  0
  -12.1718   -8.3014    7.3082 C   0  0  0  0  0  0  0  0  0  0  0  0
  -13.5556   -8.0953    7.3987 O   0  0  0  0  0  0  0  0  0  0  0  0
  -11.3311   -7.3118    6.8415 C   0  0  0  0  0  0  0  0  0  0  0  0
   -9.9651   -7.4881    6.7422 C   0  0  0  0  0  0  0  0  0  0  0  0
   -9.0787   -6.4409    6.2483 C   0  0  0  0  0  0  0  0  0  0  0  0
   -9.5653   -5.3464    5.9029 O   0  0  0  0  0  0  0  0  0  0  0  0
  -13.9791   -7.2186    7.1258 H   0  0  0  0  0  0  0  0  0  0  0  0
   -2.2619   -7.6144    6.9468 C   0  0  0  0  0  0  0  0  0  0  0  0
   -3.1540   -6.6132    6.3072 C   0  0  0  0  0  0  0  0  0  0  0  0
   -4.5181   -6.6753    6.5063 C   0  0  0  0  0  0  0  0  0  0  0  0
   -5.3314   -5.7596    5.9215 C   0  0  0  0  0  0  0  0  0  0  0  0
   -4.7527   -4.7595    5.1174 C   0  0  0  0  0  0  0  0  0  0  0  0
   -3.4017   -4.6908    4.9147 C   0  0  0  0  0  0  0  0  0  0  0  0
   -2.7855   -3.6431    4.0716 C   0  0  0  0  0  0  0  0  0  0  0  0
   -2.5892   -5.6310    5.5181 C   0  0  0  0  0  0  0  0  0  0  0  0
   -1.2231   -5.5526    5.3067 O   0  0  0  0  0  0  0  0  0  0  0  0
   -0.8164   -4.8354    4.7314 H   0  0  0  0  0  0  0  0  0  0  0  0
 16 17  1  0  0  0
 17 18  2  0  0  0
 18 19  1  0  0  0
 19  1  1  0  0  0
  1  2  2  0  0  0
  2  3  1  0  0  0
  3  4  1  0  0  0
  4  5  1  0  0  0
  5  6  2  0  0  0
  6  7  1  0  0  0
  7  8  1  0  0  0
  7  9  2  0  0  0
  9 10  1  0  0  0
  9 11  1  0  0  0
 11 12  2  0  0  0
 12 13  1  0  0  0
 13 14  2  0  0  0
 19 20  2  0  0  0
 20 21  1  0  0  0
 21 22  1  0  0  0
 21 23  2  0  0  0
 23 24  1  0  0  0
 23 17  1  0  0  0
 13  2  1  0  0  0
 12  5  1  0  0  0
 10 15  1  0  0  0
 24 25  1  0  0  0
M  END
> <minimizedAffinity>
0.55662

> <CNNscore>
0.4123259783

> <CNNaffinity>
5.2095236778

> <CNN_VS>
2.1480219364

> <CNNaffinity_variance>
0.4109458923

$$$$
[H]Oc1c([H])c2c(c([H])c1F)OC([H])([H])/C(=C(/[H])c1c([H])c(C([H])([H])[H])c(O[H])c(C([H])([H])[H])c1[H])C2=O


 25 27  0  0  0  0  0  0  0  0999 V2000
   -7.1717   -8.6124    6.4838 C   0  0  0  0  0  0  0  0  0  0  0  0
   -8.2560   -8.3670    7.1661 C   0  0  0  0  0  0  0  0  0  0  0  0
   -8.3665   -7.1791    8.0087 C   0  0  0  0  0  0  0  0  0  0  0  0
   -9.7261   -6.7088    8.0738 O   0  0  0  0  0  0  0  0  0  0  0  0
  -10.8235   -7.5256    8.0521 C   0  0  0  0  0  0  0  0  0  0  0  0
  -12.0824   -7.1025    8.4906 C   0  0  0  0  0  0  0  0  0  0  0  0
  -13.1879   -7.9261    8.4685 C   0  0  0  0  0  0  0  0  0  0  0  0
  -14.3517   -7.4414    8.9059 F   0  0  0  0  0  0  0  0  0  0  0  0
  -13.0869   -9.2194    8.0043 C   0  0  0  0  0  0  0  0  0  0  0  0
  -14.1978  -10.0741    7.9728 O   0  0  0  0  0  0  0  0  0  0  0  0
  -11.8473   -9.6426    7.5702 C   0  0  0  0  0  0  0  0  0  0  0  0
  -10.7370   -8.8220    7.5902 C   0  0  0  0  0  0  0  0  0  0  0  0
   -9.4280   -9.2716    7.1314 C   0  0  0  0  0  0  0  0  0  0  0  0
   -9.3011  -10.4361    6.7047 O   0  0  0  0  0  0  0  0  0  0  0  0
  -14.1257  -11.0235    7.6325 H   0  0  0  0  0  0  0  0  0  0  0  0
   -4.4170   -4.6108    5.3103 C   0  0  0  0  0  0  0  0  0  0  0  0
   -4.5842   -5.9556    5.9195 C   0  0  0  0  0  0  0  0  0  0  0  0
   -5.8126   -6.5834    5.8827 C   0  0  0  0  0  0  0  0  0  0  0  0
   -5.9633   -7.8120    6.4395 C   0  0  0  0  0  0  0  0  0  0  0  0
   -4.8478   -8.4187    7.0470 C   0  0  0  0  0  0  0  0  0  0  0  0
   -3.6268   -7.8033    7.0879 C   0  0  0  0  0  0  0  0  0  0  0  0
   -2.4495   -8.4337    7.7240 C   0  0  0  0  0  0  0  0  0  0  0  0
   -3.4918   -6.5531    6.5160 C   0  0  0  0  0  0  0  0  0  0  0  0
   -2.2518   -5.9388    6.5626 O   0  0  0  0  0  0  0  0  0  0  0  0
   -1.4592   -6.3780    6.9979 H   0  0  0  0  0  0  0  0  0  0  0  0
 16 17  1  0  0  0
 17 18  2  0  0  0
 18 19  1  0  0  0
 19  1  1  0  0  0
  1  2  2  0  0  0
  2  3  1  0  0  0
  3  4  1  0  0  0
  4  5  1  0  0  0
  5  6  2  0  0  0
  6  7  1  0  0  0
  7  8  1  0  0  0
  7  9  2  0  0  0
  9 10  1  0  0  0
  9 11  1  0  0  0
 11 12  2  0  0  0
 12 13  1  0  0  0
 13 14  2  0  0  0
 19 20  2  0  0  0
 20 21  1  0  0  0
 21 22  1  0  0  0
 21 23  2  0  0  0
 23 24  1  0  0  0
 23 17  1  0  0  0
 13  2  1  0  0  0
 12  5  1  0  0  0
 10 15  1  0  0  0
 24 25  1  0  0  0
M  END
> <minimizedAffinity>
-8.87978

> <CNNscore>
0.3861979842

> <CNNaffinity>
5.5894551277

> <CNN_VS>
2.1586363316

> <CNNaffinity_variance>
0.0561287515

$$$$
[H]Oc1c([H])c2c(c([H])c1F)OC([H])([H])/C(=C(/[H])c1c([H])c(C([H])([H])[H])c(O[H])c(C([H])([H])[H])c1[H])C2=O


 25 27  0  0  0  0  0  0  0  0999 V2000
   -6.3781   -6.4616    7.3113 C   0  0  0  0  0  0  0  0  0  0  0  0
   -7.4283   -7.1959    7.0679 C   0  0  0  0  0  0  0  0  0  0  0  0
   -7.3142   -8.4665    6.3568 C   0  0  0  0  0  0  0  0  0  0  0  0
   -8.3170   -9.4028    6.7948 O   0  0  0  0  0  0  0  0  0  0  0  0
   -9.5812   -9.0500    7.1809 C   0  0  0  0  0  0  0  0  0  0  0  0
  -10.6338   -9.9694    7.2328 C   0  0  0  0  0  0  0  0  0  0  0  0
  -11.9076   -9.6132    7.6219 C   0  0  0  0  0  0  0  0  0  0  0  0
  -12.8534  -10.5543    7.6429 F   0  0  0  0  0  0  0  0  0  0  0  0
  -12.1914   -8.3133    7.9799 C   0  0  0  0  0  0  0  0  0  0  0  0
  -13.4793   -7.9290    8.3788 O   0  0  0  0  0  0  0  0  0  0  0  0
  -11.1568   -7.4016    7.9307 C   0  0  0  0  0  0  0  0  0  0  0  0
   -9.8794   -7.7529    7.5417 C   0  0  0  0  0  0  0  0  0  0  0  0
   -8.7878   -6.7875    7.4901 C   0  0  0  0  0  0  0  0  0  0  0  0
   -9.0096   -5.6026    7.8077 O   0  0  0  0  0  0  0  0  0  0  0  0
  -13.6895   -6.9756    8.6418 H   0  0  0  0  0  0  0  0  0  0  0  0
   -2.0453   -8.9427    7.5315 C   0  0  0  0  0  0  0  0  0  0  0  0
   -2.9144   -7.8659    6.9907 C   0  0  0  0  0  0  0  0  0  0  0  0
   -4.2117   -7.7324    7.4418 C   0  0  0  0  0  0  0  0  0  0  0  0
   -5.0041   -6.7479    6.9469 C   0  0  0  0  0  0  0  0  0  0  0  0
   -4.4732   -5.8798    5.9742 C   0  0  0  0  0  0  0  0  0  0  0  0
   -3.1884   -6.0052    5.5214 C   0  0  0  0  0  0  0  0  0  0  0  0
   -2.6227   -5.0972    4.4999 C   0  0  0  0  0  0  0  0  0  0  0  0
   -2.3964   -7.0128    6.0367 C   0  0  0  0  0  0  0  0  0  0  0  0
   -1.0975   -7.1312    5.5719 O   0  0  0  0  0  0  0  0  0  0  0  0
   -0.7246   -6.5075    4.8772 H   0  0  0  0  0  0  0  0  0  0  0  0
 16 17  1  0  0  0
 17 18  2  0  0  0
 18 19  1  0  0  0
 19  1  1  0  0  0
  1  2  2  0  0  0
  2  3  1  0  0  0
  3  4  1  0  0  0
  4  5  1  0  0  0
  5  6  2  0  0  0
  6  7  1  0  0  0
  7  8  1  0  0  0
  7  9  2  0  0  0
  9 10  1  0  0  0
  9 11  1  0  0  0
 11 12  2  0  0  0
 12 13  1  0  0  0
 13 14  2  0  0  0
 19 20  2  0  0  0
 20 21  1  0  0  0
 21 22  1  0  0  0
 21 23  2  0  0  0
 23 24  1  0  0  0
 23 17  1  0  0  0
 13  2  1  0  0  0
 12  5  1  0  0  0
 10 15  1  0  0  0
 24 25  1  0  0  0
M  END
> <minimizedAffinity>
-7.81554

> <CNNscore>
0.3152779341

> <CNNaffinity>
5.2227687836

> <CNN_VS>
1.6466237307

> <CNNaffinity_variance>
0.0354644842

$$$$
[H]Oc1c([H])c2c(c([H])c1F)OC([H])([H])/C(=C(/[H])c1c([H])c(C([H])([H])[H])c(O[H])c(C([H])([H])[H])c1[H])C2=O


 25 27  0  0  0  0  0  0  0  0999 V2000
  -13.6182   -6.1541    7.8799 C   0  0  0  0  0  0  0  0  0  0  0  0
  -14.5617   -6.8617    7.3227 C   0  0  0  0  0  0  0  0  0  0  0  0
  -15.2759   -7.8926    8.0712 C   0  0  0  0  0  0  0  0  0  0  0  0
  -16.6333   -8.0284    7.6095 O   0  0  0  0  0  0  0  0  0  0  0  0
  -17.0225   -7.8623    6.3084 C   0  0  0  0  0  0  0  0  0  0  0  0
  -18.2348   -8.3586    5.8188 C   0  0  0  0  0  0  0  0  0  0  0  0
  -18.6265   -8.1910    4.5075 C   0  0  0  0  0  0  0  0  0  0  0  0
  -19.8000   -8.6972    4.1239 F   0  0  0  0  0  0  0  0  0  0  0  0
  -17.8201   -7.5150    3.6181 C   0  0  0  0  0  0  0  0  0  0  0  0
  -18.1984   -7.3327    2.2805 O   0  0  0  0  0  0  0  0  0  0  0  0
  -16.6225   -7.0228    4.0953 C   0  0  0  0  0  0  0  0  0  0  0  0
  -16.2254   -7.1880    5.4075 C   0  0  0  0  0  0  0  0  0  0  0  0
  -14.9592   -6.6674    5.9093 C   0  0  0  0  0  0  0  0  0  0  0  0
  -14.2054   -6.0504    5.1315 O   0  0  0  0  0  0  0  0  0  0  0  0
  -17.6079   -6.8370    1.6263 H   0  0  0  0  0  0  0  0  0  0  0  0
  -11.3649   -4.5166   12.0294 C   0  0  0  0  0  0  0  0  0  0  0  0
  -12.0826   -5.5582   11.2502 C   0  0  0  0  0  0  0  0  0  0  0  0
  -12.4819   -5.3002    9.9547 C   0  0  0  0  0  0  0  0  0  0  0  0
  -13.1372   -6.2530    9.2443 C   0  0  0  0  0  0  0  0  0  0  0  0
  -13.3948   -7.4937    9.8575 C   0  0  0  0  0  0  0  0  0  0  0  0
  -13.0026   -7.7577   11.1411 C   0  0  0  0  0  0  0  0  0  0  0  0
  -13.2690   -9.0586   11.7928 C   0  0  0  0  0  0  0  0  0  0  0  0
  -12.3365   -6.7761   11.8489 C   0  0  0  0  0  0  0  0  0  0  0  0
  -11.9438   -7.0533   13.1474 O   0  0  0  0  0  0  0  0  0  0  0  0
  -12.1307   -7.9417   13.5791 H   0  0  0  0  0  0  0  0  0  0  0  0
 16 17  1  0  0  0
 17 18  2  0  0  0
 18 19  1  0  0  0
 19  1  1  0  0  0
  1  2  2  0  0  0
  2  3  1  0  0  0
  3  4  1  0  0  0
  4  5  1  0  0  0
  5  6  2  0  0  0
  6  7  1  0  0  0
  7  8  1  0  0  0
  7  9  2  0  0  0
  9 10  1  0  0  0
  9 11  1  0  0  0
 11 12  2  0  0  0
 12 13  1  0  0  0
 13 14  2  0  0  0
 19 20  2  0  0  0
 20 21  1  0  0  0
 21 22  1  0  0  0
 21 23  2  0  0  0
 23 24  1  0  0  0
 23 17  1  0  0  0
 13  2  1  0  0  0
 12  5  1  0  0  0
 10 15  1  0  0  0
 24 25  1  0  0  0
M  END
> <minimizedAffinity>
4.85236

> <CNNscore>
0.3059844077

> <CNNaffinity>
5.8144025803

> <CNN_VS>
1.7791165113

> <CNNaffinity_variance>
0.5338234901

$$$$
[H]Oc1c([H])c2c(c([H])c1F)OC([H])([H])/C(=C(/[H])c1c([H])c(C([H])([H])[H])c(O[H])c(C([H])([H])[H])c1[H])C2=O


 25 27  0  0  0  0  0  0  0  0999 V2000
   -6.6285   -6.5247    8.0054 C   0  0  0  0  0  0  0  0  0  0  0  0
   -7.6182   -7.2498    7.5627 C   0  0  0  0  0  0  0  0  0  0  0  0
   -7.3790   -8.5101    6.8644 C   0  0  0  0  0  0  0  0  0  0  0  0
   -8.4470   -9.4478    7.0970 O   0  0  0  0  0  0  0  0  0  0  0  0
   -9.7597   -9.0944    7.2514 C   0  0  0  0  0  0  0  0  0  0  0  0
  -10.8062  -10.0091    7.0957 C   0  0  0  0  0  0  0  0  0  0  0  0
  -12.1288   -9.6524    7.2513 C   0  0  0  0  0  0  0  0  0  0  0  0
  -13.0647  -10.5888    7.0844 F   0  0  0  0  0  0  0  0  0  0  0  0
  -12.4703   -8.3566    7.5721 C   0  0  0  0  0  0  0  0  0  0  0  0
  -13.8085   -7.9719    7.7352 O   0  0  0  0  0  0  0  0  0  0  0  0
  -11.4421   -7.4495    7.7270 C   0  0  0  0  0  0  0  0  0  0  0  0
  -10.1158   -7.8015    7.5722 C   0  0  0  0  0  0  0  0  0  0  0  0
   -9.0310   -6.8410    7.7361 C   0  0  0  0  0  0  0  0  0  0  0  0
   -9.3045   -5.6599    8.0266 O   0  0  0  0  0  0  0  0  0  0  0  0
  -14.0610   -7.0215    7.9704 H   0  0  0  0  0  0  0  0  0  0  0  0
   -2.6215   -9.0587    6.4240 C   0  0  0  0  0  0  0  0  0  0  0  0
   -3.2586   -7.9587    7.1931 C   0  0  0  0  0  0  0  0  0  0  0  0
   -4.6314   -7.8177    7.1900 C   0  0  0  0  0  0  0  0  0  0  0  0
   -5.2116   -6.8125    7.8934 C   0  0  0  0  0  0  0  0  0  0  0  0
   -4.3858   -5.9303    8.6154 C   0  0  0  0  0  0  0  0  0  0  0  0
   -3.0243   -6.0629    8.6238 C   0  0  0  0  0  0  0  0  0  0  0  0
   -2.1492   -5.1405    9.3799 C   0  0  0  0  0  0  0  0  0  0  0  0
   -2.4511   -7.0920    7.9023 C   0  0  0  0  0  0  0  0  0  0  0  0
   -1.0722   -7.2175    7.9175 O   0  0  0  0  0  0  0  0  0  0  0  0
   -0.4884   -6.5841    8.4355 H   0  0  0  0  0  0  0  0  0  0  0  0
 16 17  1  0  0  0
 17 18  2  0  0  0
 18 19  1  0  0  0
 19  1  1  0  0  0
  1  2  2  0  0  0
  2  3  1  0  0  0
  3  4  1  0  0  0
  4  5  1  0  0  0
  5  6  2  0  0  0
  6  7  1  0  0  0
  7  8  1  0  0  0
  7  9  2  0  0  0
  9 10  1  0  0  0
  9 11  1  0  0  0
 11 12  2  0  0  0
 12 13  1  0  0  0
 13 14  2  0  0  0
 19 20  2  0  0  0
 20 21  1  0  0  0
 21 22  1  0  0  0
 21 23  2  0  0  0
 23 24  1  0  0  0
 23 17  1  0  0  0
 13  2  1  0  0  0
 12  5  1  0  0  0
 10 15  1  0  0  0
 24 25  1  0  0  0
M  END
> <minimizedAffinity>
-7.39287

> <CNNscore>
0.2868867815

> <CNNaffinity>
5.2415685654

> <CNN_VS>
1.5037367344

> <CNNaffinity_variance>
0.0105139893

$$$$
[H]Oc1c([H])c2c(c([H])c1F)OC([H])([H])/C(=C(/[H])c1c([H])c(C([H])([H])[H])c(O[H])c(C([H])([H])[H])c1[H])C2=O


 25 27  0  0  0  0  0  0  0  0999 V2000
   -8.7020   -7.1382    8.6823 C   0  0  0  0  0  0  0  0  0  0  0  0
   -7.6224   -7.6645    8.1736 C   0  0  0  0  0  0  0  0  0  0  0  0
   -7.6966   -8.7620    7.2128 C   0  0  0  0  0  0  0  0  0  0  0  0
   -6.5999   -8.7159    6.2805 O   0  0  0  0  0  0  0  0  0  0  0  0
   -5.3395   -8.2886    6.5976 C   0  0  0  0  0  0  0  0  0  0  0  0
   -4.2226   -8.6012    5.8161 C   0  0  0  0  0  0  0  0  0  0  0  0
   -2.9526   -8.1704    6.1362 C   0  0  0  0  0  0  0  0  0  0  0  0
   -1.9426   -8.5148    5.3349 F   0  0  0  0  0  0  0  0  0  0  0  0
   -2.7375   -7.4019    7.2593 C   0  0  0  0  0  0  0  0  0  0  0  0
   -1.4548   -6.9528    7.6038 O   0  0  0  0  0  0  0  0  0  0  0  0
   -3.8357   -7.0901    8.0344 C   0  0  0  0  0  0  0  0  0  0  0  0
   -5.1097   -7.5190    7.7185 C   0  0  0  0  0  0  0  0  0  0  0  0
   -6.2686   -7.1886    8.5394 C   0  0  0  0  0  0  0  0  0  0  0  0
   -6.1098   -6.4946    9.5627 O   0  0  0  0  0  0  0  0  0  0  0  0
   -1.2950   -6.3888    8.4276 H   0  0  0  0  0  0  0  0  0  0  0  0
  -12.3300   -9.8264    6.5399 C   0  0  0  0  0  0  0  0  0  0  0  0
  -11.8570   -8.7393    7.4355 C   0  0  0  0  0  0  0  0  0  0  0  0
  -10.5051   -8.5112    7.5917 C   0  0  0  0  0  0  0  0  0  0  0  0
  -10.0750   -7.5176    8.4101 C   0  0  0  0  0  0  0  0  0  0  0  0
  -11.0328   -6.7379    9.0855 C   0  0  0  0  0  0  0  0  0  0  0  0
  -12.3748   -6.9575    8.9364 C   0  0  0  0  0  0  0  0  0  0  0  0
  -13.3879   -6.1428    9.6422 C   0  0  0  0  0  0  0  0  0  0  0  0
  -12.7942   -7.9730    8.0992 C   0  0  0  0  0  0  0  0  0  0  0  0
  -14.1547   -8.1869    7.9551 O   0  0  0  0  0  0  0  0  0  0  0  0
  -14.8334   -7.6261    8.4403 H   0  0  0  0  0  0  0  0  0  0  0  0
 16 17  1  0  0  0
 17 18  2  0  0  0
 18 19  1  0  0  0
 19  1  1  0  0  0
  1  2  2  0  0  0
  2  3  1  0  0  0
  3  4  1  0  0  0
  4  5  1  0  0  0
  5  6  2  0  0  0
  6  7  1  0  0  0
  7  8  1  0  0  0
  7  9  2  0  0  0
  9 10  1  0  0  0
  9 11  1  0  0  0
 11 12  2  0  0  0
 12 13  1  0  0  0
 13 14  2  0  0  0
 19 20  2  0  0  0
 20 21  1  0  0  0
 21 22  1  0  0  0
 21 23  2  0  0  0
 23 24  1  0  0  0
 23 17  1  0  0  0
 13  2  1  0  0  0
 12  5  1  0  0  0
 10 15  1  0  0  0
 24 25  1  0  0  0
M  END
> <minimizedAffinity>
-7.34576

> <CNNscore>
0.2678385079

> <CNNaffinity>
5.4025092125

> <CNN_VS>
1.4470000267

> <CNNaffinity_variance>
0.0508080944

$$$$
[H]c1c([H])c2c(c([H])c1F)C(=O)N([C@@]([H])(C([H])([H])[H])C([H])([H])C([H])([H])C(=O)N([H])c1c([H])c([H])c(F)c(Cl)c1[H])C2=O


 28 30  0  0  0  0  0  0  0  0999 V2000
  -12.2840  -10.1101    6.9077 C   0  0  0  0  0  0  0  0  0  0  0  0
  -11.9778   -8.8767    7.7306 C   0  0  0  0  0  0  0  0  0  0  0  0
  -10.5527   -8.6106    7.6390 N   0  0  0  0  0  0  0  0  0  0  0  0
   -9.9306   -7.3802    7.9645 C   0  0  0  0  0  0  0  0  0  0  0  0
  -10.5491   -6.3516    8.3830 O   0  0  0  0  0  0  0  0  0  0  0  0
   -8.4838   -7.4612    7.7518 C   0  0  0  0  0  0  0  0  0  0  0  0
   -7.4533   -6.5597    7.9164 C   0  0  0  0  0  0  0  0  0  0  0  0
   -6.1753   -6.9599    7.6201 C   0  0  0  0  0  0  0  0  0  0  0  0
   -5.8892   -8.2233    7.1669 C   0  0  0  0  0  0  0  0  0  0  0  0
   -4.6319   -8.5894    6.8845 F   0  0  0  0  0  0  0  0  0  0  0  0
   -6.9505   -9.1067    7.0122 C   0  0  0  0  0  0  0  0  0  0  0  0
   -8.2410   -8.7524    7.2949 C   0  0  0  0  0  0  0  0  0  0  0  0
   -9.5144   -9.4792    7.2191 C   0  0  0  0  0  0  0  0  0  0  0  0
   -9.6124  -10.6634    6.8410 O   0  0  0  0  0  0  0  0  0  0  0  0
  -12.3094   -9.0422    9.1710 C   0  0  0  0  0  0  0  0  0  0  0  0
  -13.4904   -8.3074    9.6800 C   0  0  0  0  0  0  0  0  0  0  0  0
  -14.0685   -7.3118    8.7237 C   0  0  0  0  0  0  0  0  0  0  0  0
  -13.8760   -6.0938    8.8482 O   0  0  0  0  0  0  0  0  0  0  0  0
  -14.8498   -7.8153    7.6626 N   0  0  0  0  0  0  0  0  0  0  0  0
  -14.9770   -8.8935    7.6218 H   0  0  0  0  0  0  0  0  0  0  0  0
  -15.4681   -7.0409    6.6607 C   0  0  0  0  0  0  0  0  0  0  0  0
  -16.8094   -7.3438    6.3535 C   0  0  0  0  0  0  0  0  0  0  0  0
  -17.4358   -6.6303    5.3706 C   0  0  0  0  0  0  0  0  0  0  0  0
  -16.8083   -5.6187    4.6605 C   0  0  0  0  0  0  0  0  0  0  0  0
  -17.4883   -4.9419    3.6900 F   0  0  0  0  0  0  0  0  0  0  0  0
  -15.5005   -5.3145    4.9507 C   0  0  0  0  0  0  0  0  0  0  0  0
  -14.6780   -4.0481    4.0782 Cl  0  0  0  0  0  0  0  0  0  0  0  0
  -14.8568   -6.0444    5.9570 C   0  0  0  0  0  0  0  0  0  0  0  0
  1  2  1  0  0  0
  2 15  1  0  0  0
 15 16  1  0  0  0
 16 17  1  0  0  0
 17 18  2  0  0  0
 17 19  1  0  0  0
 19 21  1  0  0  0
 21 22  2  0  0  0
 22 23  1  0  0  0
 23 24  2  0  0  0
 24 25  1  0  0  0
 24 26  1  0  0  0
 26 27  1  0  0  0
 26 28  2  0  0  0
  2  3  1  0  0  0
  3  4  1  0  0  0
  4  5  2  0  0  0
  4  6  1  0  0  0
  6  7  2  0  0  0
  7  8  1  0  0  0
  8  9  2  0  0  0
  9 10  1  0  0  0
  9 11  1  0  0  0
 11 12  2  0  0  0
 12 13  1  0  0  0
 13 14  2  0  0  0
 28 21  1  0  0  0
 13  3  1  0  0  0
 12  6  1  0  0  0
 19 20  1  0  0  0
M  END
> <minimizedAffinity>
-9.61192

> <CNNscore>
0.5832742453

> <CNNaffinity>
6.8302931786

> <CNN_VS>
3.9839341640

> <CNNaffinity_variance>
0.0972913876

$$$$
[H]c1c([H])c2c(c([H])c1F)C(=O)N([C@@]([H])(C([H])([H])[H])C([H])([H])C([H])([H])C(=O)N([H])c1c([H])c([H])c(F)c(Cl)c1[H])C2=O


 28 30  0  0  0  0  0  0  0  0999 V2000
  -11.5658   -7.4801    8.8563 C   0  0  0  0  0  0  0  0  0  0  0  0
  -10.9143   -8.7719    8.4103 C   0  0  0  0  0  0  0  0  0  0  0  0
   -9.5588   -8.4738    7.9818 N   0  0  0  0  0  0  0  0  0  0  0  0
   -9.0325   -7.1728    7.7883 C   0  0  0  0  0  0  0  0  0  0  0  0
   -9.6874   -6.0989    7.9709 O   0  0  0  0  0  0  0  0  0  0  0  0
   -7.6363   -7.2406    7.3510 C   0  0  0  0  0  0  0  0  0  0  0  0
   -6.6980   -6.2806    7.0354 C   0  0  0  0  0  0  0  0  0  0  0  0
   -5.4455   -6.6861    6.6506 C   0  0  0  0  0  0  0  0  0  0  0  0
   -5.0964   -8.0109    6.5695 C   0  0  0  0  0  0  0  0  0  0  0  0
   -3.8658   -8.3806    6.1908 F   0  0  0  0  0  0  0  0  0  0  0  0
   -6.0654   -8.9522    6.8943 C   0  0  0  0  0  0  0  0  0  0  0  0
   -7.3272   -8.5951    7.2831 C   0  0  0  0  0  0  0  0  0  0  0  0
   -8.5094   -9.3745    7.6714 C   0  0  0  0  0  0  0  0  0  0  0  0
   -8.5344  -10.6207    7.7059 O   0  0  0  0  0  0  0  0  0  0  0  0
  -11.6147   -9.4104    7.2641 C   0  0  0  0  0  0  0  0  0  0  0  0
  -12.9931   -9.8973    7.5024 C   0  0  0  0  0  0  0  0  0  0  0  0
  -14.0734   -8.9639    7.0535 C   0  0  0  0  0  0  0  0  0  0  0  0
  -15.0759   -8.7387    7.7466 O   0  0  0  0  0  0  0  0  0  0  0  0
  -13.9078   -8.3420    5.7983 N   0  0  0  0  0  0  0  0  0  0  0  0
  -13.0056   -8.5921    5.2472 H   0  0  0  0  0  0  0  0  0  0  0  0
  -14.8069   -7.4298    5.2106 C   0  0  0  0  0  0  0  0  0  0  0  0
  -14.4755   -6.0627    5.2898 C   0  0  0  0  0  0  0  0  0  0  0  0
  -15.3346   -5.1459    4.7524 C   0  0  0  0  0  0  0  0  0  0  0  0
  -16.5212   -5.5024    4.1308 C   0  0  0  0  0  0  0  0  0  0  0  0
  -17.3375   -4.5392    3.6129 F   0  0  0  0  0  0  0  0  0  0  0  0
  -16.8554   -6.8322    4.0477 C   0  0  0  0  0  0  0  0  0  0  0  0
  -18.3402   -7.3189    3.2730 Cl  0  0  0  0  0  0  0  0  0  0  0  0
  -15.9768   -7.7731    4.5979 C   0  0  0  0  0  0  0  0  0  0  0  0
  1  2  1  0  0  0
  2 15  1  0  0  0
 15 16  1  0  0  0
 16 17  1  0  0  0
 17 18  2  0  0  0
 17 19  1  0  0  0
 19 21  1  0  0  0
 21 22  2  0  0  0
 22 23  1  0  0  0
 23 24  2  0  0  0
 24 25  1  0  0  0
 24 26  1  0  0  0
 26 27  1  0  0  0
 26 28  2  0  0  0
  2  3  1  0  0  0
  3  4  1  0  0  0
  4  5  2  0  0  0
  4  6  1  0  0  0
  6  7  2  0  0  0
  7  8  1  0  0  0
  8  9  2  0  0  0
  9 10  1  0  0  0
  9 11  1  0  0  0
 11 12  2  0  0  0
 12 13  1  0  0  0
 13 14  2  0  0  0
 28 21  1  0  0  0
 13  3  1  0  0  0
 12  6  1  0  0  0
 19 20  1  0  0  0
M  END
> <minimizedAffinity>
-9.41184

> <CNNscore>
0.5647567511

> <CNNaffinity>
6.7952294350

> <CNN_VS>
3.8376517296

> <CNNaffinity_variance>
0.0753994212

$$$$
[H]c1c([H])c2c(c([H])c1F)C(=O)N([C@@]([H])(C([H])([H])[H])C([H])([H])C([H])([H])C(=O)N([H])c1c([H])c([H])c(F)c(Cl)c1[H])C2=O


 28 30  0  0  0  0  0  0  0  0999 V2000
  -12.6353   -9.5195   11.6340 C   0  0  0  0  0  0  0  0  0  0  0  0
  -12.2770   -9.0430   10.2423 C   0  0  0  0  0  0  0  0  0  0  0  0
  -12.3539   -7.5926   10.2239 N   0  0  0  0  0  0  0  0  0  0  0  0
  -11.2402   -6.7170   10.2318 C   0  0  0  0  0  0  0  0  0  0  0  0
  -10.0277   -7.0979   10.2530 O   0  0  0  0  0  0  0  0  0  0  0  0
  -11.6814   -5.3206   10.2122 C   0  0  0  0  0  0  0  0  0  0  0  0
  -11.0075   -4.1174   10.2107 C   0  0  0  0  0  0  0  0  0  0  0  0
  -11.7358   -2.9554   10.1891 C   0  0  0  0  0  0  0  0  0  0  0  0
  -13.1081   -2.9505   10.1692 C   0  0  0  0  0  0  0  0  0  0  0  0
  -13.7961   -1.8012   10.1484 F   0  0  0  0  0  0  0  0  0  0  0  0
  -13.7556   -4.1798   10.1714 C   0  0  0  0  0  0  0  0  0  0  0  0
  -13.0715   -5.3640   10.1925 C   0  0  0  0  0  0  0  0  0  0  0  0
  -13.5054   -6.7667   10.1994 C   0  0  0  0  0  0  0  0  0  0  0  0
  -14.7012   -7.1198   10.1858 O   0  0  0  0  0  0  0  0  0  0  0  0
  -13.2042   -9.5526    9.1970 C   0  0  0  0  0  0  0  0  0  0  0  0
  -12.8229   -9.3188    7.7850 C   0  0  0  0  0  0  0  0  0  0  0  0
  -11.3750   -9.5454    7.4816 C   0  0  0  0  0  0  0  0  0  0  0  0
  -10.9669  -10.6040    6.9825 O   0  0  0  0  0  0  0  0  0  0  0  0
  -10.4805   -8.4985    7.7874 N   0  0  0  0  0  0  0  0  0  0  0  0
  -10.9119   -7.6033    8.2265 H   0  0  0  0  0  0  0  0  0  0  0  0
   -9.0886   -8.5192    7.5679 C   0  0  0  0  0  0  0  0  0  0  0  0
   -8.2600   -8.4784    8.7068 C   0  0  0  0  0  0  0  0  0  0  0  0
   -6.9045   -8.4728    8.5334 C   0  0  0  0  0  0  0  0  0  0  0  0
   -6.3068   -8.5057    7.2832 C   0  0  0  0  0  0  0  0  0  0  0  0
   -4.9464   -8.4985    7.1758 F   0  0  0  0  0  0  0  0  0  0  0  0
   -7.1043   -8.5454    6.1653 C   0  0  0  0  0  0  0  0  0  0  0  0
   -6.3883   -8.5875    4.5756 Cl  0  0  0  0  0  0  0  0  0  0  0  0
   -8.4932   -8.5508    6.3406 C   0  0  0  0  0  0  0  0  0  0  0  0
  1  2  1  0  0  0
  2 15  1  0  0  0
 15 16  1  0  0  0
 16 17  1  0  0  0
 17 18  2  0  0  0
 17 19  1  0  0  0
 19 21  1  0  0  0
 21 22  2  0  0  0
 22 23  1  0  0  0
 23 24  2  0  0  0
 24 25  1  0  0  0
 24 26  1  0  0  0
 26 27  1  0  0  0
 26 28  2  0  0  0
  2  3  1  0  0  0
  3  4  1  0  0  0
  4  5  2  0  0  0
  4  6  1  0  0  0
  6  7  2  0  0  0
  7  8  1  0  0  0
  8  9  2  0  0  0
  9 10  1  0  0  0
  9 11  1  0  0  0
 11 12  2  0  0  0
 12 13  1  0  0  0
 13 14  2  0  0  0
 28 21  1  0  0  0
 13  3  1  0  0  0
 12  6  1  0  0  0
 19 20  1  0  0  0
M  END
> <minimizedAffinity>
8.53118

> <CNNscore>
0.5437659025

> <CNNaffinity>
6.0008544922

> <CNN_VS>
3.2630600929

> <CNNaffinity_variance>
0.4838027954

$$$$
[H]c1c([H])c2c(c([H])c1F)C(=O)N([C@@]([H])(C([H])([H])[H])C([H])([H])C([H])([H])C(=O)N([H])c1c([H])c([H])c(F)c(Cl)c1[H])C2=O


 28 30  0  0  0  0  0  0  0  0999 V2000
  -12.2153  -10.0678    6.8528 C   0  0  0  0  0  0  0  0  0  0  0  0
  -11.9802   -8.8464    7.7160 C   0  0  0  0  0  0  0  0  0  0  0  0
  -10.5633   -8.5287    7.6789 N   0  0  0  0  0  0  0  0  0  0  0  0
   -9.5437   -9.4015    7.2255 C   0  0  0  0  0  0  0  0  0  0  0  0
   -9.7471  -10.5779    6.7893 O   0  0  0  0  0  0  0  0  0  0  0  0
   -8.2311   -8.7601    7.3300 C   0  0  0  0  0  0  0  0  0  0  0  0
   -6.9511   -9.1740    7.0268 C   0  0  0  0  0  0  0  0  0  0  0  0
   -5.9100   -8.3091    7.2486 C   0  0  0  0  0  0  0  0  0  0  0  0
   -6.0992   -7.0500    7.7606 C   0  0  0  0  0  0  0  0  0  0  0  0
   -5.0649   -6.2242    7.9679 F   0  0  0  0  0  0  0  0  0  0  0  0
   -7.4012   -6.6646    8.0552 C   0  0  0  0  0  0  0  0  0  0  0  0
   -8.4705   -7.4927    7.8508 C   0  0  0  0  0  0  0  0  0  0  0  0
   -9.9129   -7.3326    8.0732 C   0  0  0  0  0  0  0  0  0  0  0  0
  -10.4298   -6.2962    8.5350 O   0  0  0  0  0  0  0  0  0  0  0  0
  -12.3525   -9.0608    9.1399 C   0  0  0  0  0  0  0  0  0  0  0  0
  -13.5019   -8.2853    9.6607 C   0  0  0  0  0  0  0  0  0  0  0  0
  -14.0746   -7.2920    8.6987 C   0  0  0  0  0  0  0  0  0  0  0  0
  -13.8796   -6.0740    8.8193 O   0  0  0  0  0  0  0  0  0  0  0  0
  -14.8535   -7.7977    7.6370 N   0  0  0  0  0  0  0  0  0  0  0  0
  -14.9831   -8.8757    7.5998 H   0  0  0  0  0  0  0  0  0  0  0  0
  -15.4667   -7.0256    6.6301 C   0  0  0  0  0  0  0  0  0  0  0  0
  -16.8006   -7.3412    6.3041 C   0  0  0  0  0  0  0  0  0  0  0  0
  -17.4215   -6.6302    5.3160 C   0  0  0  0  0  0  0  0  0  0  0  0
  -16.7953   -5.6092    4.6181 C   0  0  0  0  0  0  0  0  0  0  0  0
  -17.4696   -4.9356    3.6415 F   0  0  0  0  0  0  0  0  0  0  0  0
  -15.4948   -5.2926    4.9267 C   0  0  0  0  0  0  0  0  0  0  0  0
  -14.6741   -4.0141    4.0702 Cl  0  0  0  0  0  0  0  0  0  0  0  0
  -14.8567   -6.0199    5.9385 C   0  0  0  0  0  0  0  0  0  0  0  0
  1  2  1  0  0  0
  2 15  1  0  0  0
 15 16  1  0  0  0
 16 17  1  0  0  0
 17 18  2  0  0  0
 17 19  1  0  0  0
 19 21  1  0  0  0
 21 22  2  0  0  0
 22 23  1  0  0  0
 23 24  2  0  0  0
 24 25  1  0  0  0
 24 26  1  0  0  0
 26 27  1  0  0  0
 26 28  2  0  0  0
  2  3  1  0  0  0
  3  4  1  0  0  0
  4  5  2  0  0  0
  4  6  1  0  0  0
  6  7  2  0  0  0
  7  8  1  0  0  0
  8  9  2  0  0  0
  9 10  1  0  0  0
  9 11  1  0  0  0
 11 12  2  0  0  0
 12 13  1  0  0  0
 13 14  2  0  0  0
 28 21  1  0  0  0
 13  3  1  0  0  0
 12  6  1  0  0  0
 19 20  1  0  0  0
M  END
> <minimizedAffinity>
-9.63070

> <CNNscore>
0.5141620636

> <CNNaffinity>
6.7786855698

> <CNN_VS>
3.4853429794

> <CNNaffinity_variance>
0.1205803603

$$$$
[H]c1c([H])c2c(c([H])c1F)C(=O)N([C@@]([H])(C([H])([H])[H])C([H])([H])C([H])([H])C(=O)N([H])c1c([H])c([H])c(F)c(Cl)c1[H])C2=O


 28 30  0  0  0  0  0  0  0  0999 V2000
  -12.2239   -7.9099    9.2186 C   0  0  0  0  0  0  0  0  0  0  0  0
  -11.5205   -9.0995    8.6003 C   0  0  0  0  0  0  0  0  0  0  0  0
  -10.2568   -8.6443    8.0475 N   0  0  0  0  0  0  0  0  0  0  0  0
   -9.3048   -9.4708    7.4012 C   0  0  0  0  0  0  0  0  0  0  0  0
   -9.4437  -10.7215    7.2223 O   0  0  0  0  0  0  0  0  0  0  0  0
   -8.1460   -8.6848    6.9715 C   0  0  0  0  0  0  0  0  0  0  0  0
   -6.9768   -9.0078    6.3156 C   0  0  0  0  0  0  0  0  0  0  0  0
   -6.0711   -8.0110    6.0560 C   0  0  0  0  0  0  0  0  0  0  0  0
   -6.2893   -6.7075    6.4260 C   0  0  0  0  0  0  0  0  0  0  0  0
   -5.3883   -5.7524    6.1604 F   0  0  0  0  0  0  0  0  0  0  0  0
   -7.4773   -6.4164    7.0851 C   0  0  0  0  0  0  0  0  0  0  0  0
   -8.4097   -7.3771    7.3654 C   0  0  0  0  0  0  0  0  0  0  0  0
   -9.7158   -7.3343    8.0348 C   0  0  0  0  0  0  0  0  0  0  0  0
  -10.2207   -6.2926    8.4981 O   0  0  0  0  0  0  0  0  0  0  0  0
  -12.2945   -9.7210    7.4927 C   0  0  0  0  0  0  0  0  0  0  0  0
  -13.7424   -9.9354    7.7191 C   0  0  0  0  0  0  0  0  0  0  0  0
  -14.6243   -8.8343    7.2193 C   0  0  0  0  0  0  0  0  0  0  0  0
  -15.4912   -8.3119    7.9346 O   0  0  0  0  0  0  0  0  0  0  0  0
  -14.4312   -8.4071    5.8888 N   0  0  0  0  0  0  0  0  0  0  0  0
  -13.6554   -8.9152    5.3230 H   0  0  0  0  0  0  0  0  0  0  0  0
  -15.1531   -7.3831    5.2438 C   0  0  0  0  0  0  0  0  0  0  0  0
  -16.4032   -7.7296    4.6938 C   0  0  0  0  0  0  0  0  0  0  0  0
  -17.1223   -6.7692    4.0395 C   0  0  0  0  0  0  0  0  0  0  0  0
  -16.6751   -5.4654    3.8926 C   0  0  0  0  0  0  0  0  0  0  0  0
  -17.4402   -4.5514    3.2282 F   0  0  0  0  0  0  0  0  0  0  0  0
  -15.4577   -5.1157    4.4242 C   0  0  0  0  0  0  0  0  0  0  0  0
  -14.8620   -3.4849    4.2592 Cl  0  0  0  0  0  0  0  0  0  0  0  0
  -14.7192   -6.0981    5.0946 C   0  0  0  0  0  0  0  0  0  0  0  0
  1  2  1  0  0  0
  2 15  1  0  0  0
 15 16  1  0  0  0
 16 17  1  0  0  0
 17 18  2  0  0  0
 17 19  1  0  0  0
 19 21  1  0  0  0
 21 22  2  0  0  0
 22 23  1  0  0  0
 23 24  2  0  0  0
 24 25  1  0  0  0
 24 26  1  0  0  0
 26 27  1  0  0  0
 26 28  2  0  0  0
  2  3  1  0  0  0
  3  4  1  0  0  0
  4  5  2  0  0  0
  4  6  1  0  0  0
  6  7  2  0  0  0
  7  8  1  0  0  0
  8  9  2  0  0  0
  9 10  1  0  0  0
  9 11  1  0  0  0
 11 12  2  0  0  0
 12 13  1  0  0  0
 13 14  2  0  0  0
 28 21  1  0  0  0
 13  3  1  0  0  0
 12  6  1  0  0  0
 19 20  1  0  0  0
M  END
> <minimizedAffinity>
-9.78768

> <CNNscore>
0.4795636833

> <CNNaffinity>
6.8528738022

> <CNN_VS>
3.2863893509

> <CNNaffinity_variance>
0.1615065485

$$$$
[H]c1c([H])c2c(c([H])c1F)C(=O)N([C@@]([H])(C([H])([H])[H])C([H])([H])C([H])([H])C(=O)N([H])c1c([H])c([H])c(F)c(Cl)c1[H])C2=O


 28 30  0  0  0  0  0  0  0  0999 V2000
  -13.2706   -9.8247    9.9716 C   0  0  0  0  0  0  0  0  0  0  0  0
  -12.5431   -9.0196    8.9158 C   0  0  0  0  0  0  0  0  0  0  0  0
  -12.6158   -7.6161    9.2831 N   0  0  0  0  0  0  0  0  0  0  0  0
  -11.9773   -7.0330   10.4053 C   0  0  0  0  0  0  0  0  0  0  0  0
  -11.2544   -7.6724   11.2325 O   0  0  0  0  0  0  0  0  0  0  0  0
  -12.2666   -5.5990   10.4764 C   0  0  0  0  0  0  0  0  0  0  0  0
  -11.8943   -4.6031   11.3545 C   0  0  0  0  0  0  0  0  0  0  0  0
  -12.3480   -3.3277   11.1337 C   0  0  0  0  0  0  0  0  0  0  0  0
  -13.1574   -3.0111   10.0715 C   0  0  0  0  0  0  0  0  0  0  0  0
  -13.5870   -1.7570    9.8782 F   0  0  0  0  0  0  0  0  0  0  0  0
  -13.5136   -4.0380    9.2060 C   0  0  0  0  0  0  0  0  0  0  0  0
  -13.0855   -5.3245    9.3860 C   0  0  0  0  0  0  0  0  0  0  0  0
  -13.3121   -6.5655    8.6348 C   0  0  0  0  0  0  0  0  0  0  0  0
  -14.0102   -6.6311    7.6038 O   0  0  0  0  0  0  0  0  0  0  0  0
  -13.1442   -9.1586    7.5625 C   0  0  0  0  0  0  0  0  0  0  0  0
  -12.2127   -9.3523    6.4273 C   0  0  0  0  0  0  0  0  0  0  0  0
  -10.7623   -9.3221    6.7952 C   0  0  0  0  0  0  0  0  0  0  0  0
  -10.0939  -10.3590    6.9151 O   0  0  0  0  0  0  0  0  0  0  0  0
  -10.1760   -8.0561    7.0030 N   0  0  0  0  0  0  0  0  0  0  0  0
  -10.8261   -7.1939    6.8838 H   0  0  0  0  0  0  0  0  0  0  0  0
   -8.8290   -7.8228    7.3452 C   0  0  0  0  0  0  0  0  0  0  0  0
   -8.4394   -8.1361    8.6625 C   0  0  0  0  0  0  0  0  0  0  0  0
   -7.1469   -7.9014    9.0390 C   0  0  0  0  0  0  0  0  0  0  0  0
   -6.1993   -7.3673    8.1798 C   0  0  0  0  0  0  0  0  0  0  0  0
   -4.9234   -7.1564    8.6157 F   0  0  0  0  0  0  0  0  0  0  0  0
   -6.5673   -7.0574    6.8931 C   0  0  0  0  0  0  0  0  0  0  0  0
   -5.4026   -6.3837    5.7836 Cl  0  0  0  0  0  0  0  0  0  0  0  0
   -7.8910   -7.2968    6.5054 C   0  0  0  0  0  0  0  0  0  0  0  0
  1  2  1  0  0  0
  2 15  1  0  0  0
 15 16  1  0  0  0
 16 17  1  0  0  0
 17 18  2  0  0  0
 17 19  1  0  0  0
 19 21  1  0  0  0
 21 22  2  0  0  0
 22 23  1  0  0  0
 23 24  2  0  0  0
 24 25  1  0  0  0
 24 26  1  0  0  0
 26 27  1  0  0  0
 26 28  2  0  0  0
  2  3  1  0  0  0
  3  4  1  0  0  0
  4  5  2  0  0  0
  4  6  1  0  0  0
  6  7  2  0  0  0
  7  8  1  0  0  0
  8  9  2  0  0  0
  9 10  1  0  0  0
  9 11  1  0  0  0
 11 12  2  0  0  0
 12 13  1  0  0  0
 13 14  2  0  0  0
 28 21  1  0  0  0
 13  3  1  0  0  0
 12  6  1  0  0  0
 19 20  1  0  0  0
M  END
> <minimizedAffinity>
6.78318

> <CNNscore>
0.4432890117

> <CNNaffinity>
6.1157541275

> <CNN_VS>
2.7110466957

> <CNNaffinity_variance>
0.2468688488

$$$$
[H]c1c([H])c2c(c([H])c1F)C(=O)N([C@@]([H])(C([H])([H])[H])C([H])([H])C([H])([H])C(=O)N([H])c1c([H])c([H])c(F)c(Cl)c1[H])C2=O


 28 30  0  0  0  0  0  0  0  0999 V2000
  -13.5516  -10.6420    8.1065 C   0  0  0  0  0  0  0  0  0  0  0  0
  -12.2083   -9.9897    7.8572 C   0  0  0  0  0  0  0  0  0  0  0  0
  -12.2242   -8.6691    8.4619 N   0  0  0  0  0  0  0  0  0  0  0  0
  -13.3330   -8.0904    9.1271 C   0  0  0  0  0  0  0  0  0  0  0  0
  -14.4576   -8.6629    9.2796 O   0  0  0  0  0  0  0  0  0  0  0  0
  -13.0018   -6.7481    9.6107 C   0  0  0  0  0  0  0  0  0  0  0  0
  -13.7145   -5.7910   10.3017 C   0  0  0  0  0  0  0  0  0  0  0  0
  -13.0968   -4.6058   10.6101 C   0  0  0  0  0  0  0  0  0  0  0  0
  -11.7977   -4.3419   10.2548 C   0  0  0  0  0  0  0  0  0  0  0  0
  -11.2175   -3.1758   10.5682 F   0  0  0  0  0  0  0  0  0  0  0  0
  -11.1084   -5.3276    9.5594 C   0  0  0  0  0  0  0  0  0  0  0  0
  -11.6827   -6.5245    9.2300 C   0  0  0  0  0  0  0  0  0  0  0  0
  -11.1849   -7.7068    8.5160 C   0  0  0  0  0  0  0  0  0  0  0  0
  -10.0309   -7.7990    8.0529 O   0  0  0  0  0  0  0  0  0  0  0  0
  -11.9065   -9.8151    6.4113 C   0  0  0  0  0  0  0  0  0  0  0  0
  -13.0298   -9.9900    5.4619 C   0  0  0  0  0  0  0  0  0  0  0  0
  -13.9522   -8.8159    5.3600 C   0  0  0  0  0  0  0  0  0  0  0  0
  -13.6415   -7.6975    5.7945 O   0  0  0  0  0  0  0  0  0  0  0  0
  -15.2031   -9.0302    4.7442 N   0  0  0  0  0  0  0  0  0  0  0  0
  -15.4053  -10.0378    4.3921 H   0  0  0  0  0  0  0  0  0  0  0  0
  -16.1983   -8.0519    4.5479 C   0  0  0  0  0  0  0  0  0  0  0  0
  -17.5371   -8.4912    4.5491 C   0  0  0  0  0  0  0  0  0  0  0  0
  -18.5294   -7.5756    4.3380 C   0  0  0  0  0  0  0  0  0  0  0  0
  -18.2764   -6.2299    4.1223 C   0  0  0  0  0  0  0  0  0  0  0  0
  -19.3115   -5.3643    3.9178 F   0  0  0  0  0  0  0  0  0  0  0  0
  -16.9752   -5.7897    4.1185 C   0  0  0  0  0  0  0  0  0  0  0  0
  -16.6181   -4.1038    3.8503 Cl  0  0  0  0  0  0  0  0  0  0  0  0
  -15.9571   -6.7261    4.3342 C   0  0  0  0  0  0  0  0  0  0  0  0
  1  2  1  0  0  0
  2 15  1  0  0  0
 15 16  1  0  0  0
 16 17  1  0  0  0
 17 18  2  0  0  0
 17 19  1  0  0  0
 19 21  1  0  0  0
 21 22  2  0  0  0
 22 23  1  0  0  0
 23 24  2  0  0  0
 24 25  1  0  0  0
 24 26  1  0  0  0
 26 27  1  0  0  0
 26 28  2  0  0  0
  2  3  1  0  0  0
  3  4  1  0  0  0
  4  5  2  0  0  0
  4  6  1  0  0  0
  6  7  2  0  0  0
  7  8  1  0  0  0
  8  9  2  0  0  0
  9 10  1  0  0  0
  9 11  1  0  0  0
 11 12  2  0  0  0
 12 13  1  0  0  0
 13 14  2  0  0  0
 28 21  1  0  0  0
 13  3  1  0  0  0
 12  6  1  0  0  0
 19 20  1  0  0  0
M  END
> <minimizedAffinity>
-6.00205

> <CNNscore>
0.4364433289

> <CNNaffinity>
6.6472105980

> <CNN_VS>
2.9011306763

> <CNNaffinity_variance>
0.1109374166

$$$$
[H]c1c([H])c2c(c([H])c1F)C(=O)N([C@@]([H])(C([H])([H])[H])C([H])([H])C([H])([H])C(=O)N([H])c1c([H])c([H])c(F)c(Cl)c1[H])C2=O


 28 30  0  0  0  0  0  0  0  0999 V2000
  -12.4459  -10.2062    7.3252 C   0  0  0  0  0  0  0  0  0  0  0  0
  -12.2084   -8.7850    7.7897 C   0  0  0  0  0  0  0  0  0  0  0  0
  -10.7795   -8.5264    7.7518 N   0  0  0  0  0  0  0  0  0  0  0  0
   -9.8021   -9.4213    7.2512 C   0  0  0  0  0  0  0  0  0  0  0  0
  -10.0594  -10.5681    6.7672 O   0  0  0  0  0  0  0  0  0  0  0  0
   -8.4624   -8.8414    7.3698 C   0  0  0  0  0  0  0  0  0  0  0  0
   -7.2039   -9.2959    7.0361 C   0  0  0  0  0  0  0  0  0  0  0  0
   -6.1248   -8.4864    7.2841 C   0  0  0  0  0  0  0  0  0  0  0  0
   -6.2556   -7.2436    7.8515 C   0  0  0  0  0  0  0  0  0  0  0  0
   -5.1852   -6.4723    8.0834 F   0  0  0  0  0  0  0  0  0  0  0  0
   -7.5374   -6.8164    8.1755 C   0  0  0  0  0  0  0  0  0  0  0  0
   -8.6429   -7.5887    7.9468 C   0  0  0  0  0  0  0  0  0  0  0  0
  -10.0752   -7.3772    8.1904 C   0  0  0  0  0  0  0  0  0  0  0  0
  -10.5433   -6.3406    8.7014 O   0  0  0  0  0  0  0  0  0  0  0  0
  -12.6689   -8.5446    9.1834 C   0  0  0  0  0  0  0  0  0  0  0  0
  -13.8067   -7.6143    9.3668 C   0  0  0  0  0  0  0  0  0  0  0  0
  -14.9155   -7.7777    8.3749 C   0  0  0  0  0  0  0  0  0  0  0  0
  -15.9557   -8.3932    8.6489 O   0  0  0  0  0  0  0  0  0  0  0  0
  -14.7321   -7.1989    7.1016 N   0  0  0  0  0  0  0  0  0  0  0  0
  -13.7930   -6.6790    6.9348 H   0  0  0  0  0  0  0  0  0  0  0  0
  -15.6607   -7.2375    6.0423 C   0  0  0  0  0  0  0  0  0  0  0  0
  -15.6284   -8.3691    5.2034 C   0  0  0  0  0  0  0  0  0  0  0  0
  -16.4976   -8.4318    4.1508 C   0  0  0  0  0  0  0  0  0  0  0  0
  -17.4124   -7.4286    3.8711 C   0  0  0  0  0  0  0  0  0  0  0  0
  -18.2549   -7.5501    2.8044 F   0  0  0  0  0  0  0  0  0  0  0  0
  -17.4531   -6.3203    4.6817 C   0  0  0  0  0  0  0  0  0  0  0  0
  -18.5906   -5.0378    4.3610 Cl  0  0  0  0  0  0  0  0  0  0  0  0
  -16.5633   -6.2539    5.7604 C   0  0  0  0  0  0  0  0  0  0  0  0
  1  2  1  0  0  0
  2 15  1  0  0  0
 15 16  1  0  0  0
 16 17  1  0  0  0
 17 18  2  0  0  0
 17 19  1  0  0  0
 19 21  1  0  0  0
 21 22  2  0  0  0
 22 23  1  0  0  0
 23 24  2  0  0  0
 24 25  1  0  0  0
 24 26  1  0  0  0
 26 27  1  0  0  0
 26 28  2  0  0  0
  2  3  1  0  0  0
  3  4  1  0  0  0
  4  5  2  0  0  0
  4  6  1  0  0  0
  6  7  2  0  0  0
  7  8  1  0  0  0
  8  9  2  0  0  0
  9 10  1  0  0  0
  9 11  1  0  0  0
 11 12  2  0  0  0
 12 13  1  0  0  0
 13 14  2  0  0  0
 28 21  1  0  0  0
 13  3  1  0  0  0
 12  6  1  0  0  0
 19 20  1  0  0  0
M  END
> <minimizedAffinity>
-9.51314

> <CNNscore>
0.4332674146

> <CNNaffinity>
6.6759376526

> <CNN_VS>
2.8924663067

> <CNNaffinity_variance>
0.0510802567

$$$$
[H]c1c([H])c2c(c([H])c1F)C(=O)N([C@@]([H])(C([H])([H])[H])C([H])([H])C([H])([H])C(=O)N([H])c1c([H])c([H])c(F)c(Cl)c1[H])C2=O


 28 30  0  0  0  0  0  0  0  0999 V2000
  -14.0510   -8.4137    2.6774 C   0  0  0  0  0  0  0  0  0  0  0  0
  -15.2512   -8.9114    3.4545 C   0  0  0  0  0  0  0  0  0  0  0  0
  -16.0814   -7.7680    3.7914 N   0  0  0  0  0  0  0  0  0  0  0  0
  -15.6554   -6.6438    4.5407 C   0  0  0  0  0  0  0  0  0  0  0  0
  -14.4836   -6.4964    5.0107 O   0  0  0  0  0  0  0  0  0  0  0  0
  -16.7493   -5.6823    4.6959 C   0  0  0  0  0  0  0  0  0  0  0  0
  -16.8489   -4.4587    5.3239 C   0  0  0  0  0  0  0  0  0  0  0  0
  -18.0481   -3.7941    5.2836 C   0  0  0  0  0  0  0  0  0  0  0  0
  -19.1481   -4.3048    4.6413 C   0  0  0  0  0  0  0  0  0  0  0  0
  -20.3082   -3.6354    4.6166 F   0  0  0  0  0  0  0  0  0  0  0  0
  -19.0136   -5.5397    4.0189 C   0  0  0  0  0  0  0  0  0  0  0  0
  -17.8380   -6.2388    4.0326 C   0  0  0  0  0  0  0  0  0  0  0  0
  -17.4407   -7.5334    3.4655 C   0  0  0  0  0  0  0  0  0  0  0  0
  -18.2096   -8.2671    2.8134 O   0  0  0  0  0  0  0  0  0  0  0  0
  -14.8805   -9.5847    4.7278 C   0  0  0  0  0  0  0  0  0  0  0  0
  -13.4429   -9.6107    5.0834 C   0  0  0  0  0  0  0  0  0  0  0  0
  -13.1417   -9.2384    6.5014 C   0  0  0  0  0  0  0  0  0  0  0  0
  -12.4192   -9.9392    7.2246 O   0  0  0  0  0  0  0  0  0  0  0  0
  -13.7164   -8.0469    6.9912 N   0  0  0  0  0  0  0  0  0  0  0  0
  -14.3411   -7.4885    6.2997 H   0  0  0  0  0  0  0  0  0  0  0  0
  -13.5438   -7.5271    8.2897 C   0  0  0  0  0  0  0  0  0  0  0  0
  -13.2952   -6.1445    8.3982 C   0  0  0  0  0  0  0  0  0  0  0  0
  -13.0987   -5.6075    9.6393 C   0  0  0  0  0  0  0  0  0  0  0  0
  -13.1333   -6.3650   10.7998 C   0  0  0  0  0  0  0  0  0  0  0  0
  -12.9296   -5.7696   12.0107 F   0  0  0  0  0  0  0  0  0  0  0  0
  -13.3745   -7.7141   10.7067 C   0  0  0  0  0  0  0  0  0  0  0  0
  -13.4253   -8.6994   12.1448 Cl  0  0  0  0  0  0  0  0  0  0  0  0
  -13.5757   -8.2664    9.4361 C   0  0  0  0  0  0  0  0  0  0  0  0
  1  2  1  0  0  0
  2 15  1  0  0  0
 15 16  1  0  0  0
 16 17  1  0  0  0
 17 18  2  0  0  0
 17 19  1  0  0  0
 19 21  1  0  0  0
 21 22  2  0  0  0
 22 23  1  0  0  0
 23 24  2  0  0  0
 24 25  1  0  0  0
 24 26  1  0  0  0
 26 27  1  0  0  0
 26 28  2  0  0  0
  2  3  1  0  0  0
  3  4  1  0  0  0
  4  5  2  0  0  0
  4  6  1  0  0  0
  6  7  2  0  0  0
  7  8  1  0  0  0
  8  9  2  0  0  0
  9 10  1  0  0  0
  9 11  1  0  0  0
 11 12  2  0  0  0
 12 13  1  0  0  0
 13 14  2  0  0  0
 28 21  1  0  0  0
 13  3  1  0  0  0
 12  6  1  0  0  0
 19 20  1  0  0  0
M  END
> <minimizedAffinity>
0.46968

> <CNNscore>
0.3892005682

> <CNNaffinity>
6.4346704483

> <CNN_VS>
2.5043773651

> <CNNaffinity_variance>
0.1778906137

$$$$
[H]Oc1c([H])c([H])c(C(=O)c2c([H])c([H])c(O[H])c(C([H])([H])N3C(=O)C([H])([H])C([H])([H])c4c([H])c([H])c([H])c([H])c43)c2[H])c([H])c1N(C([H])([H])[H])C([H])(C([H])([H])[H])C([H])([H])[H]


 35 38  0  0  0  0  0  0  0  0999 V2000
   -8.6075   -7.3336    7.7427 C   0  0  0  0  0  0  0  0  0  0  0  0
   -8.3201   -8.7084    7.5922 C   0  0  0  0  0  0  0  0  0  0  0  0
   -7.0748   -9.1328    7.2082 C   0  0  0  0  0  0  0  0  0  0  0  0
   -6.0533   -8.2217    6.9544 C   0  0  0  0  0  0  0  0  0  0  0  0
   -4.8248   -8.7123    6.5798 O   0  0  0  0  0  0  0  0  0  0  0  0
   -6.2746   -6.8838    7.0825 C   0  0  0  0  0  0  0  0  0  0  0  0
   -7.5675   -6.5046    7.4794 C   0  0  0  0  0  0  0  0  0  0  0  0
   -4.6200   -9.6760    6.4741 H   0  0  0  0  0  0  0  0  0  0  0  0
   -9.9454   -7.0348    8.1748 C   0  0  0  0  0  0  0  0  0  0  0  0
  -10.0428   -5.8182    8.6907 O   0  0  0  0  0  0  0  0  0  0  0  0
  -13.3006   -8.1343    7.0400 C   0  0  0  0  0  0  0  0  0  0  0  0
  -12.1006   -7.4924    7.1564 C   0  0  0  0  0  0  0  0  0  0  0  0
  -11.1598   -7.7696    8.1677 C   0  0  0  0  0  0  0  0  0  0  0  0
  -11.5256   -8.7365    9.0410 C   0  0  0  0  0  0  0  0  0  0  0  0
  -12.7618   -9.4116    8.9378 C   0  0  0  0  0  0  0  0  0  0  0  0
  -13.6419   -9.1125    7.9449 C   0  0  0  0  0  0  0  0  0  0  0  0
  -14.8678   -9.7868    7.8468 O   0  0  0  0  0  0  0  0  0  0  0  0
  -15.1288  -10.5038    8.5025 H   0  0  0  0  0  0  0  0  0  0  0  0
  -14.2314   -7.8328    6.0118 N   0  0  0  0  0  0  0  0  0  0  0  0
  -14.2686   -8.7381    4.8521 C   0  0  0  0  0  0  0  0  0  0  0  0
  -14.7807   -5.7661    4.9129 C   0  0  0  0  0  0  0  0  0  0  0  0
  -15.1341   -6.7141    6.0387 C   0  0  0  0  0  0  0  0  0  0  0  0
  -16.5795   -7.0915    6.0364 C   0  0  0  0  0  0  0  0  0  0  0  0
   -5.3143   -5.8006    6.7889 C   0  0  0  0  0  0  0  0  0  0  0  0
   -4.0419   -5.8075    7.3448 N   0  0  0  0  0  0  0  0  0  0  0  0
   -2.9080   -6.1825    6.5342 C   0  0  0  0  0  0  0  0  0  0  0  0
   -3.0204   -6.9339    5.5565 O   0  0  0  0  0  0  0  0  0  0  0  0
   -1.5627   -5.6230    6.9194 C   0  0  0  0  0  0  0  0  0  0  0  0
   -1.3053   -6.0604    8.3224 C   0  0  0  0  0  0  0  0  0  0  0  0
   -2.4312   -5.7041    9.2082 C   0  0  0  0  0  0  0  0  0  0  0  0
   -2.2006   -5.5179   10.5735 C   0  0  0  0  0  0  0  0  0  0  0  0
   -3.2078   -5.2163   11.4436 C   0  0  0  0  0  0  0  0  0  0  0  0
   -4.4832   -5.0951   10.9462 C   0  0  0  0  0  0  0  0  0  0  0  0
   -4.7419   -5.2704    9.6172 C   0  0  0  0  0  0  0  0  0  0  0  0
   -3.7276   -5.5795    8.7057 C   0  0  0  0  0  0  0  0  0  0  0  0
 21 22  1  0  0  0
 22 23  1  0  0  0
 22 19  1  0  0  0
 19 20  1  0  0  0
 19 11  1  0  0  0
 11 12  2  0  0  0
 12 13  1  0  0  0
 13 14  2  0  0  0
 14 15  1  0  0  0
 15 16  2  0  0  0
 16 17  1  0  0  0
 13  9  1  0  0  0
  9 10  2  0  0  0
  9  1  1  0  0  0
  1  2  2  0  0  0
  2  3  1  0  0  0
  3  4  2  0  0  0
  4  5  1  0  0  0
  4  6  1  0  0  0
  6 24  1  0  0  0
 24 25  1  0  0  0
 25 26  1  0  0  0
 26 27  2  0  0  0
 26 28  1  0  0  0
 28 29  1  0  0  0
 29 30  1  0  0  0
 30 31  2  0  0  0
 31 32  1  0  0  0
 32 33  2  0  0  0
 33 34  1  0  0  0
 34 35  2  0  0  0
  6  7  2  0  0  0
 16 11  1  0  0  0
  7  1  1  0  0  0
 35 25  1  0  0  0
 35 30  1  0  0  0
 17 18  1  0  0  0
  5  8  1  0  0  0
M  END
> <minimizedAffinity>
-7.98229

> <CNNscore>
0.2909389436

> <CNNaffinity>
6.5079979897

> <CNN_VS>
1.8934301138

> <CNNaffinity_variance>
0.1525528878

$$$$
[H]Oc1c([H])c([H])c(C(=O)c2c([H])c([H])c(O[H])c(C([H])([H])N3C(=O)C([H])([H])C([H])([H])c4c([H])c([H])c([H])c([H])c43)c2[H])c([H])c1N(C([H])([H])[H])C([H])(C([H])([H])[H])C([H])([H])[H]


 35 38  0  0  0  0  0  0  0  0999 V2000
   -9.7822   -7.2923    7.9682 C   0  0  0  0  0  0  0  0  0  0  0  0
   -9.7126   -8.6817    7.7227 C   0  0  0  0  0  0  0  0  0  0  0  0
   -8.6577   -9.2270    7.0383 C   0  0  0  0  0  0  0  0  0  0  0  0
   -7.6211   -8.4282    6.5636 C   0  0  0  0  0  0  0  0  0  0  0  0
   -6.5884   -9.0378    5.8910 O   0  0  0  0  0  0  0  0  0  0  0  0
   -7.6371   -7.0821    6.7706 C   0  0  0  0  0  0  0  0  0  0  0  0
   -8.7403   -6.5768    7.4780 C   0  0  0  0  0  0  0  0  0  0  0  0
   -6.5363  -10.0120    5.7178 H   0  0  0  0  0  0  0  0  0  0  0  0
  -10.9304   -6.8634    8.7189 C   0  0  0  0  0  0  0  0  0  0  0  0
  -10.6211   -5.9437    9.6212 O   0  0  0  0  0  0  0  0  0  0  0  0
  -14.3132   -7.4556    7.3190 C   0  0  0  0  0  0  0  0  0  0  0  0
  -12.9952   -7.1317    7.4714 C   0  0  0  0  0  0  0  0  0  0  0  0
  -12.3027   -7.2255    8.6946 C   0  0  0  0  0  0  0  0  0  0  0  0
  -13.0414   -7.6680    9.7386 C   0  0  0  0  0  0  0  0  0  0  0  0
  -14.4053   -8.0079    9.6015 C   0  0  0  0  0  0  0  0  0  0  0  0
  -15.0358   -7.9024    8.4010 C   0  0  0  0  0  0  0  0  0  0  0  0
  -16.3903   -8.2420    8.2706 O   0  0  0  0  0  0  0  0  0  0  0  0
  -16.9292   -8.5697    9.0543 H   0  0  0  0  0  0  0  0  0  0  0  0
  -14.9869   -7.3490    6.0743 N   0  0  0  0  0  0  0  0  0  0  0  0
  -14.9756   -8.5328    5.2002 C   0  0  0  0  0  0  0  0  0  0  0  0
  -14.8495   -5.4884    4.5578 C   0  0  0  0  0  0  0  0  0  0  0  0
  -15.6776   -6.1707    5.6253 C   0  0  0  0  0  0  0  0  0  0  0  0
  -17.0857   -6.4132    5.1891 C   0  0  0  0  0  0  0  0  0  0  0  0
   -6.6474   -6.1035    6.2757 C   0  0  0  0  0  0  0  0  0  0  0  0
   -5.3359   -6.1254    6.7312 N   0  0  0  0  0  0  0  0  0  0  0  0
   -5.0211   -6.7831    7.9769 C   0  0  0  0  0  0  0  0  0  0  0  0
   -5.8569   -6.9091    8.8817 O   0  0  0  0  0  0  0  0  0  0  0  0
   -3.6232   -7.3205    8.1455 C   0  0  0  0  0  0  0  0  0  0  0  0
   -2.6982   -6.1620    7.9764 C   0  0  0  0  0  0  0  0  0  0  0  0
   -2.9669   -5.4436    6.7150 C   0  0  0  0  0  0  0  0  0  0  0  0
   -1.9414   -4.7170    6.1049 C   0  0  0  0  0  0  0  0  0  0  0  0
   -2.1399   -4.0103    4.9543 C   0  0  0  0  0  0  0  0  0  0  0  0
   -3.3930   -4.0238    4.3902 C   0  0  0  0  0  0  0  0  0  0  0  0
   -4.4164   -4.7242    4.9611 C   0  0  0  0  0  0  0  0  0  0  0  0
   -4.2385   -5.4561    6.1391 C   0  0  0  0  0  0  0  0  0  0  0  0
 21 22  1  0  0  0
 22 23  1  0  0  0
 22 19  1  0  0  0
 19 20  1  0  0  0
 19 11  1  0  0  0
 11 12  2  0  0  0
 12 13  1  0  0  0
 13 14  2  0  0  0
 14 15  1  0  0  0
 15 16  2  0  0  0
 16 17  1  0  0  0
 13  9  1  0  0  0
  9 10  2  0  0  0
  9  1  1  0  0  0
  1  2  2  0  0  0
  2  3  1  0  0  0
  3  4  2  0  0  0
  4  5  1  0  0  0
  4  6  1  0  0  0
  6 24  1  0  0  0
 24 25  1  0  0  0
 25 26  1  0  0  0
 26 27  2  0  0  0
 26 28  1  0  0  0
 28 29  1  0  0  0
 29 30  1  0  0  0
 30 31  2  0  0  0
 31 32  1  0  0  0
 32 33  2  0  0  0
 33 34  1  0  0  0
 34 35  2  0  0  0
  6  7  2  0  0  0
 16 11  1  0  0  0
  7  1  1  0  0  0
 35 25  1  0  0  0
 35 30  1  0  0  0
 17 18  1  0  0  0
  5  8  1  0  0  0
M  END
> <minimizedAffinity>
-9.26632

> <CNNscore>
0.2891472876

> <CNNaffinity>
6.9535126686

> <CNN_VS>
2.0105893612

> <CNNaffinity_variance>
0.3085199893

$$$$
[H]Oc1c([H])c([H])c(C(=O)c2c([H])c([H])c(O[H])c(C([H])([H])N3C(=O)C([H])([H])C([H])([H])c4c([H])c([H])c([H])c([H])c43)c2[H])c([H])c1N(C([H])([H])[H])C([H])(C([H])([H])[H])C([H])([H])[H]


 35 38  0  0  0  0  0  0  0  0999 V2000
  -12.5516   -7.4941    8.2733 C   0  0  0  0  0  0  0  0  0  0  0  0
  -13.3623   -7.3795    9.4243 C   0  0  0  0  0  0  0  0  0  0  0  0
  -14.7013   -7.6688    9.3780 C   0  0  0  0  0  0  0  0  0  0  0  0
  -15.3044   -8.0852    8.1945 C   0  0  0  0  0  0  0  0  0  0  0  0
  -16.6499   -8.3669    8.2164 O   0  0  0  0  0  0  0  0  0  0  0  0
  -14.5709   -8.2120    7.0538 C   0  0  0  0  0  0  0  0  0  0  0  0
  -13.2045   -7.9039    7.1581 C   0  0  0  0  0  0  0  0  0  0  0  0
  -17.2211   -8.2881    9.0222 H   0  0  0  0  0  0  0  0  0  0  0  0
  -11.1625   -7.1839    8.4736 C   0  0  0  0  0  0  0  0  0  0  0  0
  -10.9959   -6.0708    9.1729 O   0  0  0  0  0  0  0  0  0  0  0  0
   -7.5848   -7.5029    7.5504 C   0  0  0  0  0  0  0  0  0  0  0  0
   -8.8044   -7.0145    7.9240 C   0  0  0  0  0  0  0  0  0  0  0  0
   -9.9548   -7.8136    8.0740 C   0  0  0  0  0  0  0  0  0  0  0  0
   -9.7748   -9.1305    7.8190 C   0  0  0  0  0  0  0  0  0  0  0  0
   -8.5220   -9.6548    7.4314 C   0  0  0  0  0  0  0  0  0  0  0  0
   -7.4359   -8.8470    7.2984 C   0  0  0  0  0  0  0  0  0  0  0  0
   -6.1941   -9.3734    6.9139 O   0  0  0  0  0  0  0  0  0  0  0  0
   -6.0727  -10.3544    6.7267 H   0  0  0  0  0  0  0  0  0  0  0  0
   -6.4421   -6.6738    7.4044 N   0  0  0  0  0  0  0  0  0  0  0  0
   -5.6187   -6.4469    8.6029 C   0  0  0  0  0  0  0  0  0  0  0  0
   -4.5575   -6.2720    5.9667 C   0  0  0  0  0  0  0  0  0  0  0  0
   -6.0418   -6.0560    6.1695 C   0  0  0  0  0  0  0  0  0  0  0  0
   -6.8482   -6.4751    4.9838 C   0  0  0  0  0  0  0  0  0  0  0  0
  -15.0792   -8.5798    5.7166 C   0  0  0  0  0  0  0  0  0  0  0  0
  -16.0539   -7.8143    5.0905 N   0  0  0  0  0  0  0  0  0  0  0  0
  -17.2867   -8.4326    4.6649 C   0  0  0  0  0  0  0  0  0  0  0  0
  -17.3543   -9.6370    4.3855 O   0  0  0  0  0  0  0  0  0  0  0  0
  -18.5081   -7.5549    4.5697 C   0  0  0  0  0  0  0  0  0  0  0  0
  -18.1731   -6.4613    3.6116 C   0  0  0  0  0  0  0  0  0  0  0  0
  -16.9180   -5.7835    3.9920 C   0  0  0  0  0  0  0  0  0  0  0  0
  -16.7054   -4.4589    3.6019 C   0  0  0  0  0  0  0  0  0  0  0  0
  -15.5526   -3.7922    3.9001 C   0  0  0  0  0  0  0  0  0  0  0  0
  -14.5799   -4.4578    4.6068 C   0  0  0  0  0  0  0  0  0  0  0  0
  -14.7567   -5.7522    5.0032 C   0  0  0  0  0  0  0  0  0  0  0  0
  -15.9285   -6.4568    4.7105 C   0  0  0  0  0  0  0  0  0  0  0  0
 21 22  1  0  0  0
 22 23  1  0  0  0
 22 19  1  0  0  0
 19 20  1  0  0  0
 19 11  1  0  0  0
 11 12  2  0  0  0
 12 13  1  0  0  0
 13 14  2  0  0  0
 14 15  1  0  0  0
 15 16  2  0  0  0
 16 17  1  0  0  0
 13  9  1  0  0  0
  9 10  2  0  0  0
  9  1  1  0  0  0
  1  2  2  0  0  0
  2  3  1  0  0  0
  3  4  2  0  0  0
  4  5  1  0  0  0
  4  6  1  0  0  0
  6 24  1  0  0  0
 24 25  1  0  0  0
 25 26  1  0  0  0
 26 27  2  0  0  0
 26 28  1  0  0  0
 28 29  1  0  0  0
 29 30  1  0  0  0
 30 31  2  0  0  0
 31 32  1  0  0  0
 32 33  2  0  0  0
 33 34  1  0  0  0
 34 35  2  0  0  0
  6  7  2  0  0  0
 16 11  1  0  0  0
  7  1  1  0  0  0
 35 25  1  0  0  0
 35 30  1  0  0  0
 17 18  1  0  0  0
  5  8  1  0  0  0
M  END
> <minimizedAffinity>
-10.29150

> <CNNscore>
0.2696993649

> <CNNaffinity>
7.0267958641

> <CNN_VS>
1.8951224089

> <CNNaffinity_variance>
0.2009242326

$$$$
[H]Oc1c([H])c([H])c(C(=O)c2c([H])c([H])c(O[H])c(C([H])([H])N3C(=O)C([H])([H])C([H])([H])c4c([H])c([H])c([H])c([H])c43)c2[H])c([H])c1N(C([H])([H])[H])C([H])(C([H])([H])[H])C([H])([H])[H]


 35 38  0  0  0  0  0  0  0  0999 V2000
  -10.6541   -7.8979    8.1603 C   0  0  0  0  0  0  0  0  0  0  0  0
  -10.8356   -9.1662    7.5654 C   0  0  0  0  0  0  0  0  0  0  0  0
   -9.7721  -10.0015    7.3420 C   0  0  0  0  0  0  0  0  0  0  0  0
   -8.4789   -9.6259    7.6951 C   0  0  0  0  0  0  0  0  0  0  0  0
   -7.4567  -10.5124    7.4510 O   0  0  0  0  0  0  0  0  0  0  0  0
   -8.2454   -8.4139    8.2709 C   0  0  0  0  0  0  0  0  0  0  0  0
   -9.3704   -7.5987    8.4776 C   0  0  0  0  0  0  0  0  0  0  0  0
   -7.5809  -11.4028    7.0345 H   0  0  0  0  0  0  0  0  0  0  0  0
  -11.8592   -7.1398    8.3576 C   0  0  0  0  0  0  0  0  0  0  0  0
  -11.6307   -5.9937    8.9822 O   0  0  0  0  0  0  0  0  0  0  0  0
  -14.9806   -7.0786    6.3559 C   0  0  0  0  0  0  0  0  0  0  0  0
  -13.6949   -6.9128    6.7860 C   0  0  0  0  0  0  0  0  0  0  0  0
  -13.2212   -7.3704    8.0313 C   0  0  0  0  0  0  0  0  0  0  0  0
  -14.1411   -8.0017    8.7973 C   0  0  0  0  0  0  0  0  0  0  0  0
  -15.4751   -8.1830    8.3707 C   0  0  0  0  0  0  0  0  0  0  0  0
  -15.8911   -7.7249    7.1595 C   0  0  0  0  0  0  0  0  0  0  0  0
  -17.2170   -7.9085    6.7407 O   0  0  0  0  0  0  0  0  0  0  0  0
  -17.8920   -8.3793    7.3192 H   0  0  0  0  0  0  0  0  0  0  0  0
  -15.4317   -6.6047    5.0964 N   0  0  0  0  0  0  0  0  0  0  0  0
  -15.3289   -7.5277    3.9548 C   0  0  0  0  0  0  0  0  0  0  0  0
  -14.9046   -4.3931    4.3144 C   0  0  0  0  0  0  0  0  0  0  0  0
  -15.9832   -5.2958    4.8735 C   0  0  0  0  0  0  0  0  0  0  0  0
  -17.2248   -5.2861    4.0427 C   0  0  0  0  0  0  0  0  0  0  0  0
   -6.9295   -7.8535    8.6400 C   0  0  0  0  0  0  0  0  0  0  0  0
   -6.2045   -7.0861    7.7380 N   0  0  0  0  0  0  0  0  0  0  0  0
   -6.3243   -7.3407    6.3223 C   0  0  0  0  0  0  0  0  0  0  0  0
   -6.6350   -8.4548    5.8801 O   0  0  0  0  0  0  0  0  0  0  0  0
   -6.0562   -6.1921    5.3842 C   0  0  0  0  0  0  0  0  0  0  0  0
   -4.6660   -5.7287    5.6645 C   0  0  0  0  0  0  0  0  0  0  0  0
   -4.4759   -5.4478    7.1013 C   0  0  0  0  0  0  0  0  0  0  0  0
   -3.4999   -4.5313    7.5003 C   0  0  0  0  0  0  0  0  0  0  0  0
   -3.2605   -4.2544    8.8150 C   0  0  0  0  0  0  0  0  0  0  0  0
   -4.0113   -4.9053    9.7644 C   0  0  0  0  0  0  0  0  0  0  0  0
   -4.9731   -5.8062    9.4077 C   0  0  0  0  0  0  0  0  0  0  0  0
   -5.2375   -6.1068    8.0680 C   0  0  0  0  0  0  0  0  0  0  0  0
 21 22  1  0  0  0
 22 23  1  0  0  0
 22 19  1  0  0  0
 19 20  1  0  0  0
 19 11  1  0  0  0
 11 12  2  0  0  0
 12 13  1  0  0  0
 13 14  2  0  0  0
 14 15  1  0  0  0
 15 16  2  0  0  0
 16 17  1  0  0  0
 13  9  1  0  0  0
  9 10  2  0  0  0
  9  1  1  0  0  0
  1  2  2  0  0  0
  2  3  1  0  0  0
  3  4  2  0  0  0
  4  5  1  0  0  0
  4  6  1  0  0  0
  6 24  1  0  0  0
 24 25  1  0  0  0
 25 26  1  0  0  0
 26 27  2  0  0  0
 26 28  1  0  0  0
 28 29  1  0  0  0
 29 30  1  0  0  0
 30 31  2  0  0  0
 31 32  1  0  0  0
 32 33  2  0  0  0
 33 34  1  0  0  0
 34 35  2  0  0  0
  6  7  2  0  0  0
 16 11  1  0  0  0
  7  1  1  0  0  0
 35 25  1  0  0  0
 35 30  1  0  0  0
 17 18  1  0  0  0
  5  8  1  0  0  0
M  END
> <minimizedAffinity>
-10.27460

> <CNNscore>
0.2528135180

> <CNNaffinity>
6.8080992699

> <CNN_VS>
1.7211794853

> <CNNaffinity_variance>
0.2576897442

$$$$
[H]Oc1c([H])c([H])c(C(=O)c2c([H])c([H])c(O[H])c(C([H])([H])N3C(=O)C([H])([H])C([H])([H])c4c([H])c([H])c([H])c([H])c43)c2[H])c([H])c1N(C([H])([H])[H])C([H])(C([H])([H])[H])C([H])([H])[H]


 35 38  0  0  0  0  0  0  0  0999 V2000
   -9.6696   -7.4133    8.3105 C   0  0  0  0  0  0  0  0  0  0  0  0
   -9.8028   -8.6087    7.5699 C   0  0  0  0  0  0  0  0  0  0  0  0
   -8.7011   -9.2855    7.1150 C   0  0  0  0  0  0  0  0  0  0  0  0
   -7.4155   -8.8157    7.3692 C   0  0  0  0  0  0  0  0  0  0  0  0
   -6.3523   -9.5449    6.8915 O   0  0  0  0  0  0  0  0  0  0  0  0
   -7.2280   -7.6674    8.0773 C   0  0  0  0  0  0  0  0  0  0  0  0
   -8.3906   -7.0153    8.5199 C   0  0  0  0  0  0  0  0  0  0  0  0
   -6.4425  -10.3840    6.3723 H   0  0  0  0  0  0  0  0  0  0  0  0
  -10.9070   -6.8250    8.7449 C   0  0  0  0  0  0  0  0  0  0  0  0
  -10.7180   -5.6757    9.3767 O   0  0  0  0  0  0  0  0  0  0  0  0
  -14.2190   -7.4046    7.1801 C   0  0  0  0  0  0  0  0  0  0  0  0
  -12.9178   -7.0555    7.4052 C   0  0  0  0  0  0  0  0  0  0  0  0
  -12.2655   -7.2235    8.6425 C   0  0  0  0  0  0  0  0  0  0  0  0
  -13.0255   -7.7664    9.6218 C   0  0  0  0  0  0  0  0  0  0  0  0
  -14.3725   -8.1338    9.4090 C   0  0  0  0  0  0  0  0  0  0  0  0
  -14.9640   -7.9542    8.1976 C   0  0  0  0  0  0  0  0  0  0  0  0
  -16.3018   -8.3217    7.9918 O   0  0  0  0  0  0  0  0  0  0  0  0
  -16.8569   -8.7242    8.7279 H   0  0  0  0  0  0  0  0  0  0  0  0
  -14.8523   -7.2217    5.9231 N   0  0  0  0  0  0  0  0  0  0  0  0
  -14.7989   -8.3449    4.9737 C   0  0  0  0  0  0  0  0  0  0  0  0
  -14.7561   -5.3398    4.4299 C   0  0  0  0  0  0  0  0  0  0  0  0
  -15.5406   -6.0224    5.5297 C   0  0  0  0  0  0  0  0  0  0  0  0
  -16.9748   -6.2290    5.1658 C   0  0  0  0  0  0  0  0  0  0  0  0
   -5.9356   -7.0149    8.3703 C   0  0  0  0  0  0  0  0  0  0  0  0
   -5.0574   -6.6841    7.3469 N   0  0  0  0  0  0  0  0  0  0  0  0
   -5.5384   -5.9550    6.1977 C   0  0  0  0  0  0  0  0  0  0  0  0
   -6.7196   -6.0139    5.8308 O   0  0  0  0  0  0  0  0  0  0  0  0
   -4.5447   -5.1067    5.4467 C   0  0  0  0  0  0  0  0  0  0  0  0
   -3.4533   -6.0218    5.0022 C   0  0  0  0  0  0  0  0  0  0  0  0
   -2.9136   -6.7994    6.1351 C   0  0  0  0  0  0  0  0  0  0  0  0
   -1.6019   -7.2770    6.0793 C   0  0  0  0  0  0  0  0  0  0  0  0
   -1.0603   -8.0255    7.0837 C   0  0  0  0  0  0  0  0  0  0  0  0
   -1.8419   -8.3098    8.1777 C   0  0  0  0  0  0  0  0  0  0  0  0
   -3.1273   -7.8577    8.2633 C   0  0  0  0  0  0  0  0  0  0  0  0
   -3.7049   -7.0891    7.2480 C   0  0  0  0  0  0  0  0  0  0  0  0
 21 22  1  0  0  0
 22 23  1  0  0  0
 22 19  1  0  0  0
 19 20  1  0  0  0
 19 11  1  0  0  0
 11 12  2  0  0  0
 12 13  1  0  0  0
 13 14  2  0  0  0
 14 15  1  0  0  0
 15 16  2  0  0  0
 16 17  1  0  0  0
 13  9  1  0  0  0
  9 10  2  0  0  0
  9  1  1  0  0  0
  1  2  2  0  0  0
  2  3  1  0  0  0
  3  4  2  0  0  0
  4  5  1  0  0  0
  4  6  1  0  0  0
  6 24  1  0  0  0
 24 25  1  0  0  0
 25 26  1  0  0  0
 26 27  2  0  0  0
 26 28  1  0  0  0
 28 29  1  0  0  0
 29 30  1  0  0  0
 30 31  2  0  0  0
 31 32  1  0  0  0
 32 33  2  0  0  0
 33 34  1  0  0  0
 34 35  2  0  0  0
  6  7  2  0  0  0
 16 11  1  0  0  0
  7  1  1  0  0  0
 35 25  1  0  0  0
 35 30  1  0  0  0
 17 18  1  0  0  0
  5  8  1  0  0  0
M  END
> <minimizedAffinity>
-8.21175

> <CNNscore>
0.2255789489

> <CNNaffinity>
6.6754965782

> <CNN_VS>
1.5058515072

> <CNNaffinity_variance>
0.1366922855

$$$$
[H]Oc1c([H])c([H])c(C(=O)c2c([H])c([H])c(O[H])c(C([H])([H])N3C(=O)C([H])([H])C([H])([H])c4c([H])c([H])c([H])c([H])c43)c2[H])c([H])c1N(C([H])([H])[H])C([H])(C([H])([H])[H])C([H])([H])[H]


 35 38  0  0  0  0  0  0  0  0999 V2000
  -11.1530   -7.6464    8.0580 C   0  0  0  0  0  0  0  0  0  0  0  0
  -11.3369   -8.9134    8.6547 C   0  0  0  0  0  0  0  0  0  0  0  0
  -12.5584   -9.5347    8.6336 C   0  0  0  0  0  0  0  0  0  0  0  0
  -13.6568   -8.9360    8.0227 C   0  0  0  0  0  0  0  0  0  0  0  0
  -14.8525   -9.6147    8.0296 O   0  0  0  0  0  0  0  0  0  0  0  0
  -13.5373   -7.7142    7.4328 C   0  0  0  0  0  0  0  0  0  0  0  0
  -12.2638   -7.1237    7.4827 C   0  0  0  0  0  0  0  0  0  0  0  0
  -14.9845  -10.5038    8.4467 H   0  0  0  0  0  0  0  0  0  0  0  0
   -9.8151   -7.1263    8.1331 C   0  0  0  0  0  0  0  0  0  0  0  0
   -9.7647   -5.9712    8.7802 O   0  0  0  0  0  0  0  0  0  0  0  0
   -6.1808   -7.0825    7.3959 C   0  0  0  0  0  0  0  0  0  0  0  0
   -7.4394   -6.7493    7.8086 C   0  0  0  0  0  0  0  0  0  0  0  0
   -8.5607   -7.5882    7.6556 C   0  0  0  0  0  0  0  0  0  0  0  0
   -8.3099   -8.7768    7.0590 C   0  0  0  0  0  0  0  0  0  0  0  0
   -7.0157   -9.1397    6.6253 C   0  0  0  0  0  0  0  0  0  0  0  0
   -5.9599   -8.2989    6.7926 C   0  0  0  0  0  0  0  0  0  0  0  0
   -4.6768   -8.6649    6.3605 O   0  0  0  0  0  0  0  0  0  0  0  0
   -4.5027   -9.5513    5.9180 H   0  0  0  0  0  0  0  0  0  0  0  0
   -5.0687   -6.2160    7.5605 N   0  0  0  0  0  0  0  0  0  0  0  0
   -4.7594   -5.3009    6.4502 C   0  0  0  0  0  0  0  0  0  0  0  0
   -2.8175   -6.5142    8.3502 C   0  0  0  0  0  0  0  0  0  0  0  0
   -4.2412   -6.1742    8.7355 C   0  0  0  0  0  0  0  0  0  0  0  0
   -4.3358   -4.8990    9.5079 C   0  0  0  0  0  0  0  0  0  0  0  0
  -14.6201   -6.9301    6.8048 C   0  0  0  0  0  0  0  0  0  0  0  0
  -15.2907   -7.4104    5.6877 N   0  0  0  0  0  0  0  0  0  0  0  0
  -14.7820   -8.5663    4.9888 C   0  0  0  0  0  0  0  0  0  0  0  0
  -13.5814   -8.8687    5.0080 O   0  0  0  0  0  0  0  0  0  0  0  0
  -15.7713   -9.4071    4.2236 C   0  0  0  0  0  0  0  0  0  0  0  0
  -16.4206   -8.5028    3.2303 C   0  0  0  0  0  0  0  0  0  0  0  0
  -16.9661   -7.2962    3.8829 C   0  0  0  0  0  0  0  0  0  0  0  0
  -18.0360   -6.6187    3.2929 C   0  0  0  0  0  0  0  0  0  0  0  0
  -18.5616   -5.4823    3.8359 C   0  0  0  0  0  0  0  0  0  0  0  0
  -18.0106   -5.0018    4.9996 C   0  0  0  0  0  0  0  0  0  0  0  0
  -16.9649   -5.6406    5.6015 C   0  0  0  0  0  0  0  0  0  0  0  0
  -16.4090   -6.8063    5.0654 C   0  0  0  0  0  0  0  0  0  0  0  0
 21 22  1  0  0  0
 22 23  1  0  0  0
 22 19  1  0  0  0
 19 20  1  0  0  0
 19 11  1  0  0  0
 11 12  2  0  0  0
 12 13  1  0  0  0
 13 14  2  0  0  0
 14 15  1  0  0  0
 15 16  2  0  0  0
 16 17  1  0  0  0
 13  9  1  0  0  0
  9 10  2  0  0  0
  9  1  1  0  0  0
  1  2  2  0  0  0
  2  3  1  0  0  0
  3  4  2  0  0  0
  4  5  1  0  0  0
  4  6  1  0  0  0
  6 24  1  0  0  0
 24 25  1  0  0  0
 25 26  1  0  0  0
 26 27  2  0  0  0
 26 28  1  0  0  0
 28 29  1  0  0  0
 29 30  1  0  0  0
 30 31  2  0  0  0
 31 32  1  0  0  0
 32 33  2  0  0  0
 33 34  1  0  0  0
 34 35  2  0  0  0
  6  7  2  0  0  0
 16 11  1  0  0  0
  7  1  1  0  0  0
 35 25  1  0  0  0
 35 30  1  0  0  0
 17 18  1  0  0  0
  5  8  1  0  0  0
M  END
> <minimizedAffinity>
-8.86105

> <CNNscore>
0.2239185870

> <CNNaffinity>
6.4675836563

> <CNN_VS>
1.4482121468

> <CNNaffinity_variance>
0.1614504009

$$$$
[H]Oc1c([H])c([H])c(C(=O)c2c([H])c([H])c(O[H])c(C([H])([H])N3C(=O)C([H])([H])C([H])([H])c4c([H])c([H])c([H])c([H])c43)c2[H])c([H])c1N(C([H])([H])[H])C([H])(C([H])([H])[H])C([H])([H])[H]


 35 38  0  0  0  0  0  0  0  0999 V2000
  -10.5683   -7.7145    8.3140 C   0  0  0  0  0  0  0  0  0  0  0  0
  -10.6008   -8.8889    7.5298 C   0  0  0  0  0  0  0  0  0  0  0  0
   -9.4720   -9.6420    7.3366 C   0  0  0  0  0  0  0  0  0  0  0  0
   -8.2574   -9.2728    7.9078 C   0  0  0  0  0  0  0  0  0  0  0  0
   -7.1639  -10.0750    7.6817 O   0  0  0  0  0  0  0  0  0  0  0  0
   -8.1677   -8.1491    8.6724 C   0  0  0  0  0  0  0  0  0  0  0  0
   -9.3542   -7.4160    8.8383 C   0  0  0  0  0  0  0  0  0  0  0  0
   -7.1836  -10.8996    7.1328 H   0  0  0  0  0  0  0  0  0  0  0  0
  -11.8297   -7.0394    8.4520 C   0  0  0  0  0  0  0  0  0  0  0  0
  -11.7109   -5.8876    9.0963 O   0  0  0  0  0  0  0  0  0  0  0  0
  -14.7199   -7.5191    6.1782 C   0  0  0  0  0  0  0  0  0  0  0  0
  -13.4836   -7.2392    6.6867 C   0  0  0  0  0  0  0  0  0  0  0  0
  -13.1543   -7.3554    8.0515 C   0  0  0  0  0  0  0  0  0  0  0  0
  -14.1635   -7.7726    8.8509 C   0  0  0  0  0  0  0  0  0  0  0  0
  -15.4486   -8.0668    8.3443 C   0  0  0  0  0  0  0  0  0  0  0  0
  -15.7241   -7.9409    7.0184 C   0  0  0  0  0  0  0  0  0  0  0  0
  -17.0019   -8.2353    6.5209 O   0  0  0  0  0  0  0  0  0  0  0  0
  -17.7444   -8.5444    7.1252 H   0  0  0  0  0  0  0  0  0  0  0  0
  -15.0249   -7.3906    4.7980 N   0  0  0  0  0  0  0  0  0  0  0  0
  -14.9212   -8.6035    3.9709 C   0  0  0  0  0  0  0  0  0  0  0  0
  -16.8816   -6.2782    3.7512 C   0  0  0  0  0  0  0  0  0  0  0  0
  -15.4313   -6.1634    4.1688 C   0  0  0  0  0  0  0  0  0  0  0  0
  -15.1655   -4.9390    4.9825 C   0  0  0  0  0  0  0  0  0  0  0  0
   -6.9431   -7.5987    9.2881 C   0  0  0  0  0  0  0  0  0  0  0  0
   -6.0224   -6.8884    8.5291 N   0  0  0  0  0  0  0  0  0  0  0  0
   -4.8905   -6.2664    9.1736 C   0  0  0  0  0  0  0  0  0  0  0  0
   -4.9227   -5.9155   10.3607 O   0  0  0  0  0  0  0  0  0  0  0  0
   -3.6493   -6.0540    8.3457 C   0  0  0  0  0  0  0  0  0  0  0  0
   -4.0522   -5.2110    7.1825 C   0  0  0  0  0  0  0  0  0  0  0  0
   -5.2091   -5.7945    6.4751 C   0  0  0  0  0  0  0  0  0  0  0  0
   -5.4035   -5.5093    5.1213 C   0  0  0  0  0  0  0  0  0  0  0  0
   -6.4706   -5.9971    4.4243 C   0  0  0  0  0  0  0  0  0  0  0  0
   -7.3735   -6.7922    5.0886 C   0  0  0  0  0  0  0  0  0  0  0  0
   -7.2121   -7.0901    6.4111 C   0  0  0  0  0  0  0  0  0  0  0  0
   -6.1275   -6.6032    7.1470 C   0  0  0  0  0  0  0  0  0  0  0  0
 21 22  1  0  0  0
 22 23  1  0  0  0
 22 19  1  0  0  0
 19 20  1  0  0  0
 19 11  1  0  0  0
 11 12  2  0  0  0
 12 13  1  0  0  0
 13 14  2  0  0  0
 14 15  1  0  0  0
 15 16  2  0  0  0
 16 17  1  0  0  0
 13  9  1  0  0  0
  9 10  2  0  0  0
  9  1  1  0  0  0
  1  2  2  0  0  0
  2  3  1  0  0  0
  3  4  2  0  0  0
  4  5  1  0  0  0
  4  6  1  0  0  0
  6 24  1  0  0  0
 24 25  1  0  0  0
 25 26  1  0  0  0
 26 27  2  0  0  0
 26 28  1  0  0  0
 28 29  1  0  0  0
 29 30  1  0  0  0
 30 31  2  0  0  0
 31 32  1  0  0  0
 32 33  2  0  0  0
 33 34  1  0  0  0
 34 35  2  0  0  0
  6  7  2  0  0  0
 16 11  1  0  0  0
  7  1  1  0  0  0
 35 25  1  0  0  0
 35 30  1  0  0  0
 17 18  1  0  0  0
  5  8  1  0  0  0
M  END
> <minimizedAffinity>
-7.63225

> <CNNscore>
0.2178229690

> <CNNaffinity>
6.8474016190

> <CNN_VS>
1.4915213585

> <CNNaffinity_variance>
0.1169408932

$$$$
[H]Oc1c([H])c([H])c(C(=O)c2c([H])c([H])c(O[H])c(C([H])([H])N3C(=O)C([H])([H])C([H])([H])c4c([H])c([H])c([H])c([H])c43)c2[H])c([H])c1N(C([H])([H])[H])C([H])(C([H])([H])[H])C([H])([H])[H]


 35 38  0  0  0  0  0  0  0  0999 V2000
   -9.7599   -8.5945    7.5490 C   0  0  0  0  0  0  0  0  0  0  0  0
  -10.0352   -9.8205    6.9038 C   0  0  0  0  0  0  0  0  0  0  0  0
  -11.3173  -10.1719    6.5700 C   0  0  0  0  0  0  0  0  0  0  0  0
  -12.3889   -9.3307    6.8564 C   0  0  0  0  0  0  0  0  0  0  0  0
  -13.6495   -9.7384    6.4889 O   0  0  0  0  0  0  0  0  0  0  0  0
  -12.1819   -8.1369    7.4784 C   0  0  0  0  0  0  0  0  0  0  0  0
  -10.8494   -7.8267    7.7967 C   0  0  0  0  0  0  0  0  0  0  0  0
  -13.8458  -10.5974    6.0357 H   0  0  0  0  0  0  0  0  0  0  0  0
   -8.3697   -8.3455    7.8159 C   0  0  0  0  0  0  0  0  0  0  0  0
   -7.9509   -8.9729    8.9052 O   0  0  0  0  0  0  0  0  0  0  0  0
   -5.1497   -6.5679    7.3405 C   0  0  0  0  0  0  0  0  0  0  0  0
   -6.1815   -7.2960    7.8609 C   0  0  0  0  0  0  0  0  0  0  0  0
   -7.3747   -7.5709    7.1641 C   0  0  0  0  0  0  0  0  0  0  0  0
   -7.4395   -7.0567    5.9140 C   0  0  0  0  0  0  0  0  0  0  0  0
   -6.3836   -6.3013    5.3581 C   0  0  0  0  0  0  0  0  0  0  0  0
   -5.2479   -6.0591    6.0662 C   0  0  0  0  0  0  0  0  0  0  0  0
   -4.2022   -5.3089    5.5088 O   0  0  0  0  0  0  0  0  0  0  0  0
   -4.2621   -4.9315    4.5782 H   0  0  0  0  0  0  0  0  0  0  0  0
   -3.9590   -6.3038    8.0665 N   0  0  0  0  0  0  0  0  0  0  0  0
   -4.0437   -5.3272    9.1642 C   0  0  0  0  0  0  0  0  0  0  0  0
   -1.8046   -6.7857    9.0187 C   0  0  0  0  0  0  0  0  0  0  0  0
   -2.6927   -6.9310    7.8017 C   0  0  0  0  0  0  0  0  0  0  0  0
   -2.7944   -8.3459    7.3333 C   0  0  0  0  0  0  0  0  0  0  0  0
  -13.2183   -7.1732    7.9015 C   0  0  0  0  0  0  0  0  0  0  0  0
  -14.5163   -7.2658    7.4171 N   0  0  0  0  0  0  0  0  0  0  0  0
  -15.4607   -8.1459    8.0627 C   0  0  0  0  0  0  0  0  0  0  0  0
  -15.0986   -9.1497    8.6908 O   0  0  0  0  0  0  0  0  0  0  0  0
  -16.9233   -7.8008    7.9480 C   0  0  0  0  0  0  0  0  0  0  0  0
  -17.2379   -7.7584    6.4901 C   0  0  0  0  0  0  0  0  0  0  0  0
  -16.3055   -6.8704    5.7679 C   0  0  0  0  0  0  0  0  0  0  0  0
  -16.7128   -6.2690    4.5745 C   0  0  0  0  0  0  0  0  0  0  0  0
  -15.8838   -5.4627    3.8500 C   0  0  0  0  0  0  0  0  0  0  0  0
  -14.6116   -5.2449    4.3220 C   0  0  0  0  0  0  0  0  0  0  0  0
  -14.1829   -5.8172    5.4850 C   0  0  0  0  0  0  0  0  0  0  0  0
  -15.0130   -6.6466    6.2454 C   0  0  0  0  0  0  0  0  0  0  0  0
 21 22  1  0  0  0
 22 23  1  0  0  0
 22 19  1  0  0  0
 19 20  1  0  0  0
 19 11  1  0  0  0
 11 12  2  0  0  0
 12 13  1  0  0  0
 13 14  2  0  0  0
 14 15  1  0  0  0
 15 16  2  0  0  0
 16 17  1  0  0  0
 13  9  1  0  0  0
  9 10  2  0  0  0
  9  1  1  0  0  0
  1  2  2  0  0  0
  2  3  1  0  0  0
  3  4  2  0  0  0
  4  5  1  0  0  0
  4  6  1  0  0  0
  6 24  1  0  0  0
 24 25  1  0  0  0
 25 26  1  0  0  0
 26 27  2  0  0  0
 26 28  1  0  0  0
 28 29  1  0  0  0
 29 30  1  0  0  0
 30 31  2  0  0  0
 31 32  1  0  0  0
 32 33  2  0  0  0
 33 34  1  0  0  0
 34 35  2  0  0  0
  6  7  2  0  0  0
 16 11  1  0  0  0
  7  1  1  0  0  0
 35 25  1  0  0  0
 35 30  1  0  0  0
 17 18  1  0  0  0
  5  8  1  0  0  0
M  END
> <minimizedAffinity>
-9.28564

> <CNNscore>
0.2158015668

> <CNNaffinity>
6.5546751022

> <CNN_VS>
1.4145091772

> <CNNaffinity_variance>
0.0891934484

$$$$
[H]Oc1c([H])c([H])c(C(=O)c2c([H])c([H])c(O[H])c(C([H])([H])N3C(=O)C([H])([H])C([H])([H])c4c([H])c([H])c([H])c([H])c43)c2[H])c([H])c1N(C([H])([H])[H])C([H])(C([H])([H])[H])C([H])([H])[H]


 35 38  0  0  0  0  0  0  0  0999 V2000
   -6.4939   -7.2295    7.4771 C   0  0  0  0  0  0  0  0  0  0  0  0
   -6.8781   -6.8702    6.1661 C   0  0  0  0  0  0  0  0  0  0  0  0
   -6.0388   -6.1518    5.3549 C   0  0  0  0  0  0  0  0  0  0  0  0
   -4.7805   -5.7537    5.7979 C   0  0  0  0  0  0  0  0  0  0  0  0
   -3.9838   -5.0415    4.9328 O   0  0  0  0  0  0  0  0  0  0  0  0
   -4.3586   -6.0715    7.0533 C   0  0  0  0  0  0  0  0  0  0  0  0
   -5.2575   -6.8091    7.8412 C   0  0  0  0  0  0  0  0  0  0  0  0
   -4.2501   -4.7885    4.0125 H   0  0  0  0  0  0  0  0  0  0  0  0
   -7.4620   -8.0037    8.2047 C   0  0  0  0  0  0  0  0  0  0  0  0
   -7.0787   -8.2370    9.4515 O   0  0  0  0  0  0  0  0  0  0  0  0
  -11.1501   -8.2966    7.9482 C   0  0  0  0  0  0  0  0  0  0  0  0
   -9.8850   -7.8633    8.2264 C   0  0  0  0  0  0  0  0  0  0  0  0
   -8.7195   -8.5653    7.8612 C   0  0  0  0  0  0  0  0  0  0  0  0
   -8.9336   -9.7265    7.1999 C   0  0  0  0  0  0  0  0  0  0  0  0
  -10.2336  -10.1916    6.9030 C   0  0  0  0  0  0  0  0  0  0  0  0
  -11.3328   -9.4820    7.2744 C   0  0  0  0  0  0  0  0  0  0  0  0
  -12.6214   -9.9484    6.9761 O   0  0  0  0  0  0  0  0  0  0  0  0
  -12.7679  -10.8136    6.4841 H   0  0  0  0  0  0  0  0  0  0  0  0
  -12.3077   -7.5699    8.3306 N   0  0  0  0  0  0  0  0  0  0  0  0
  -13.1573   -7.0422    7.2510 C   0  0  0  0  0  0  0  0  0  0  0  0
  -12.4574   -5.8712   10.0254 C   0  0  0  0  0  0  0  0  0  0  0  0
  -12.6991   -7.3278    9.6927 C   0  0  0  0  0  0  0  0  0  0  0  0
  -14.0894   -7.7662   10.0191 C   0  0  0  0  0  0  0  0  0  0  0  0
   -3.0846   -5.6678    7.6824 C   0  0  0  0  0  0  0  0  0  0  0  0
   -2.9473   -4.4191    8.2740 N   0  0  0  0  0  0  0  0  0  0  0  0
   -2.6329   -3.2706    7.4582 C   0  0  0  0  0  0  0  0  0  0  0  0
   -2.0234   -3.3750    6.3855 O   0  0  0  0  0  0  0  0  0  0  0  0
   -3.0759   -1.9200    7.9589 C   0  0  0  0  0  0  0  0  0  0  0  0
   -2.4455   -1.7344    9.2984 C   0  0  0  0  0  0  0  0  0  0  0  0
   -2.7311   -2.8786   10.1864 C   0  0  0  0  0  0  0  0  0  0  0  0
   -2.7244   -2.6936   11.5712 C   0  0  0  0  0  0  0  0  0  0  0  0
   -2.9527   -3.7208   12.4403 C   0  0  0  0  0  0  0  0  0  0  0  0
   -3.1954   -4.9702   11.9219 C   0  0  0  0  0  0  0  0  0  0  0  0
   -3.2094   -5.1843   10.5736 C   0  0  0  0  0  0  0  0  0  0  0  0
   -2.9788   -4.1487    9.6628 C   0  0  0  0  0  0  0  0  0  0  0  0
 21 22  1  0  0  0
 22 23  1  0  0  0
 22 19  1  0  0  0
 19 20  1  0  0  0
 19 11  1  0  0  0
 11 12  2  0  0  0
 12 13  1  0  0  0
 13 14  2  0  0  0
 14 15  1  0  0  0
 15 16  2  0  0  0
 16 17  1  0  0  0
 13  9  1  0  0  0
  9 10  2  0  0  0
  9  1  1  0  0  0
  1  2  2  0  0  0
  2  3  1  0  0  0
  3  4  2  0  0  0
  4  5  1  0  0  0
  4  6  1  0  0  0
  6 24  1  0  0  0
 24 25  1  0  0  0
 25 26  1  0  0  0
 26 27  2  0  0  0
 26 28  1  0  0  0
 28 29  1  0  0  0
 29 30  1  0  0  0
 30 31  2  0  0  0
 31 32  1  0  0  0
 32 33  2  0  0  0
 33 34  1  0  0  0
 34 35  2  0  0  0
  6  7  2  0  0  0
 16 11  1  0  0  0
  7  1  1  0  0  0
 35 25  1  0  0  0
 35 30  1  0  0  0
 17 18  1  0  0  0
  5  8  1  0  0  0
M  END
> <minimizedAffinity>
-7.89170

> <CNNscore>
0.2152972072

> <CNNaffinity>
6.0465784073

> <CNN_VS>
1.3018114567

> <CNNaffinity_variance>
0.0550786965

$$$$
[H]Oc1c([H])c([H])c([H])c(/C([H])=C(\c2c([H])c([H])c(O[H])c(O[H])c2[H])c2c([H])c(OC([H])([H])[H])c(C([H])([H])[H])c(OC([H])([H])[H])c2[H])c1[H]


 31 33  0  0  0  0  0  0  0  0999 V2000
  -11.3072   -7.4215    7.5823 C   0  0  0  0  0  0  0  0  0  0  0  0
  -11.7911   -7.2519    6.3835 C   0  0  0  0  0  0  0  0  0  0  0  0
  -12.1529   -7.6511    8.7379 C   0  0  0  0  0  0  0  0  0  0  0  0
  -12.8115   -6.7236    9.4954 C   0  0  0  0  0  0  0  0  0  0  0  0
  -13.4825   -7.0230   10.6589 C   0  0  0  0  0  0  0  0  0  0  0  0
  -13.5305   -8.3125   11.1377 C   0  0  0  0  0  0  0  0  0  0  0  0
  -14.2227   -8.5904   12.3290 O   0  0  0  0  0  0  0  0  0  0  0  0
  -12.8850   -9.2747   10.4090 C   0  0  0  0  0  0  0  0  0  0  0  0
  -12.9036  -10.5843   10.8440 O   0  0  0  0  0  0  0  0  0  0  0  0
  -12.2125   -8.9620    9.2413 C   0  0  0  0  0  0  0  0  0  0  0  0
  -14.3006   -9.4988   12.7374 H   0  0  0  0  0  0  0  0  0  0  0  0
  -13.3671  -10.8778   11.6715 H   0  0  0  0  0  0  0  0  0  0  0  0
  -13.1697   -7.1325    5.9622 C   0  0  0  0  0  0  0  0  0  0  0  0
  -13.5568   -5.9390    5.3522 C   0  0  0  0  0  0  0  0  0  0  0  0
  -14.8846   -5.7433    4.9915 C   0  0  0  0  0  0  0  0  0  0  0  0
  -15.8449   -6.7154    5.2257 C   0  0  0  0  0  0  0  0  0  0  0  0
  -15.4576   -7.9004    5.8324 C   0  0  0  0  0  0  0  0  0  0  0  0
  -16.4546   -8.8405    6.0451 O   0  0  0  0  0  0  0  0  0  0  0  0
  -14.1399   -8.0858    6.1863 C   0  0  0  0  0  0  0  0  0  0  0  0
  -16.9907   -8.8365    6.9204 H   0  0  0  0  0  0  0  0  0  0  0  0
   -7.6984   -8.0256    6.7002 C   0  0  0  0  0  0  0  0  0  0  0  0
   -9.0858   -7.8621    6.6197 C   0  0  0  0  0  0  0  0  0  0  0  0
   -9.8356   -7.4902    7.6979 C   0  0  0  0  0  0  0  0  0  0  0  0
   -9.2021   -7.2740    8.8885 C   0  0  0  0  0  0  0  0  0  0  0  0
   -7.8153   -7.4189    9.0386 C   0  0  0  0  0  0  0  0  0  0  0  0
   -7.1027   -7.7976    7.9130 C   0  0  0  0  0  0  0  0  0  0  0  0
   -5.6349   -7.9571    8.0466 C   0  0  0  0  0  0  0  0  0  0  0  0
   -7.4367   -9.1024    4.5007 C   0  0  0  0  0  0  0  0  0  0  0  0
   -6.9329   -8.4032    5.6083 O   0  0  0  0  0  0  0  0  0  0  0  0
   -7.1523   -7.2076   10.2207 O   0  0  0  0  0  0  0  0  0  0  0  0
   -6.0051   -6.4919   10.4799 C   0  0  0  0  0  0  0  0  0  0  0  0
 28 29  1  0  0  0
 29 21  1  0  0  0
 21 22  2  0  0  0
 22 23  1  0  0  0
 23 24  2  0  0  0
 24 25  1  0  0  0
 25 30  1  0  0  0
 30 31  1  0  0  0
 25 26  2  0  0  0
 26 27  1  0  0  0
 23  1  1  0  0  0
  1  2  2  0  0  0
  2 13  1  0  0  0
 13 14  2  0  0  0
 14 15  1  0  0  0
 15 16  2  0  0  0
 16 17  1  0  0  0
 17 18  1  0  0  0
 17 19  2  0  0  0
  1  3  1  0  0  0
  3  4  2  0  0  0
  4  5  1  0  0  0
  5  6  2  0  0  0
  6  7  1  0  0  0
  6  8  1  0  0  0
  8  9  1  0  0  0
  8 10  2  0  0  0
 26 21  1  0  0  0
 19 13  1  0  0  0
 10  3  1  0  0  0
 18 20  1  0  0  0
  7 11  1  0  0  0
  9 12  1  0  0  0
M  END
> <minimizedAffinity>
5.31463

> <CNNscore>
0.4109284282

> <CNNaffinity>
6.7854080200

> <CNN_VS>
2.7883169651

> <CNNaffinity_variance>
4.1063432693

$$$$
[H]Oc1c([H])c([H])c([H])c(/C([H])=C(\c2c([H])c([H])c(O[H])c(O[H])c2[H])c2c([H])c(OC([H])([H])[H])c(C([H])([H])[H])c(OC([H])([H])[H])c2[H])c1[H]


 31 33  0  0  0  0  0  0  0  0999 V2000
  -13.2334   -6.9709    6.8524 C   0  0  0  0  0  0  0  0  0  0  0  0
  -13.3544   -6.2991    5.7415 C   0  0  0  0  0  0  0  0  0  0  0  0
  -14.3272   -7.7323    7.4246 C   0  0  0  0  0  0  0  0  0  0  0  0
  -15.4800   -7.2572    7.9841 C   0  0  0  0  0  0  0  0  0  0  0  0
  -16.4022   -8.0510    8.6269 C   0  0  0  0  0  0  0  0  0  0  0  0
  -16.2095   -9.4088    8.7438 C   0  0  0  0  0  0  0  0  0  0  0  0
  -17.1674  -10.1962    9.4057 O   0  0  0  0  0  0  0  0  0  0  0  0
  -15.0677   -9.9280    8.1959 C   0  0  0  0  0  0  0  0  0  0  0  0
  -14.8267  -11.2840    8.2838 O   0  0  0  0  0  0  0  0  0  0  0  0
  -14.1469   -9.1203    7.5532 C   0  0  0  0  0  0  0  0  0  0  0  0
  -17.0966  -11.1849    9.5299 H   0  0  0  0  0  0  0  0  0  0  0  0
  -15.4448  -11.9202    8.7299 H   0  0  0  0  0  0  0  0  0  0  0  0
  -14.5353   -6.0601    4.9412 C   0  0  0  0  0  0  0  0  0  0  0  0
  -14.9099   -4.7339    4.7239 C   0  0  0  0  0  0  0  0  0  0  0  0
  -16.0747   -4.4483    4.0217 C   0  0  0  0  0  0  0  0  0  0  0  0
  -16.8830   -5.4600    3.5265 C   0  0  0  0  0  0  0  0  0  0  0  0
  -16.5087   -6.7771    3.7442 C   0  0  0  0  0  0  0  0  0  0  0  0
  -17.3501   -7.7519    3.2295 O   0  0  0  0  0  0  0  0  0  0  0  0
  -15.3529   -7.0508    4.4407 C   0  0  0  0  0  0  0  0  0  0  0  0
  -18.1227   -8.1197    3.7964 H   0  0  0  0  0  0  0  0  0  0  0  0
  -10.4189   -6.5421    9.3143 C   0  0  0  0  0  0  0  0  0  0  0  0
  -11.6900   -6.5940    8.7316 C   0  0  0  0  0  0  0  0  0  0  0  0
  -11.8831   -7.0229    7.4502 C   0  0  0  0  0  0  0  0  0  0  0  0
  -10.7944   -7.4107    6.7221 C   0  0  0  0  0  0  0  0  0  0  0  0
   -9.4932   -7.3845    7.2447 C   0  0  0  0  0  0  0  0  0  0  0  0
   -9.3543   -6.9412    8.5494 C   0  0  0  0  0  0  0  0  0  0  0  0
   -7.9883   -6.9048    9.1242 C   0  0  0  0  0  0  0  0  0  0  0  0
  -11.2463   -5.6713   11.4644 C   0  0  0  0  0  0  0  0  0  0  0  0
  -10.2179   -6.1073   10.6148 O   0  0  0  0  0  0  0  0  0  0  0  0
   -8.3822   -7.7687    6.5378 O   0  0  0  0  0  0  0  0  0  0  0  0
   -7.2811   -7.0395    6.1487 C   0  0  0  0  0  0  0  0  0  0  0  0
 28 29  1  0  0  0
 29 21  1  0  0  0
 21 22  2  0  0  0
 22 23  1  0  0  0
 23 24  2  0  0  0
 24 25  1  0  0  0
 25 30  1  0  0  0
 30 31  1  0  0  0
 25 26  2  0  0  0
 26 27  1  0  0  0
 23  1  1  0  0  0
  1  2  2  0  0  0
  2 13  1  0  0  0
 13 14  2  0  0  0
 14 15  1  0  0  0
 15 16  2  0  0  0
 16 17  1  0  0  0
 17 18  1  0  0  0
 17 19  2  0  0  0
  1  3  1  0  0  0
  3  4  2  0  0  0
  4  5  1  0  0  0
  5  6  2  0  0  0
  6  7  1  0  0  0
  6  8  1  0  0  0
  8  9  1  0  0  0
  8 10  2  0  0  0
 26 21  1  0  0  0
 19 13  1  0  0  0
 10  3  1  0  0  0
 18 20  1  0  0  0
  7 11  1  0  0  0
  9 12  1  0  0  0
M  END
> <minimizedAffinity>
2.53182

> <CNNscore>
0.3272196054

> <CNNaffinity>
6.6372604370

> <CNN_VS>
2.1718418598

> <CNNaffinity_variance>
1.0723789930

$$$$
[H]Oc1c([H])c([H])c([H])c(/C([H])=C(\c2c([H])c([H])c(O[H])c(O[H])c2[H])c2c([H])c(OC([H])([H])[H])c(C([H])([H])[H])c(OC([H])([H])[H])c2[H])c1[H]


 31 33  0  0  0  0  0  0  0  0999 V2000
  -10.0192   -7.2701    8.4258 C   0  0  0  0  0  0  0  0  0  0  0  0
   -8.7606   -7.6071    8.3763 C   0  0  0  0  0  0  0  0  0  0  0  0
  -10.4648   -6.0030    8.9730 C   0  0  0  0  0  0  0  0  0  0  0  0
  -10.0220   -4.7490    8.6582 C   0  0  0  0  0  0  0  0  0  0  0  0
  -10.4073   -3.6108    9.3289 C   0  0  0  0  0  0  0  0  0  0  0  0
  -11.2881   -3.6742   10.3847 C   0  0  0  0  0  0  0  0  0  0  0  0
  -11.6646   -2.4960   11.0524 O   0  0  0  0  0  0  0  0  0  0  0  0
  -11.7584   -4.9113   10.7334 C   0  0  0  0  0  0  0  0  0  0  0  0
  -12.6454   -5.0305   11.7841 O   0  0  0  0  0  0  0  0  0  0  0  0
  -11.3632   -6.0489   10.0530 C   0  0  0  0  0  0  0  0  0  0  0  0
  -12.2969   -2.4631   11.8251 H   0  0  0  0  0  0  0  0  0  0  0  0
  -12.9705   -4.2565   12.3141 H   0  0  0  0  0  0  0  0  0  0  0  0
   -7.6085   -6.9228    8.9209 C   0  0  0  0  0  0  0  0  0  0  0  0
   -6.6383   -6.4777    8.0225 C   0  0  0  0  0  0  0  0  0  0  0  0
   -5.4781   -5.8768    8.4961 C   0  0  0  0  0  0  0  0  0  0  0  0
   -5.2583   -5.7069    9.8544 C   0  0  0  0  0  0  0  0  0  0  0  0
   -6.2239   -6.1504   10.7450 C   0  0  0  0  0  0  0  0  0  0  0  0
   -5.9572   -5.9579   12.0922 O   0  0  0  0  0  0  0  0  0  0  0  0
   -7.3704   -6.7445   10.2669 C   0  0  0  0  0  0  0  0  0  0  0  0
   -5.4611   -6.6785   12.6291 H   0  0  0  0  0  0  0  0  0  0  0  0
  -11.3772  -10.1198    6.3760 C   0  0  0  0  0  0  0  0  0  0  0  0
  -10.5165   -9.2652    7.0739 C   0  0  0  0  0  0  0  0  0  0  0  0
  -10.9770   -8.1939    7.7833 C   0  0  0  0  0  0  0  0  0  0  0  0
  -12.3221   -7.9569    7.8056 C   0  0  0  0  0  0  0  0  0  0  0  0
  -13.2399   -8.7736    7.1295 C   0  0  0  0  0  0  0  0  0  0  0  0
  -12.7190   -9.8468    6.4257 C   0  0  0  0  0  0  0  0  0  0  0  0
  -13.6698  -10.7250    5.7028 C   0  0  0  0  0  0  0  0  0  0  0  0
   -9.8433  -12.0204    6.0587 C   0  0  0  0  0  0  0  0  0  0  0  0
  -10.9143  -11.2087    5.6543 O   0  0  0  0  0  0  0  0  0  0  0  0
  -14.5950   -8.5608    7.1350 O   0  0  0  0  0  0  0  0  0  0  0  0
  -15.4416   -8.2539    8.1765 C   0  0  0  0  0  0  0  0  0  0  0  0
 28 29  1  0  0  0
 29 21  1  0  0  0
 21 22  2  0  0  0
 22 23  1  0  0  0
 23 24  2  0  0  0
 24 25  1  0  0  0
 25 30  1  0  0  0
 30 31  1  0  0  0
 25 26  2  0  0  0
 26 27  1  0  0  0
 23  1  1  0  0  0
  1  2  2  0  0  0
  2 13  1  0  0  0
 13 14  2  0  0  0
 14 15  1  0  0  0
 15 16  2  0  0  0
 16 17  1  0  0  0
 17 18  1  0  0  0
 17 19  2  0  0  0
  1  3  1  0  0  0
  3  4  2  0  0  0
  4  5  1  0  0  0
  5  6  2  0  0  0
  6  7  1  0  0  0
  6  8  1  0  0  0
  8  9  1  0  0  0
  8 10  2  0  0  0
 26 21  1  0  0  0
 19 13  1  0  0  0
 10  3  1  0  0  0
 18 20  1  0  0  0
  7 11  1  0  0  0
  9 12  1  0  0  0
M  END
> <minimizedAffinity>
14.18412

> <CNNscore>
0.3128154576

> <CNNaffinity>
5.7678194046

> <CNN_VS>
1.8042631149

> <CNNaffinity_variance>
1.3256754875

$$$$
[H]Oc1c([H])c([H])c([H])c(/C([H])=C(\c2c([H])c([H])c(O[H])c(O[H])c2[H])c2c([H])c(OC([H])([H])[H])c(C([H])([H])[H])c(OC([H])([H])[H])c2[H])c1[H]


 31 33  0  0  0  0  0  0  0  0999 V2000
  -14.6495   -6.9194    6.5901 C   0  0  0  0  0  0  0  0  0  0  0  0
  -15.4133   -7.9700    6.7047 C   0  0  0  0  0  0  0  0  0  0  0  0
  -14.9730   -5.8143    5.7084 C   0  0  0  0  0  0  0  0  0  0  0  0
  -16.1553   -5.1357    5.6097 C   0  0  0  0  0  0  0  0  0  0  0  0
  -16.4154   -4.1881    4.6465 C   0  0  0  0  0  0  0  0  0  0  0  0
  -15.4700   -3.8599    3.7015 C   0  0  0  0  0  0  0  0  0  0  0  0
  -15.7622   -2.8885    2.7286 O   0  0  0  0  0  0  0  0  0  0  0  0
  -14.2697   -4.5147    3.7640 C   0  0  0  0  0  0  0  0  0  0  0  0
  -13.2862   -4.2220    2.8410 O   0  0  0  0  0  0  0  0  0  0  0  0
  -14.0196   -5.4666    4.7360 C   0  0  0  0  0  0  0  0  0  0  0  0
  -15.1286   -2.5989    2.0125 H   0  0  0  0  0  0  0  0  0  0  0  0
  -13.3986   -3.5503    2.1185 H   0  0  0  0  0  0  0  0  0  0  0  0
  -16.5991   -8.3246    5.9560 C   0  0  0  0  0  0  0  0  0  0  0  0
  -16.5332   -8.2396    4.5651 C   0  0  0  0  0  0  0  0  0  0  0  0
  -17.6637   -8.5008    3.8000 C   0  0  0  0  0  0  0  0  0  0  0  0
  -18.8688   -8.8473    4.3914 C   0  0  0  0  0  0  0  0  0  0  0  0
  -18.9315   -8.9307    5.7739 C   0  0  0  0  0  0  0  0  0  0  0  0
  -20.1587   -9.2805    6.3168 O   0  0  0  0  0  0  0  0  0  0  0  0
  -17.8066   -8.6704    6.5240 C   0  0  0  0  0  0  0  0  0  0  0  0
  -20.8422   -8.5543    6.5601 H   0  0  0  0  0  0  0  0  0  0  0  0
  -11.2667   -7.6030    8.0921 C   0  0  0  0  0  0  0  0  0  0  0  0
  -12.3622   -7.5707    7.2220 C   0  0  0  0  0  0  0  0  0  0  0  0
  -13.4855   -6.8459    7.4974 C   0  0  0  0  0  0  0  0  0  0  0  0
  -13.5319   -6.1338    8.6621 C   0  0  0  0  0  0  0  0  0  0  0  0
  -12.4697   -6.1214    9.5777 C   0  0  0  0  0  0  0  0  0  0  0  0
  -11.3543   -6.8736    9.2487 C   0  0  0  0  0  0  0  0  0  0  0  0
  -10.2182   -6.8761   10.2010 C   0  0  0  0  0  0  0  0  0  0  0  0
  -10.1301   -9.5914    7.1864 C   0  0  0  0  0  0  0  0  0  0  0  0
  -10.1242   -8.3376    7.8168 O   0  0  0  0  0  0  0  0  0  0  0  0
  -12.4879   -5.4153   10.7536 O   0  0  0  0  0  0  0  0  0  0  0  0
  -12.8498   -4.1100   11.0003 C   0  0  0  0  0  0  0  0  0  0  0  0
 28 29  1  0  0  0
 29 21  1  0  0  0
 21 22  2  0  0  0
 22 23  1  0  0  0
 23 24  2  0  0  0
 24 25  1  0  0  0
 25 30  1  0  0  0
 30 31  1  0  0  0
 25 26  2  0  0  0
 26 27  1  0  0  0
 23  1  1  0  0  0
  1  2  2  0  0  0
  2 13  1  0  0  0
 13 14  2  0  0  0
 14 15  1  0  0  0
 15 16  2  0  0  0
 16 17  1  0  0  0
 17 18  1  0  0  0
 17 19  2  0  0  0
  1  3  1  0  0  0
  3  4  2  0  0  0
  4  5  1  0  0  0
  5  6  2  0  0  0
  6  7  1  0  0  0
  6  8  1  0  0  0
  8  9  1  0  0  0
  8 10  2  0  0  0
 26 21  1  0  0  0
 19 13  1  0  0  0
 10  3  1  0  0  0
 18 20  1  0  0  0
  7 11  1  0  0  0
  9 12  1  0  0  0
M  END
> <minimizedAffinity>
1.23879

> <CNNscore>
0.3121874928

> <CNNaffinity>
6.6615018845

> <CNN_VS>
2.0796375275

> <CNNaffinity_variance>
1.8846553564

$$$$
[H]Oc1c([H])c([H])c([H])c(/C([H])=C(\c2c([H])c([H])c(O[H])c(O[H])c2[H])c2c([H])c(OC([H])([H])[H])c(C([H])([H])[H])c(OC([H])([H])[H])c2[H])c1[H]


 31 33  0  0  0  0  0  0  0  0999 V2000
   -8.8964  -10.2051    4.7387 C   0  0  0  0  0  0  0  0  0  0  0  0
  -10.1754  -10.3697    4.9316 C   0  0  0  0  0  0  0  0  0  0  0  0
   -8.0364   -9.5720    5.7200 C   0  0  0  0  0  0  0  0  0  0  0  0
   -7.7549   -9.9950    6.9887 C   0  0  0  0  0  0  0  0  0  0  0  0
   -7.0339   -9.2566    7.8991 C   0  0  0  0  0  0  0  0  0  0  0  0
   -6.5400   -8.0144    7.5716 C   0  0  0  0  0  0  0  0  0  0  0  0
   -5.8070   -7.2813    8.5209 O   0  0  0  0  0  0  0  0  0  0  0  0
   -6.7973   -7.5517    6.3094 C   0  0  0  0  0  0  0  0  0  0  0  0
   -6.3233   -6.3125    5.9293 O   0  0  0  0  0  0  0  0  0  0  0  0
   -7.5243   -8.3021    5.4029 C   0  0  0  0  0  0  0  0  0  0  0  0
   -5.4185   -6.3756    8.3567 H   0  0  0  0  0  0  0  0  0  0  0  0
   -5.7951   -5.7231    6.5288 H   0  0  0  0  0  0  0  0  0  0  0  0
  -11.0058   -9.8922    6.0154 C   0  0  0  0  0  0  0  0  0  0  0  0
  -10.5342   -8.8119    6.7617 C   0  0  0  0  0  0  0  0  0  0  0  0
  -11.2578   -8.3573    7.8576 C   0  0  0  0  0  0  0  0  0  0  0  0
  -12.4500   -8.9578    8.2322 C   0  0  0  0  0  0  0  0  0  0  0  0
  -12.9162  -10.0314    7.4891 C   0  0  0  0  0  0  0  0  0  0  0  0
  -14.1123  -10.5973    7.9040 O   0  0  0  0  0  0  0  0  0  0  0  0
  -12.1929  -10.4749    6.4047 C   0  0  0  0  0  0  0  0  0  0  0  0
  -14.1121  -11.3654    8.5849 H   0  0  0  0  0  0  0  0  0  0  0  0
   -6.8757  -10.6153    1.5899 C   0  0  0  0  0  0  0  0  0  0  0  0
   -7.3812  -10.1302    2.8012 C   0  0  0  0  0  0  0  0  0  0  0  0
   -8.3297  -10.8057    3.5133 C   0  0  0  0  0  0  0  0  0  0  0  0
   -8.7939  -11.9914    3.0188 C   0  0  0  0  0  0  0  0  0  0  0  0
   -8.3300  -12.5350    1.8122 C   0  0  0  0  0  0  0  0  0  0  0  0
   -7.3677  -11.8088    1.1304 C   0  0  0  0  0  0  0  0  0  0  0  0
   -6.8614  -12.3633   -0.1478 C   0  0  0  0  0  0  0  0  0  0  0  0
   -6.1853   -9.1859   -0.2931 C   0  0  0  0  0  0  0  0  0  0  0  0
   -5.9128   -9.9329    0.8633 O   0  0  0  0  0  0  0  0  0  0  0  0
   -8.7766  -13.7232    1.2922 O   0  0  0  0  0  0  0  0  0  0  0  0
   -9.9204  -14.0069    0.5803 C   0  0  0  0  0  0  0  0  0  0  0  0
 28 29  1  0  0  0
 29 21  1  0  0  0
 21 22  2  0  0  0
 22 23  1  0  0  0
 23 24  2  0  0  0
 24 25  1  0  0  0
 25 30  1  0  0  0
 30 31  1  0  0  0
 25 26  2  0  0  0
 26 27  1  0  0  0
 23  1  1  0  0  0
  1  2  2  0  0  0
  2 13  1  0  0  0
 13 14  2  0  0  0
 14 15  1  0  0  0
 15 16  2  0  0  0
 16 17  1  0  0  0
 17 18  1  0  0  0
 17 19  2  0  0  0
  1  3  1  0  0  0
  3  4  2  0  0  0
  4  5  1  0  0  0
  5  6  2  0  0  0
  6  7  1  0  0  0
  6  8  1  0  0  0
  8  9  1  0  0  0
  8 10  2  0  0  0
 26 21  1  0  0  0
 19 13  1  0  0  0
 10  3  1  0  0  0
 18 20  1  0  0  0
  7 11  1  0  0  0
  9 12  1  0  0  0
M  END
> <minimizedAffinity>
23.79354

> <CNNscore>
0.3053019941

> <CNNaffinity>
5.8015384674

> <CNN_VS>
1.7712212801

> <CNNaffinity_variance>
0.6360951662

$$$$
[H]Oc1c([H])c([H])c([H])c(/C([H])=C(\c2c([H])c([H])c(O[H])c(O[H])c2[H])c2c([H])c(OC([H])([H])[H])c(C([H])([H])[H])c(OC([H])([H])[H])c2[H])c1[H]


 31 33  0  0  0  0  0  0  0  0999 V2000
  -11.9613   -7.4756    7.5458 C   0  0  0  0  0  0  0  0  0  0  0  0
  -12.7797   -7.8602    6.6064 C   0  0  0  0  0  0  0  0  0  0  0  0
  -12.4094   -6.7540    8.7214 C   0  0  0  0  0  0  0  0  0  0  0  0
  -13.5238   -5.9743    8.8551 C   0  0  0  0  0  0  0  0  0  0  0  0
  -13.7975   -5.2158    9.9702 C   0  0  0  0  0  0  0  0  0  0  0  0
  -12.9388   -5.2015   11.0459 C   0  0  0  0  0  0  0  0  0  0  0  0
  -13.2426   -4.4174   12.1722 O   0  0  0  0  0  0  0  0  0  0  0  0
  -11.8099   -5.9700   10.9552 C   0  0  0  0  0  0  0  0  0  0  0  0
  -10.9162   -5.9928   12.0067 O   0  0  0  0  0  0  0  0  0  0  0  0
  -11.5443   -6.7276    9.8288 C   0  0  0  0  0  0  0  0  0  0  0  0
  -12.6693   -4.3562   12.9881 H   0  0  0  0  0  0  0  0  0  0  0  0
  -11.0452   -5.4745   12.8436 H   0  0  0  0  0  0  0  0  0  0  0  0
  -14.1899   -7.5787    6.4505 C   0  0  0  0  0  0  0  0  0  0  0  0
  -14.5615   -6.6784    5.4517 C   0  0  0  0  0  0  0  0  0  0  0  0
  -15.8956   -6.3181    5.3039 C   0  0  0  0  0  0  0  0  0  0  0  0
  -16.8774   -6.8368    6.1340 C   0  0  0  0  0  0  0  0  0  0  0  0
  -16.5054   -7.7311    7.1260 C   0  0  0  0  0  0  0  0  0  0  0  0
  -17.5236   -8.2211    7.9299 O   0  0  0  0  0  0  0  0  0  0  0  0
  -15.1814   -8.0825    7.2651 C   0  0  0  0  0  0  0  0  0  0  0  0
  -17.7837   -7.7289    8.7923 H   0  0  0  0  0  0  0  0  0  0  0  0
   -8.9481   -9.7190    7.3128 C   0  0  0  0  0  0  0  0  0  0  0  0
  -10.2650   -9.2471    7.3465 C   0  0  0  0  0  0  0  0  0  0  0  0
  -10.5563   -7.9156    7.4198 C   0  0  0  0  0  0  0  0  0  0  0  0
   -9.5223   -7.0240    7.4620 C   0  0  0  0  0  0  0  0  0  0  0  0
   -8.1799   -7.4286    7.4309 C   0  0  0  0  0  0  0  0  0  0  0  0
   -7.9410   -8.7908    7.3559 C   0  0  0  0  0  0  0  0  0  0  0  0
   -6.5296   -9.2431    7.3216 C   0  0  0  0  0  0  0  0  0  0  0  0
   -9.2829  -11.9686    6.3680 C   0  0  0  0  0  0  0  0  0  0  0  0
   -8.6474  -11.0699    7.2385 O   0  0  0  0  0  0  0  0  0  0  0  0
   -7.1219   -6.5565    7.4707 O   0  0  0  0  0  0  0  0  0  0  0  0
   -6.2030   -6.2301    6.4988 C   0  0  0  0  0  0  0  0  0  0  0  0
 28 29  1  0  0  0
 29 21  1  0  0  0
 21 22  2  0  0  0
 22 23  1  0  0  0
 23 24  2  0  0  0
 24 25  1  0  0  0
 25 30  1  0  0  0
 30 31  1  0  0  0
 25 26  2  0  0  0
 26 27  1  0  0  0
 23  1  1  0  0  0
  1  2  2  0  0  0
  2 13  1  0  0  0
 13 14  2  0  0  0
 14 15  1  0  0  0
 15 16  2  0  0  0
 16 17  1  0  0  0
 17 18  1  0  0  0
 17 19  2  0  0  0
  1  3  1  0  0  0
  3  4  2  0  0  0
  4  5  1  0  0  0
  5  6  2  0  0  0
  6  7  1  0  0  0
  6  8  1  0  0  0
  8  9  1  0  0  0
  8 10  2  0  0  0
 26 21  1  0  0  0
 19 13  1  0  0  0
 10  3  1  0  0  0
 18 20  1  0  0  0
  7 11  1  0  0  0
  9 12  1  0  0  0
M  END
> <minimizedAffinity>
-4.22126

> <CNNscore>
0.2674160302

> <CNNaffinity>
6.5521497726

> <CNN_VS>
1.7521499395

> <CNNaffinity_variance>
0.6923632622

$$$$
[H]Oc1c([H])c([H])c([H])c(/C([H])=C(\c2c([H])c([H])c(O[H])c(O[H])c2[H])c2c([H])c(OC([H])([H])[H])c(C([H])([H])[H])c(OC([H])([H])[H])c2[H])c1[H]


 31 33  0  0  0  0  0  0  0  0999 V2000
  -11.9645   -7.4771    7.5947 C   0  0  0  0  0  0  0  0  0  0  0  0
  -12.7789   -7.8613    6.6516 C   0  0  0  0  0  0  0  0  0  0  0  0
  -12.4150   -6.7401    8.7597 C   0  0  0  0  0  0  0  0  0  0  0  0
  -13.5105   -5.9306    8.8706 C   0  0  0  0  0  0  0  0  0  0  0  0
  -13.7845   -5.1614    9.9783 C   0  0  0  0  0  0  0  0  0  0  0  0
  -12.9459   -5.1664   11.0696 C   0  0  0  0  0  0  0  0  0  0  0  0
  -13.2495   -4.3709   12.1879 O   0  0  0  0  0  0  0  0  0  0  0  0
  -11.8362   -5.9648   11.0021 C   0  0  0  0  0  0  0  0  0  0  0  0
  -10.9631   -6.0079   12.0701 O   0  0  0  0  0  0  0  0  0  0  0  0
  -11.5700   -6.7329    9.8829 C   0  0  0  0  0  0  0  0  0  0  0  0
  -12.6900   -4.3222   13.0142 H   0  0  0  0  0  0  0  0  0  0  0  0
  -11.0937   -5.4836   12.9030 H   0  0  0  0  0  0  0  0  0  0  0  0
  -14.1845   -7.5659    6.4807 C   0  0  0  0  0  0  0  0  0  0  0  0
  -14.5344   -6.6420    5.4957 C   0  0  0  0  0  0  0  0  0  0  0  0
  -15.8635   -6.2686    5.3358 C   0  0  0  0  0  0  0  0  0  0  0  0
  -16.8614   -6.7973    6.1400 C   0  0  0  0  0  0  0  0  0  0  0  0
  -16.5109   -7.7150    7.1183 C   0  0  0  0  0  0  0  0  0  0  0  0
  -17.5446   -8.2141    7.8964 O   0  0  0  0  0  0  0  0  0  0  0  0
  -15.1917   -8.0793    7.2696 C   0  0  0  0  0  0  0  0  0  0  0  0
  -17.8141   -7.7383    8.7650 H   0  0  0  0  0  0  0  0  0  0  0  0
   -8.2226   -7.3974    7.1963 C   0  0  0  0  0  0  0  0  0  0  0  0
   -9.5558   -7.0178    7.3880 C   0  0  0  0  0  0  0  0  0  0  0  0
  -10.5634   -7.9335    7.4851 C   0  0  0  0  0  0  0  0  0  0  0  0
  -10.2498   -9.2596    7.3899 C   0  0  0  0  0  0  0  0  0  0  0  0
   -8.9351   -9.7087    7.1987 C   0  0  0  0  0  0  0  0  0  0  0  0
   -7.9517   -8.7376    7.1074 C   0  0  0  0  0  0  0  0  0  0  0  0
   -6.5538   -9.1879    6.9054 C   0  0  0  0  0  0  0  0  0  0  0  0
   -6.1188   -6.3949    7.9930 C   0  0  0  0  0  0  0  0  0  0  0  0
   -7.1963   -6.4713    7.0971 O   0  0  0  0  0  0  0  0  0  0  0  0
   -8.5907  -11.0328    7.1006 O   0  0  0  0  0  0  0  0  0  0  0  0
   -9.1686  -12.0493    6.3738 C   0  0  0  0  0  0  0  0  0  0  0  0
 28 29  1  0  0  0
 29 21  1  0  0  0
 21 22  2  0  0  0
 22 23  1  0  0  0
 23 24  2  0  0  0
 24 25  1  0  0  0
 25 30  1  0  0  0
 30 31  1  0  0  0
 25 26  2  0  0  0
 26 27  1  0  0  0
 23  1  1  0  0  0
  1  2  2  0  0  0
  2 13  1  0  0  0
 13 14  2  0  0  0
 14 15  1  0  0  0
 15 16  2  0  0  0
 16 17  1  0  0  0
 17 18  1  0  0  0
 17 19  2  0  0  0
  1  3  1  0  0  0
  3  4  2  0  0  0
  4  5  1  0  0  0
  5  6  2  0  0  0
  6  7  1  0  0  0
  6  8  1  0  0  0
  8  9  1  0  0  0
  8 10  2  0  0  0
 26 21  1  0  0  0
 19 13  1  0  0  0
 10  3  1  0  0  0
 18 20  1  0  0  0
  7 11  1  0  0  0
  9 12  1  0  0  0
M  END
> <minimizedAffinity>
-3.92787

> <CNNscore>
0.2617803514

> <CNNaffinity>
6.5441026688

> <CNN_VS>
1.7131174803

> <CNNaffinity_variance>
0.6871859431

$$$$
[H]Oc1c([H])c([H])c([H])c(/C([H])=C(\c2c([H])c([H])c(O[H])c(O[H])c2[H])c2c([H])c(OC([H])([H])[H])c(C([H])([H])[H])c(OC([H])([H])[H])c2[H])c1[H]


 31 33  0  0  0  0  0  0  0  0999 V2000
  -12.5011   -7.8187    7.2427 C   0  0  0  0  0  0  0  0  0  0  0  0
  -12.9646   -7.6470    6.0361 C   0  0  0  0  0  0  0  0  0  0  0  0
  -13.3518   -7.7776    8.4166 C   0  0  0  0  0  0  0  0  0  0  0  0
  -13.0291   -7.3509    9.6742 C   0  0  0  0  0  0  0  0  0  0  0  0
  -13.8625   -7.4764   10.7621 C   0  0  0  0  0  0  0  0  0  0  0  0
  -15.1056   -8.0544   10.6396 C   0  0  0  0  0  0  0  0  0  0  0  0
  -15.9366   -8.1703   11.7673 O   0  0  0  0  0  0  0  0  0  0  0  0
  -15.4708   -8.4950    9.3962 C   0  0  0  0  0  0  0  0  0  0  0  0
  -16.7076   -9.0808    9.2182 O   0  0  0  0  0  0  0  0  0  0  0  0
  -14.6243   -8.3648    8.3099 C   0  0  0  0  0  0  0  0  0  0  0  0
  -16.8489   -8.5773   11.7562 H   0  0  0  0  0  0  0  0  0  0  0  0
  -17.3634   -9.2048    9.9533 H   0  0  0  0  0  0  0  0  0  0  0  0
  -14.2976   -7.2786    5.6124 C   0  0  0  0  0  0  0  0  0  0  0  0
  -14.6087   -5.9192    5.5707 C   0  0  0  0  0  0  0  0  0  0  0  0
  -15.8953   -5.5120    5.2386 C   0  0  0  0  0  0  0  0  0  0  0  0
  -16.8886   -6.4335    4.9448 C   0  0  0  0  0  0  0  0  0  0  0  0
  -16.5769   -7.7838    4.9874 C   0  0  0  0  0  0  0  0  0  0  0  0
  -17.6044   -8.6650    4.6860 O   0  0  0  0  0  0  0  0  0  0  0  0
  -15.2996   -8.1782    5.3172 C   0  0  0  0  0  0  0  0  0  0  0  0
  -18.2168   -9.0189    5.4299 H   0  0  0  0  0  0  0  0  0  0  0  0
   -8.7641   -7.4850    7.5424 C   0  0  0  0  0  0  0  0  0  0  0  0
  -10.1343   -7.2025    7.5150 C   0  0  0  0  0  0  0  0  0  0  0  0
  -11.0730   -8.1808    7.3573 C   0  0  0  0  0  0  0  0  0  0  0  0
  -10.6510   -9.4728    7.2218 C   0  0  0  0  0  0  0  0  0  0  0  0
   -9.2938   -9.8255    7.2411 C   0  0  0  0  0  0  0  0  0  0  0  0
   -8.3839   -8.7942    7.4043 C   0  0  0  0  0  0  0  0  0  0  0  0
   -6.9431   -9.1422    7.4281 C   0  0  0  0  0  0  0  0  0  0  0  0
   -6.7790   -6.2414    6.7814 C   0  0  0  0  0  0  0  0  0  0  0  0
   -7.8072   -6.4951    7.7023 O   0  0  0  0  0  0  0  0  0  0  0  0
   -8.8411  -11.1136    7.1087 O   0  0  0  0  0  0  0  0  0  0  0  0
   -9.2852  -12.1318    6.2953 C   0  0  0  0  0  0  0  0  0  0  0  0
 28 29  1  0  0  0
 29 21  1  0  0  0
 21 22  2  0  0  0
 22 23  1  0  0  0
 23 24  2  0  0  0
 24 25  1  0  0  0
 25 30  1  0  0  0
 30 31  1  0  0  0
 25 26  2  0  0  0
 26 27  1  0  0  0
 23  1  1  0  0  0
  1  2  2  0  0  0
  2 13  1  0  0  0
 13 14  2  0  0  0
 14 15  1  0  0  0
 15 16  2  0  0  0
 16 17  1  0  0  0
 17 18  1  0  0  0
 17 19  2  0  0  0
  1  3  1  0  0  0
  3  4  2  0  0  0
  4  5  1  0  0  0
  5  6  2  0  0  0
  6  7  1  0  0  0
  6  8  1  0  0  0
  8  9  1  0  0  0
  8 10  2  0  0  0
 26 21  1  0  0  0
 19 13  1  0  0  0
 10  3  1  0  0  0
 18 20  1  0  0  0
  7 11  1  0  0  0
  9 12  1  0  0  0
M  END
> <minimizedAffinity>
-3.95985

> <CNNscore>
0.2531398535

> <CNNaffinity>
6.6747941971

> <CNN_VS>
1.6896563768

> <CNNaffinity_variance>
0.4936915338

$$$$
[H]Oc1c([H])c([H])c([H])c(/C([H])=C(\c2c([H])c([H])c(O[H])c(O[H])c2[H])c2c([H])c(OC([H])([H])[H])c(C([H])([H])[H])c(OC([H])([H])[H])c2[H])c1[H]


 31 33  0  0  0  0  0  0  0  0999 V2000
   -8.4833   -6.9684    8.3731 C   0  0  0  0  0  0  0  0  0  0  0  0
   -7.5553   -6.9841    9.2889 C   0  0  0  0  0  0  0  0  0  0  0  0
   -8.1779   -6.9669    6.9553 C   0  0  0  0  0  0  0  0  0  0  0  0
   -7.2403   -7.7116    6.2964 C   0  0  0  0  0  0  0  0  0  0  0  0
   -6.9261   -7.5441    4.9672 C   0  0  0  0  0  0  0  0  0  0  0  0
   -7.5592   -6.5894    4.2041 C   0  0  0  0  0  0  0  0  0  0  0  0
   -7.2186   -6.4394    2.8487 O   0  0  0  0  0  0  0  0  0  0  0  0
   -8.5073   -5.8211    4.8238 C   0  0  0  0  0  0  0  0  0  0  0  0
   -9.1733   -4.8503    4.1037 O   0  0  0  0  0  0  0  0  0  0  0  0
   -8.8142   -5.9974    6.1611 C   0  0  0  0  0  0  0  0  0  0  0  0
   -7.6333   -5.7702    2.2336 H   0  0  0  0  0  0  0  0  0  0  0  0
   -9.0031   -4.6713    3.1420 H   0  0  0  0  0  0  0  0  0  0  0  0
   -6.1202   -6.8831    9.1384 C   0  0  0  0  0  0  0  0  0  0  0  0
   -5.4612   -5.9028    9.8806 C   0  0  0  0  0  0  0  0  0  0  0  0
   -4.0933   -5.7152    9.7220 C   0  0  0  0  0  0  0  0  0  0  0  0
   -3.3592   -6.4867    8.8343 C   0  0  0  0  0  0  0  0  0  0  0  0
   -4.0167   -7.4600    8.0977 C   0  0  0  0  0  0  0  0  0  0  0  0
   -3.2387   -8.2045    7.2238 O   0  0  0  0  0  0  0  0  0  0  0  0
   -5.3720   -7.6389    8.2614 C   0  0  0  0  0  0  0  0  0  0  0  0
   -3.1039   -7.8904    6.2559 H   0  0  0  0  0  0  0  0  0  0  0  0
  -11.5835   -6.4492   10.4433 C   0  0  0  0  0  0  0  0  0  0  0  0
  -10.2982   -6.3231    9.9044 C   0  0  0  0  0  0  0  0  0  0  0  0
   -9.8797   -7.0746    8.8446 C   0  0  0  0  0  0  0  0  0  0  0  0
  -10.7504   -7.9758    8.3009 C   0  0  0  0  0  0  0  0  0  0  0  0
  -12.0524   -8.1522    8.7912 C   0  0  0  0  0  0  0  0  0  0  0  0
  -12.4254   -7.3640    9.8672 C   0  0  0  0  0  0  0  0  0  0  0  0
  -13.7973   -7.5322   10.4032 C   0  0  0  0  0  0  0  0  0  0  0  0
  -11.3838   -5.6778   12.7738 C   0  0  0  0  0  0  0  0  0  0  0  0
  -12.0129   -5.6885   11.5193 O   0  0  0  0  0  0  0  0  0  0  0  0
  -12.9481   -9.0479    8.2649 O   0  0  0  0  0  0  0  0  0  0  0  0
  -12.8947  -10.4221    8.1981 C   0  0  0  0  0  0  0  0  0  0  0  0
 28 29  1  0  0  0
 29 21  1  0  0  0
 21 22  2  0  0  0
 22 23  1  0  0  0
 23 24  2  0  0  0
 24 25  1  0  0  0
 25 30  1  0  0  0
 30 31  1  0  0  0
 25 26  2  0  0  0
 26 27  1  0  0  0
 23  1  1  0  0  0
  1  2  2  0  0  0
  2 13  1  0  0  0
 13 14  2  0  0  0
 14 15  1  0  0  0
 15 16  2  0  0  0
 16 17  1  0  0  0
 17 18  1  0  0  0
 17 19  2  0  0  0
  1  3  1  0  0  0
  3  4  2  0  0  0
  4  5  1  0  0  0
  5  6  2  0  0  0
  6  7  1  0  0  0
  6  8  1  0  0  0
  8  9  1  0  0  0
  8 10  2  0  0  0
 26 21  1  0  0  0
 19 13  1  0  0  0
 10  3  1  0  0  0
 18 20  1  0  0  0
  7 11  1  0  0  0
  9 12  1  0  0  0
M  END
> <minimizedAffinity>
4.09003

> <CNNscore>
0.2513736188

> <CNNaffinity>
5.6845006943

> <CNN_VS>
1.4289335012

> <CNNaffinity_variance>
0.3221987784

$$$$
[H]OC([H])([H])[C@@]12C3([H])C([H])([H])C([H])([H])[C@]3([H])[C@]1([H])C([H])([H])[C@]1(C([H])([H])[H])C(=C([H])[C@]1([H])OC([H])([H])[H])[C@]([H])(C([H])([H])C([H])([H])C([H])([H])C([H])([H])C([H])([H])C([H])([H])[H])C2([H])[H]


 25 28  0  0  0  0  0  0  0  0999 V2000
  -12.9746   -7.3360    6.5034 C   0  0  0  0  0  0  0  0  0  0  0  0
  -12.7840   -7.4881    7.9835 C   0  0  0  0  0  0  0  0  0  0  0  0
  -13.8131   -7.7864    9.0333 C   0  0  0  0  0  0  0  0  0  0  0  0
  -13.9540   -7.9926   10.5123 C   0  0  0  0  0  0  0  0  0  0  0  0
  -14.0949   -8.1988   11.9914 C   0  0  0  0  0  0  0  0  0  0  0  0
  -15.5688   -8.4188   11.8203 C   0  0  0  0  0  0  0  0  0  0  0  0
  -15.4279   -8.2126   10.3413 C   0  0  0  0  0  0  0  0  0  0  0  0
  -15.2871   -8.0064    8.8622 C   0  0  0  0  0  0  0  0  0  0  0  0
  -16.0958   -7.9824    7.5991 C   0  0  0  0  0  0  0  0  0  0  0  0
  -15.6305   -7.7324    6.1953 C   0  0  0  0  0  0  0  0  0  0  0  0
  -17.1109   -7.9741    6.1908 C   0  0  0  0  0  0  0  0  0  0  0  0
  -16.1431   -7.6421    4.7884 C   0  0  0  0  0  0  0  0  0  0  0  0
  -14.7540   -7.3544    4.3008 C   0  0  0  0  0  0  0  0  0  0  0  0
  -14.2414   -7.4447    5.7076 C   0  0  0  0  0  0  0  0  0  0  0  0
  -12.4685   -7.6469    9.6833 C   0  0  0  0  0  0  0  0  0  0  0  0
  -11.1238   -7.5074   10.3332 O   0  0  0  0  0  0  0  0  0  0  0  0
   -9.9991   -6.8439    9.5950 H   0  0  0  0  0  0  0  0  0  0  0  0
  -16.6556   -7.5518    3.3816 O   0  0  0  0  0  0  0  0  0  0  0  0
  -17.9747   -6.8935    3.1048 C   0  0  0  0  0  0  0  0  0  0  0  0
  -11.5007   -7.1160    6.6745 C   0  0  0  0  0  0  0  0  0  0  0  0
  -10.0268   -6.8960    6.8457 C   0  0  0  0  0  0  0  0  0  0  0  0
   -8.5530   -6.6760    7.0168 C   0  0  0  0  0  0  0  0  0  0  0  0
   -7.0791   -6.4560    7.1879 C   0  0  0  0  0  0  0  0  0  0  0  0
   -4.1313   -6.0160    7.5301 C   0  0  0  0  0  0  0  0  0  0  0  0
   -5.6052   -6.2360    7.3591 C   0  0  0  0  0  0  0  0  0  0  0  0
 24 25  1  0  0  0
 25 23  1  0  0  0
 23 22  1  0  0  0
 22 21  1  0  0  0
 21 20  1  0  0  0
 20  1  1  0  0  0
  1  2  1  0  0  0
  2  3  1  0  0  0
  3 15  1  0  0  0
 15 16  1  0  0  0
  3  4  1  0  0  0
  4  5  1  0  0  0
  5  6  1  0  0  0
  6  7  1  0  0  0
  7  8  1  0  0  0
  8  9  1  0  0  0
  9 10  1  0  0  0
 10 11  1  0  0  0
 10 12  1  0  0  0
 12 18  1  0  0  0
 18 19  1  0  0  0
 12 13  1  0  0  0
 13 14  2  0  0  0
 14  1  1  0  0  0
  8  3  1  0  0  0
 14 10  1  0  0  0
  7  4  1  0  0  0
 16 17  1  0  0  0
M  END
> <minimizedAffinity>
0.24512

> <CNNscore>
0.5512847304

> <CNNaffinity>
6.9516229630

> <CNN_VS>
3.8323235512

> <CNNaffinity_variance>
1.6752468348

$$$$
[H]OC([H])([H])[C@@]12C3([H])C([H])([H])C([H])([H])[C@]3([H])[C@]1([H])C([H])([H])[C@]1(C([H])([H])[H])C(=C([H])[C@]1([H])OC([H])([H])[H])[C@]([H])(C([H])([H])C([H])([H])C([H])([H])C([H])([H])C([H])([H])C([H])([H])[H])C2([H])[H]


 25 28  0  0  0  0  0  0  0  0999 V2000
  -17.6864   -8.6362    7.8403 C   0  0  0  0  0  0  0  0  0  0  0  0
  -16.9961   -7.7966    6.8065 C   0  0  0  0  0  0  0  0  0  0  0  0
  -17.4084   -7.5326    5.3886 C   0  0  0  0  0  0  0  0  0  0  0  0
  -16.9753   -6.7879    4.1606 C   0  0  0  0  0  0  0  0  0  0  0  0
  -16.5422   -6.0433    2.9327 C   0  0  0  0  0  0  0  0  0  0  0  0
  -17.7465   -6.5537    2.1984 C   0  0  0  0  0  0  0  0  0  0  0  0
  -18.1796   -7.2983    3.4264 C   0  0  0  0  0  0  0  0  0  0  0  0
  -18.6127   -8.0430    4.6543 C   0  0  0  0  0  0  0  0  0  0  0  0
  -19.7022   -8.9435    5.1566 C   0  0  0  0  0  0  0  0  0  0  0  0
  -19.8564   -9.5559    6.5171 C   0  0  0  0  0  0  0  0  0  0  0  0
  -21.0047   -9.9798    5.6500 C   0  0  0  0  0  0  0  0  0  0  0  0
  -20.7692  -10.4483    7.3049 C   0  0  0  0  0  0  0  0  0  0  0  0
  -19.8720  -10.3115    8.4993 C   0  0  0  0  0  0  0  0  0  0  0  0
  -18.9593   -9.4191    7.7115 C   0  0  0  0  0  0  0  0  0  0  0  0
  -16.1286   -6.8048    5.6761 C   0  0  0  0  0  0  0  0  0  0  0  0
  -14.8489   -6.0771    5.9636 O   0  0  0  0  0  0  0  0  0  0  0  0
  -14.6724   -4.6601    5.5041 H   0  0  0  0  0  0  0  0  0  0  0  0
  -21.6818  -11.3407    8.0927 O   0  0  0  0  0  0  0  0  0  0  0  0
  -21.1363  -12.1595    9.2250 C   0  0  0  0  0  0  0  0  0  0  0  0
  -16.4820   -8.1257    8.5746 C   0  0  0  0  0  0  0  0  0  0  0  0
  -15.2778   -7.6153    9.3088 C   0  0  0  0  0  0  0  0  0  0  0  0
  -14.0735   -7.1048   10.0430 C   0  0  0  0  0  0  0  0  0  0  0  0
  -12.8692   -6.5944   10.7772 C   0  0  0  0  0  0  0  0  0  0  0  0
  -10.4606   -5.5734   12.2457 C   0  0  0  0  0  0  0  0  0  0  0  0
  -11.6648   -6.0839   11.5115 C   0  0  0  0  0  0  0  0  0  0  0  0
 24 25  1  0  0  0
 25 23  1  0  0  0
 23 22  1  0  0  0
 22 21  1  0  0  0
 21 20  1  0  0  0
 20  1  1  0  0  0
  1  2  1  0  0  0
  2  3  1  0  0  0
  3 15  1  0  0  0
 15 16  1  0  0  0
  3  4  1  0  0  0
  4  5  1  0  0  0
  5  6  1  0  0  0
  6  7  1  0  0  0
  7  8  1  0  0  0
  8  9  1  0  0  0
  9 10  1  0  0  0
 10 11  1  0  0  0
 10 12  1  0  0  0
 12 18  1  0  0  0
 18 19  1  0  0  0
 12 13  1  0  0  0
 13 14  2  0  0  0
 14  1  1  0  0  0
  8  3  1  0  0  0
 14 10  1  0  0  0
  7  4  1  0  0  0
 16 17  1  0  0  0
M  END
> <minimizedAffinity>
3.43831

> <CNNscore>
0.5469075441

> <CNNaffinity>
6.4478330612

> <CNN_VS>
3.5263686180

> <CNNaffinity_variance>
0.8678607941

$$$$
[H]OC([H])([H])[C@@]12C3([H])C([H])([H])C([H])([H])[C@]3([H])[C@]1([H])C([H])([H])[C@]1(C([H])([H])[H])C(=C([H])[C@]1([H])OC([H])([H])[H])[C@]([H])(C([H])([H])C([H])([H])C([H])([H])C([H])([H])C([H])([H])C([H])([H])[H])C2([H])[H]


 25 28  0  0  0  0  0  0  0  0999 V2000
  -10.7134   -7.7661    7.2370 C   0  0  0  0  0  0  0  0  0  0  0  0
  -11.6059   -7.1337    8.2635 C   0  0  0  0  0  0  0  0  0  0  0  0
  -11.2429   -6.6021    9.6184 C   0  0  0  0  0  0  0  0  0  0  0  0
  -11.8512   -5.9464   10.8226 C   0  0  0  0  0  0  0  0  0  0  0  0
  -12.4595   -5.2908   12.0267 C   0  0  0  0  0  0  0  0  0  0  0  0
  -11.1144   -5.2605   12.6898 C   0  0  0  0  0  0  0  0  0  0  0  0
  -10.5061   -5.9161   11.4856 C   0  0  0  0  0  0  0  0  0  0  0  0
   -9.8976   -6.5718   10.2815 C   0  0  0  0  0  0  0  0  0  0  0  0
   -8.5833   -7.0655    9.7534 C   0  0  0  0  0  0  0  0  0  0  0  0
   -8.2896   -7.7115    8.4319 C   0  0  0  0  0  0  0  0  0  0  0  0
   -7.0210   -7.6079    9.2256 C   0  0  0  0  0  0  0  0  0  0  0  0
   -7.1578   -8.2891    7.6347 C   0  0  0  0  0  0  0  0  0  0  0  0
   -8.1058   -8.6009    6.5148 C   0  0  0  0  0  0  0  0  0  0  0  0
   -9.2376   -8.0233    7.3120 C   0  0  0  0  0  0  0  0  0  0  0  0
  -12.7135   -6.4142    9.3903 C   0  0  0  0  0  0  0  0  0  0  0  0
  -14.1841   -6.2262    9.1621 O   0  0  0  0  0  0  0  0  0  0  0  0
  -14.9764   -5.3354   10.0725 H   0  0  0  0  0  0  0  0  0  0  0  0
   -6.0261   -8.8666    6.8374 O   0  0  0  0  0  0  0  0  0  0  0  0
   -4.8171   -8.0310    6.5372 C   0  0  0  0  0  0  0  0  0  0  0  0
  -12.0587   -7.7964    6.5740 C   0  0  0  0  0  0  0  0  0  0  0  0
  -13.4038   -7.8267    5.9110 C   0  0  0  0  0  0  0  0  0  0  0  0
  -14.7489   -7.8570    5.2479 C   0  0  0  0  0  0  0  0  0  0  0  0
  -16.0941   -7.8873    4.5849 C   0  0  0  0  0  0  0  0  0  0  0  0
  -18.7844   -7.9479    3.2588 C   0  0  0  0  0  0  0  0  0  0  0  0
  -17.4393   -7.9176    3.9218 C   0  0  0  0  0  0  0  0  0  0  0  0
 24 25  1  0  0  0
 25 23  1  0  0  0
 23 22  1  0  0  0
 22 21  1  0  0  0
 21 20  1  0  0  0
 20  1  1  0  0  0
  1  2  1  0  0  0
  2  3  1  0  0  0
  3 15  1  0  0  0
 15 16  1  0  0  0
  3  4  1  0  0  0
  4  5  1  0  0  0
  5  6  1  0  0  0
  6  7  1  0  0  0
  7  8  1  0  0  0
  8  9  1  0  0  0
  9 10  1  0  0  0
 10 11  1  0  0  0
 10 12  1  0  0  0
 12 18  1  0  0  0
 18 19  1  0  0  0
 12 13  1  0  0  0
 13 14  2  0  0  0
 14  1  1  0  0  0
  8  3  1  0  0  0
 14 10  1  0  0  0
  7  4  1  0  0  0
 16 17  1  0  0  0
M  END
> <minimizedAffinity>
1.21176

> <CNNscore>
0.5424247980

> <CNNaffinity>
6.6123390198

> <CNN_VS>
3.5866966248

> <CNNaffinity_variance>
1.3716980219

$$$$
[H]OC([H])([H])[C@@]12C3([H])C([H])([H])C([H])([H])[C@]3([H])[C@]1([H])C([H])([H])[C@]1(C([H])([H])[H])C(=C([H])[C@]1([H])OC([H])([H])[H])[C@]([H])(C([H])([H])C([H])([H])C([H])([H])C([H])([H])C([H])([H])C([H])([H])[H])C2([H])[H]


 25 28  0  0  0  0  0  0  0  0999 V2000
  -15.8513   -5.8745    6.4818 C   0  0  0  0  0  0  0  0  0  0  0  0
  -14.7971   -6.8902    6.1541 C   0  0  0  0  0  0  0  0  0  0  0  0
  -14.6615   -7.7328    4.9205 C   0  0  0  0  0  0  0  0  0  0  0  0
  -13.7823   -8.7825    4.3081 C   0  0  0  0  0  0  0  0  0  0  0  0
  -12.9031   -9.8322    3.6957 C   0  0  0  0  0  0  0  0  0  0  0  0
  -13.7881   -9.8671    2.4851 C   0  0  0  0  0  0  0  0  0  0  0  0
  -14.6673   -8.8174    3.0975 C   0  0  0  0  0  0  0  0  0  0  0  0
  -15.5465   -7.7677    3.7098 C   0  0  0  0  0  0  0  0  0  0  0  0
  -16.7857   -6.9687    3.4339 C   0  0  0  0  0  0  0  0  0  0  0  0
  -17.4459   -5.9375    4.3003 C   0  0  0  0  0  0  0  0  0  0  0  0
  -18.2269   -6.0898    3.0287 C   0  0  0  0  0  0  0  0  0  0  0  0
  -18.6220   -5.0069    4.3268 C   0  0  0  0  0  0  0  0  0  0  0  0
  -18.2061   -4.5199    5.6833 C   0  0  0  0  0  0  0  0  0  0  0  0
  -17.0300   -5.4506    5.6568 C   0  0  0  0  0  0  0  0  0  0  0  0
  -13.5358   -8.0465    5.8609 C   0  0  0  0  0  0  0  0  0  0  0  0
  -12.4101   -8.3603    6.8013 O   0  0  0  0  0  0  0  0  0  0  0  0
  -11.4174   -7.2959    7.1644 H   0  0  0  0  0  0  0  0  0  0  0  0
  -19.7981   -4.0762    4.3533 O   0  0  0  0  0  0  0  0  0  0  0  0
  -19.9365   -3.0741    5.4609 C   0  0  0  0  0  0  0  0  0  0  0  0
  -14.9662   -5.8397    7.6925 C   0  0  0  0  0  0  0  0  0  0  0  0
  -14.0812   -5.8048    8.9030 C   0  0  0  0  0  0  0  0  0  0  0  0
  -13.1962   -5.7699   10.1136 C   0  0  0  0  0  0  0  0  0  0  0  0
  -12.3112   -5.7350   11.3241 C   0  0  0  0  0  0  0  0  0  0  0  0
  -10.5412   -5.6651   13.7454 C   0  0  0  0  0  0  0  0  0  0  0  0
  -11.4262   -5.7001   12.5348 C   0  0  0  0  0  0  0  0  0  0  0  0
 24 25  1  0  0  0
 25 23  1  0  0  0
 23 22  1  0  0  0
 22 21  1  0  0  0
 21 20  1  0  0  0
 20  1  1  0  0  0
  1  2  1  0  0  0
  2  3  1  0  0  0
  3 15  1  0  0  0
 15 16  1  0  0  0
  3  4  1  0  0  0
  4  5  1  0  0  0
  5  6  1  0  0  0
  6  7  1  0  0  0
  7  8  1  0  0  0
  8  9  1  0  0  0
  9 10  1  0  0  0
 10 11  1  0  0  0
 10 12  1  0  0  0
 12 18  1  0  0  0
 18 19  1  0  0  0
 12 13  1  0  0  0
 13 14  2  0  0  0
 14  1  1  0  0  0
  8  3  1  0  0  0
 14 10  1  0  0  0
  7  4  1  0  0  0
 16 17  1  0  0  0
M  END
> <minimizedAffinity>
8.00643

> <CNNscore>
0.5421078205

> <CNNaffinity>
6.7944359779

> <CNN_VS>
3.6833169460

> <CNNaffinity_variance>
1.4884877205

$$$$
[H]OC([H])([H])[C@@]12C3([H])C([H])([H])C([H])([H])[C@]3([H])[C@]1([H])C([H])([H])[C@]1(C([H])([H])[H])C(=C([H])[C@]1([H])OC([H])([H])[H])[C@]([H])(C([H])([H])C([H])([H])C([H])([H])C([H])([H])C([H])([H])C([H])([H])[H])C2([H])[H]


 25 28  0  0  0  0  0  0  0  0999 V2000
  -15.6730   -8.3158    5.6153 C   0  0  0  0  0  0  0  0  0  0  0  0
  -14.8784   -7.0943    5.2593 C   0  0  0  0  0  0  0  0  0  0  0  0
  -15.3560   -5.8176    4.6329 C   0  0  0  0  0  0  0  0  0  0  0  0
  -14.8583   -4.4802    4.1708 C   0  0  0  0  0  0  0  0  0  0  0  0
  -14.3607   -3.1428    3.7086 C   0  0  0  0  0  0  0  0  0  0  0  0
  -15.7507   -2.7725    3.2836 C   0  0  0  0  0  0  0  0  0  0  0  0
  -16.2484   -4.1099    3.7458 C   0  0  0  0  0  0  0  0  0  0  0  0
  -16.7461   -5.4473    4.2079 C   0  0  0  0  0  0  0  0  0  0  0  0
  -18.0019   -6.2620    4.3043 C   0  0  0  0  0  0  0  0  0  0  0  0
  -18.1777   -7.6483    4.8495 C   0  0  0  0  0  0  0  0  0  0  0  0
  -19.5033   -7.1305    4.3754 C   0  0  0  0  0  0  0  0  0  0  0  0
  -19.2293   -8.6926    5.0815 C   0  0  0  0  0  0  0  0  0  0  0  0
  -18.1928   -9.6066    5.6649 C   0  0  0  0  0  0  0  0  0  0  0  0
  -17.1412   -8.5623    5.4329 C   0  0  0  0  0  0  0  0  0  0  0  0
  -13.8796   -5.7255    4.8814 C   0  0  0  0  0  0  0  0  0  0  0  0
  -12.4032   -5.6334    5.1299 O   0  0  0  0  0  0  0  0  0  0  0  0
  -11.5845   -4.6025    4.4107 H   0  0  0  0  0  0  0  0  0  0  0  0
  -20.2807   -9.7369    5.3135 O   0  0  0  0  0  0  0  0  0  0  0  0
  -20.6657  -10.1154    6.7130 C   0  0  0  0  0  0  0  0  0  0  0  0
  -14.2829   -8.6862    6.0403 C   0  0  0  0  0  0  0  0  0  0  0  0
  -12.8929   -9.0565    6.4652 C   0  0  0  0  0  0  0  0  0  0  0  0
  -11.5028   -9.4269    6.8902 C   0  0  0  0  0  0  0  0  0  0  0  0
  -10.1128   -9.7973    7.3151 C   0  0  0  0  0  0  0  0  0  0  0  0
   -7.3326  -10.5380    8.1650 C   0  0  0  0  0  0  0  0  0  0  0  0
   -8.7227  -10.1677    7.7401 C   0  0  0  0  0  0  0  0  0  0  0  0
 24 25  1  0  0  0
 25 23  1  0  0  0
 23 22  1  0  0  0
 22 21  1  0  0  0
 21 20  1  0  0  0
 20  1  1  0  0  0
  1  2  1  0  0  0
  2  3  1  0  0  0
  3 15  1  0  0  0
 15 16  1  0  0  0
  3  4  1  0  0  0
  4  5  1  0  0  0
  5  6  1  0  0  0
  6  7  1  0  0  0
  7  8  1  0  0  0
  8  9  1  0  0  0
  9 10  1  0  0  0
 10 11  1  0  0  0
 10 12  1  0  0  0
 12 18  1  0  0  0
 18 19  1  0  0  0
 12 13  1  0  0  0
 13 14  2  0  0  0
 14  1  1  0  0  0
  8  3  1  0  0  0
 14 10  1  0  0  0
  7  4  1  0  0  0
 16 17  1  0  0  0
M  END
> <minimizedAffinity>
3.52476

> <CNNscore>
0.5397859812

> <CNNaffinity>
6.8508872986

> <CNN_VS>
3.6980128288

> <CNNaffinity_variance>
2.5060775280

$$$$
[H]OC([H])([H])[C@@]12C3([H])C([H])([H])C([H])([H])[C@]3([H])[C@]1([H])C([H])([H])[C@]1(C([H])([H])[H])C(=C([H])[C@]1([H])OC([H])([H])[H])[C@]([H])(C([H])([H])C([H])([H])C([H])([H])C([H])([H])C([H])([H])C([H])([H])[H])C2([H])[H]


 25 28  0  0  0  0  0  0  0  0999 V2000
  -11.4565   -8.2554    8.1858 C   0  0  0  0  0  0  0  0  0  0  0  0
  -12.4483   -8.4871    7.0845 C   0  0  0  0  0  0  0  0  0  0  0  0
  -13.7296   -7.7567    6.8108 C   0  0  0  0  0  0  0  0  0  0  0  0
  -14.8851   -7.7335    5.8547 C   0  0  0  0  0  0  0  0  0  0  0  0
  -16.0407   -7.7103    4.8987 C   0  0  0  0  0  0  0  0  0  0  0  0
  -16.6465   -6.5678    5.6586 C   0  0  0  0  0  0  0  0  0  0  0  0
  -15.4910   -6.5910    6.6147 C   0  0  0  0  0  0  0  0  0  0  0  0
  -14.3355   -6.6141    7.5709 C   0  0  0  0  0  0  0  0  0  0  0  0
  -13.8097   -5.9199    8.7923 C   0  0  0  0  0  0  0  0  0  0  0  0
  -12.5484   -6.1967    9.5552 C   0  0  0  0  0  0  0  0  0  0  0  0
  -13.2798   -5.0588   10.2034 C   0  0  0  0  0  0  0  0  0  0  0  0
  -11.7701   -5.7219   10.7464 C   0  0  0  0  0  0  0  0  0  0  0  0
  -10.7228   -6.7613   10.4765 C   0  0  0  0  0  0  0  0  0  0  0  0
  -11.5011   -7.2362    9.2853 C   0  0  0  0  0  0  0  0  0  0  0  0
  -13.5393   -8.8274    5.7777 C   0  0  0  0  0  0  0  0  0  0  0  0
  -13.3491   -9.8981    4.7446 O   0  0  0  0  0  0  0  0  0  0  0  0
  -12.2477  -10.9043    4.9013 H   0  0  0  0  0  0  0  0  0  0  0  0
  -10.9918   -5.2471   11.9376 O   0  0  0  0  0  0  0  0  0  0  0  0
  -11.5749   -5.3748   13.3138 C   0  0  0  0  0  0  0  0  0  0  0  0
  -10.8506   -9.3980    7.4258 C   0  0  0  0  0  0  0  0  0  0  0  0
  -10.2448  -10.5405    6.6658 C   0  0  0  0  0  0  0  0  0  0  0  0
   -9.6390  -11.6830    5.9058 C   0  0  0  0  0  0  0  0  0  0  0  0
   -9.0331  -12.8254    5.1458 C   0  0  0  0  0  0  0  0  0  0  0  0
   -7.8214  -15.1105    3.6257 C   0  0  0  0  0  0  0  0  0  0  0  0
   -8.4273  -13.9680    4.3857 C   0  0  0  0  0  0  0  0  0  0  0  0
 24 25  1  0  0  0
 25 23  1  0  0  0
 23 22  1  0  0  0
 22 21  1  0  0  0
 21 20  1  0  0  0
 20  1  1  0  0  0
  1  2  1  0  0  0
  2  3  1  0  0  0
  3 15  1  0  0  0
 15 16  1  0  0  0
  3  4  1  0  0  0
  4  5  1  0  0  0
  5  6  1  0  0  0
  6  7  1  0  0  0
  7  8  1  0  0  0
  8  9  1  0  0  0
  9 10  1  0  0  0
 10 11  1  0  0  0
 10 12  1  0  0  0
 12 18  1  0  0  0
 18 19  1  0  0  0
 12 13  1  0  0  0
 13 14  2  0  0  0
 14  1  1  0  0  0
  8  3  1  0  0  0
 14 10  1  0  0  0
  7  4  1  0  0  0
 16 17  1  0  0  0
M  END
> <minimizedAffinity>
0.88105

> <CNNscore>
0.5266999602

> <CNNaffinity>
6.4817872047

> <CNN_VS>
3.4139571190

> <CNNaffinity_variance>
0.9598666430

$$$$
[H]OC([H])([H])[C@@]12C3([H])C([H])([H])C([H])([H])[C@]3([H])[C@]1([H])C([H])([H])[C@]1(C([H])([H])[H])C(=C([H])[C@]1([H])OC([H])([H])[H])[C@]([H])(C([H])([H])C([H])([H])C([H])([H])C([H])([H])C([H])([H])C([H])([H])[H])C2([H])[H]


 25 28  0  0  0  0  0  0  0  0999 V2000
  -12.8477   -7.2566    7.6845 C   0  0  0  0  0  0  0  0  0  0  0  0
  -11.8501   -8.2534    7.1732 C   0  0  0  0  0  0  0  0  0  0  0  0
  -10.4716   -8.5452    7.6877 C   0  0  0  0  0  0  0  0  0  0  0  0
   -9.2837   -9.4230    7.4265 C   0  0  0  0  0  0  0  0  0  0  0  0
   -8.0958  -10.3009    7.1652 C   0  0  0  0  0  0  0  0  0  0  0  0
   -7.3745   -9.6680    8.3181 C   0  0  0  0  0  0  0  0  0  0  0  0
   -8.5624   -8.7901    8.5793 C   0  0  0  0  0  0  0  0  0  0  0  0
   -9.7503   -7.9122    8.8407 C   0  0  0  0  0  0  0  0  0  0  0  0
  -10.2293   -6.8312    9.7637 C   0  0  0  0  0  0  0  0  0  0  0  0
  -11.5479   -6.1162    9.7619 C   0  0  0  0  0  0  0  0  0  0  0  0
  -10.6981   -5.5855   10.8783 C   0  0  0  0  0  0  0  0  0  0  0  0
  -12.3052   -5.0506   10.4975 C   0  0  0  0  0  0  0  0  0  0  0  0
  -13.4705   -5.2400    9.5721 C   0  0  0  0  0  0  0  0  0  0  0  0
  -12.7132   -6.3056    8.8365 C   0  0  0  0  0  0  0  0  0  0  0  0
  -10.7601   -9.4325    6.5132 C   0  0  0  0  0  0  0  0  0  0  0  0
  -11.0486  -10.3199    5.3388 O   0  0  0  0  0  0  0  0  0  0  0  0
  -12.1180   -9.9411    4.3574 H   0  0  0  0  0  0  0  0  0  0  0  0
  -13.0625   -3.9851   11.2331 O   0  0  0  0  0  0  0  0  0  0  0  0
  -13.0664   -2.5764   10.7176 C   0  0  0  0  0  0  0  0  0  0  0  0
  -13.5690   -7.8896    6.5315 C   0  0  0  0  0  0  0  0  0  0  0  0
  -14.2903   -8.5225    5.3787 C   0  0  0  0  0  0  0  0  0  0  0  0
  -15.0116   -9.1555    4.2259 C   0  0  0  0  0  0  0  0  0  0  0  0
  -15.7328   -9.7884    3.0730 C   0  0  0  0  0  0  0  0  0  0  0  0
  -17.1755  -11.0545    0.7673 C   0  0  0  0  0  0  0  0  0  0  0  0
  -16.4542  -10.4214    1.9201 C   0  0  0  0  0  0  0  0  0  0  0  0
 24 25  1  0  0  0
 25 23  1  0  0  0
 23 22  1  0  0  0
 22 21  1  0  0  0
 21 20  1  0  0  0
 20  1  1  0  0  0
  1  2  1  0  0  0
  2  3  1  0  0  0
  3 15  1  0  0  0
 15 16  1  0  0  0
  3  4  1  0  0  0
  4  5  1  0  0  0
  5  6  1  0  0  0
  6  7  1  0  0  0
  7  8  1  0  0  0
  8  9  1  0  0  0
  9 10  1  0  0  0
 10 11  1  0  0  0
 10 12  1  0  0  0
 12 18  1  0  0  0
 18 19  1  0  0  0
 12 13  1  0  0  0
 13 14  2  0  0  0
 14  1  1  0  0  0
  8  3  1  0  0  0
 14 10  1  0  0  0
  7  4  1  0  0  0
 16 17  1  0  0  0
M  END
> <minimizedAffinity>
9.00595

> <CNNscore>
0.5170572996

> <CNNaffinity>
6.4236917496

> <CNN_VS>
3.3214166164

> <CNNaffinity_variance>
1.4199591875

$$$$
[H]OC([H])([H])[C@@]12C3([H])C([H])([H])C([H])([H])[C@]3([H])[C@]1([H])C([H])([H])[C@]1(C([H])([H])[H])C(=C([H])[C@]1([H])OC([H])([H])[H])[C@]([H])(C([H])([H])C([H])([H])C([H])([H])C([H])([H])C([H])([H])C([H])([H])[H])C2([H])[H]


 25 28  0  0  0  0  0  0  0  0999 V2000
   -8.3170   -6.6855    8.4094 C   0  0  0  0  0  0  0  0  0  0  0  0
   -9.2937   -7.7837    8.1092 C   0  0  0  0  0  0  0  0  0  0  0  0
   -9.0913   -9.0128    7.2734 C   0  0  0  0  0  0  0  0  0  0  0  0
   -9.8125  -10.2384    6.7962 C   0  0  0  0  0  0  0  0  0  0  0  0
  -10.5338  -11.4639    6.3190 C   0  0  0  0  0  0  0  0  0  0  0  0
   -9.3047  -11.8983    5.5769 C   0  0  0  0  0  0  0  0  0  0  0  0
   -8.5835  -10.6727    6.0542 C   0  0  0  0  0  0  0  0  0  0  0  0
   -7.8621   -9.4472    6.5314 C   0  0  0  0  0  0  0  0  0  0  0  0
   -6.5319   -8.7598    6.4419 C   0  0  0  0  0  0  0  0  0  0  0  0
   -6.1023   -7.4683    7.0722 C   0  0  0  0  0  0  0  0  0  0  0  0
   -4.9616   -8.0372    6.2814 C   0  0  0  0  0  0  0  0  0  0  0  0
   -4.9191   -6.5526    7.1803 C   0  0  0  0  0  0  0  0  0  0  0  0
   -5.7136   -5.6294    8.0559 C   0  0  0  0  0  0  0  0  0  0  0  0
   -6.8967   -6.5452    7.9479 C   0  0  0  0  0  0  0  0  0  0  0  0
  -10.4897   -9.0076    7.8162 C   0  0  0  0  0  0  0  0  0  0  0  0
  -11.8880   -9.0024    8.3590 O   0  0  0  0  0  0  0  0  0  0  0  0
  -12.1174   -8.9383    9.8400 H   0  0  0  0  0  0  0  0  0  0  0  0
   -3.7360   -5.6368    7.2883 O   0  0  0  0  0  0  0  0  0  0  0  0
   -3.7035   -4.3581    6.5048 C   0  0  0  0  0  0  0  0  0  0  0  0
   -9.5462   -6.2512    9.1514 C   0  0  0  0  0  0  0  0  0  0  0  0
  -10.7753   -5.8168    9.8934 C   0  0  0  0  0  0  0  0  0  0  0  0
  -12.0044   -5.3824   10.6354 C   0  0  0  0  0  0  0  0  0  0  0  0
  -13.2335   -4.9481   11.3774 C   0  0  0  0  0  0  0  0  0  0  0  0
  -15.6918   -4.0795   12.8615 C   0  0  0  0  0  0  0  0  0  0  0  0
  -14.4627   -4.5137   12.1194 C   0  0  0  0  0  0  0  0  0  0  0  0
 24 25  1  0  0  0
 25 23  1  0  0  0
 23 22  1  0  0  0
 22 21  1  0  0  0
 21 20  1  0  0  0
 20  1  1  0  0  0
  1  2  1  0  0  0
  2  3  1  0  0  0
  3 15  1  0  0  0
 15 16  1  0  0  0
  3  4  1  0  0  0
  4  5  1  0  0  0
  5  6  1  0  0  0
  6  7  1  0  0  0
  7  8  1  0  0  0
  8  9  1  0  0  0
  9 10  1  0  0  0
 10 11  1  0  0  0
 10 12  1  0  0  0
 12 18  1  0  0  0
 18 19  1  0  0  0
 12 13  1  0  0  0
 13 14  2  0  0  0
 14  1  1  0  0  0
  8  3  1  0  0  0
 14 10  1  0  0  0
  7  4  1  0  0  0
 16 17  1  0  0  0
M  END
> <minimizedAffinity>
6.97288

> <CNNscore>
0.5111566782

> <CNNaffinity>
5.9139461517

> <CNN_VS>
3.0229530334

> <CNNaffinity_variance>
0.6969605684

$$$$
[H]OC([H])([H])[C@@]12C3([H])C([H])([H])C([H])([H])[C@]3([H])[C@]1([H])C([H])([H])[C@]1(C([H])([H])[H])C(=C([H])[C@]1([H])OC([H])([H])[H])[C@]([H])(C([H])([H])C([H])([H])C([H])([H])C([H])([H])C([H])([H])C([H])([H])[H])C2([H])[H]


 25 28  0  0  0  0  0  0  0  0999 V2000
  -12.4672   -6.8415    6.9321 C   0  0  0  0  0  0  0  0  0  0  0  0
  -13.4487   -7.3240    7.9588 C   0  0  0  0  0  0  0  0  0  0  0  0
  -13.1838   -8.1069    9.2106 C   0  0  0  0  0  0  0  0  0  0  0  0
  -13.8910   -8.7144   10.3856 C   0  0  0  0  0  0  0  0  0  0  0  0
  -14.5983   -9.3220   11.5606 C   0  0  0  0  0  0  0  0  0  0  0  0
  -13.2865   -9.8157   12.0949 C   0  0  0  0  0  0  0  0  0  0  0  0
  -12.5793   -9.2082   10.9199 C   0  0  0  0  0  0  0  0  0  0  0  0
  -11.8720   -8.6006    9.7449 C   0  0  0  0  0  0  0  0  0  0  0  0
  -10.5011   -8.4334    9.1593 C   0  0  0  0  0  0  0  0  0  0  0  0
  -10.1035   -7.7313    7.8949 C   0  0  0  0  0  0  0  0  0  0  0  0
   -8.8791   -8.2899    8.5574 C   0  0  0  0  0  0  0  0  0  0  0  0
   -8.8971   -7.3981    7.0680 C   0  0  0  0  0  0  0  0  0  0  0  0
   -9.7722   -6.6896    6.0768 C   0  0  0  0  0  0  0  0  0  0  0  0
  -10.9786   -7.0228    6.9037 C   0  0  0  0  0  0  0  0  0  0  0  0
  -14.6556   -7.8415    9.0944 C   0  0  0  0  0  0  0  0  0  0  0  0
  -16.1273   -7.5761    8.9782 O   0  0  0  0  0  0  0  0  0  0  0  0
  -16.6469   -6.7011    7.8761 H   0  0  0  0  0  0  0  0  0  0  0  0
   -7.6908   -7.0649    6.2411 O   0  0  0  0  0  0  0  0  0  0  0  0
   -6.4973   -6.4204    6.8817 C   0  0  0  0  0  0  0  0  0  0  0  0
  -13.7791   -6.3478    6.3978 C   0  0  0  0  0  0  0  0  0  0  0  0
  -15.0909   -5.8541    5.8636 C   0  0  0  0  0  0  0  0  0  0  0  0
  -16.4027   -5.3604    5.3294 C   0  0  0  0  0  0  0  0  0  0  0  0
  -17.7145   -4.8666    4.7952 C   0  0  0  0  0  0  0  0  0  0  0  0
  -20.3382   -3.8793    3.7269 C   0  0  0  0  0  0  0  0  0  0  0  0
  -19.0263   -4.3729    4.2610 C   0  0  0  0  0  0  0  0  0  0  0  0
 24 25  1  0  0  0
 25 23  1  0  0  0
 23 22  1  0  0  0
 22 21  1  0  0  0
 21 20  1  0  0  0
 20  1  1  0  0  0
  1  2  1  0  0  0
  2  3  1  0  0  0
  3 15  1  0  0  0
 15 16  1  0  0  0
  3  4  1  0  0  0
  4  5  1  0  0  0
  5  6  1  0  0  0
  6  7  1  0  0  0
  7  8  1  0  0  0
  8  9  1  0  0  0
  9 10  1  0  0  0
 10 11  1  0  0  0
 10 12  1  0  0  0
 12 18  1  0  0  0
 18 19  1  0  0  0
 12 13  1  0  0  0
 13 14  2  0  0  0
 14  1  1  0  0  0
  8  3  1  0  0  0
 14 10  1  0  0  0
  7  4  1  0  0  0
 16 17  1  0  0  0
M  END
> <minimizedAffinity>
8.86912

> <CNNscore>
0.5097911358

> <CNNaffinity>
6.8667168617

> <CNN_VS>
3.5005912781

> <CNNaffinity_variance>
2.9190499783

$$$$
[H]Oc1c([H])c([H])c2c(c1[H])-c1c(OC([H])([H])[H])c(OC([H])([H])[H])c([H])c([H])c1C([H])([H])c1c-2c([H])c([H])c2c([H])c([H])c(C([H])([H])O[H])c([H])c12


 32 36  0  0  0  0  0  0  0  0999 V2000
  -17.7145   -8.7084    3.9258 C   0  0  0  0  0  0  0  0  0  0  0  0
  -18.1581   -9.2436    5.1211 C   0  0  0  0  0  0  0  0  0  0  0  0
  -17.7442   -8.6771    6.3363 C   0  0  0  0  0  0  0  0  0  0  0  0
  -16.9092   -7.5999    6.3408 C   0  0  0  0  0  0  0  0  0  0  0  0
  -16.5292   -7.2433    7.7440 C   0  0  0  0  0  0  0  0  0  0  0  0
  -15.0922   -6.9061    7.8634 C   0  0  0  0  0  0  0  0  0  0  0  0
  -14.2125   -6.2415    7.0155 C   0  0  0  0  0  0  0  0  0  0  0  0
  -12.8778   -6.0660    7.2156 C   0  0  0  0  0  0  0  0  0  0  0  0
  -12.3603   -6.6037    8.3875 C   0  0  0  0  0  0  0  0  0  0  0  0
  -13.1805   -7.2703    9.2733 C   0  0  0  0  0  0  0  0  0  0  0  0
  -12.5736   -7.7461   10.4105 C   0  0  0  0  0  0  0  0  0  0  0  0
  -13.3102   -8.4034   11.3569 C   0  0  0  0  0  0  0  0  0  0  0  0
  -14.6529   -8.5759   11.1508 C   0  0  0  0  0  0  0  0  0  0  0  0
  -15.2456   -8.0871    9.9937 C   0  0  0  0  0  0  0  0  0  0  0  0
  -14.5531   -7.4236    9.0134 C   0  0  0  0  0  0  0  0  0  0  0  0
  -14.6324   -5.5497    5.8149 C   0  0  0  0  0  0  0  0  0  0  0  0
  -13.9378   -4.3931    5.5705 C   0  0  0  0  0  0  0  0  0  0  0  0
  -14.3194   -3.6063    4.4905 C   0  0  0  0  0  0  0  0  0  0  0  0
  -15.3892   -3.9732    3.6662 C   0  0  0  0  0  0  0  0  0  0  0  0
  -15.7617   -3.1930    2.6038 O   0  0  0  0  0  0  0  0  0  0  0  0
  -16.0874   -5.1393    3.9194 C   0  0  0  0  0  0  0  0  0  0  0  0
  -15.6996   -5.9054    4.9772 C   0  0  0  0  0  0  0  0  0  0  0  0
  -16.4980   -7.0974    5.1060 C   0  0  0  0  0  0  0  0  0  0  0  0
  -16.8522   -7.5992    3.9007 C   0  0  0  0  0  0  0  0  0  0  0  0
  -15.3458   -3.3488    1.6897 H   0  0  0  0  0  0  0  0  0  0  0  0
  -15.4921   -9.2820   12.1504 C   0  0  0  0  0  0  0  0  0  0  0  0
  -16.1736   -8.3653   12.9304 O   0  0  0  0  0  0  0  0  0  0  0  0
  -15.5363   -7.8692   13.4928 H   0  0  0  0  0  0  0  0  0  0  0  0
  -17.2265  -10.1175    2.0177 C   0  0  0  0  0  0  0  0  0  0  0  0
  -18.0849   -9.2219    2.7001 O   0  0  0  0  0  0  0  0  0  0  0  0
  -16.4044   -7.0910    2.7146 O   0  0  0  0  0  0  0  0  0  0  0  0
  -15.1535   -7.4699    2.1316 C   0  0  0  0  0  0  0  0  0  0  0  0
 29 30  1  0  0  0
 30  1  1  0  0  0
  1  2  2  0  0  0
  2  3  1  0  0  0
  3  4  2  0  0  0
  4  5  1  0  0  0
  5  6  1  0  0  0
  6  7  2  0  0  0
  7  8  1  0  0  0
  8  9  2  0  0  0
  9 10  1  0  0  0
 10 11  2  0  0  0
 11 12  1  0  0  0
 12 13  2  0  0  0
 13 26  1  0  0  0
 26 27  1  0  0  0
 13 14  1  0  0  0
 14 15  2  0  0  0
  7 16  1  0  0  0
 16 17  2  0  0  0
 17 18  1  0  0  0
 18 19  2  0  0  0
 19 20  1  0  0  0
 19 21  1  0  0  0
 21 22  2  0  0  0
 22 23  1  0  0  0
 23 24  2  0  0  0
 24 31  1  0  0  0
 31 32  1  0  0  0
 24  1  1  0  0  0
 23  4  1  0  0  0
 15  6  1  0  0  0
 22 16  1  0  0  0
 15 10  1  0  0  0
 27 28  1  0  0  0
 20 25  1  0  0  0
M  END
> <minimizedAffinity>
20.90620

> <CNNscore>
0.4689273536

> <CNNaffinity>
6.5616669655

> <CNN_VS>
3.0769450665

> <CNNaffinity_variance>
2.1334726810

$$$$
[H]Oc1c([H])c([H])c2c(c1[H])-c1c(OC([H])([H])[H])c(OC([H])([H])[H])c([H])c([H])c1C([H])([H])c1c-2c([H])c([H])c2c([H])c([H])c(C([H])([H])O[H])c([H])c12


 32 36  0  0  0  0  0  0  0  0999 V2000
   -8.2213   -7.6492    7.6382 C   0  0  0  0  0  0  0  0  0  0  0  0
   -8.7242   -7.4220    6.3703 C   0  0  0  0  0  0  0  0  0  0  0  0
  -10.0274   -6.9258    6.2145 C   0  0  0  0  0  0  0  0  0  0  0  0
  -10.7965   -6.6648    7.3090 C   0  0  0  0  0  0  0  0  0  0  0  0
  -12.1713   -6.2466    6.8898 C   0  0  0  0  0  0  0  0  0  0  0  0
  -13.2223   -6.8677    7.7281 C   0  0  0  0  0  0  0  0  0  0  0  0
  -13.2793   -7.1756    9.0832 C   0  0  0  0  0  0  0  0  0  0  0  0
  -14.2903   -7.8272    9.7200 C   0  0  0  0  0  0  0  0  0  0  0  0
  -15.3647   -8.2103    8.9267 C   0  0  0  0  0  0  0  0  0  0  0  0
  -15.3723   -7.9305    7.5765 C   0  0  0  0  0  0  0  0  0  0  0  0
  -16.4900   -8.3344    6.8868 C   0  0  0  0  0  0  0  0  0  0  0  0
  -16.5968   -8.0829    5.5468 C   0  0  0  0  0  0  0  0  0  0  0  0
  -15.5770   -7.4258    4.9117 C   0  0  0  0  0  0  0  0  0  0  0  0
  -14.4562   -7.0270    5.6283 C   0  0  0  0  0  0  0  0  0  0  0  0
  -14.2982   -7.2558    6.9713 C   0  0  0  0  0  0  0  0  0  0  0  0
  -12.2794   -6.7497   10.0398 C   0  0  0  0  0  0  0  0  0  0  0  0
  -12.7934   -6.4135   11.2656 C   0  0  0  0  0  0  0  0  0  0  0  0
  -11.9303   -5.9084   12.2306 C   0  0  0  0  0  0  0  0  0  0  0  0
  -10.5662   -5.7384   11.9679 C   0  0  0  0  0  0  0  0  0  0  0  0
   -9.7204   -5.2388   12.9225 O   0  0  0  0  0  0  0  0  0  0  0  0
  -10.0544   -6.0767   10.7290 C   0  0  0  0  0  0  0  0  0  0  0  0
  -10.9094   -6.5768    9.7936 C   0  0  0  0  0  0  0  0  0  0  0  0
  -10.2363   -6.9065    8.5635 C   0  0  0  0  0  0  0  0  0  0  0  0
   -8.9923   -7.3904    8.7840 C   0  0  0  0  0  0  0  0  0  0  0  0
   -9.2499   -5.8710   13.5641 H   0  0  0  0  0  0  0  0  0  0  0  0
  -15.6496   -7.1305    3.4592 C   0  0  0  0  0  0  0  0  0  0  0  0
  -16.9235   -6.7091    3.1236 O   0  0  0  0  0  0  0  0  0  0  0  0
  -17.5576   -7.4547    3.2259 H   0  0  0  0  0  0  0  0  0  0  0  0
   -6.0825   -8.3699    6.7603 C   0  0  0  0  0  0  0  0  0  0  0  0
   -6.9492   -8.1371    7.8553 O   0  0  0  0  0  0  0  0  0  0  0  0
   -8.4926   -7.6371   10.0310 O   0  0  0  0  0  0  0  0  0  0  0  0
   -7.1002   -7.5289   10.3436 C   0  0  0  0  0  0  0  0  0  0  0  0
 29 30  1  0  0  0
 30  1  1  0  0  0
  1  2  2  0  0  0
  2  3  1  0  0  0
  3  4  2  0  0  0
  4  5  1  0  0  0
  5  6  1  0  0  0
  6  7  2  0  0  0
  7  8  1  0  0  0
  8  9  2  0  0  0
  9 10  1  0  0  0
 10 11  2  0  0  0
 11 12  1  0  0  0
 12 13  2  0  0  0
 13 26  1  0  0  0
 26 27  1  0  0  0
 13 14  1  0  0  0
 14 15  2  0  0  0
  7 16  1  0  0  0
 16 17  2  0  0  0
 17 18  1  0  0  0
 18 19  2  0  0  0
 19 20  1  0  0  0
 19 21  1  0  0  0
 21 22  2  0  0  0
 22 23  1  0  0  0
 23 24  2  0  0  0
 24 31  1  0  0  0
 31 32  1  0  0  0
 24  1  1  0  0  0
 23  4  1  0  0  0
 15  6  1  0  0  0
 22 16  1  0  0  0
 15 10  1  0  0  0
 27 28  1  0  0  0
 20 25  1  0  0  0
M  END
> <minimizedAffinity>
7.48348

> <CNNscore>
0.4500763118

> <CNNaffinity>
6.5447759628

> <CNN_VS>
2.9456486702

> <CNNaffinity_variance>
1.3791310787

$$$$
[H]Oc1c([H])c([H])c2c(c1[H])-c1c(OC([H])([H])[H])c(OC([H])([H])[H])c([H])c([H])c1C([H])([H])c1c-2c([H])c([H])c2c([H])c([H])c(C([H])([H])O[H])c([H])c12


 32 36  0  0  0  0  0  0  0  0999 V2000
  -11.7425   -5.7401   10.1595 C   0  0  0  0  0  0  0  0  0  0  0  0
  -10.8646   -4.7338    9.8010 C   0  0  0  0  0  0  0  0  0  0  0  0
   -9.9433   -4.9471    8.7644 C   0  0  0  0  0  0  0  0  0  0  0  0
   -9.9139   -6.1417    8.1090 C   0  0  0  0  0  0  0  0  0  0  0  0
   -8.7873   -6.1659    7.1237 C   0  0  0  0  0  0  0  0  0  0  0  0
   -8.0691   -7.4610    7.1306 C   0  0  0  0  0  0  0  0  0  0  0  0
   -8.5035   -8.7721    7.2938 C   0  0  0  0  0  0  0  0  0  0  0  0
   -7.7160   -9.8801    7.3584 C   0  0  0  0  0  0  0  0  0  0  0  0
   -6.3482   -9.6645    7.2430 C   0  0  0  0  0  0  0  0  0  0  0  0
   -5.8530   -8.3886    7.0741 C   0  0  0  0  0  0  0  0  0  0  0  0
   -4.4883   -8.2869    6.9506 C   0  0  0  0  0  0  0  0  0  0  0  0
   -3.9066   -7.0639    6.7599 C   0  0  0  0  0  0  0  0  0  0  0  0
   -4.7041   -5.9527    6.6944 C   0  0  0  0  0  0  0  0  0  0  0  0
   -6.0814   -6.0788    6.8222 C   0  0  0  0  0  0  0  0  0  0  0  0
   -6.7145   -7.2798    7.0167 C   0  0  0  0  0  0  0  0  0  0  0  0
   -9.9008   -9.1503    7.3268 C   0  0  0  0  0  0  0  0  0  0  0  0
  -10.1646  -10.3493    6.7162 C   0  0  0  0  0  0  0  0  0  0  0  0
  -11.4868  -10.7650    6.6151 C   0  0  0  0  0  0  0  0  0  0  0  0
  -12.5343   -9.9846    7.1175 C   0  0  0  0  0  0  0  0  0  0  0  0
  -13.8357  -10.3989    7.0137 O   0  0  0  0  0  0  0  0  0  0  0  0
  -12.2620   -8.7753    7.7297 C   0  0  0  0  0  0  0  0  0  0  0  0
  -10.9614   -8.3818    7.8285 C   0  0  0  0  0  0  0  0  0  0  0  0
  -10.8263   -7.1188    8.5079 C   0  0  0  0  0  0  0  0  0  0  0  0
  -11.7335   -6.9820    9.5021 C   0  0  0  0  0  0  0  0  0  0  0  0
  -14.2494  -10.9610    7.7523 H   0  0  0  0  0  0  0  0  0  0  0  0
   -4.1173   -4.6055    6.4877 C   0  0  0  0  0  0  0  0  0  0  0  0
   -4.5094   -4.1000    5.2614 O   0  0  0  0  0  0  0  0  0  0  0  0
   -4.1009   -4.6284    4.5386 H   0  0  0  0  0  0  0  0  0  0  0  0
  -12.2420   -5.5109   12.5180 C   0  0  0  0  0  0  0  0  0  0  0  0
  -12.6692   -5.5910   11.1705 O   0  0  0  0  0  0  0  0  0  0  0  0
  -12.5918   -7.9759    9.8776 O   0  0  0  0  0  0  0  0  0  0  0  0
  -14.0040   -7.7767    9.9972 C   0  0  0  0  0  0  0  0  0  0  0  0
 29 30  1  0  0  0
 30  1  1  0  0  0
  1  2  2  0  0  0
  2  3  1  0  0  0
  3  4  2  0  0  0
  4  5  1  0  0  0
  5  6  1  0  0  0
  6  7  2  0  0  0
  7  8  1  0  0  0
  8  9  2  0  0  0
  9 10  1  0  0  0
 10 11  2  0  0  0
 11 12  1  0  0  0
 12 13  2  0  0  0
 13 26  1  0  0  0
 26 27  1  0  0  0
 13 14  1  0  0  0
 14 15  2  0  0  0
  7 16  1  0  0  0
 16 17  2  0  0  0
 17 18  1  0  0  0
 18 19  2  0  0  0
 19 20  1  0  0  0
 19 21  1  0  0  0
 21 22  2  0  0  0
 22 23  1  0  0  0
 23 24  2  0  0  0
 24 31  1  0  0  0
 31 32  1  0  0  0
 24  1  1  0  0  0
 23  4  1  0  0  0
 15  6  1  0  0  0
 22 16  1  0  0  0
 15 10  1  0  0  0
 27 28  1  0  0  0
 20 25  1  0  0  0
M  END
> <minimizedAffinity>
-4.75538

> <CNNscore>
0.4481370151

> <CNNaffinity>
6.3275141716

> <CNN_VS>
2.8355932236

> <CNNaffinity_variance>
0.3744694591

$$$$
[H]Oc1c([H])c([H])c2c(c1[H])-c1c(OC([H])([H])[H])c(OC([H])([H])[H])c([H])c([H])c1C([H])([H])c1c-2c([H])c([H])c2c([H])c([H])c(C([H])([H])O[H])c([H])c12


 32 36  0  0  0  0  0  0  0  0999 V2000
   -9.0699   -7.6824    7.4599 C   0  0  0  0  0  0  0  0  0  0  0  0
   -9.2818   -6.3294    7.2685 C   0  0  0  0  0  0  0  0  0  0  0  0
  -10.5914   -5.8322    7.1872 C   0  0  0  0  0  0  0  0  0  0  0  0
  -11.6537   -6.6786    7.2993 C   0  0  0  0  0  0  0  0  0  0  0  0
  -12.9346   -5.9365    7.0774 C   0  0  0  0  0  0  0  0  0  0  0  0
  -13.8843   -6.7031    6.2387 C   0  0  0  0  0  0  0  0  0  0  0  0
  -14.1732   -8.0609    6.1530 C   0  0  0  0  0  0  0  0  0  0  0  0
  -15.0253   -8.6495    5.2700 C   0  0  0  0  0  0  0  0  0  0  0  0
  -15.6648   -7.7974    4.3781 C   0  0  0  0  0  0  0  0  0  0  0  0
  -15.4259   -6.4398    4.4141 C   0  0  0  0  0  0  0  0  0  0  0  0
  -16.1237   -5.6840    3.5030 C   0  0  0  0  0  0  0  0  0  0  0  0
  -15.9673   -4.3256    3.4763 C   0  0  0  0  0  0  0  0  0  0  0  0
  -15.1096   -3.7387    4.3679 C   0  0  0  0  0  0  0  0  0  0  0  0
  -14.4141   -4.5221    5.2799 C   0  0  0  0  0  0  0  0  0  0  0  0
  -14.5327   -5.8867    5.3475 C   0  0  0  0  0  0  0  0  0  0  0  0
  -13.6571   -9.0455    7.0806 C   0  0  0  0  0  0  0  0  0  0  0  0
  -14.5478  -10.0437    7.3811 C   0  0  0  0  0  0  0  0  0  0  0  0
  -14.1847  -10.9930    8.3287 C   0  0  0  0  0  0  0  0  0  0  0  0
  -12.9428  -10.9399    8.9716 C   0  0  0  0  0  0  0  0  0  0  0  0
  -12.5909  -11.8777    9.9059 O   0  0  0  0  0  0  0  0  0  0  0  0
  -12.0500   -9.9294    8.6663 C   0  0  0  0  0  0  0  0  0  0  0  0
  -12.4150   -9.0084    7.7310 C   0  0  0  0  0  0  0  0  0  0  0  0
  -11.3816   -8.0325    7.4977 C   0  0  0  0  0  0  0  0  0  0  0  0
  -10.1462   -8.5780    7.5774 C   0  0  0  0  0  0  0  0  0  0  0  0
  -12.1107  -12.7257    9.6174 H   0  0  0  0  0  0  0  0  0  0  0  0
  -14.9089   -2.2685    4.3763 C   0  0  0  0  0  0  0  0  0  0  0  0
  -14.4051   -1.8652    5.5997 O   0  0  0  0  0  0  0  0  0  0  0  0
  -15.0858   -1.9958    6.2984 H   0  0  0  0  0  0  0  0  0  0  0  0
   -6.7790   -7.5391    8.2320 C   0  0  0  0  0  0  0  0  0  0  0  0
   -7.8068   -8.2306    7.5464 O   0  0  0  0  0  0  0  0  0  0  0  0
   -9.9252   -9.9152    7.7465 O   0  0  0  0  0  0  0  0  0  0  0  0
   -9.5294  -10.7773    6.6749 C   0  0  0  0  0  0  0  0  0  0  0  0
 29 30  1  0  0  0
 30  1  1  0  0  0
  1  2  2  0  0  0
  2  3  1  0  0  0
  3  4  2  0  0  0
  4  5  1  0  0  0
  5  6  1  0  0  0
  6  7  2  0  0  0
  7  8  1  0  0  0
  8  9  2  0  0  0
  9 10  1  0  0  0
 10 11  2  0  0  0
 11 12  1  0  0  0
 12 13  2  0  0  0
 13 26  1  0  0  0
 26 27  1  0  0  0
 13 14  1  0  0  0
 14 15  2  0  0  0
  7 16  1  0  0  0
 16 17  2  0  0  0
 17 18  1  0  0  0
 18 19  2  0  0  0
 19 20  1  0  0  0
 19 21  1  0  0  0
 21 22  2  0  0  0
 22 23  1  0  0  0
 23 24  2  0  0  0
 24 31  1  0  0  0
 31 32  1  0  0  0
 24  1  1  0  0  0
 23  4  1  0  0  0
 15  6  1  0  0  0
 22 16  1  0  0  0
 15 10  1  0  0  0
 27 28  1  0  0  0
 20 25  1  0  0  0
M  END
> <minimizedAffinity>
10.50793

> <CNNscore>
0.4142224789

> <CNNaffinity>
6.3967037201

> <CNN_VS>
2.6496584415

> <CNNaffinity_variance>
1.1091744900

$$$$
[H]Oc1c([H])c([H])c2c(c1[H])-c1c(OC([H])([H])[H])c(OC([H])([H])[H])c([H])c([H])c1C([H])([H])c1c-2c([H])c([H])c2c([H])c([H])c(C([H])([H])O[H])c([H])c12


 32 36  0  0  0  0  0  0  0  0999 V2000
   -7.0882   -6.9754    7.1320 C   0  0  0  0  0  0  0  0  0  0  0  0
   -7.4326   -6.3512    5.9472 C   0  0  0  0  0  0  0  0  0  0  0  0
   -6.4283   -5.9203    5.0671 C   0  0  0  0  0  0  0  0  0  0  0  0
   -5.1157   -6.1179    5.3760 C   0  0  0  0  0  0  0  0  0  0  0  0
   -4.2379   -5.4848    4.3419 C   0  0  0  0  0  0  0  0  0  0  0  0
   -3.0830   -4.7819    4.9464 C   0  0  0  0  0  0  0  0  0  0  0  0
   -2.2834   -5.0692    6.0475 C   0  0  0  0  0  0  0  0  0  0  0  0
   -1.2895   -4.2858    6.5483 C   0  0  0  0  0  0  0  0  0  0  0  0
   -1.0603   -3.0892    5.8805 C   0  0  0  0  0  0  0  0  0  0  0  0
   -1.8151   -2.7474    4.7782 C   0  0  0  0  0  0  0  0  0  0  0  0
   -1.4948   -1.5530    4.1793 C   0  0  0  0  0  0  0  0  0  0  0  0
   -2.1757   -1.1392    3.0677 C   0  0  0  0  0  0  0  0  0  0  0  0
   -3.1738   -1.9321    2.5675 C   0  0  0  0  0  0  0  0  0  0  0  0
   -3.4811   -3.1354    3.1893 C   0  0  0  0  0  0  0  0  0  0  0  0
   -2.8315   -3.5954    4.3061 C   0  0  0  0  0  0  0  0  0  0  0  0
   -2.3461   -6.3206    6.7730 C   0  0  0  0  0  0  0  0  0  0  0  0
   -1.1266   -6.7680    7.2118 C   0  0  0  0  0  0  0  0  0  0  0  0
   -1.0622   -8.0037    7.8444 C   0  0  0  0  0  0  0  0  0  0  0  0
   -2.2083   -8.7848    8.0315 C   0  0  0  0  0  0  0  0  0  0  0  0
   -2.1385  -10.0027    8.6545 O   0  0  0  0  0  0  0  0  0  0  0  0
   -3.4347   -8.3294    7.5844 C   0  0  0  0  0  0  0  0  0  0  0  0
   -3.4858   -7.1136    6.9716 C   0  0  0  0  0  0  0  0  0  0  0  0
   -4.8260   -6.7581    6.5812 C   0  0  0  0  0  0  0  0  0  0  0  0
   -5.7431   -7.1908    7.4766 C   0  0  0  0  0  0  0  0  0  0  0  0
   -2.2514  -10.0638    9.6626 H   0  0  0  0  0  0  0  0  0  0  0  0
   -3.9388   -1.5243    1.3632 C   0  0  0  0  0  0  0  0  0  0  0  0
   -3.2577   -1.8987    0.2189 O   0  0  0  0  0  0  0  0  0  0  0  0
   -2.4294   -1.3733    0.1388 H   0  0  0  0  0  0  0  0  0  0  0  0
   -9.3397   -7.7331    7.6023 C   0  0  0  0  0  0  0  0  0  0  0  0
   -8.0294   -7.4195    8.0376 O   0  0  0  0  0  0  0  0  0  0  0  0
   -5.4137   -7.7906    8.6587 O   0  0  0  0  0  0  0  0  0  0  0  0
   -5.8350   -7.2839    9.9291 C   0  0  0  0  0  0  0  0  0  0  0  0
 29 30  1  0  0  0
 30  1  1  0  0  0
  1  2  2  0  0  0
  2  3  1  0  0  0
  3  4  2  0  0  0
  4  5  1  0  0  0
  5  6  1  0  0  0
  6  7  2  0  0  0
  7  8  1  0  0  0
  8  9  2  0  0  0
  9 10  1  0  0  0
 10 11  2  0  0  0
 11 12  1  0  0  0
 12 13  2  0  0  0
 13 26  1  0  0  0
 26 27  1  0  0  0
 13 14  1  0  0  0
 14 15  2  0  0  0
  7 16  1  0  0  0
 16 17  2  0  0  0
 17 18  1  0  0  0
 18 19  2  0  0  0
 19 20  1  0  0  0
 19 21  1  0  0  0
 21 22  2  0  0  0
 22 23  1  0  0  0
 23 24  2  0  0  0
 24 31  1  0  0  0
 31 32  1  0  0  0
 24  1  1  0  0  0
 23  4  1  0  0  0
 15  6  1  0  0  0
 22 16  1  0  0  0
 15 10  1  0  0  0
 27 28  1  0  0  0
 20 25  1  0  0  0
M  END
> <minimizedAffinity>
-0.34899

> <CNNscore>
0.3894222081

> <CNNaffinity>
5.4762029648

> <CNN_VS>
2.1325550079

> <CNNaffinity_variance>
1.3202412128

$$$$
[H]Oc1c([H])c([H])c2c(c1[H])-c1c(OC([H])([H])[H])c(OC([H])([H])[H])c([H])c([H])c1C([H])([H])c1c-2c([H])c([H])c2c([H])c([H])c(C([H])([H])O[H])c([H])c12


 32 36  0  0  0  0  0  0  0  0999 V2000
  -19.5078   -9.0220    6.0051 C   0  0  0  0  0  0  0  0  0  0  0  0
  -19.3193   -9.3234    7.3413 C   0  0  0  0  0  0  0  0  0  0  0  0
  -18.2781   -8.7111    8.0553 C   0  0  0  0  0  0  0  0  0  0  0  0
  -17.4550   -7.8187    7.4359 C   0  0  0  0  0  0  0  0  0  0  0  0
  -16.3668   -7.3831    8.3670 C   0  0  0  0  0  0  0  0  0  0  0  0
  -15.0507   -7.3135    7.6916 C   0  0  0  0  0  0  0  0  0  0  0  0
  -14.6754   -6.9292    6.4088 C   0  0  0  0  0  0  0  0  0  0  0  0
  -13.4211   -6.9886    5.8840 C   0  0  0  0  0  0  0  0  0  0  0  0
  -12.4297   -7.4777    6.7258 C   0  0  0  0  0  0  0  0  0  0  0  0
  -12.7351   -7.8710    8.0117 C   0  0  0  0  0  0  0  0  0  0  0  0
  -11.6795   -8.3206    8.7677 C   0  0  0  0  0  0  0  0  0  0  0  0
  -11.8816   -8.7139   10.0618 C   0  0  0  0  0  0  0  0  0  0  0  0
  -13.1456   -8.6507   10.5849 C   0  0  0  0  0  0  0  0  0  0  0  0
  -14.1980   -8.1934    9.8024 C   0  0  0  0  0  0  0  0  0  0  0  0
  -14.0504   -7.7895    8.5001 C   0  0  0  0  0  0  0  0  0  0  0  0
  -15.5827   -6.3116    5.4645 C   0  0  0  0  0  0  0  0  0  0  0  0
  -14.9996   -5.3435    4.6881 C   0  0  0  0  0  0  0  0  0  0  0  0
  -15.8019   -4.6268    3.8084 C   0  0  0  0  0  0  0  0  0  0  0  0
  -17.1757   -4.8754    3.7109 C   0  0  0  0  0  0  0  0  0  0  0  0
  -17.9617   -4.1649    2.8429 O   0  0  0  0  0  0  0  0  0  0  0  0
  -17.7582   -5.8511    4.4983 C   0  0  0  0  0  0  0  0  0  0  0  0
  -16.9601   -6.5513    5.3521 C   0  0  0  0  0  0  0  0  0  0  0  0
  -17.6949   -7.5474    6.0887 C   0  0  0  0  0  0  0  0  0  0  0  0
  -18.6736   -8.1070    5.3408 C   0  0  0  0  0  0  0  0  0  0  0  0
  -18.0999   -4.5000    1.8934 H   0  0  0  0  0  0  0  0  0  0  0  0
  -13.4121   -9.0660   11.9844 C   0  0  0  0  0  0  0  0  0  0  0  0
  -13.0386  -10.3851   12.1674 O   0  0  0  0  0  0  0  0  0  0  0  0
  -13.6332  -10.9735   11.6489 H   0  0  0  0  0  0  0  0  0  0  0  0
  -21.6077  -10.2226    5.8882 C   0  0  0  0  0  0  0  0  0  0  0  0
  -20.5121   -9.5921    5.2503 O   0  0  0  0  0  0  0  0  0  0  0  0
  -18.8566   -7.8315    4.0156 O   0  0  0  0  0  0  0  0  0  0  0  0
  -17.9505   -8.2730    2.9996 C   0  0  0  0  0  0  0  0  0  0  0  0
 29 30  1  0  0  0
 30  1  1  0  0  0
  1  2  2  0  0  0
  2  3  1  0  0  0
  3  4  2  0  0  0
  4  5  1  0  0  0
  5  6  1  0  0  0
  6  7  2  0  0  0
  7  8  1  0  0  0
  8  9  2  0  0  0
  9 10  1  0  0  0
 10 11  2  0  0  0
 11 12  1  0  0  0
 12 13  2  0  0  0
 13 26  1  0  0  0
 26 27  1  0  0  0
 13 14  1  0  0  0
 14 15  2  0  0  0
  7 16  1  0  0  0
 16 17  2  0  0  0
 17 18  1  0  0  0
 18 19  2  0  0  0
 19 20  1  0  0  0
 19 21  1  0  0  0
 21 22  2  0  0  0
 22 23  1  0  0  0
 23 24  2  0  0  0
 24 31  1  0  0  0
 31 32  1  0  0  0
 24  1  1  0  0  0
 23  4  1  0  0  0
 15  6  1  0  0  0
 22 16  1  0  0  0
 15 10  1  0  0  0
 27 28  1  0  0  0
 20 25  1  0  0  0
M  END
> <minimizedAffinity>
6.01816

> <CNNscore>
0.3892154396

> <CNNaffinity>
6.5010275841

> <CNN_VS>
2.5303003788

> <CNNaffinity_variance>
1.3876624107

$$$$
[H]Oc1c([H])c([H])c2c(c1[H])-c1c(OC([H])([H])[H])c(OC([H])([H])[H])c([H])c([H])c1C([H])([H])c1c-2c([H])c([H])c2c([H])c([H])c(C([H])([H])O[H])c([H])c12


 32 36  0  0  0  0  0  0  0  0999 V2000
   -9.5886   -8.0477    7.9763 C   0  0  0  0  0  0  0  0  0  0  0  0
   -9.4270   -6.8737    8.6887 C   0  0  0  0  0  0  0  0  0  0  0  0
   -8.2336   -6.1450    8.5727 C   0  0  0  0  0  0  0  0  0  0  0  0
   -7.2357   -6.5899    7.7580 C   0  0  0  0  0  0  0  0  0  0  0  0
   -6.0331   -5.7069    7.8801 C   0  0  0  0  0  0  0  0  0  0  0  0
   -4.7737   -6.4845    7.9280 C   0  0  0  0  0  0  0  0  0  0  0  0
   -4.3674   -7.6497    7.2865 C   0  0  0  0  0  0  0  0  0  0  0  0
   -3.1944   -8.3112    7.4833 C   0  0  0  0  0  0  0  0  0  0  0  0
   -2.3274   -7.7527    8.4144 C   0  0  0  0  0  0  0  0  0  0  0  0
   -2.6685   -6.5951    9.0815 C   0  0  0  0  0  0  0  0  0  0  0  0
   -1.7329   -6.1152    9.9661 C   0  0  0  0  0  0  0  0  0  0  0  0
   -1.9738   -4.9615   10.6598 C   0  0  0  0  0  0  0  0  0  0  0  0
   -3.1552   -4.2995   10.4567 C   0  0  0  0  0  0  0  0  0  0  0  0
   -4.0868   -4.8029    9.5580 C   0  0  0  0  0  0  0  0  0  0  0  0
   -3.8961   -5.9553    8.8393 C   0  0  0  0  0  0  0  0  0  0  0  0
   -5.1246   -8.2811    6.2261 C   0  0  0  0  0  0  0  0  0  0  0  0
   -4.3456   -8.8280    5.2392 C   0  0  0  0  0  0  0  0  0  0  0  0
   -4.9731   -9.3829    4.1304 C   0  0  0  0  0  0  0  0  0  0  0  0
   -6.3674   -9.3858    4.0102 C   0  0  0  0  0  0  0  0  0  0  0  0
   -6.9803   -9.9330    2.9143 O   0  0  0  0  0  0  0  0  0  0  0  0
   -7.1474   -8.8305    5.0075 C   0  0  0  0  0  0  0  0  0  0  0  0
   -6.5207   -8.2954    6.0925 C   0  0  0  0  0  0  0  0  0  0  0  0
   -7.4551   -7.7767    7.0583 C   0  0  0  0  0  0  0  0  0  0  0  0
   -8.5761   -8.5306    7.1302 C   0  0  0  0  0  0  0  0  0  0  0  0
   -7.2408  -10.9153    2.9166 H   0  0  0  0  0  0  0  0  0  0  0  0
   -3.4594   -3.0437   11.1863 C   0  0  0  0  0  0  0  0  0  0  0  0
   -4.1170   -2.1575   10.3524 O   0  0  0  0  0  0  0  0  0  0  0  0
   -3.5065   -1.8543    9.6426 H   0  0  0  0  0  0  0  0  0  0  0  0
  -11.8748   -8.3106    8.7307 C   0  0  0  0  0  0  0  0  0  0  0  0
  -10.7373   -8.8082    8.0500 O   0  0  0  0  0  0  0  0  0  0  0  0
   -8.7385   -9.7017    6.4464 O   0  0  0  0  0  0  0  0  0  0  0  0
   -9.7564  -10.6542    6.7706 C   0  0  0  0  0  0  0  0  0  0  0  0
 29 30  1  0  0  0
 30  1  1  0  0  0
  1  2  2  0  0  0
  2  3  1  0  0  0
  3  4  2  0  0  0
  4  5  1  0  0  0
  5  6  1  0  0  0
  6  7  2  0  0  0
  7  8  1  0  0  0
  8  9  2  0  0  0
  9 10  1  0  0  0
 10 11  2  0  0  0
 11 12  1  0  0  0
 12 13  2  0  0  0
 13 26  1  0  0  0
 26 27  1  0  0  0
 13 14  1  0  0  0
 14 15  2  0  0  0
  7 16  1  0  0  0
 16 17  2  0  0  0
 17 18  1  0  0  0
 18 19  2  0  0  0
 19 20  1  0  0  0
 19 21  1  0  0  0
 21 22  2  0  0  0
 22 23  1  0  0  0
 23 24  2  0  0  0
 24 31  1  0  0  0
 31 32  1  0  0  0
 24  1  1  0  0  0
 23  4  1  0  0  0
 15  6  1  0  0  0
 22 16  1  0  0  0
 15 10  1  0  0  0
 27 28  1  0  0  0
 20 25  1  0  0  0
M  END
> <minimizedAffinity>
3.97064

> <CNNscore>
0.3809728026

> <CNNaffinity>
5.7228899002

> <CNN_VS>
2.1802654266

> <CNNaffinity_variance>
0.9459598660

$$$$
[H]Oc1c([H])c([H])c2c(c1[H])-c1c(OC([H])([H])[H])c(OC([H])([H])[H])c([H])c([H])c1C([H])([H])c1c-2c([H])c([H])c2c([H])c([H])c(C([H])([H])O[H])c([H])c12


 32 36  0  0  0  0  0  0  0  0999 V2000
  -13.0811   -8.8336    7.3256 C   0  0  0  0  0  0  0  0  0  0  0  0
  -13.6254  -10.1020    7.2418 C   0  0  0  0  0  0  0  0  0  0  0  0
  -14.7756  -10.3186    6.4680 C   0  0  0  0  0  0  0  0  0  0  0  0
  -15.3552   -9.2833    5.7973 C   0  0  0  0  0  0  0  0  0  0  0  0
  -16.6175   -9.7369    5.1327 C   0  0  0  0  0  0  0  0  0  0  0  0
  -17.7086   -8.7456    5.2742 C   0  0  0  0  0  0  0  0  0  0  0  0
  -17.7168   -7.3549    5.2714 C   0  0  0  0  0  0  0  0  0  0  0  0
  -18.7950   -6.5546    5.4935 C   0  0  0  0  0  0  0  0  0  0  0  0
  -19.9977   -7.2052    5.7399 C   0  0  0  0  0  0  0  0  0  0  0  0
  -20.0582   -8.5828    5.7515 C   0  0  0  0  0  0  0  0  0  0  0  0
  -21.2984   -9.1264    5.9850 C   0  0  0  0  0  0  0  0  0  0  0  0
  -21.4607  -10.4843    5.9956 C   0  0  0  0  0  0  0  0  0  0  0  0
  -20.3726  -11.2844    5.7703 C   0  0  0  0  0  0  0  0  0  0  0  0
  -19.1282  -10.7135    5.5368 C   0  0  0  0  0  0  0  0  0  0  0  0
  -18.9106   -9.3596    5.5175 C   0  0  0  0  0  0  0  0  0  0  0  0
  -16.5608   -6.5519    4.9317 C   0  0  0  0  0  0  0  0  0  0  0  0
  -16.8639   -5.4141    4.2292 C   0  0  0  0  0  0  0  0  0  0  0  0
  -15.8198   -4.6159    3.7777 C   0  0  0  0  0  0  0  0  0  0  0  0
  -14.4851   -4.9570    4.0245 C   0  0  0  0  0  0  0  0  0  0  0  0
  -13.4600   -4.1670    3.5758 O   0  0  0  0  0  0  0  0  0  0  0  0
  -14.1859   -6.1070    4.7312 C   0  0  0  0  0  0  0  0  0  0  0  0
  -15.2183   -6.8778    5.1741 C   0  0  0  0  0  0  0  0  0  0  0  0
  -14.7605   -8.0267    5.9125 C   0  0  0  0  0  0  0  0  0  0  0  0
  -13.6585   -7.7477    6.6460 C   0  0  0  0  0  0  0  0  0  0  0  0
  -13.1030   -3.4179    4.1624 H   0  0  0  0  0  0  0  0  0  0  0  0
  -20.5013  -12.7627    5.7715 C   0  0  0  0  0  0  0  0  0  0  0  0
  -21.6763  -13.1374    5.1454 O   0  0  0  0  0  0  0  0  0  0  0  0
  -22.4468  -12.8515    5.6869 H   0  0  0  0  0  0  0  0  0  0  0  0
  -10.7401   -9.2348    7.7981 C   0  0  0  0  0  0  0  0  0  0  0  0
  -11.9534   -8.5579    8.0709 O   0  0  0  0  0  0  0  0  0  0  0  0
  -13.1241   -6.4952    6.7518 O   0  0  0  0  0  0  0  0  0  0  0  0
  -13.1630   -5.7354    7.9640 C   0  0  0  0  0  0  0  0  0  0  0  0
 29 30  1  0  0  0
 30  1  1  0  0  0
  1  2  2  0  0  0
  2  3  1  0  0  0
  3  4  2  0  0  0
  4  5  1  0  0  0
  5  6  1  0  0  0
  6  7  2  0  0  0
  7  8  1  0  0  0
  8  9  2  0  0  0
  9 10  1  0  0  0
 10 11  2  0  0  0
 11 12  1  0  0  0
 12 13  2  0  0  0
 13 26  1  0  0  0
 26 27  1  0  0  0
 13 14  1  0  0  0
 14 15  2  0  0  0
  7 16  1  0  0  0
 16 17  2  0  0  0
 17 18  1  0  0  0
 18 19  2  0  0  0
 19 20  1  0  0  0
 19 21  1  0  0  0
 21 22  2  0  0  0
 22 23  1  0  0  0
 23 24  2  0  0  0
 24 31  1  0  0  0
 31 32  1  0  0  0
 24  1  1  0  0  0
 23  4  1  0  0  0
 15  6  1  0  0  0
 22 16  1  0  0  0
 15 10  1  0  0  0
 27 28  1  0  0  0
 20 25  1  0  0  0
M  END
> <minimizedAffinity>
20.11705

> <CNNscore>
0.3803166151

> <CNNaffinity>
6.2786569595

> <CNN_VS>
2.3878774643

> <CNNaffinity_variance>
0.9507465363

$$$$
[H]Oc1c([H])c([H])c2c(c1[H])-c1c(OC([H])([H])[H])c(OC([H])([H])[H])c([H])c([H])c1C([H])([H])c1c-2c([H])c([H])c2c([H])c([H])c(C([H])([H])O[H])c([H])c12


 32 36  0  0  0  0  0  0  0  0999 V2000
   -6.4403   -8.3719    7.2859 C   0  0  0  0  0  0  0  0  0  0  0  0
   -7.1688   -7.7363    8.2745 C   0  0  0  0  0  0  0  0  0  0  0  0
   -6.6197   -6.6343    8.9476 C   0  0  0  0  0  0  0  0  0  0  0  0
   -5.3724   -6.1879    8.6273 C   0  0  0  0  0  0  0  0  0  0  0  0
   -4.9670   -5.0770    9.5450 C   0  0  0  0  0  0  0  0  0  0  0  0
   -3.5571   -5.2010    9.9807 C   0  0  0  0  0  0  0  0  0  0  0  0
   -2.4094   -5.6363    9.3266 C   0  0  0  0  0  0  0  0  0  0  0  0
   -1.1723   -5.7764    9.8762 C   0  0  0  0  0  0  0  0  0  0  0  0
   -1.0602   -5.4429   11.2204 C   0  0  0  0  0  0  0  0  0  0  0  0
   -2.1595   -4.9996   11.9252 C   0  0  0  0  0  0  0  0  0  0  0  0
   -1.9370   -4.6775   13.2423 C   0  0  0  0  0  0  0  0  0  0  0  0
   -2.9630   -4.2100   14.0164 C   0  0  0  0  0  0  0  0  0  0  0  0
   -4.2053   -4.0699   13.4576 C   0  0  0  0  0  0  0  0  0  0  0  0
   -4.4076   -4.4020   12.1242 C   0  0  0  0  0  0  0  0  0  0  0  0
   -3.4148   -4.8765   11.3056 C   0  0  0  0  0  0  0  0  0  0  0  0
   -2.3602   -5.9202    7.9076 C   0  0  0  0  0  0  0  0  0  0  0  0
   -1.1800   -5.5579    7.3110 C   0  0  0  0  0  0  0  0  0  0  0  0
   -1.0600   -5.7068    5.9345 C   0  0  0  0  0  0  0  0  0  0  0  0
   -2.1139   -6.2101    5.1635 C   0  0  0  0  0  0  0  0  0  0  0  0
   -1.9903   -6.3534    3.8069 O   0  0  0  0  0  0  0  0  0  0  0  0
   -3.3024   -6.5712    5.7706 C   0  0  0  0  0  0  0  0  0  0  0  0
   -3.4055   -6.4265    7.1214 C   0  0  0  0  0  0  0  0  0  0  0  0
   -4.6852   -6.8628    7.6181 C   0  0  0  0  0  0  0  0  0  0  0  0
   -5.1517   -7.9341    6.9363 C   0  0  0  0  0  0  0  0  0  0  0  0
   -1.6378   -7.2240    3.4189 H   0  0  0  0  0  0  0  0  0  0  0  0
   -5.3480   -3.5656   14.2587 C   0  0  0  0  0  0  0  0  0  0  0  0
   -6.4896   -4.2894   13.9652 O   0  0  0  0  0  0  0  0  0  0  0  0
   -6.7725   -4.1029   13.0413 H   0  0  0  0  0  0  0  0  0  0  0  0
   -8.3065   -9.7691    6.6302 C   0  0  0  0  0  0  0  0  0  0  0  0
   -6.9253   -9.4602    6.5905 O   0  0  0  0  0  0  0  0  0  0  0  0
   -4.4332   -8.5816    5.9719 O   0  0  0  0  0  0  0  0  0  0  0  0
   -3.3485   -9.4647    6.2749 C   0  0  0  0  0  0  0  0  0  0  0  0
 29 30  1  0  0  0
 30  1  1  0  0  0
  1  2  2  0  0  0
  2  3  1  0  0  0
  3  4  2  0  0  0
  4  5  1  0  0  0
  5  6  1  0  0  0
  6  7  2  0  0  0
  7  8  1  0  0  0
  8  9  2  0  0  0
  9 10  1  0  0  0
 10 11  2  0  0  0
 11 12  1  0  0  0
 12 13  2  0  0  0
 13 26  1  0  0  0
 26 27  1  0  0  0
 13 14  1  0  0  0
 14 15  2  0  0  0
  7 16  1  0  0  0
 16 17  2  0  0  0
 17 18  1  0  0  0
 18 19  2  0  0  0
 19 20  1  0  0  0
 19 21  1  0  0  0
 21 22  2  0  0  0
 22 23  1  0  0  0
 23 24  2  0  0  0
 24 31  1  0  0  0
 31 32  1  0  0  0
 24  1  1  0  0  0
 23  4  1  0  0  0
 15  6  1  0  0  0
 22 16  1  0  0  0
 15 10  1  0  0  0
 27 28  1  0  0  0
 20 25  1  0  0  0
M  END
> <minimizedAffinity>
-1.73430

> <CNNscore>
0.3527616560

> <CNNaffinity>
5.2495470047

> <CNN_VS>
1.8518389463

> <CNNaffinity_variance>
0.7768905759

$$$$
