[H]c1c([H])c(S(=O)(=O)N2C([H])([H])C([H])([H])C([H])(c3c([H])n([H])c4c([H])c([H])c(Cl)c([H])c34)C([H])([H])C2([H])[H])c([H])c([H])c1C(F)(F)F


 30 33  0  0  0  0  0  0  0  0999 V2000
   -6.8591   -7.4345    7.7106 N   0  0  0  0  0  0  0  0  0  0  0  0
   -7.8947   -6.4963    7.7420 C   0  0  0  0  0  0  0  0  0  0  0  0
   -9.2678   -6.9239    7.3135 C   0  0  0  0  0  0  0  0  0  0  0  0
   -9.5646   -8.3188    7.6624 C   0  0  0  0  0  0  0  0  0  0  0  0
   -8.4298   -9.2750    7.4050 C   0  0  0  0  0  0  0  0  0  0  0  0
   -7.1968   -8.7530    8.1568 C   0  0  0  0  0  0  0  0  0  0  0  0
  -10.8981   -8.8317    7.6432 C   0  0  0  0  0  0  0  0  0  0  0  0
  -11.4292   -9.8958    6.9291 C   0  0  0  0  0  0  0  0  0  0  0  0
  -12.7684   -9.9122    7.0610 N   0  0  0  0  0  0  0  0  0  0  0  0
  -13.1725   -8.8897    7.8567 C   0  0  0  0  0  0  0  0  0  0  0  0
  -14.4027   -8.5113    8.3517 C   0  0  0  0  0  0  0  0  0  0  0  0
  -14.5030   -7.4407    9.2299 C   0  0  0  0  0  0  0  0  0  0  0  0
  -13.3425   -6.7750    9.5847 C   0  0  0  0  0  0  0  0  0  0  0  0
  -13.4159   -5.4254   10.7213 Cl  0  0  0  0  0  0  0  0  0  0  0  0
  -12.1135   -7.1562    9.0833 C   0  0  0  0  0  0  0  0  0  0  0  0
  -12.0363   -8.2265    8.2136 C   0  0  0  0  0  0  0  0  0  0  0  0
  -13.4374  -10.5835    6.6232 H   0  0  0  0  0  0  0  0  0  0  0  0
   -5.7561   -7.4362    6.4230 S   0  0  0  0  0  0  0  0  0  0  0  0
   -6.4239   -7.4512    5.0656 O   0  0  0  0  0  0  0  0  0  0  0  0
   -4.8922   -8.7093    6.5038 O   0  0  0  0  0  0  0  0  0  0  0  0
   -3.1513   -3.8298    7.1294 C   0  0  0  0  0  0  0  0  0  0  0  0
   -3.5741   -4.0943    5.8568 C   0  0  0  0  0  0  0  0  0  0  0  0
   -4.3760   -5.2248    5.6076 C   0  0  0  0  0  0  0  0  0  0  0  0
   -4.7269   -6.0514    6.6159 C   0  0  0  0  0  0  0  0  0  0  0  0
   -4.2874   -5.7801    7.9125 C   0  0  0  0  0  0  0  0  0  0  0  0
   -3.5090   -4.6834    8.1747 C   0  0  0  0  0  0  0  0  0  0  0  0
   -1.6682   -2.1945    6.3204 F   0  0  0  0  0  0  0  0  0  0  0  0
   -2.3248   -2.6191    7.4624 C   0  0  0  0  0  0  0  0  0  0  0  0
   -1.4503   -2.9623    8.4609 F   0  0  0  0  0  0  0  0  0  0  0  0
   -3.1939   -1.6489    7.8466 F   0  0  0  0  0  0  0  0  0  0  0  0
 27 28  1  0  0  0
 28 29  1  0  0  0
 28 30  1  0  0  0
 28 21  1  0  0  0
 21 22  2  0  0  0
 22 23  1  0  0  0
 23 24  2  0  0  0
 24 25  1  0  0  0
 25 26  2  0  0  0
 24 18  1  0  0  0
 18 19  2  0  0  0
 18 20  2  0  0  0
 18  1  1  0  0  0
  1  2  1  0  0  0
  2  3  1  0  0  0
  3  4  1  0  0  0
  4  5  1  0  0  0
  5  6  1  0  0  0
  4  7  1  0  0  0
  7  8  2  0  0  0
  8  9  1  0  0  0
  9 10  1  0  0  0
 10 11  2  0  0  0
 11 12  1  0  0  0
 12 13  2  0  0  0
 13 14  1  0  0  0
 13 15  1  0  0  0
 15 16  2  0  0  0
 26 21  1  0  0  0
  6  1  1  0  0  0
 16  7  1  0  0  0
 16 10  1  0  0  0
  9 17  1  0  0  0
M  END
> <minimizedAffinity>
-8.35085

> <CNNscore>
0.5101175904

> <CNNaffinity>
6.7879819870

> <CNN_VS>
3.4626691341

> <CNNaffinity_variance>
0.0235248189

$$$$
[H]c1c([H])c(S(=O)(=O)N2C([H])([H])C([H])([H])C([H])(c3c([H])n([H])c4c([H])c([H])c(Cl)c([H])c34)C([H])([H])C2([H])[H])c([H])c([H])c1C(F)(F)F


 30 33  0  0  0  0  0  0  0  0999 V2000
   -6.5181   -7.1642    6.4575 N   0  0  0  0  0  0  0  0  0  0  0  0
   -6.8214   -8.4542    6.0133 C   0  0  0  0  0  0  0  0  0  0  0  0
   -7.9132   -9.2166    6.7052 C   0  0  0  0  0  0  0  0  0  0  0  0
   -9.0052   -8.3521    7.1697 C   0  0  0  0  0  0  0  0  0  0  0  0
   -8.5471   -7.0666    7.8070 C   0  0  0  0  0  0  0  0  0  0  0  0
   -7.6394   -6.3423    6.8023 C   0  0  0  0  0  0  0  0  0  0  0  0
  -10.2731   -8.8844    7.5576 C   0  0  0  0  0  0  0  0  0  0  0  0
  -10.8809  -10.0790    7.1999 C   0  0  0  0  0  0  0  0  0  0  0  0
  -12.1527  -10.0950    7.6398 N   0  0  0  0  0  0  0  0  0  0  0  0
  -12.4335   -8.9431    8.3003 C   0  0  0  0  0  0  0  0  0  0  0  0
  -13.5434   -8.4981    8.9871 C   0  0  0  0  0  0  0  0  0  0  0  0
  -13.5134   -7.2769    9.6468 C   0  0  0  0  0  0  0  0  0  0  0  0
  -12.3483   -6.5317    9.5906 C   0  0  0  0  0  0  0  0  0  0  0  0
  -12.2523   -4.9853   10.4381 Cl  0  0  0  0  0  0  0  0  0  0  0  0
  -11.2409   -6.9807    8.8986 C   0  0  0  0  0  0  0  0  0  0  0  0
  -11.2914   -8.2004    8.2522 C   0  0  0  0  0  0  0  0  0  0  0  0
  -12.8579  -10.8525    7.5037 H   0  0  0  0  0  0  0  0  0  0  0  0
   -5.1780   -6.9078    7.4639 S   0  0  0  0  0  0  0  0  0  0  0  0
   -4.2306   -8.0864    7.5074 O   0  0  0  0  0  0  0  0  0  0  0  0
   -5.6696   -6.6833    8.9068 O   0  0  0  0  0  0  0  0  0  0  0  0
   -3.0823   -3.2616    5.8505 C   0  0  0  0  0  0  0  0  0  0  0  0
   -3.0814   -3.4749    7.2006 C   0  0  0  0  0  0  0  0  0  0  0  0
   -3.7435   -4.5990    7.7309 C   0  0  0  0  0  0  0  0  0  0  0  0
   -4.3823   -5.4654    6.9158 C   0  0  0  0  0  0  0  0  0  0  0  0
   -4.3853   -5.2396    5.5385 C   0  0  0  0  0  0  0  0  0  0  0  0
   -3.7442   -4.1530    5.0040 C   0  0  0  0  0  0  0  0  0  0  0  0
   -1.0817   -2.0308    5.7440 F   0  0  0  0  0  0  0  0  0  0  0  0
   -2.3623   -2.1004    5.2236 C   0  0  0  0  0  0  0  0  0  0  0  0
   -3.0842   -0.9634    5.4802 F   0  0  0  0  0  0  0  0  0  0  0  0
   -2.2745   -2.3687    3.8953 F   0  0  0  0  0  0  0  0  0  0  0  0
 27 28  1  0  0  0
 28 29  1  0  0  0
 28 30  1  0  0  0
 28 21  1  0  0  0
 21 22  2  0  0  0
 22 23  1  0  0  0
 23 24  2  0  0  0
 24 25  1  0  0  0
 25 26  2  0  0  0
 24 18  1  0  0  0
 18 19  2  0  0  0
 18 20  2  0  0  0
 18  1  1  0  0  0
  1  2  1  0  0  0
  2  3  1  0  0  0
  3  4  1  0  0  0
  4  5  1  0  0  0
  5  6  1  0  0  0
  4  7  1  0  0  0
  7  8  2  0  0  0
  8  9  1  0  0  0
  9 10  1  0  0  0
 10 11  2  0  0  0
 11 12  1  0  0  0
 12 13  2  0  0  0
 13 14  1  0  0  0
 13 15  1  0  0  0
 15 16  2  0  0  0
 26 21  1  0  0  0
  6  1  1  0  0  0
 16  7  1  0  0  0
 16 10  1  0  0  0
  9 17  1  0  0  0
M  END
> <minimizedAffinity>
-8.35038

> <CNNscore>
0.4862361550

> <CNNaffinity>
6.6671142578

> <CNN_VS>
3.2417919636

> <CNNaffinity_variance>
0.0234052129

$$$$
[H]c1c([H])c(S(=O)(=O)N2C([H])([H])C([H])([H])C([H])(c3c([H])n([H])c4c([H])c([H])c(Cl)c([H])c34)C([H])([H])C2([H])[H])c([H])c([H])c1C(F)(F)F


 30 33  0  0  0  0  0  0  0  0999 V2000
  -15.8123   -8.8258    7.2124 N   0  0  0  0  0  0  0  0  0  0  0  0
  -14.7174   -9.0593    6.3756 C   0  0  0  0  0  0  0  0  0  0  0  0
  -13.4732   -8.2436    6.5723 C   0  0  0  0  0  0  0  0  0  0  0  0
  -13.2298   -7.9069    7.9805 C   0  0  0  0  0  0  0  0  0  0  0  0
  -14.4618   -7.4840    8.7366 C   0  0  0  0  0  0  0  0  0  0  0  0
  -15.5064   -8.6003    8.5934 C   0  0  0  0  0  0  0  0  0  0  0  0
  -11.9620   -7.4254    8.4307 C   0  0  0  0  0  0  0  0  0  0  0  0
  -11.6440   -6.2484    9.0923 C   0  0  0  0  0  0  0  0  0  0  0  0
  -10.3072   -6.1061    9.1557 N   0  0  0  0  0  0  0  0  0  0  0  0
   -9.6958   -7.1619    8.5612 C   0  0  0  0  0  0  0  0  0  0  0  0
   -8.3736   -7.5271    8.4200 C   0  0  0  0  0  0  0  0  0  0  0  0
   -8.0426   -8.7337    7.8183 C   0  0  0  0  0  0  0  0  0  0  0  0
   -9.0709   -9.5446    7.3700 C   0  0  0  0  0  0  0  0  0  0  0  0
   -8.7006  -11.1020    6.6242 Cl  0  0  0  0  0  0  0  0  0  0  0  0
  -10.3932   -9.1724    7.5111 C   0  0  0  0  0  0  0  0  0  0  0  0
  -10.7001   -7.9691    8.1160 C   0  0  0  0  0  0  0  0  0  0  0  0
   -9.7766   -5.3117    9.5766 H   0  0  0  0  0  0  0  0  0  0  0  0
  -17.1136   -7.8879    6.6633 S   0  0  0  0  0  0  0  0  0  0  0  0
  -17.9940   -7.3764    7.7820 O   0  0  0  0  0  0  0  0  0  0  0  0
  -18.0097   -8.7542    5.7575 O   0  0  0  0  0  0  0  0  0  0  0  0
  -15.2929   -4.4565    4.3829 C   0  0  0  0  0  0  0  0  0  0  0  0
  -16.5207   -4.9200    4.0006 C   0  0  0  0  0  0  0  0  0  0  0  0
  -17.1038   -6.0023    4.6875 C   0  0  0  0  0  0  0  0  0  0  0  0
  -16.4575   -6.5878    5.7181 C   0  0  0  0  0  0  0  0  0  0  0  0
  -15.2014   -6.1145    6.1005 C   0  0  0  0  0  0  0  0  0  0  0  0
  -14.6193   -5.0609    5.4460 C   0  0  0  0  0  0  0  0  0  0  0  0
  -14.1634   -2.4162    4.6823 F   0  0  0  0  0  0  0  0  0  0  0  0
  -14.6369   -3.2820    3.7120 C   0  0  0  0  0  0  0  0  0  0  0  0
  -15.5641   -2.6846    2.8977 F   0  0  0  0  0  0  0  0  0  0  0  0
  -13.5781   -3.7728    3.0174 F   0  0  0  0  0  0  0  0  0  0  0  0
 27 28  1  0  0  0
 28 29  1  0  0  0
 28 30  1  0  0  0
 28 21  1  0  0  0
 21 22  2  0  0  0
 22 23  1  0  0  0
 23 24  2  0  0  0
 24 25  1  0  0  0
 25 26  2  0  0  0
 24 18  1  0  0  0
 18 19  2  0  0  0
 18 20  2  0  0  0
 18  1  1  0  0  0
  1  2  1  0  0  0
  2  3  1  0  0  0
  3  4  1  0  0  0
  4  5  1  0  0  0
  5  6  1  0  0  0
  4  7  1  0  0  0
  7  8  2  0  0  0
  8  9  1  0  0  0
  9 10  1  0  0  0
 10 11  2  0  0  0
 11 12  1  0  0  0
 12 13  2  0  0  0
 13 14  1  0  0  0
 13 15  1  0  0  0
 15 16  2  0  0  0
 26 21  1  0  0  0
  6  1  1  0  0  0
 16  7  1  0  0  0
 16 10  1  0  0  0
  9 17  1  0  0  0
M  END
> <minimizedAffinity>
-5.94507

> <CNNscore>
0.4515629411

> <CNNaffinity>
7.1632471085

> <CNN_VS>
3.2346570492

> <CNNaffinity_variance>
0.4507089257

$$$$
[H]c1c([H])c(S(=O)(=O)N2C([H])([H])C([H])([H])C([H])(c3c([H])n([H])c4c([H])c([H])c(Cl)c([H])c34)C([H])([H])C2([H])[H])c([H])c([H])c1C(F)(F)F


 30 33  0  0  0  0  0  0  0  0999 V2000
  -16.0173   -7.4891    4.4672 N   0  0  0  0  0  0  0  0  0  0  0  0
  -15.8886   -8.6513    5.2328 C   0  0  0  0  0  0  0  0  0  0  0  0
  -17.0931   -9.1715    5.9612 C   0  0  0  0  0  0  0  0  0  0  0  0
  -18.3449   -8.9397    5.2299 C   0  0  0  0  0  0  0  0  0  0  0  0
  -18.4508   -7.5742    4.6034 C   0  0  0  0  0  0  0  0  0  0  0  0
  -17.2232   -7.3747    3.7028 C   0  0  0  0  0  0  0  0  0  0  0  0
  -19.5529   -9.6223    5.5709 C   0  0  0  0  0  0  0  0  0  0  0  0
  -20.7417   -9.7289    4.8640 C   0  0  0  0  0  0  0  0  0  0  0  0
  -21.6838  -10.3005    5.6366 N   0  0  0  0  0  0  0  0  0  0  0  0
  -21.1700  -10.5987    6.8569 C   0  0  0  0  0  0  0  0  0  0  0  0
  -21.6844  -11.2405    7.9638 C   0  0  0  0  0  0  0  0  0  0  0  0
  -20.8794  -11.4793    9.0696 C   0  0  0  0  0  0  0  0  0  0  0  0
  -19.5625  -11.0555    9.0236 C   0  0  0  0  0  0  0  0  0  0  0  0
  -18.4921  -11.3624   10.3942 Cl  0  0  0  0  0  0  0  0  0  0  0  0
  -19.0536  -10.4104    7.9137 C   0  0  0  0  0  0  0  0  0  0  0  0
  -19.8712  -10.1862    6.8231 C   0  0  0  0  0  0  0  0  0  0  0  0
  -22.6779  -10.4918    5.3820 H   0  0  0  0  0  0  0  0  0  0  0  0
  -15.4856   -6.0031    5.0868 S   0  0  0  0  0  0  0  0  0  0  0  0
  -16.5989   -4.9917    5.2484 O   0  0  0  0  0  0  0  0  0  0  0  0
  -14.4679   -5.3865    4.1080 O   0  0  0  0  0  0  0  0  0  0  0  0
  -13.5906   -6.9295    9.0668 C   0  0  0  0  0  0  0  0  0  0  0  0
  -13.1235   -5.8632    8.3503 C   0  0  0  0  0  0  0  0  0  0  0  0
  -13.6886   -5.5628    7.0959 C   0  0  0  0  0  0  0  0  0  0  0  0
  -14.6856   -6.3225    6.5941 C   0  0  0  0  0  0  0  0  0  0  0  0
  -15.1547   -7.4137    7.3271 C   0  0  0  0  0  0  0  0  0  0  0  0
  -14.6192   -7.7199    8.5505 C   0  0  0  0  0  0  0  0  0  0  0  0
  -13.5321   -6.3622   11.3479 F   0  0  0  0  0  0  0  0  0  0  0  0
  -13.0522   -7.2769   10.4267 C   0  0  0  0  0  0  0  0  0  0  0  0
  -11.6830   -7.2672   10.3575 F   0  0  0  0  0  0  0  0  0  0  0  0
  -13.5458   -8.5030   10.7384 F   0  0  0  0  0  0  0  0  0  0  0  0
 27 28  1  0  0  0
 28 29  1  0  0  0
 28 30  1  0  0  0
 28 21  1  0  0  0
 21 22  2  0  0  0
 22 23  1  0  0  0
 23 24  2  0  0  0
 24 25  1  0  0  0
 25 26  2  0  0  0
 24 18  1  0  0  0
 18 19  2  0  0  0
 18 20  2  0  0  0
 18  1  1  0  0  0
  1  2  1  0  0  0
  2  3  1  0  0  0
  3  4  1  0  0  0
  4  5  1  0  0  0
  5  6  1  0  0  0
  4  7  1  0  0  0
  7  8  2  0  0  0
  8  9  1  0  0  0
  9 10  1  0  0  0
 10 11  2  0  0  0
 11 12  1  0  0  0
 12 13  2  0  0  0
 13 14  1  0  0  0
 13 15  1  0  0  0
 15 16  2  0  0  0
 26 21  1  0  0  0
  6  1  1  0  0  0
 16  7  1  0  0  0
 16 10  1  0  0  0
  9 17  1  0  0  0
M  END
> <minimizedAffinity>
8.66566

> <CNNscore>
0.4477103949

> <CNNaffinity>
6.6101126671

> <CNN_VS>
2.9594161510

> <CNNaffinity_variance>
0.4996574521

$$$$
[H]c1c([H])c(S(=O)(=O)N2C([H])([H])C([H])([H])C([H])(c3c([H])n([H])c4c([H])c([H])c(Cl)c([H])c34)C([H])([H])C2([H])[H])c([H])c([H])c1C(F)(F)F


 30 33  0  0  0  0  0  0  0  0999 V2000
  -15.6797   -9.2186    5.9377 N   0  0  0  0  0  0  0  0  0  0  0  0
  -14.5213   -9.9663    5.7086 C   0  0  0  0  0  0  0  0  0  0  0  0
  -13.1875   -9.3084    5.9089 C   0  0  0  0  0  0  0  0  0  0  0  0
  -13.1941   -8.3294    7.0030 C   0  0  0  0  0  0  0  0  0  0  0  0
  -14.4136   -7.4461    7.0344 C   0  0  0  0  0  0  0  0  0  0  0  0
  -15.6503   -8.3551    7.0802 C   0  0  0  0  0  0  0  0  0  0  0  0
  -11.9827   -7.8296    7.5726 C   0  0  0  0  0  0  0  0  0  0  0  0
  -10.6652   -8.1367    7.2658 C   0  0  0  0  0  0  0  0  0  0  0  0
   -9.8425   -7.5819    8.1750 N   0  0  0  0  0  0  0  0  0  0  0  0
  -10.5613   -6.8920    9.0966 C   0  0  0  0  0  0  0  0  0  0  0  0
  -10.2054   -6.1038   10.1707 C   0  0  0  0  0  0  0  0  0  0  0  0
  -11.1805   -5.4428   10.9055 C   0  0  0  0  0  0  0  0  0  0  0  0
  -12.5029   -5.6017   10.5290 C   0  0  0  0  0  0  0  0  0  0  0  0
  -13.7764   -4.7580   11.4152 Cl  0  0  0  0  0  0  0  0  0  0  0  0
  -12.8539   -6.3949    9.4545 C   0  0  0  0  0  0  0  0  0  0  0  0
  -11.8672   -7.0407    8.7351 C   0  0  0  0  0  0  0  0  0  0  0  0
   -8.8020   -7.6569    8.2131 H   0  0  0  0  0  0  0  0  0  0  0  0
  -16.5322   -8.5549    4.6310 S   0  0  0  0  0  0  0  0  0  0  0  0
  -18.0291   -8.7460    4.7368 O   0  0  0  0  0  0  0  0  0  0  0  0
  -16.0882   -9.2572    3.3335 O   0  0  0  0  0  0  0  0  0  0  0  0
  -15.2190   -4.2524    4.3982 C   0  0  0  0  0  0  0  0  0  0  0  0
  -16.5023   -4.5267    4.7807 C   0  0  0  0  0  0  0  0  0  0  0  0
  -16.9416   -5.8631    4.8456 C   0  0  0  0  0  0  0  0  0  0  0  0
  -16.1057   -6.8751    4.5291 C   0  0  0  0  0  0  0  0  0  0  0  0
  -14.7982   -6.5892    4.1334 C   0  0  0  0  0  0  0  0  0  0  0  0
  -14.3520   -5.2954    4.0670 C   0  0  0  0  0  0  0  0  0  0  0  0
  -14.9973   -2.2024    5.5281 F   0  0  0  0  0  0  0  0  0  0  0  0
  -14.6826   -2.8491    4.3456 C   0  0  0  0  0  0  0  0  0  0  0  0
  -15.2316   -2.2243    3.2557 F   0  0  0  0  0  0  0  0  0  0  0  0
  -13.3315   -2.9526    4.2565 F   0  0  0  0  0  0  0  0  0  0  0  0
 27 28  1  0  0  0
 28 29  1  0  0  0
 28 30  1  0  0  0
 28 21  1  0  0  0
 21 22  2  0  0  0
 22 23  1  0  0  0
 23 24  2  0  0  0
 24 25  1  0  0  0
 25 26  2  0  0  0
 24 18  1  0  0  0
 18 19  2  0  0  0
 18 20  2  0  0  0
 18  1  1  0  0  0
  1  2  1  0  0  0
  2  3  1  0  0  0
  3  4  1  0  0  0
  4  5  1  0  0  0
  5  6  1  0  0  0
  4  7  1  0  0  0
  7  8  2  0  0  0
  8  9  1  0  0  0
  9 10  1  0  0  0
 10 11  2  0  0  0
 11 12  1  0  0  0
 12 13  2  0  0  0
 13 14  1  0  0  0
 13 15  1  0  0  0
 15 16  2  0  0  0
 26 21  1  0  0  0
  6  1  1  0  0  0
 16  7  1  0  0  0
 16 10  1  0  0  0
  9 17  1  0  0  0
M  END
> <minimizedAffinity>
-2.67363

> <CNNscore>
0.4111714065

> <CNNaffinity>
7.0720605850

> <CNN_VS>
2.9078290462

> <CNNaffinity_variance>
0.5275821686

$$$$
[H]c1c([H])c(S(=O)(=O)N2C([H])([H])C([H])([H])C([H])(c3c([H])n([H])c4c([H])c([H])c(Cl)c([H])c34)C([H])([H])C2([H])[H])c([H])c([H])c1C(F)(F)F


 30 33  0  0  0  0  0  0  0  0999 V2000
  -11.8551   -9.3389    6.6660 N   0  0  0  0  0  0  0  0  0  0  0  0
  -10.7774  -10.1834    6.3854 C   0  0  0  0  0  0  0  0  0  0  0  0
   -9.3933   -9.6037    6.3670 C   0  0  0  0  0  0  0  0  0  0  0  0
   -9.2134   -8.5279    7.3498 C   0  0  0  0  0  0  0  0  0  0  0  0
  -10.3673   -7.5631    7.4281 C   0  0  0  0  0  0  0  0  0  0  0  0
  -11.6405   -8.3758    7.7043 C   0  0  0  0  0  0  0  0  0  0  0  0
   -7.9162   -8.0621    7.7263 C   0  0  0  0  0  0  0  0  0  0  0  0
   -6.7046   -8.1762    7.0604 C   0  0  0  0  0  0  0  0  0  0  0  0
   -5.7027   -7.7664    7.8600 N   0  0  0  0  0  0  0  0  0  0  0  0
   -6.1959   -7.3638    9.0586 C   0  0  0  0  0  0  0  0  0  0  0  0
   -5.6134   -6.8048   10.1766 C   0  0  0  0  0  0  0  0  0  0  0  0
   -6.3998   -6.4116   11.2512 C   0  0  0  0  0  0  0  0  0  0  0  0
   -7.7684   -6.5990   11.1632 C   0  0  0  0  0  0  0  0  0  0  0  0
   -8.8126   -6.0881   12.4926 Cl  0  0  0  0  0  0  0  0  0  0  0  0
   -8.3459   -7.1623   10.0425 C   0  0  0  0  0  0  0  0  0  0  0  0
   -7.5451   -7.5431    8.9834 C   0  0  0  0  0  0  0  0  0  0  0  0
   -4.6827   -7.7560    7.6384 H   0  0  0  0  0  0  0  0  0  0  0  0
  -12.8164   -8.7435    5.4026 S   0  0  0  0  0  0  0  0  0  0  0  0
  -12.8255   -9.6422    4.1857 O   0  0  0  0  0  0  0  0  0  0  0  0
  -12.2557   -7.3840    4.9430 O   0  0  0  0  0  0  0  0  0  0  0  0
  -16.8914   -8.1710    7.2347 C   0  0  0  0  0  0  0  0  0  0  0  0
  -16.8070   -8.4727    5.9042 C   0  0  0  0  0  0  0  0  0  0  0  0
  -15.5439   -8.6406    5.3046 C   0  0  0  0  0  0  0  0  0  0  0  0
  -14.4158   -8.5019    6.0333 C   0  0  0  0  0  0  0  0  0  0  0  0
  -14.5075   -8.1879    7.3901 C   0  0  0  0  0  0  0  0  0  0  0  0
  -15.7275   -8.0235    7.9916 C   0  0  0  0  0  0  0  0  0  0  0  0
  -18.5815   -6.6830    7.9115 F   0  0  0  0  0  0  0  0  0  0  0  0
  -18.2111   -8.0163    7.9377 C   0  0  0  0  0  0  0  0  0  0  0  0
  -18.0688   -8.4855    9.2181 F   0  0  0  0  0  0  0  0  0  0  0  0
  -19.1183   -8.7306    7.2229 F   0  0  0  0  0  0  0  0  0  0  0  0
 27 28  1  0  0  0
 28 29  1  0  0  0
 28 30  1  0  0  0
 28 21  1  0  0  0
 21 22  2  0  0  0
 22 23  1  0  0  0
 23 24  2  0  0  0
 24 25  1  0  0  0
 25 26  2  0  0  0
 24 18  1  0  0  0
 18 19  2  0  0  0
 18 20  2  0  0  0
 18  1  1  0  0  0
  1  2  1  0  0  0
  2  3  1  0  0  0
  3  4  1  0  0  0
  4  5  1  0  0  0
  5  6  1  0  0  0
  4  7  1  0  0  0
  7  8  2  0  0  0
  8  9  1  0  0  0
  9 10  1  0  0  0
 10 11  2  0  0  0
 11 12  1  0  0  0
 12 13  2  0  0  0
 13 14  1  0  0  0
 13 15  1  0  0  0
 15 16  2  0  0  0
 26 21  1  0  0  0
  6  1  1  0  0  0
 16  7  1  0  0  0
 16 10  1  0  0  0
  9 17  1  0  0  0
M  END
> <minimizedAffinity>
17.59528

> <CNNscore>
0.4087641239

> <CNNaffinity>
6.3211660385

> <CNN_VS>
2.5838658810

> <CNNaffinity_variance>
2.5227935314

$$$$
[H]c1c([H])c(S(=O)(=O)N2C([H])([H])C([H])([H])C([H])(c3c([H])n([H])c4c([H])c([H])c(Cl)c([H])c34)C([H])([H])C2([H])[H])c([H])c([H])c1C(F)(F)F


 30 33  0  0  0  0  0  0  0  0999 V2000
  -14.8148   -9.3728    5.5974 N   0  0  0  0  0  0  0  0  0  0  0  0
  -13.6965  -10.1699    5.8575 C   0  0  0  0  0  0  0  0  0  0  0  0
  -12.4020   -9.5007    6.2157 C   0  0  0  0  0  0  0  0  0  0  0  0
  -12.5932   -8.2719    6.9961 C   0  0  0  0  0  0  0  0  0  0  0  0
  -13.7130   -7.3941    6.5022 C   0  0  0  0  0  0  0  0  0  0  0  0
  -14.9915   -8.2435    6.4607 C   0  0  0  0  0  0  0  0  0  0  0  0
  -11.5174   -7.6582    7.7086 C   0  0  0  0  0  0  0  0  0  0  0  0
  -10.1478   -7.7793    7.5244 C   0  0  0  0  0  0  0  0  0  0  0  0
   -9.4952   -7.1795    8.5371 N   0  0  0  0  0  0  0  0  0  0  0  0
  -10.3826   -6.6399    9.4108 C   0  0  0  0  0  0  0  0  0  0  0  0
  -10.2368   -5.8770   10.5503 C   0  0  0  0  0  0  0  0  0  0  0  0
  -11.3555   -5.3873   11.2108 C   0  0  0  0  0  0  0  0  0  0  0  0
  -12.6039   -5.6885   10.6944 C   0  0  0  0  0  0  0  0  0  0  0  0
  -14.0553   -5.0641   11.4831 Cl  0  0  0  0  0  0  0  0  0  0  0  0
  -12.7441   -6.4558    9.5548 C   0  0  0  0  0  0  0  0  0  0  0  0
  -11.6174   -6.9298    8.9114 C   0  0  0  0  0  0  0  0  0  0  0  0
   -8.4623   -7.1256    8.6780 H   0  0  0  0  0  0  0  0  0  0  0  0
  -15.2776   -9.0584    3.9969 S   0  0  0  0  0  0  0  0  0  0  0  0
  -15.8055  -10.2802    3.2778 O   0  0  0  0  0  0  0  0  0  0  0  0
  -14.0474   -8.5770    3.2041 O   0  0  0  0  0  0  0  0  0  0  0  0
  -18.1685   -5.6085    4.1708 C   0  0  0  0  0  0  0  0  0  0  0  0
  -18.6607   -6.8813    4.2501 C   0  0  0  0  0  0  0  0  0  0  0  0
  -17.7787   -7.9770    4.1818 C   0  0  0  0  0  0  0  0  0  0  0  0
  -16.4512   -7.7796    4.0348 C   0  0  0  0  0  0  0  0  0  0  0  0
  -15.9545   -6.4782    3.9484 C   0  0  0  0  0  0  0  0  0  0  0  0
  -16.7968   -5.3996    4.0156 C   0  0  0  0  0  0  0  0  0  0  0  0
  -18.7276   -3.6969    5.4205 F   0  0  0  0  0  0  0  0  0  0  0  0
  -19.0562   -4.3997    4.2744 C   0  0  0  0  0  0  0  0  0  0  0  0
  -20.3585   -4.8282    4.2895 F   0  0  0  0  0  0  0  0  0  0  0  0
  -18.7801   -3.6213    3.1965 F   0  0  0  0  0  0  0  0  0  0  0  0
 27 28  1  0  0  0
 28 29  1  0  0  0
 28 30  1  0  0  0
 28 21  1  0  0  0
 21 22  2  0  0  0
 22 23  1  0  0  0
 23 24  2  0  0  0
 24 25  1  0  0  0
 25 26  2  0  0  0
 24 18  1  0  0  0
 18 19  2  0  0  0
 18 20  2  0  0  0
 18  1  1  0  0  0
  1  2  1  0  0  0
  2  3  1  0  0  0
  3  4  1  0  0  0
  4  5  1  0  0  0
  5  6  1  0  0  0
  4  7  1  0  0  0
  7  8  2  0  0  0
  8  9  1  0  0  0
  9 10  1  0  0  0
 10 11  2  0  0  0
 11 12  1  0  0  0
 12 13  2  0  0  0
 13 14  1  0  0  0
 13 15  1  0  0  0
 15 16  2  0  0  0
 26 21  1  0  0  0
  6  1  1  0  0  0
 16  7  1  0  0  0
 16 10  1  0  0  0
  9 17  1  0  0  0
M  END
> <minimizedAffinity>
-1.50015

> <CNNscore>
0.4075789452

> <CNNaffinity>
6.7836380005

> <CNN_VS>
2.7648680210

> <CNNaffinity_variance>
0.4737121463

$$$$
[H]c1c([H])c(S(=O)(=O)N2C([H])([H])C([H])([H])C([H])(c3c([H])n([H])c4c([H])c([H])c(Cl)c([H])c34)C([H])([H])C2([H])[H])c([H])c([H])c1C(F)(F)F


 30 33  0  0  0  0  0  0  0  0999 V2000
  -14.4648   -9.3704    6.2842 N   0  0  0  0  0  0  0  0  0  0  0  0
  -13.3722  -10.1827    6.6003 C   0  0  0  0  0  0  0  0  0  0  0  0
  -12.0655   -9.5307    6.9458 C   0  0  0  0  0  0  0  0  0  0  0  0
  -12.2348   -8.2604    7.6623 C   0  0  0  0  0  0  0  0  0  0  0  0
  -13.3234   -7.3791    7.1086 C   0  0  0  0  0  0  0  0  0  0  0  0
  -14.6236   -8.1959    7.0885 C   0  0  0  0  0  0  0  0  0  0  0  0
  -11.1534   -7.6407    8.3608 C   0  0  0  0  0  0  0  0  0  0  0  0
  -11.1771   -6.7759    9.4453 C   0  0  0  0  0  0  0  0  0  0  0  0
   -9.9444   -6.2819    9.6635 N   0  0  0  0  0  0  0  0  0  0  0  0
   -9.0693   -6.7926    8.7606 C   0  0  0  0  0  0  0  0  0  0  0  0
   -7.7061   -6.6666    8.5952 C   0  0  0  0  0  0  0  0  0  0  0  0
   -7.0528   -7.3889    7.6058 C   0  0  0  0  0  0  0  0  0  0  0  0
   -7.8065   -8.2263    6.8018 C   0  0  0  0  0  0  0  0  0  0  0  0
   -7.0162   -9.1873    5.5486 Cl  0  0  0  0  0  0  0  0  0  0  0  0
   -9.1720   -8.3462    6.9697 C   0  0  0  0  0  0  0  0  0  0  0  0
   -9.8012   -7.6209    7.9627 C   0  0  0  0  0  0  0  0  0  0  0  0
   -9.6607   -5.5952   10.3967 H   0  0  0  0  0  0  0  0  0  0  0  0
  -14.8959   -9.1231    4.6632 S   0  0  0  0  0  0  0  0  0  0  0  0
  -15.5379  -10.3352    4.0253 O   0  0  0  0  0  0  0  0  0  0  0  0
  -13.6256   -8.8157    3.8473 O   0  0  0  0  0  0  0  0  0  0  0  0
  -17.7573   -5.6532    4.4131 C   0  0  0  0  0  0  0  0  0  0  0  0
  -16.4195   -5.3937    4.5200 C   0  0  0  0  0  0  0  0  0  0  0  0
  -15.5061   -6.4613    4.6160 C   0  0  0  0  0  0  0  0  0  0  0  0
  -15.9425   -7.7390    4.6071 C   0  0  0  0  0  0  0  0  0  0  0  0
  -17.3099   -7.9983    4.5038 C   0  0  0  0  0  0  0  0  0  0  0  0
  -18.2134   -6.9727    4.4067 C   0  0  0  0  0  0  0  0  0  0  0  0
  -18.7029   -3.7283    5.3769 F   0  0  0  0  0  0  0  0  0  0  0  0
  -18.7759   -4.5568    4.2707 C   0  0  0  0  0  0  0  0  0  0  0  0
  -20.0113   -5.1377    4.1438 F   0  0  0  0  0  0  0  0  0  0  0  0
  -18.4253   -3.8411    3.1713 F   0  0  0  0  0  0  0  0  0  0  0  0
 27 28  1  0  0  0
 28 29  1  0  0  0
 28 30  1  0  0  0
 28 21  1  0  0  0
 21 22  2  0  0  0
 22 23  1  0  0  0
 23 24  2  0  0  0
 24 25  1  0  0  0
 25 26  2  0  0  0
 24 18  1  0  0  0
 18 19  2  0  0  0
 18 20  2  0  0  0
 18  1  1  0  0  0
  1  2  1  0  0  0
  2  3  1  0  0  0
  3  4  1  0  0  0
  4  5  1  0  0  0
  5  6  1  0  0  0
  4  7  1  0  0  0
  7  8  2  0  0  0
  8  9  1  0  0  0
  9 10  1  0  0  0
 10 11  2  0  0  0
 11 12  1  0  0  0
 12 13  2  0  0  0
 13 14  1  0  0  0
 13 15  1  0  0  0
 15 16  2  0  0  0
 26 21  1  0  0  0
  6  1  1  0  0  0
 16  7  1  0  0  0
 16 10  1  0  0  0
  9 17  1  0  0  0
M  END
> <minimizedAffinity>
-4.19218

> <CNNscore>
0.3833536208

> <CNNaffinity>
7.1336317062

> <CNN_VS>
2.7347035408

> <CNNaffinity_variance>
1.0932283401

$$$$
[H]c1c([H])c(S(=O)(=O)N2C([H])([H])C([H])([H])C([H])(c3c([H])n([H])c4c([H])c([H])c(Cl)c([H])c34)C([H])([H])C2([H])[H])c([H])c([H])c1C(F)(F)F


 30 33  0  0  0  0  0  0  0  0999 V2000
  -13.0678   -8.9468    8.0176 N   0  0  0  0  0  0  0  0  0  0  0  0
  -14.3399   -9.1593    8.5562 C   0  0  0  0  0  0  0  0  0  0  0  0
  -15.5077   -8.4346    7.9538 C   0  0  0  0  0  0  0  0  0  0  0  0
  -15.3746   -8.2461    6.5039 C   0  0  0  0  0  0  0  0  0  0  0  0
  -13.9972   -7.8302    6.0588 C   0  0  0  0  0  0  0  0  0  0  0  0
  -12.9990   -8.8696    6.5890 C   0  0  0  0  0  0  0  0  0  0  0  0
  -16.4883   -7.8788    5.6876 C   0  0  0  0  0  0  0  0  0  0  0  0
  -17.6090   -8.6151    5.3322 C   0  0  0  0  0  0  0  0  0  0  0  0
  -18.3125   -7.9537    4.3948 N   0  0  0  0  0  0  0  0  0  0  0  0
  -17.7080   -6.7743    4.1018 C   0  0  0  0  0  0  0  0  0  0  0  0
  -18.0488   -5.7200    3.2810 C   0  0  0  0  0  0  0  0  0  0  0  0
  -17.2563   -4.5807    3.2419 C   0  0  0  0  0  0  0  0  0  0  0  0
  -16.1279   -4.5413    4.0426 C   0  0  0  0  0  0  0  0  0  0  0  0
  -15.1046   -3.1020    4.0490 Cl  0  0  0  0  0  0  0  0  0  0  0  0
  -15.7897   -5.6014    4.8603 C   0  0  0  0  0  0  0  0  0  0  0  0
  -16.5943   -6.7239    4.8863 C   0  0  0  0  0  0  0  0  0  0  0  0
  -19.1896   -8.2691    3.9247 H   0  0  0  0  0  0  0  0  0  0  0  0
  -11.9868   -7.8920    8.7880 S   0  0  0  0  0  0  0  0  0  0  0  0
  -11.9371   -8.0801   10.2882 O   0  0  0  0  0  0  0  0  0  0  0  0
  -12.4394   -6.4403    8.5400 O   0  0  0  0  0  0  0  0  0  0  0  0
   -7.9551   -8.2870    6.8184 C   0  0  0  0  0  0  0  0  0  0  0  0
   -8.6659   -9.4223    7.0910 C   0  0  0  0  0  0  0  0  0  0  0  0
   -9.9217   -9.3260    7.7209 C   0  0  0  0  0  0  0  0  0  0  0  0
  -10.4269   -8.1210    8.0610 C   0  0  0  0  0  0  0  0  0  0  0  0
   -9.6944   -6.9654    7.7859 C   0  0  0  0  0  0  0  0  0  0  0  0
   -8.4720   -7.0389    7.1711 C   0  0  0  0  0  0  0  0  0  0  0  0
   -6.7193   -9.1697    5.0233 F   0  0  0  0  0  0  0  0  0  0  0  0
   -6.6269   -8.3243    6.1152 C   0  0  0  0  0  0  0  0  0  0  0  0
   -5.6814   -8.7464    7.0139 F   0  0  0  0  0  0  0  0  0  0  0  0
   -6.3889   -7.0647    5.6672 F   0  0  0  0  0  0  0  0  0  0  0  0
 27 28  1  0  0  0
 28 29  1  0  0  0
 28 30  1  0  0  0
 28 21  1  0  0  0
 21 22  2  0  0  0
 22 23  1  0  0  0
 23 24  2  0  0  0
 24 25  1  0  0  0
 25 26  2  0  0  0
 24 18  1  0  0  0
 18 19  2  0  0  0
 18 20  2  0  0  0
 18  1  1  0  0  0
  1  2  1  0  0  0
  2  3  1  0  0  0
  3  4  1  0  0  0
  4  5  1  0  0  0
  5  6  1  0  0  0
  4  7  1  0  0  0
  7  8  2  0  0  0
  8  9  1  0  0  0
  9 10  1  0  0  0
 10 11  2  0  0  0
 11 12  1  0  0  0
 12 13  2  0  0  0
 13 14  1  0  0  0
 13 15  1  0  0  0
 15 16  2  0  0  0
 26 21  1  0  0  0
  6  1  1  0  0  0
 16  7  1  0  0  0
 16 10  1  0  0  0
  9 17  1  0  0  0
M  END
> <minimizedAffinity>
-8.95428

> <CNNscore>
0.3785995841

> <CNNaffinity>
7.1691160202

> <CNN_VS>
2.7142243385

> <CNNaffinity_variance>
0.1099853292

$$$$
[H]c1c([H])c(S(=O)(=O)N2C([H])([H])C([H])([H])C([H])(N([H])C(=O)c3c([H])n([H])c4c([H])c([H])c(Cl)c([H])c34)C([H])([H])C2([H])[H])c([H])c([H])c1OC([H])([H])[H]


 32 35  0  0  0  0  0  0  0  0999 V2000
  -11.6187   -7.8264    7.5516 N   0  0  0  0  0  0  0  0  0  0  0  0
  -12.8434   -7.8056    8.2824 C   0  0  0  0  0  0  0  0  0  0  0  0
  -13.4142   -9.1926    8.4993 C   0  0  0  0  0  0  0  0  0  0  0  0
  -13.6388   -9.8405    7.1547 C   0  0  0  0  0  0  0  0  0  0  0  0
  -12.4405   -9.7456    6.2684 C   0  0  0  0  0  0  0  0  0  0  0  0
  -11.3072   -9.1295    7.0546 C   0  0  0  0  0  0  0  0  0  0  0  0
  -14.8270   -9.2330    6.5824 N   0  0  0  0  0  0  0  0  0  0  0  0
  -14.9741   -8.9326    5.2242 C   0  0  0  0  0  0  0  0  0  0  0  0
  -14.0556   -9.1827    4.4118 O   0  0  0  0  0  0  0  0  0  0  0  0
  -15.5914   -9.0222    7.2444 H   0  0  0  0  0  0  0  0  0  0  0  0
  -16.1999   -8.3245    4.7406 C   0  0  0  0  0  0  0  0  0  0  0  0
  -17.4156   -8.9337    4.4677 C   0  0  0  0  0  0  0  0  0  0  0  0
  -18.2710   -7.9962    4.0426 N   0  0  0  0  0  0  0  0  0  0  0  0
  -17.7128   -6.7939    4.0106 C   0  0  0  0  0  0  0  0  0  0  0  0
  -18.1643   -5.5394    3.6569 C   0  0  0  0  0  0  0  0  0  0  0  0
  -17.3047   -4.4580    3.7391 C   0  0  0  0  0  0  0  0  0  0  0  0
  -15.9986   -4.6642    4.1791 C   0  0  0  0  0  0  0  0  0  0  0  0
  -14.9046   -3.2953    4.2850 Cl  0  0  0  0  0  0  0  0  0  0  0  0
  -15.5306   -5.9121    4.5369 C   0  0  0  0  0  0  0  0  0  0  0  0
  -16.4163   -6.9737    4.4432 C   0  0  0  0  0  0  0  0  0  0  0  0
  -19.2702   -8.1789    3.7641 H   0  0  0  0  0  0  0  0  0  0  0  0
  -10.3076   -7.1103    8.3736 S   0  0  0  0  0  0  0  0  0  0  0  0
   -9.2795   -8.2024    8.6228 O   0  0  0  0  0  0  0  0  0  0  0  0
   -9.6355   -6.0455    7.5845 O   0  0  0  0  0  0  0  0  0  0  0  0
  -11.5390   -5.3771   12.4199 C   0  0  0  0  0  0  0  0  0  0  0  0
  -10.2305   -5.7087   12.1394 C   0  0  0  0  0  0  0  0  0  0  0  0
   -9.8358   -6.2310   10.9291 C   0  0  0  0  0  0  0  0  0  0  0  0
  -10.7692   -6.4480    9.9203 C   0  0  0  0  0  0  0  0  0  0  0  0
  -12.0757   -6.1136   10.2091 C   0  0  0  0  0  0  0  0  0  0  0  0
  -12.4728   -5.5878   11.4275 C   0  0  0  0  0  0  0  0  0  0  0  0
  -10.8721   -4.4675   14.5559 C   0  0  0  0  0  0  0  0  0  0  0  0
  -11.8980   -4.8502   13.6590 O   0  0  0  0  0  0  0  0  0  0  0  0
 31 32  1  0  0  0
 32 25  1  0  0  0
 25 26  2  0  0  0
 26 27  1  0  0  0
 27 28  2  0  0  0
 28 29  1  0  0  0
 29 30  2  0  0  0
 28 22  1  0  0  0
 22 23  2  0  0  0
 22 24  2  0  0  0
 22  1  1  0  0  0
  1  2  1  0  0  0
  2  3  1  0  0  0
  3  4  1  0  0  0
  4  5  1  0  0  0
  5  6  1  0  0  0
  4  7  1  0  0  0
  7  8  1  0  0  0
  8  9  2  0  0  0
  8 11  1  0  0  0
 11 12  2  0  0  0
 12 13  1  0  0  0
 13 14  1  0  0  0
 14 15  2  0  0  0
 15 16  1  0  0  0
 16 17  2  0  0  0
 17 18  1  0  0  0
 17 19  1  0  0  0
 19 20  2  0  0  0
 30 25  1  0  0  0
  6  1  1  0  0  0
 20 11  1  0  0  0
 20 14  1  0  0  0
  7 10  1  0  0  0
 13 21  1  0  0  0
M  END
> <minimizedAffinity>
-1.98258

> <CNNscore>
0.5731676221

> <CNNaffinity>
7.2389397621

> <CNN_VS>
4.1491260529

> <CNNaffinity_variance>
0.4464773238

$$$$
[H]c1c([H])c(S(=O)(=O)N2C([H])([H])C([H])([H])C([H])(N([H])C(=O)c3c([H])n([H])c4c([H])c([H])c(Cl)c([H])c34)C([H])([H])C2([H])[H])c([H])c([H])c1OC([H])([H])[H]


 32 35  0  0  0  0  0  0  0  0999 V2000
  -14.5680   -7.8394    5.4212 N   0  0  0  0  0  0  0  0  0  0  0  0
  -13.1990   -7.7493    5.8112 C   0  0  0  0  0  0  0  0  0  0  0  0
  -12.5268   -9.1053    5.8896 C   0  0  0  0  0  0  0  0  0  0  0  0
  -13.2787   -9.9631    6.8780 C   0  0  0  0  0  0  0  0  0  0  0  0
  -14.7512   -9.9642    6.6282 C   0  0  0  0  0  0  0  0  0  0  0  0
  -15.0253   -9.1919    5.3591 C   0  0  0  0  0  0  0  0  0  0  0  0
  -12.9210   -9.4963    8.2056 N   0  0  0  0  0  0  0  0  0  0  0  0
  -13.7061   -8.6220    8.9643 C   0  0  0  0  0  0  0  0  0  0  0  0
  -14.7912   -8.1870    8.5175 O   0  0  0  0  0  0  0  0  0  0  0  0
  -12.0270   -9.8492    8.5840 H   0  0  0  0  0  0  0  0  0  0  0  0
  -13.2682   -8.2081   10.2847 C   0  0  0  0  0  0  0  0  0  0  0  0
  -13.0871   -8.9880   11.4172 C   0  0  0  0  0  0  0  0  0  0  0  0
  -12.6745   -8.1953   12.4134 N   0  0  0  0  0  0  0  0  0  0  0  0
  -12.5648   -6.9313   12.0281 C   0  0  0  0  0  0  0  0  0  0  0  0
  -12.1883   -5.7670   12.6646 C   0  0  0  0  0  0  0  0  0  0  0  0
  -12.1802   -4.5767   11.9588 C   0  0  0  0  0  0  0  0  0  0  0  0
  -12.5546   -4.5839   10.6165 C   0  0  0  0  0  0  0  0  0  0  0  0
  -12.5459   -3.0764    9.7171 Cl  0  0  0  0  0  0  0  0  0  0  0  0
  -12.9340   -5.7393    9.9642 C   0  0  0  0  0  0  0  0  0  0  0  0
  -12.9312   -6.9141   10.6992 C   0  0  0  0  0  0  0  0  0  0  0  0
  -12.4592   -8.5239   13.3906 H   0  0  0  0  0  0  0  0  0  0  0  0
  -14.9482   -6.9563    4.0130 S   0  0  0  0  0  0  0  0  0  0  0  0
  -13.9296   -5.8339    3.8946 O   0  0  0  0  0  0  0  0  0  0  0  0
  -14.8543   -7.7681    2.7719 O   0  0  0  0  0  0  0  0  0  0  0  0
  -19.1131   -5.0819    4.1975 C   0  0  0  0  0  0  0  0  0  0  0  0
  -17.9812   -4.3722    4.5380 C   0  0  0  0  0  0  0  0  0  0  0  0
  -16.7174   -4.9145    4.4898 C   0  0  0  0  0  0  0  0  0  0  0  0
  -16.5343   -6.2330    4.0849 C   0  0  0  0  0  0  0  0  0  0  0  0
  -17.6717   -6.9358    3.7462 C   0  0  0  0  0  0  0  0  0  0  0  0
  -18.9438   -6.3897    3.7947 C   0  0  0  0  0  0  0  0  0  0  0  0
  -20.4849   -3.1711    4.7462 C   0  0  0  0  0  0  0  0  0  0  0  0
  -20.3758   -4.4958    4.2599 O   0  0  0  0  0  0  0  0  0  0  0  0
 31 32  1  0  0  0
 32 25  1  0  0  0
 25 26  2  0  0  0
 26 27  1  0  0  0
 27 28  2  0  0  0
 28 29  1  0  0  0
 29 30  2  0  0  0
 28 22  1  0  0  0
 22 23  2  0  0  0
 22 24  2  0  0  0
 22  1  1  0  0  0
  1  2  1  0  0  0
  2  3  1  0  0  0
  3  4  1  0  0  0
  4  5  1  0  0  0
  5  6  1  0  0  0
  4  7  1  0  0  0
  7  8  1  0  0  0
  8  9  2  0  0  0
  8 11  1  0  0  0
 11 12  2  0  0  0
 12 13  1  0  0  0
 13 14  1  0  0  0
 14 15  2  0  0  0
 15 16  1  0  0  0
 16 17  2  0  0  0
 17 18  1  0  0  0
 17 19  1  0  0  0
 19 20  2  0  0  0
 30 25  1  0  0  0
  6  1  1  0  0  0
 20 11  1  0  0  0
 20 14  1  0  0  0
  7 10  1  0  0  0
 13 21  1  0  0  0
M  END
> <minimizedAffinity>
10.63842

> <CNNscore>
0.5275027752

> <CNNaffinity>
6.9885549545

> <CNN_VS>
3.6864821911

> <CNNaffinity_variance>
1.1565350294

$$$$
[H]c1c([H])c(S(=O)(=O)N2C([H])([H])C([H])([H])C([H])(N([H])C(=O)c3c([H])n([H])c4c([H])c([H])c(Cl)c([H])c34)C([H])([H])C2([H])[H])c([H])c([H])c1OC([H])([H])[H]


 32 35  0  0  0  0  0  0  0  0999 V2000
   -5.5122   -6.7293    6.9252 N   0  0  0  0  0  0  0  0  0  0  0  0
   -4.9189   -5.5394    6.4088 C   0  0  0  0  0  0  0  0  0  0  0  0
   -3.5897   -5.8006    5.7292 C   0  0  0  0  0  0  0  0  0  0  0  0
   -2.6536   -6.4415    6.7247 C   0  0  0  0  0  0  0  0  0  0  0  0
   -3.2780   -7.5995    7.4315 C   0  0  0  0  0  0  0  0  0  0  0  0
   -4.6387   -7.8560    6.8275 C   0  0  0  0  0  0  0  0  0  0  0  0
   -2.2050   -5.3931    7.6236 N   0  0  0  0  0  0  0  0  0  0  0  0
   -2.6464   -5.2537    8.9435 C   0  0  0  0  0  0  0  0  0  0  0  0
   -3.4774   -6.0548    9.4269 O   0  0  0  0  0  0  0  0  0  0  0  0
   -1.5188   -4.7261    7.2346 H   0  0  0  0  0  0  0  0  0  0  0  0
   -2.1424   -4.1728    9.7706 C   0  0  0  0  0  0  0  0  0  0  0  0
   -1.2763   -4.2455   10.8514 C   0  0  0  0  0  0  0  0  0  0  0  0
   -1.0797   -3.0067   11.3182 N   0  0  0  0  0  0  0  0  0  0  0  0
   -1.7560   -2.1021   10.6235 C   0  0  0  0  0  0  0  0  0  0  0  0
   -1.8817   -0.7310   10.7064 C   0  0  0  0  0  0  0  0  0  0  0  0
   -2.6905   -0.0652    9.8022 C   0  0  0  0  0  0  0  0  0  0  0  0
   -3.3610   -0.7998    8.8261 C   0  0  0  0  0  0  0  0  0  0  0  0
   -4.3881    0.0405    7.6769 Cl  0  0  0  0  0  0  0  0  0  0  0  0
   -3.2466   -2.1716    8.7288 C   0  0  0  0  0  0  0  0  0  0  0  0
   -2.4290   -2.8079    9.6492 C   0  0  0  0  0  0  0  0  0  0  0  0
   -0.4639   -2.7661   12.1381 H   0  0  0  0  0  0  0  0  0  0  0  0
   -7.0681   -7.0537    6.3074 S   0  0  0  0  0  0  0  0  0  0  0  0
   -7.8280   -7.8217    7.3770 O   0  0  0  0  0  0  0  0  0  0  0  0
   -7.8471   -5.8231    6.0126 O   0  0  0  0  0  0  0  0  0  0  0  0
   -6.9492   -9.6223    2.5284 C   0  0  0  0  0  0  0  0  0  0  0  0
   -7.0142  -10.1830    3.7862 C   0  0  0  0  0  0  0  0  0  0  0  0
   -7.0516   -9.4307    4.9378 C   0  0  0  0  0  0  0  0  0  0  0  0
   -7.0243   -8.0412    4.8698 C   0  0  0  0  0  0  0  0  0  0  0  0
   -6.9593   -7.4886    3.6078 C   0  0  0  0  0  0  0  0  0  0  0  0
   -6.9217   -8.2461    2.4487 C   0  0  0  0  0  0  0  0  0  0  0  0
   -7.7683  -11.5455    1.3180 C   0  0  0  0  0  0  0  0  0  0  0  0
   -6.9131  -10.4197    1.3862 O   0  0  0  0  0  0  0  0  0  0  0  0
 31 32  1  0  0  0
 32 25  1  0  0  0
 25 26  2  0  0  0
 26 27  1  0  0  0
 27 28  2  0  0  0
 28 29  1  0  0  0
 29 30  2  0  0  0
 28 22  1  0  0  0
 22 23  2  0  0  0
 22 24  2  0  0  0
 22  1  1  0  0  0
  1  2  1  0  0  0
  2  3  1  0  0  0
  3  4  1  0  0  0
  4  5  1  0  0  0
  5  6  1  0  0  0
  4  7  1  0  0  0
  7  8  1  0  0  0
  8  9  2  0  0  0
  8 11  1  0  0  0
 11 12  2  0  0  0
 12 13  1  0  0  0
 13 14  1  0  0  0
 14 15  2  0  0  0
 15 16  1  0  0  0
 16 17  2  0  0  0
 17 18  1  0  0  0
 17 19  1  0  0  0
 19 20  2  0  0  0
 30 25  1  0  0  0
  6  1  1  0  0  0
 20 11  1  0  0  0
 20 14  1  0  0  0
  7 10  1  0  0  0
 13 21  1  0  0  0
M  END
> <minimizedAffinity>
8.17566

> <CNNscore>
0.4193026125

> <CNNaffinity>
5.4592657089

> <CNN_VS>
2.2890844345

> <CNNaffinity_variance>
1.1729112864

$$$$
[H]c1c([H])c(S(=O)(=O)N2C([H])([H])C([H])([H])C([H])(N([H])C(=O)c3c([H])n([H])c4c([H])c([H])c(Cl)c([H])c34)C([H])([H])C2([H])[H])c([H])c([H])c1OC([H])([H])[H]


 32 35  0  0  0  0  0  0  0  0999 V2000
   -6.7507   -7.5461    6.9606 N   0  0  0  0  0  0  0  0  0  0  0  0
   -7.8100   -6.7573    6.4219 C   0  0  0  0  0  0  0  0  0  0  0  0
   -8.6820   -6.1427    7.4983 C   0  0  0  0  0  0  0  0  0  0  0  0
   -9.2575   -7.2500    8.3473 C   0  0  0  0  0  0  0  0  0  0  0  0
   -8.2160   -8.2168    8.8068 C   0  0  0  0  0  0  0  0  0  0  0  0
   -6.8610   -7.7060    8.3763 C   0  0  0  0  0  0  0  0  0  0  0  0
  -10.3183   -7.8716    7.5748 N   0  0  0  0  0  0  0  0  0  0  0  0
  -11.6779   -7.7606    7.8838 C   0  0  0  0  0  0  0  0  0  0  0  0
  -12.0553   -7.0969    8.8754 O   0  0  0  0  0  0  0  0  0  0  0  0
  -10.0178   -8.4219    6.7540 H   0  0  0  0  0  0  0  0  0  0  0  0
  -12.6704   -8.4174    7.0532 C   0  0  0  0  0  0  0  0  0  0  0  0
  -12.9088   -9.7757    6.9051 C   0  0  0  0  0  0  0  0  0  0  0  0
  -13.9171   -9.9348    6.0394 N   0  0  0  0  0  0  0  0  0  0  0  0
  -14.3753   -8.7732    5.5933 C   0  0  0  0  0  0  0  0  0  0  0  0
  -15.3749   -8.4142    4.7132 C   0  0  0  0  0  0  0  0  0  0  0  0
  -15.6067   -7.0745    4.4555 C   0  0  0  0  0  0  0  0  0  0  0  0
  -14.8209   -6.1171    5.0943 C   0  0  0  0  0  0  0  0  0  0  0  0
  -15.1114   -4.4164    4.7704 Cl  0  0  0  0  0  0  0  0  0  0  0  0
  -13.8171   -6.4586    5.9774 C   0  0  0  0  0  0  0  0  0  0  0  0
  -13.6107   -7.8084    6.2136 C   0  0  0  0  0  0  0  0  0  0  0  0
  -14.3087  -10.8656    5.7404 H   0  0  0  0  0  0  0  0  0  0  0  0
   -5.1949   -7.0403    6.4797 S   0  0  0  0  0  0  0  0  0  0  0  0
   -4.4733   -8.2599    5.9288 O   0  0  0  0  0  0  0  0  0  0  0  0
   -5.2208   -6.0197    5.4001 O   0  0  0  0  0  0  0  0  0  0  0  0
   -2.7459   -5.3983    9.9726 C   0  0  0  0  0  0  0  0  0  0  0  0
   -2.2488   -6.3697    9.1298 C   0  0  0  0  0  0  0  0  0  0  0  0
   -2.9666   -6.8787    8.0719 C   0  0  0  0  0  0  0  0  0  0  0  0
   -4.2531   -6.4179    7.8101 C   0  0  0  0  0  0  0  0  0  0  0  0
   -4.7427   -5.4464    8.6578 C   0  0  0  0  0  0  0  0  0  0  0  0
   -4.0199   -4.9341    9.7226 C   0  0  0  0  0  0  0  0  0  0  0  0
   -2.2559   -5.3878   12.3378 C   0  0  0  0  0  0  0  0  0  0  0  0
   -1.9865   -4.9088   11.0334 O   0  0  0  0  0  0  0  0  0  0  0  0
 31 32  1  0  0  0
 32 25  1  0  0  0
 25 26  2  0  0  0
 26 27  1  0  0  0
 27 28  2  0  0  0
 28 29  1  0  0  0
 29 30  2  0  0  0
 28 22  1  0  0  0
 22 23  2  0  0  0
 22 24  2  0  0  0
 22  1  1  0  0  0
  1  2  1  0  0  0
  2  3  1  0  0  0
  3  4  1  0  0  0
  4  5  1  0  0  0
  5  6  1  0  0  0
  4  7  1  0  0  0
  7  8  1  0  0  0
  8  9  2  0  0  0
  8 11  1  0  0  0
 11 12  2  0  0  0
 12 13  1  0  0  0
 13 14  1  0  0  0
 14 15  2  0  0  0
 15 16  1  0  0  0
 16 17  2  0  0  0
 17 18  1  0  0  0
 17 19  1  0  0  0
 19 20  2  0  0  0
 30 25  1  0  0  0
  6  1  1  0  0  0
 20 11  1  0  0  0
 20 14  1  0  0  0
  7 10  1  0  0  0
 13 21  1  0  0  0
M  END
> <minimizedAffinity>
-7.57298

> <CNNscore>
0.3327408731

> <CNNaffinity>
6.7095656395

> <CNN_VS>
2.2325468063

> <CNNaffinity_variance>
0.1184618697

$$$$
[H]c1c([H])c(S(=O)(=O)N2C([H])([H])C([H])([H])C([H])(N([H])C(=O)c3c([H])n([H])c4c([H])c([H])c(Cl)c([H])c34)C([H])([H])C2([H])[H])c([H])c([H])c1OC([H])([H])[H]


 32 35  0  0  0  0  0  0  0  0999 V2000
   -5.6363   -6.6779    6.4491 N   0  0  0  0  0  0  0  0  0  0  0  0
   -6.4456   -6.3586    7.5794 C   0  0  0  0  0  0  0  0  0  0  0  0
   -6.5919   -7.5241    8.5370 C   0  0  0  0  0  0  0  0  0  0  0  0
   -7.1985   -8.6894    7.7938 C   0  0  0  0  0  0  0  0  0  0  0  0
   -6.4979   -8.9713    6.5053 C   0  0  0  0  0  0  0  0  0  0  0  0
   -5.2940   -8.0646    6.4029 C   0  0  0  0  0  0  0  0  0  0  0  0
   -8.6118   -8.4001    7.6287 N   0  0  0  0  0  0  0  0  0  0  0  0
   -9.6016   -9.3813    7.5110 C   0  0  0  0  0  0  0  0  0  0  0  0
   -9.3035  -10.5963    7.5438 O   0  0  0  0  0  0  0  0  0  0  0  0
   -8.8689   -7.4001    7.6003 H   0  0  0  0  0  0  0  0  0  0  0  0
  -10.9921   -8.9984    7.3487 C   0  0  0  0  0  0  0  0  0  0  0  0
  -11.9003   -9.4317    6.3942 C   0  0  0  0  0  0  0  0  0  0  0  0
  -13.0699   -8.8203    6.6169 N   0  0  0  0  0  0  0  0  0  0  0  0
  -13.0112   -8.0026    7.6591 C   0  0  0  0  0  0  0  0  0  0  0  0
  -13.9234   -7.1705    8.2740 C   0  0  0  0  0  0  0  0  0  0  0  0
  -13.5339   -6.4279    9.3749 C   0  0  0  0  0  0  0  0  0  0  0  0
  -12.2239   -6.5396    9.8368 C   0  0  0  0  0  0  0  0  0  0  0  0
  -11.7253   -5.5995   11.2330 Cl  0  0  0  0  0  0  0  0  0  0  0  0
  -11.2986   -7.3670    9.2339 C   0  0  0  0  0  0  0  0  0  0  0  0
  -11.7205   -8.0969    8.1340 C   0  0  0  0  0  0  0  0  0  0  0  0
  -13.9399   -8.9631    6.0407 H   0  0  0  0  0  0  0  0  0  0  0  0
   -4.2790   -5.6635    6.2584 S   0  0  0  0  0  0  0  0  0  0  0  0
   -3.2133   -6.4666    5.5298 O   0  0  0  0  0  0  0  0  0  0  0  0
   -4.5616   -4.4592    5.4351 O   0  0  0  0  0  0  0  0  0  0  0  0
   -2.5331   -4.2925   10.2541 C   0  0  0  0  0  0  0  0  0  0  0  0
   -2.5344   -5.6191    9.8787 C   0  0  0  0  0  0  0  0  0  0  0  0
   -3.0534   -6.0556    8.6813 C   0  0  0  0  0  0  0  0  0  0  0  0
   -3.6094   -5.1483    7.7849 C   0  0  0  0  0  0  0  0  0  0  0  0
   -3.6041   -3.8234    8.1682 C   0  0  0  0  0  0  0  0  0  0  0  0
   -3.0815   -3.3843    9.3735 C   0  0  0  0  0  0  0  0  0  0  0  0
   -2.8824   -3.6036   12.5427 C   0  0  0  0  0  0  0  0  0  0  0  0
   -1.9974   -3.8911   11.4762 O   0  0  0  0  0  0  0  0  0  0  0  0
 31 32  1  0  0  0
 32 25  1  0  0  0
 25 26  2  0  0  0
 26 27  1  0  0  0
 27 28  2  0  0  0
 28 29  1  0  0  0
 29 30  2  0  0  0
 28 22  1  0  0  0
 22 23  2  0  0  0
 22 24  2  0  0  0
 22  1  1  0  0  0
  1  2  1  0  0  0
  2  3  1  0  0  0
  3  4  1  0  0  0
  4  5  1  0  0  0
  5  6  1  0  0  0
  4  7  1  0  0  0
  7  8  1  0  0  0
  8  9  2  0  0  0
  8 11  1  0  0  0
 11 12  2  0  0  0
 12 13  1  0  0  0
 13 14  1  0  0  0
 14 15  2  0  0  0
 15 16  1  0  0  0
 16 17  2  0  0  0
 17 18  1  0  0  0
 17 19  1  0  0  0
 19 20  2  0  0  0
 30 25  1  0  0  0
  6  1  1  0  0  0
 20 11  1  0  0  0
 20 14  1  0  0  0
  7 10  1  0  0  0
 13 21  1  0  0  0
M  END
> <minimizedAffinity>
-7.44972

> <CNNscore>
0.3309957087

> <CNNaffinity>
6.5295348167

> <CNN_VS>
2.1612479687

> <CNNaffinity_variance>
0.0381456688

$$$$
[H]c1c([H])c(S(=O)(=O)N2C([H])([H])C([H])([H])C([H])(N([H])C(=O)c3c([H])n([H])c4c([H])c([H])c(Cl)c([H])c34)C([H])([H])C2([H])[H])c([H])c([H])c1OC([H])([H])[H]


 32 35  0  0  0  0  0  0  0  0999 V2000
  -11.2450   -7.6193    7.6474 N   0  0  0  0  0  0  0  0  0  0  0  0
  -12.5292   -7.1595    8.0645 C   0  0  0  0  0  0  0  0  0  0  0  0
  -13.3727   -8.2631    8.6706 C   0  0  0  0  0  0  0  0  0  0  0  0
  -13.5364   -9.3641    7.6513 C   0  0  0  0  0  0  0  0  0  0  0  0
  -12.2359   -9.7780    7.0447 C   0  0  0  0  0  0  0  0  0  0  0  0
  -11.1202   -9.0394    7.7460 C   0  0  0  0  0  0  0  0  0  0  0  0
  -14.5046   -8.8993    6.6741 N   0  0  0  0  0  0  0  0  0  0  0  0
  -15.7418   -8.3374    7.0062 C   0  0  0  0  0  0  0  0  0  0  0  0
  -16.0824   -8.2051    8.2032 O   0  0  0  0  0  0  0  0  0  0  0  0
  -14.2335   -9.0039    5.6829 H   0  0  0  0  0  0  0  0  0  0  0  0
  -16.6481   -7.8997    5.9605 C   0  0  0  0  0  0  0  0  0  0  0  0
  -17.7927   -8.5278    5.4925 C   0  0  0  0  0  0  0  0  0  0  0  0
  -18.3209   -7.7728    4.5219 N   0  0  0  0  0  0  0  0  0  0  0  0
  -17.6084   -6.6761    4.3037 C   0  0  0  0  0  0  0  0  0  0  0  0
  -17.7331   -5.6120    3.4350 C   0  0  0  0  0  0  0  0  0  0  0  0
  -16.7919   -4.5978    3.4606 C   0  0  0  0  0  0  0  0  0  0  0  0
  -15.7368   -4.6771    4.3674 C   0  0  0  0  0  0  0  0  0  0  0  0
  -14.5405   -3.3929    4.4036 Cl  0  0  0  0  0  0  0  0  0  0  0  0
  -15.5968   -5.7342    5.2434 C   0  0  0  0  0  0  0  0  0  0  0  0
  -16.5559   -6.7331    5.1923 C   0  0  0  0  0  0  0  0  0  0  0  0
  -19.1972   -8.0103    3.9879 H   0  0  0  0  0  0  0  0  0  0  0  0
   -9.9422   -6.7969    8.3782 S   0  0  0  0  0  0  0  0  0  0  0  0
  -10.1185   -5.3164    8.0810 O   0  0  0  0  0  0  0  0  0  0  0  0
   -9.9120   -6.9482    9.8561 O   0  0  0  0  0  0  0  0  0  0  0  0
   -5.8921   -8.0714    6.6853 C   0  0  0  0  0  0  0  0  0  0  0  0
   -6.4338   -8.6708    7.8025 C   0  0  0  0  0  0  0  0  0  0  0  0
   -7.6509   -8.3049    8.3299 C   0  0  0  0  0  0  0  0  0  0  0  0
   -8.3961   -7.2902    7.7375 C   0  0  0  0  0  0  0  0  0  0  0  0
   -7.8472   -6.6959    6.6205 C   0  0  0  0  0  0  0  0  0  0  0  0
   -6.6219   -7.0645    6.0897 C   0  0  0  0  0  0  0  0  0  0  0  0
   -3.4831   -8.0616    6.8607 C   0  0  0  0  0  0  0  0  0  0  0  0
   -4.6557   -8.4714    6.1822 O   0  0  0  0  0  0  0  0  0  0  0  0
 31 32  1  0  0  0
 32 25  1  0  0  0
 25 26  2  0  0  0
 26 27  1  0  0  0
 27 28  2  0  0  0
 28 29  1  0  0  0
 29 30  2  0  0  0
 28 22  1  0  0  0
 22 23  2  0  0  0
 22 24  2  0  0  0
 22  1  1  0  0  0
  1  2  1  0  0  0
  2  3  1  0  0  0
  3  4  1  0  0  0
  4  5  1  0  0  0
  5  6  1  0  0  0
  4  7  1  0  0  0
  7  8  1  0  0  0
  8  9  2  0  0  0
  8 11  1  0  0  0
 11 12  2  0  0  0
 12 13  1  0  0  0
 13 14  1  0  0  0
 14 15  2  0  0  0
 15 16  1  0  0  0
 16 17  2  0  0  0
 17 18  1  0  0  0
 17 19  1  0  0  0
 19 20  2  0  0  0
 30 25  1  0  0  0
  6  1  1  0  0  0
 20 11  1  0  0  0
 20 14  1  0  0  0
  7 10  1  0  0  0
 13 21  1  0  0  0
M  END
> <minimizedAffinity>
-8.00350

> <CNNscore>
0.3304205239

> <CNNaffinity>
7.0229873657

> <CNN_VS>
2.3205392361

> <CNNaffinity_variance>
0.0698188320

$$$$
[H]c1c([H])c(S(=O)(=O)N2C([H])([H])C([H])([H])C([H])(N([H])C(=O)c3c([H])n([H])c4c([H])c([H])c(Cl)c([H])c34)C([H])([H])C2([H])[H])c([H])c([H])c1OC([H])([H])[H]


 32 35  0  0  0  0  0  0  0  0999 V2000
   -3.5662   -7.4704    7.1602 N   0  0  0  0  0  0  0  0  0  0  0  0
   -4.5599   -7.5505    6.1402 C   0  0  0  0  0  0  0  0  0  0  0  0
   -5.4810   -6.3470    6.1306 C   0  0  0  0  0  0  0  0  0  0  0  0
   -6.1489   -6.2365    7.4796 C   0  0  0  0  0  0  0  0  0  0  0  0
   -5.1735   -6.3185    8.6076 C   0  0  0  0  0  0  0  0  0  0  0  0
   -3.7764   -6.3598    8.0345 C   0  0  0  0  0  0  0  0  0  0  0  0
   -7.1758   -7.2618    7.5316 N   0  0  0  0  0  0  0  0  0  0  0  0
   -8.5485   -6.9930    7.5406 C   0  0  0  0  0  0  0  0  0  0  0  0
   -8.9688   -5.8148    7.5028 O   0  0  0  0  0  0  0  0  0  0  0  0
   -6.8398   -8.2380    7.5632 H   0  0  0  0  0  0  0  0  0  0  0  0
   -9.5046   -8.0836    7.5941 C   0  0  0  0  0  0  0  0  0  0  0  0
   -9.3527   -9.3866    7.1440 C   0  0  0  0  0  0  0  0  0  0  0  0
  -10.4857  -10.0538    7.3943 N   0  0  0  0  0  0  0  0  0  0  0  0
  -11.3926   -9.2870    7.9839 C   0  0  0  0  0  0  0  0  0  0  0  0
  -12.6798   -9.5003    8.4314 C   0  0  0  0  0  0  0  0  0  0  0  0
  -13.3775   -8.4600    9.0198 C   0  0  0  0  0  0  0  0  0  0  0  0
  -12.7596   -7.2173    9.1460 C   0  0  0  0  0  0  0  0  0  0  0  0
  -13.6408   -5.8949    9.8918 Cl  0  0  0  0  0  0  0  0  0  0  0  0
  -11.4729   -6.9866    8.7040 C   0  0  0  0  0  0  0  0  0  0  0  0
  -10.8017   -8.0489    8.1196 C   0  0  0  0  0  0  0  0  0  0  0  0
  -10.6495  -11.0667    7.1564 H   0  0  0  0  0  0  0  0  0  0  0  0
   -1.9656   -7.5492    6.5777 S   0  0  0  0  0  0  0  0  0  0  0  0
   -1.0600   -7.0005    7.6687 O   0  0  0  0  0  0  0  0  0  0  0  0
   -1.5169   -8.9363    6.2900 O   0  0  0  0  0  0  0  0  0  0  0  0
   -1.3425   -4.9908    2.8414 C   0  0  0  0  0  0  0  0  0  0  0  0
   -1.0601   -6.3402    2.8534 C   0  0  0  0  0  0  0  0  0  0  0  0
   -1.2400   -7.1307    3.9652 C   0  0  0  0  0  0  0  0  0  0  0  0
   -1.7261   -6.5799    5.1469 C   0  0  0  0  0  0  0  0  0  0  0  0
   -2.0060   -5.2295    5.1263 C   0  0  0  0  0  0  0  0  0  0  0  0
   -1.8248   -4.4340    4.0069 C   0  0  0  0  0  0  0  0  0  0  0  0
   -2.2271   -4.0615    0.7949 C   0  0  0  0  0  0  0  0  0  0  0  0
   -1.1463   -4.2248    1.6940 O   0  0  0  0  0  0  0  0  0  0  0  0
 31 32  1  0  0  0
 32 25  1  0  0  0
 25 26  2  0  0  0
 26 27  1  0  0  0
 27 28  2  0  0  0
 28 29  1  0  0  0
 29 30  2  0  0  0
 28 22  1  0  0  0
 22 23  2  0  0  0
 22 24  2  0  0  0
 22  1  1  0  0  0
  1  2  1  0  0  0
  2  3  1  0  0  0
  3  4  1  0  0  0
  4  5  1  0  0  0
  5  6  1  0  0  0
  4  7  1  0  0  0
  7  8  1  0  0  0
  8  9  2  0  0  0
  8 11  1  0  0  0
 11 12  2  0  0  0
 12 13  1  0  0  0
 13 14  1  0  0  0
 14 15  2  0  0  0
 15 16  1  0  0  0
 16 17  2  0  0  0
 17 18  1  0  0  0
 17 19  1  0  0  0
 19 20  2  0  0  0
 30 25  1  0  0  0
  6  1  1  0  0  0
 20 11  1  0  0  0
 20 14  1  0  0  0
  7 10  1  0  0  0
 13 21  1  0  0  0
M  END
> <minimizedAffinity>
-7.76669

> <CNNscore>
0.2882950306

> <CNNaffinity>
6.1229848862

> <CNN_VS>
1.7652261257

> <CNNaffinity_variance>
0.0021955534

$$$$
[H]c1c([H])c(S(=O)(=O)N2C([H])([H])C([H])([H])C([H])(N([H])C(=O)c3c([H])n([H])c4c([H])c([H])c(Cl)c([H])c34)C([H])([H])C2([H])[H])c([H])c([H])c1OC([H])([H])[H]


 32 35  0  0  0  0  0  0  0  0999 V2000
  -14.3430   -8.4657    5.8157 N   0  0  0  0  0  0  0  0  0  0  0  0
  -13.2395   -9.3682    5.8595 C   0  0  0  0  0  0  0  0  0  0  0  0
  -13.3326  -10.3442    7.0152 C   0  0  0  0  0  0  0  0  0  0  0  0
  -13.3987   -9.5635    8.3052 C   0  0  0  0  0  0  0  0  0  0  0  0
  -14.4265   -8.4806    8.2648 C   0  0  0  0  0  0  0  0  0  0  0  0
  -15.1861   -8.5856    6.9633 C   0  0  0  0  0  0  0  0  0  0  0  0
  -12.0586   -9.0747    8.5764 N   0  0  0  0  0  0  0  0  0  0  0  0
  -11.6423   -7.7612    8.3355 C   0  0  0  0  0  0  0  0  0  0  0  0
  -12.4343   -6.9177    7.8585 O   0  0  0  0  0  0  0  0  0  0  0  0
  -11.3967   -9.7629    8.9703 H   0  0  0  0  0  0  0  0  0  0  0  0
  -10.2805   -7.3608    8.6380 C   0  0  0  0  0  0  0  0  0  0  0  0
   -9.8300   -6.5389    9.6603 C   0  0  0  0  0  0  0  0  0  0  0  0
   -8.4987   -6.4394    9.5655 N   0  0  0  0  0  0  0  0  0  0  0  0
   -8.0205   -7.1401    8.5465 C   0  0  0  0  0  0  0  0  0  0  0  0
   -6.7539   -7.3540    8.0439 C   0  0  0  0  0  0  0  0  0  0  0  0
   -6.5894   -8.1634    6.9335 C   0  0  0  0  0  0  0  0  0  0  0  0
   -7.7125   -8.7447    6.3480 C   0  0  0  0  0  0  0  0  0  0  0  0
   -7.5086   -9.7721    4.9393 Cl  0  0  0  0  0  0  0  0  0  0  0  0
   -8.9865   -8.5415    6.8377 C   0  0  0  0  0  0  0  0  0  0  0  0
   -9.1169   -7.7260    7.9505 C   0  0  0  0  0  0  0  0  0  0  0  0
   -7.8923   -5.8753   10.2162 H   0  0  0  0  0  0  0  0  0  0  0  0
  -15.2195   -8.5112    4.3538 S   0  0  0  0  0  0  0  0  0  0  0  0
  -14.2430   -8.1983    3.2314 O   0  0  0  0  0  0  0  0  0  0  0  0
  -15.8065   -9.8458    4.0666 O   0  0  0  0  0  0  0  0  0  0  0  0
  -18.5739   -5.4093    4.2124 C   0  0  0  0  0  0  0  0  0  0  0  0
  -17.2761   -5.0624    4.5226 C   0  0  0  0  0  0  0  0  0  0  0  0
  -16.2499   -5.9779    4.5708 C   0  0  0  0  0  0  0  0  0  0  0  0
  -16.4940   -7.3208    4.3007 C   0  0  0  0  0  0  0  0  0  0  0  0
  -17.7947   -7.6593    3.9913 C   0  0  0  0  0  0  0  0  0  0  0  0
  -18.8276   -6.7375    3.9429 C   0  0  0  0  0  0  0  0  0  0  0  0
  -19.6092   -3.4507    5.1749 C   0  0  0  0  0  0  0  0  0  0  0  0
  -19.5851   -4.4514    4.1742 O   0  0  0  0  0  0  0  0  0  0  0  0
 31 32  1  0  0  0
 32 25  1  0  0  0
 25 26  2  0  0  0
 26 27  1  0  0  0
 27 28  2  0  0  0
 28 29  1  0  0  0
 29 30  2  0  0  0
 28 22  1  0  0  0
 22 23  2  0  0  0
 22 24  2  0  0  0
 22  1  1  0  0  0
  1  2  1  0  0  0
  2  3  1  0  0  0
  3  4  1  0  0  0
  4  5  1  0  0  0
  5  6  1  0  0  0
  4  7  1  0  0  0
  7  8  1  0  0  0
  8  9  2  0  0  0
  8 11  1  0  0  0
 11 12  2  0  0  0
 12 13  1  0  0  0
 13 14  1  0  0  0
 14 15  2  0  0  0
 15 16  1  0  0  0
 16 17  2  0  0  0
 17 18  1  0  0  0
 17 19  1  0  0  0
 19 20  2  0  0  0
 30 25  1  0  0  0
  6  1  1  0  0  0
 20 11  1  0  0  0
 20 14  1  0  0  0
  7 10  1  0  0  0
 13 21  1  0  0  0
M  END
> <minimizedAffinity>
-1.97942

> <CNNscore>
0.2826273143

> <CNNaffinity>
6.7996978760

> <CNN_VS>
1.9217803478

> <CNNaffinity_variance>
0.3288112283

$$$$
[H]c1c([H])c(S(=O)(=O)N2C([H])([H])C([H])([H])C([H])(N([H])C(=O)c3c([H])n([H])c4c([H])c([H])c(Cl)c([H])c34)C([H])([H])C2([H])[H])c([H])c([H])c1OC([H])([H])[H]


 32 35  0  0  0  0  0  0  0  0999 V2000
   -9.8488   -7.3031    6.9496 N   0  0  0  0  0  0  0  0  0  0  0  0
  -10.8998   -6.8126    7.7798 C   0  0  0  0  0  0  0  0  0  0  0  0
  -11.1972   -7.7340    8.9457 C   0  0  0  0  0  0  0  0  0  0  0  0
  -11.5711   -9.0933    8.4067 C   0  0  0  0  0  0  0  0  0  0  0  0
  -10.5933   -9.5949    7.3953 C   0  0  0  0  0  0  0  0  0  0  0  0
   -9.4401   -8.6223    7.3165 C   0  0  0  0  0  0  0  0  0  0  0  0
  -12.9261   -8.9905    7.8950 N   0  0  0  0  0  0  0  0  0  0  0  0
  -13.9435   -8.2607    8.5184 C   0  0  0  0  0  0  0  0  0  0  0  0
  -13.7244   -7.6411    9.5834 O   0  0  0  0  0  0  0  0  0  0  0  0
  -13.1179   -9.4983    7.0162 H   0  0  0  0  0  0  0  0  0  0  0  0
  -15.2710   -8.2141    7.9335 C   0  0  0  0  0  0  0  0  0  0  0  0
  -16.4931   -8.0885    8.5769 C   0  0  0  0  0  0  0  0  0  0  0  0
  -17.4593   -8.0897    7.6508 N   0  0  0  0  0  0  0  0  0  0  0  0
  -16.9699   -8.2078    6.4241 C   0  0  0  0  0  0  0  0  0  0  0  0
  -17.5388   -8.2580    5.1685 C   0  0  0  0  0  0  0  0  0  0  0  0
  -16.7251   -8.3893    4.0569 C   0  0  0  0  0  0  0  0  0  0  0  0
  -15.3451   -8.4678    4.2343 C   0  0  0  0  0  0  0  0  0  0  0  0
  -14.3091   -8.6344    2.8270 Cl  0  0  0  0  0  0  0  0  0  0  0  0
  -14.7594   -8.4191    5.4828 C   0  0  0  0  0  0  0  0  0  0  0  0
  -15.6019   -8.2873    6.5752 C   0  0  0  0  0  0  0  0  0  0  0  0
  -18.4885   -8.0073    7.8586 H   0  0  0  0  0  0  0  0  0  0  0  0
   -8.5318   -6.2316    6.7912 S   0  0  0  0  0  0  0  0  0  0  0  0
   -8.6522   -5.5655    5.4299 O   0  0  0  0  0  0  0  0  0  0  0  0
   -8.5328   -5.1510    7.8112 O   0  0  0  0  0  0  0  0  0  0  0  0
   -4.5032   -8.3867    6.9277 C   0  0  0  0  0  0  0  0  0  0  0  0
   -4.8485   -7.4321    7.8606 C   0  0  0  0  0  0  0  0  0  0  0  0
   -6.0550   -6.7707    7.8405 C   0  0  0  0  0  0  0  0  0  0  0  0
   -6.9924   -7.0506    6.8511 C   0  0  0  0  0  0  0  0  0  0  0  0
   -6.6391   -8.0067    5.9220 C   0  0  0  0  0  0  0  0  0  0  0  0
   -5.4245   -8.6724    5.9425 C   0  0  0  0  0  0  0  0  0  0  0  0
   -2.0929   -8.2491    7.0069 C   0  0  0  0  0  0  0  0  0  0  0  0
   -3.2705   -9.0341    6.9831 O   0  0  0  0  0  0  0  0  0  0  0  0
 31 32  1  0  0  0
 32 25  1  0  0  0
 25 26  2  0  0  0
 26 27  1  0  0  0
 27 28  2  0  0  0
 28 29  1  0  0  0
 29 30  2  0  0  0
 28 22  1  0  0  0
 22 23  2  0  0  0
 22 24  2  0  0  0
 22  1  1  0  0  0
  1  2  1  0  0  0
  2  3  1  0  0  0
  3  4  1  0  0  0
  4  5  1  0  0  0
  5  6  1  0  0  0
  4  7  1  0  0  0
  7  8  1  0  0  0
  8  9  2  0  0  0
  8 11  1  0  0  0
 11 12  2  0  0  0
 12 13  1  0  0  0
 13 14  1  0  0  0
 14 15  2  0  0  0
 15 16  1  0  0  0
 16 17  2  0  0  0
 17 18  1  0  0  0
 17 19  1  0  0  0
 19 20  2  0  0  0
 30 25  1  0  0  0
  6  1  1  0  0  0
 20 11  1  0  0  0
 20 14  1  0  0  0
  7 10  1  0  0  0
 13 21  1  0  0  0
M  END
> <minimizedAffinity>
-5.84734

> <CNNscore>
0.2703067362

> <CNNaffinity>
6.8610634804

> <CNN_VS>
1.8545917273

> <CNNaffinity_variance>
0.0757925585

$$$$
[H]c1c([H])c(C2([H])C([H])([H])C([H])([H])N(S(=O)(=O)c3c([H])c(OC([H])([H])[H])c(OC([H])([H])[H])c(OC([H])([H])[H])c3[H])C([H])([H])C2([H])[H])c([H])c(Cl)c1Cl


 29 31  0  0  0  0  0  0  0  0999 V2000
  -10.6609   -7.1737    8.7772 S   0  0  0  0  0  0  0  0  0  0  0  0
  -10.3352   -8.3531    9.6236 O   0  0  0  0  0  0  0  0  0  0  0  0
  -10.8031   -5.9771    9.6641 O   0  0  0  0  0  0  0  0  0  0  0  0
  -13.4014   -7.6836    5.9015 C   0  0  0  0  0  0  0  0  0  0  0  0
  -12.2152   -7.4713    6.5749 C   0  0  0  0  0  0  0  0  0  0  0  0
  -12.1821   -7.4468    7.9641 C   0  0  0  0  0  0  0  0  0  0  0  0
  -13.3616   -7.6394    8.6501 C   0  0  0  0  0  0  0  0  0  0  0  0
  -14.5650   -7.8541    8.0021 C   0  0  0  0  0  0  0  0  0  0  0  0
  -14.5720   -7.8740    6.6235 C   0  0  0  0  0  0  0  0  0  0  0  0
  -13.9474   -8.8166    3.7882 C   0  0  0  0  0  0  0  0  0  0  0  0
  -13.4830   -7.7163    4.5143 O   0  0  0  0  0  0  0  0  0  0  0  0
  -15.7348   -8.0450    8.6769 O   0  0  0  0  0  0  0  0  0  0  0  0
  -16.8174   -8.8360    8.2693 C   0  0  0  0  0  0  0  0  0  0  0  0
  -15.7783   -8.0892    5.9827 O   0  0  0  0  0  0  0  0  0  0  0  0
  -15.7522   -8.6990    4.7027 C   0  0  0  0  0  0  0  0  0  0  0  0
   -9.3908   -6.8563    7.6549 N   0  0  0  0  0  0  0  0  0  0  0  0
   -9.0285   -8.0587    6.9684 C   0  0  0  0  0  0  0  0  0  0  0  0
   -7.5446   -8.1987    6.7147 C   0  0  0  0  0  0  0  0  0  0  0  0
   -6.9330   -6.8745    6.3968 C   0  0  0  0  0  0  0  0  0  0  0  0
   -7.1098   -5.9202    7.5571 C   0  0  0  0  0  0  0  0  0  0  0  0
   -8.3174   -6.2329    8.3799 C   0  0  0  0  0  0  0  0  0  0  0  0
   -5.4911   -7.1098    6.0929 C   0  0  0  0  0  0  0  0  0  0  0  0
   -4.7903   -6.3032    5.2252 C   0  0  0  0  0  0  0  0  0  0  0  0
   -3.4549   -6.5327    4.9514 C   0  0  0  0  0  0  0  0  0  0  0  0
   -2.7698   -7.5779    5.5353 C   0  0  0  0  0  0  0  0  0  0  0  0
   -1.0691   -7.8685    5.1857 Cl  0  0  0  0  0  0  0  0  0  0  0  0
   -3.4575   -8.3857    6.3995 C   0  0  0  0  0  0  0  0  0  0  0  0
   -2.5934   -9.7169    7.1456 Cl  0  0  0  0  0  0  0  0  0  0  0  0
   -4.7970   -8.1649    6.6815 C   0  0  0  0  0  0  0  0  0  0  0  0
 10 11  1  0  0  0
 11  4  1  0  0  0
  4  5  2  0  0  0
  5  6  1  0  0  0
  6  7  2  0  0  0
  7  8  1  0  0  0
  8 12  1  0  0  0
 12 13  1  0  0  0
  8  9  2  0  0  0
  9 14  1  0  0  0
 14 15  1  0  0  0
  6  1  1  0  0  0
  1  2  2  0  0  0
  1  3  2  0  0  0
  1 16  1  0  0  0
 16 17  1  0  0  0
 17 18  1  0  0  0
 18 19  1  0  0  0
 19 20  1  0  0  0
 20 21  1  0  0  0
 19 22  1  0  0  0
 22 23  2  0  0  0
 23 24  1  0  0  0
 24 25  2  0  0  0
 25 26  1  0  0  0
 25 27  1  0  0  0
 27 28  1  0  0  0
 27 29  2  0  0  0
  9  4  1  0  0  0
 21 16  1  0  0  0
 29 22  1  0  0  0
M  END
> <minimizedAffinity>
2.56458

> <CNNscore>
0.3974984884

> <CNNaffinity>
6.5681090355

> <CNN_VS>
2.6108133793

> <CNNaffinity_variance>
0.9364387393

$$$$
[H]c1c([H])c(C2([H])C([H])([H])C([H])([H])N(S(=O)(=O)c3c([H])c(OC([H])([H])[H])c(OC([H])([H])[H])c(OC([H])([H])[H])c3[H])C([H])([H])C2([H])[H])c([H])c(Cl)c1Cl


 29 31  0  0  0  0  0  0  0  0999 V2000
   -4.1271   -7.2072    6.8195 S   0  0  0  0  0  0  0  0  0  0  0  0
   -3.6016   -7.5340    8.1725 O   0  0  0  0  0  0  0  0  0  0  0  0
   -3.3499   -7.9874    5.8067 O   0  0  0  0  0  0  0  0  0  0  0  0
   -3.3467   -3.3130    7.3354 C   0  0  0  0  0  0  0  0  0  0  0  0
   -3.5344   -4.6637    7.5501 C   0  0  0  0  0  0  0  0  0  0  0  0
   -3.8980   -5.5048    6.5051 C   0  0  0  0  0  0  0  0  0  0  0  0
   -4.0658   -4.9564    5.2520 C   0  0  0  0  0  0  0  0  0  0  0  0
   -3.8847   -3.6068    5.0074 C   0  0  0  0  0  0  0  0  0  0  0  0
   -3.5241   -2.7930    6.0603 C   0  0  0  0  0  0  0  0  0  0  0  0
   -3.3585   -2.5908    9.6862 C   0  0  0  0  0  0  0  0  0  0  0  0
   -2.9832   -2.4340    8.3490 O   0  0  0  0  0  0  0  0  0  0  0  0
   -4.0497   -3.0597    3.7690 O   0  0  0  0  0  0  0  0  0  0  0  0
   -3.0918   -2.9928    2.7483 C   0  0  0  0  0  0  0  0  0  0  0  0
   -3.3448   -1.4452    5.8083 O   0  0  0  0  0  0  0  0  0  0  0  0
   -4.4677   -0.5889    5.9382 C   0  0  0  0  0  0  0  0  0  0  0  0
   -5.7854   -7.6593    6.6814 N   0  0  0  0  0  0  0  0  0  0  0  0
   -6.5960   -6.4992    6.4683 C   0  0  0  0  0  0  0  0  0  0  0  0
   -7.9264   -6.5385    7.1855 C   0  0  0  0  0  0  0  0  0  0  0  0
   -8.4866   -7.9222    7.1901 C   0  0  0  0  0  0  0  0  0  0  0  0
   -7.5510   -8.8670    7.9115 C   0  0  0  0  0  0  0  0  0  0  0  0
   -6.1257   -8.4221    7.8514 C   0  0  0  0  0  0  0  0  0  0  0  0
   -9.8233   -7.8609    7.8505 C   0  0  0  0  0  0  0  0  0  0  0  0
  -10.1881   -6.8059    8.6558 C   0  0  0  0  0  0  0  0  0  0  0  0
  -11.4294   -6.7617    9.2628 C   0  0  0  0  0  0  0  0  0  0  0  0
  -12.3527   -7.7713    9.0872 C   0  0  0  0  0  0  0  0  0  0  0  0
  -13.9330   -7.7132    9.8607 Cl  0  0  0  0  0  0  0  0  0  0  0  0
  -11.9996   -8.8246    8.2884 C   0  0  0  0  0  0  0  0  0  0  0  0
  -13.1682  -10.1124    8.0605 Cl  0  0  0  0  0  0  0  0  0  0  0  0
  -10.7576   -8.8794    7.6746 C   0  0  0  0  0  0  0  0  0  0  0  0
 10 11  1  0  0  0
 11  4  1  0  0  0
  4  5  2  0  0  0
  5  6  1  0  0  0
  6  7  2  0  0  0
  7  8  1  0  0  0
  8 12  1  0  0  0
 12 13  1  0  0  0
  8  9  2  0  0  0
  9 14  1  0  0  0
 14 15  1  0  0  0
  6  1  1  0  0  0
  1  2  2  0  0  0
  1  3  2  0  0  0
  1 16  1  0  0  0
 16 17  1  0  0  0
 17 18  1  0  0  0
 18 19  1  0  0  0
 19 20  1  0  0  0
 20 21  1  0  0  0
 19 22  1  0  0  0
 22 23  2  0  0  0
 23 24  1  0  0  0
 24 25  2  0  0  0
 25 26  1  0  0  0
 25 27  1  0  0  0
 27 28  1  0  0  0
 27 29  2  0  0  0
  9  4  1  0  0  0
 21 16  1  0  0  0
 29 22  1  0  0  0
M  END
> <minimizedAffinity>
-7.33516

> <CNNscore>
0.3056086004

> <CNNaffinity>
6.1054806709

> <CNN_VS>
1.8658874035

> <CNNaffinity_variance>
0.0697263703

$$$$
[H]c1c([H])c(C2([H])C([H])([H])C([H])([H])N(S(=O)(=O)c3c([H])c(OC([H])([H])[H])c(OC([H])([H])[H])c(OC([H])([H])[H])c3[H])C([H])([H])C2([H])[H])c([H])c(Cl)c1Cl


 29 31  0  0  0  0  0  0  0  0999 V2000
   -4.2343   -6.6756    7.1695 S   0  0  0  0  0  0  0  0  0  0  0  0
   -3.4126   -6.7864    8.4049 O   0  0  0  0  0  0  0  0  0  0  0  0
   -4.0528   -7.9238    6.3647 O   0  0  0  0  0  0  0  0  0  0  0  0
   -3.2977   -2.9467    6.0480 C   0  0  0  0  0  0  0  0  0  0  0  0
   -3.7292   -4.0413    6.7701 C   0  0  0  0  0  0  0  0  0  0  0  0
   -3.6770   -5.3180    6.2231 C   0  0  0  0  0  0  0  0  0  0  0  0
   -3.1843   -5.4622    4.9443 C   0  0  0  0  0  0  0  0  0  0  0  0
   -2.7451   -4.3837    4.1972 C   0  0  0  0  0  0  0  0  0  0  0  0
   -2.8070   -3.1273    4.7618 C   0  0  0  0  0  0  0  0  0  0  0  0
   -2.5330   -1.2097    7.6119 C   0  0  0  0  0  0  0  0  0  0  0  0
   -3.3309   -1.6522    6.5531 O   0  0  0  0  0  0  0  0  0  0  0  0
   -2.2569   -4.5216    2.9312 O   0  0  0  0  0  0  0  0  0  0  0  0
   -1.0614   -5.1504    2.5583 C   0  0  0  0  0  0  0  0  0  0  0  0
   -2.3661   -2.0542    4.0092 O   0  0  0  0  0  0  0  0  0  0  0  0
   -3.3183   -1.3574    3.2226 C   0  0  0  0  0  0  0  0  0  0  0  0
   -5.9081   -6.5321    7.5586 N   0  0  0  0  0  0  0  0  0  0  0  0
   -6.2467   -7.4340    8.6170 C   0  0  0  0  0  0  0  0  0  0  0  0
   -7.6066   -8.0770    8.4655 C   0  0  0  0  0  0  0  0  0  0  0  0
   -8.5877   -7.1138    7.8838 C   0  0  0  0  0  0  0  0  0  0  0  0
   -8.1376   -6.6686    6.5099 C   0  0  0  0  0  0  0  0  0  0  0  0
   -6.6535   -6.7251    6.3447 C   0  0  0  0  0  0  0  0  0  0  0  0
   -9.9116   -7.8004    7.8332 C   0  0  0  0  0  0  0  0  0  0  0  0
  -10.0465   -9.0843    7.3555 C   0  0  0  0  0  0  0  0  0  0  0  0
  -11.2791   -9.7087    7.3130 C   0  0  0  0  0  0  0  0  0  0  0  0
  -12.4236   -9.0724    7.7467 C   0  0  0  0  0  0  0  0  0  0  0  0
  -13.9924   -9.8693    7.6920 Cl  0  0  0  0  0  0  0  0  0  0  0  0
  -12.3000   -7.7958    8.2235 C   0  0  0  0  0  0  0  0  0  0  0  0
  -13.7507   -6.9802    8.7765 Cl  0  0  0  0  0  0  0  0  0  0  0  0
  -11.0689   -7.1598    8.2708 C   0  0  0  0  0  0  0  0  0  0  0  0
 10 11  1  0  0  0
 11  4  1  0  0  0
  4  5  2  0  0  0
  5  6  1  0  0  0
  6  7  2  0  0  0
  7  8  1  0  0  0
  8 12  1  0  0  0
 12 13  1  0  0  0
  8  9  2  0  0  0
  9 14  1  0  0  0
 14 15  1  0  0  0
  6  1  1  0  0  0
  1  2  2  0  0  0
  1  3  2  0  0  0
  1 16  1  0  0  0
 16 17  1  0  0  0
 17 18  1  0  0  0
 18 19  1  0  0  0
 19 20  1  0  0  0
 20 21  1  0  0  0
 19 22  1  0  0  0
 22 23  2  0  0  0
 23 24  1  0  0  0
 24 25  2  0  0  0
 25 26  1  0  0  0
 25 27  1  0  0  0
 27 28  1  0  0  0
 27 29  2  0  0  0
  9  4  1  0  0  0
 21 16  1  0  0  0
 29 22  1  0  0  0
M  END
> <minimizedAffinity>
-7.11214

> <CNNscore>
0.2922323942

> <CNNaffinity>
5.9956693649

> <CNN_VS>
1.7521288395

> <CNNaffinity_variance>
0.0691703409

$$$$
[H]c1c([H])c(C2([H])C([H])([H])C([H])([H])N(S(=O)(=O)c3c([H])c(OC([H])([H])[H])c(OC([H])([H])[H])c(OC([H])([H])[H])c3[H])C([H])([H])C2([H])[H])c([H])c(Cl)c1Cl


 29 31  0  0  0  0  0  0  0  0999 V2000
  -11.2227   -6.5213    9.4201 S   0  0  0  0  0  0  0  0  0  0  0  0
  -11.1593   -5.0396    9.3016 O   0  0  0  0  0  0  0  0  0  0  0  0
  -11.1773   -6.8844   10.8708 O   0  0  0  0  0  0  0  0  0  0  0  0
   -7.6085   -6.9589    7.7511 C   0  0  0  0  0  0  0  0  0  0  0  0
   -8.7209   -6.4334    8.3772 C   0  0  0  0  0  0  0  0  0  0  0  0
   -9.8353   -7.2255    8.6271 C   0  0  0  0  0  0  0  0  0  0  0  0
   -9.8007   -8.5460    8.2346 C   0  0  0  0  0  0  0  0  0  0  0  0
   -8.7000   -9.0997    7.6053 C   0  0  0  0  0  0  0  0  0  0  0  0
   -7.6068   -8.2936    7.3684 C   0  0  0  0  0  0  0  0  0  0  0  0
   -5.3284   -6.2072    8.2840 C   0  0  0  0  0  0  0  0  0  0  0  0
   -6.4720   -6.2057    7.4804 O   0  0  0  0  0  0  0  0  0  0  0  0
   -8.6614  -10.4059    7.2149 O   0  0  0  0  0  0  0  0  0  0  0  0
   -9.5987  -11.0678    6.4104 C   0  0  0  0  0  0  0  0  0  0  0  0
   -6.5103   -8.8539    6.7391 O   0  0  0  0  0  0  0  0  0  0  0  0
   -6.3768   -8.6633    5.3402 C   0  0  0  0  0  0  0  0  0  0  0  0
  -12.6999   -7.1249    8.7666 N   0  0  0  0  0  0  0  0  0  0  0  0
  -12.4292   -8.0308    7.6922 C   0  0  0  0  0  0  0  0  0  0  0  0
  -13.4008   -7.9246    6.5387 C   0  0  0  0  0  0  0  0  0  0  0  0
  -14.7829   -7.6507    7.0319 C   0  0  0  0  0  0  0  0  0  0  0  0
  -14.8233   -6.3394    7.7851 C   0  0  0  0  0  0  0  0  0  0  0  0
  -13.5094   -5.9927    8.4069 C   0  0  0  0  0  0  0  0  0  0  0  0
  -15.6855   -7.6306    5.8438 C   0  0  0  0  0  0  0  0  0  0  0  0
  -15.6647   -8.6309    4.8985 C   0  0  0  0  0  0  0  0  0  0  0  0
  -16.5056   -8.5998    3.8017 C   0  0  0  0  0  0  0  0  0  0  0  0
  -17.3991   -7.5668    3.6089 C   0  0  0  0  0  0  0  0  0  0  0  0
  -18.4693   -7.5290    2.2116 Cl  0  0  0  0  0  0  0  0  0  0  0  0
  -17.4276   -6.5674    4.5431 C   0  0  0  0  0  0  0  0  0  0  0  0
  -18.5608   -5.2504    4.3047 Cl  0  0  0  0  0  0  0  0  0  0  0  0
  -16.5889   -6.5883    5.6470 C   0  0  0  0  0  0  0  0  0  0  0  0
 10 11  1  0  0  0
 11  4  1  0  0  0
  4  5  2  0  0  0
  5  6  1  0  0  0
  6  7  2  0  0  0
  7  8  1  0  0  0
  8 12  1  0  0  0
 12 13  1  0  0  0
  8  9  2  0  0  0
  9 14  1  0  0  0
 14 15  1  0  0  0
  6  1  1  0  0  0
  1  2  2  0  0  0
  1  3  2  0  0  0
  1 16  1  0  0  0
 16 17  1  0  0  0
 17 18  1  0  0  0
 18 19  1  0  0  0
 19 20  1  0  0  0
 20 21  1  0  0  0
 19 22  1  0  0  0
 22 23  2  0  0  0
 23 24  1  0  0  0
 24 25  2  0  0  0
 25 26  1  0  0  0
 25 27  1  0  0  0
 27 28  1  0  0  0
 27 29  2  0  0  0
  9  4  1  0  0  0
 21 16  1  0  0  0
 29 22  1  0  0  0
M  END
> <minimizedAffinity>
-4.03966

> <CNNscore>
0.2879325449

> <CNNaffinity>
6.7669882774

> <CNN_VS>
1.9484361410

> <CNNaffinity_variance>
0.0704146847

$$$$
[H]c1c([H])c(C2([H])C([H])([H])C([H])([H])N(S(=O)(=O)c3c([H])c(OC([H])([H])[H])c(OC([H])([H])[H])c(OC([H])([H])[H])c3[H])C([H])([H])C2([H])[H])c([H])c(Cl)c1Cl


 29 31  0  0  0  0  0  0  0  0999 V2000
   -4.0417   -7.1108    6.9531 S   0  0  0  0  0  0  0  0  0  0  0  0
   -3.2460   -8.2344    7.5171 O   0  0  0  0  0  0  0  0  0  0  0  0
   -3.4980   -6.7757    5.6001 O   0  0  0  0  0  0  0  0  0  0  0  0
   -3.1250   -3.4389    8.2634 C   0  0  0  0  0  0  0  0  0  0  0  0
   -3.2734   -4.5631    7.4761 C   0  0  0  0  0  0  0  0  0  0  0  0
   -3.8748   -5.7095    7.9818 C   0  0  0  0  0  0  0  0  0  0  0  0
   -4.3180   -5.6946    9.2866 C   0  0  0  0  0  0  0  0  0  0  0  0
   -4.1826   -4.5828   10.0988 C   0  0  0  0  0  0  0  0  0  0  0  0
   -3.5827   -3.4577    9.5741 C   0  0  0  0  0  0  0  0  0  0  0  0
   -1.1542   -2.1228    7.6065 C   0  0  0  0  0  0  0  0  0  0  0  0
   -2.5303   -2.2706    7.8013 O   0  0  0  0  0  0  0  0  0  0  0  0
   -4.6196   -4.5636   11.3906 O   0  0  0  0  0  0  0  0  0  0  0  0
   -4.0369   -5.2219   12.4818 C   0  0  0  0  0  0  0  0  0  0  0  0
   -3.4508   -2.3503   10.3917 O   0  0  0  0  0  0  0  0  0  0  0  0
   -2.2655   -2.2283   11.1606 C   0  0  0  0  0  0  0  0  0  0  0  0
   -5.6944   -7.5652    6.7649 N   0  0  0  0  0  0  0  0  0  0  0  0
   -6.5040   -6.4034    6.5575 C   0  0  0  0  0  0  0  0  0  0  0  0
   -7.8513   -6.4627    7.2410 C   0  0  0  0  0  0  0  0  0  0  0  0
   -8.4061   -7.8481    7.2019 C   0  0  0  0  0  0  0  0  0  0  0  0
   -7.4847   -8.8053    7.9252 C   0  0  0  0  0  0  0  0  0  0  0  0
   -6.0600   -8.3545    7.9094 C   0  0  0  0  0  0  0  0  0  0  0  0
   -9.7586   -7.8056    7.8308 C   0  0  0  0  0  0  0  0  0  0  0  0
  -10.1553   -6.7581    8.6309 C   0  0  0  0  0  0  0  0  0  0  0  0
  -11.4110   -6.7314    9.2086 C   0  0  0  0  0  0  0  0  0  0  0  0
  -12.3174   -7.7516    9.0078 C   0  0  0  0  0  0  0  0  0  0  0  0
  -13.9161   -7.7157    9.7440 Cl  0  0  0  0  0  0  0  0  0  0  0  0
  -11.9327   -8.7975    8.2138 C   0  0  0  0  0  0  0  0  0  0  0  0
  -13.0796  -10.0985    7.9540 Cl  0  0  0  0  0  0  0  0  0  0  0  0
  -10.6760   -8.8348    7.6294 C   0  0  0  0  0  0  0  0  0  0  0  0
 10 11  1  0  0  0
 11  4  1  0  0  0
  4  5  2  0  0  0
  5  6  1  0  0  0
  6  7  2  0  0  0
  7  8  1  0  0  0
  8 12  1  0  0  0
 12 13  1  0  0  0
  8  9  2  0  0  0
  9 14  1  0  0  0
 14 15  1  0  0  0
  6  1  1  0  0  0
  1  2  2  0  0  0
  1  3  2  0  0  0
  1 16  1  0  0  0
 16 17  1  0  0  0
 17 18  1  0  0  0
 18 19  1  0  0  0
 19 20  1  0  0  0
 20 21  1  0  0  0
 19 22  1  0  0  0
 22 23  2  0  0  0
 23 24  1  0  0  0
 24 25  2  0  0  0
 25 26  1  0  0  0
 25 27  1  0  0  0
 27 28  1  0  0  0
 27 29  2  0  0  0
  9  4  1  0  0  0
 21 16  1  0  0  0
 29 22  1  0  0  0
M  END
> <minimizedAffinity>
-6.96598

> <CNNscore>
0.2839798629

> <CNNaffinity>
6.1045074463

> <CNN_VS>
1.7335572243

> <CNNaffinity_variance>
0.0612679012

$$$$
[H]c1c([H])c(C2([H])C([H])([H])C([H])([H])N(S(=O)(=O)c3c([H])c(OC([H])([H])[H])c(OC([H])([H])[H])c(OC([H])([H])[H])c3[H])C([H])([H])C2([H])[H])c([H])c(Cl)c1Cl


 29 31  0  0  0  0  0  0  0  0999 V2000
  -11.1748   -6.5143    9.4002 S   0  0  0  0  0  0  0  0  0  0  0  0
  -11.1461   -5.0307    9.2926 O   0  0  0  0  0  0  0  0  0  0  0  0
  -11.1300   -6.8866   10.8486 O   0  0  0  0  0  0  0  0  0  0  0  0
   -8.6727   -9.0709    7.5994 C   0  0  0  0  0  0  0  0  0  0  0  0
   -9.7707   -8.5141    8.2239 C   0  0  0  0  0  0  0  0  0  0  0  0
   -9.7658   -7.1794    8.6114 C   0  0  0  0  0  0  0  0  0  0  0  0
   -8.6390   -6.4282    8.3566 C   0  0  0  0  0  0  0  0  0  0  0  0
   -7.5242   -6.9593    7.7327 C   0  0  0  0  0  0  0  0  0  0  0  0
   -7.5533   -8.2858    7.3577 C   0  0  0  0  0  0  0  0  0  0  0  0
   -9.6386  -11.0163    6.4461 C   0  0  0  0  0  0  0  0  0  0  0  0
   -8.6318  -10.4000    7.1943 O   0  0  0  0  0  0  0  0  0  0  0  0
   -6.4067   -6.2198    7.4787 O   0  0  0  0  0  0  0  0  0  0  0  0
   -5.2474   -6.1572    8.2634 C   0  0  0  0  0  0  0  0  0  0  0  0
   -6.4355   -8.8098    6.7346 O   0  0  0  0  0  0  0  0  0  0  0  0
   -6.3369   -8.6800    5.3259 C   0  0  0  0  0  0  0  0  0  0  0  0
  -12.6328   -7.1483    8.7327 N   0  0  0  0  0  0  0  0  0  0  0  0
  -12.3371   -7.9879    7.6120 C   0  0  0  0  0  0  0  0  0  0  0  0
  -13.3265   -7.8672    6.4752 C   0  0  0  0  0  0  0  0  0  0  0  0
  -14.7128   -7.6778    6.9955 C   0  0  0  0  0  0  0  0  0  0  0  0
  -14.7998   -6.4080    7.8131 C   0  0  0  0  0  0  0  0  0  0  0  0
  -13.4943   -6.0358    8.4378 C   0  0  0  0  0  0  0  0  0  0  0  0
  -15.6300   -7.6384    5.8191 C   0  0  0  0  0  0  0  0  0  0  0  0
  -15.6178   -8.6207    4.8550 C   0  0  0  0  0  0  0  0  0  0  0  0
  -16.4722   -8.5718    3.7693 C   0  0  0  0  0  0  0  0  0  0  0  0
  -17.3712   -7.5383    3.6069 C   0  0  0  0  0  0  0  0  0  0  0  0
  -18.4587   -7.4779    2.2238 Cl  0  0  0  0  0  0  0  0  0  0  0  0
  -17.3912   -6.5568    4.5600 C   0  0  0  0  0  0  0  0  0  0  0  0
  -18.5313   -5.2392    4.3603 Cl  0  0  0  0  0  0  0  0  0  0  0  0
  -16.5390   -6.5956    5.6530 C   0  0  0  0  0  0  0  0  0  0  0  0
 10 11  1  0  0  0
 11  4  1  0  0  0
  4  5  2  0  0  0
  5  6  1  0  0  0
  6  7  2  0  0  0
  7  8  1  0  0  0
  8 12  1  0  0  0
 12 13  1  0  0  0
  8  9  2  0  0  0
  9 14  1  0  0  0
 14 15  1  0  0  0
  6  1  1  0  0  0
  1  2  2  0  0  0
  1  3  2  0  0  0
  1 16  1  0  0  0
 16 17  1  0  0  0
 17 18  1  0  0  0
 18 19  1  0  0  0
 19 20  1  0  0  0
 20 21  1  0  0  0
 19 22  1  0  0  0
 22 23  2  0  0  0
 23 24  1  0  0  0
 24 25  2  0  0  0
 25 26  1  0  0  0
 25 27  1  0  0  0
 27 28  1  0  0  0
 27 29  2  0  0  0
  9  4  1  0  0  0
 21 16  1  0  0  0
 29 22  1  0  0  0
M  END
> <minimizedAffinity>
-4.25098

> <CNNscore>
0.2807961106

> <CNNaffinity>
6.7580575943

> <CNN_VS>
1.8976362944

> <CNNaffinity_variance>
0.0644180477

$$$$
[H]c1c([H])c(C2([H])C([H])([H])C([H])([H])N(S(=O)(=O)c3c([H])c(OC([H])([H])[H])c(OC([H])([H])[H])c(OC([H])([H])[H])c3[H])C([H])([H])C2([H])[H])c([H])c(Cl)c1Cl


 29 31  0  0  0  0  0  0  0  0999 V2000
   -3.9921   -7.0905    6.9763 S   0  0  0  0  0  0  0  0  0  0  0  0
   -3.2196   -8.1999    7.5977 O   0  0  0  0  0  0  0  0  0  0  0  0
   -3.4196   -6.8131    5.6222 O   0  0  0  0  0  0  0  0  0  0  0  0
   -4.1685   -4.5498   10.0672 C   0  0  0  0  0  0  0  0  0  0  0  0
   -4.2814   -5.6698    9.2681 C   0  0  0  0  0  0  0  0  0  0  0  0
   -3.8291   -5.6528    7.9540 C   0  0  0  0  0  0  0  0  0  0  0  0
   -3.2664   -4.4914    7.4708 C   0  0  0  0  0  0  0  0  0  0  0  0
   -3.1403   -3.3539    8.2483 C   0  0  0  0  0  0  0  0  0  0  0  0
   -3.5965   -3.3957    9.5487 C   0  0  0  0  0  0  0  0  0  0  0  0
   -3.9773   -5.2037   12.4301 C   0  0  0  0  0  0  0  0  0  0  0  0
   -4.6064   -4.5199   11.3861 O   0  0  0  0  0  0  0  0  0  0  0  0
   -2.5843   -2.2023    7.7742 O   0  0  0  0  0  0  0  0  0  0  0  0
   -1.3445   -2.0725    7.1341 C   0  0  0  0  0  0  0  0  0  0  0  0
   -3.4672   -2.2552   10.3198 O   0  0  0  0  0  0  0  0  0  0  0  0
   -2.2929   -2.1102   11.1015 C   0  0  0  0  0  0  0  0  0  0  0  0
   -5.6459   -7.5348    6.7740 N   0  0  0  0  0  0  0  0  0  0  0  0
   -6.4524   -6.3651    6.6015 C   0  0  0  0  0  0  0  0  0  0  0  0
   -7.8001   -6.4415    7.2825 C   0  0  0  0  0  0  0  0  0  0  0  0
   -8.3586   -7.8235    7.2014 C   0  0  0  0  0  0  0  0  0  0  0  0
   -7.4399   -8.8046    7.8958 C   0  0  0  0  0  0  0  0  0  0  0  0
   -6.0141   -8.3573    7.8940 C   0  0  0  0  0  0  0  0  0  0  0  0
   -9.7112   -7.7965    7.8309 C   0  0  0  0  0  0  0  0  0  0  0  0
  -10.1106   -6.7655    8.6508 C   0  0  0  0  0  0  0  0  0  0  0  0
  -11.3663   -6.7531    9.2288 C   0  0  0  0  0  0  0  0  0  0  0  0
  -12.2702   -7.7716    9.0085 C   0  0  0  0  0  0  0  0  0  0  0  0
  -13.8690   -7.7538    9.7451 Cl  0  0  0  0  0  0  0  0  0  0  0  0
  -11.8827   -8.8012    8.1948 C   0  0  0  0  0  0  0  0  0  0  0  0
  -13.0263  -10.0999    7.9102 Cl  0  0  0  0  0  0  0  0  0  0  0  0
  -10.6259   -8.8240    7.6098 C   0  0  0  0  0  0  0  0  0  0  0  0
 10 11  1  0  0  0
 11  4  1  0  0  0
  4  5  2  0  0  0
  5  6  1  0  0  0
  6  7  2  0  0  0
  7  8  1  0  0  0
  8 12  1  0  0  0
 12 13  1  0  0  0
  8  9  2  0  0  0
  9 14  1  0  0  0
 14 15  1  0  0  0
  6  1  1  0  0  0
  1  2  2  0  0  0
  1  3  2  0  0  0
  1 16  1  0  0  0
 16 17  1  0  0  0
 17 18  1  0  0  0
 18 19  1  0  0  0
 19 20  1  0  0  0
 20 21  1  0  0  0
 19 22  1  0  0  0
 22 23  2  0  0  0
 23 24  1  0  0  0
 24 25  2  0  0  0
 25 26  1  0  0  0
 25 27  1  0  0  0
 27 28  1  0  0  0
 27 29  2  0  0  0
  9  4  1  0  0  0
 21 16  1  0  0  0
 29 22  1  0  0  0
M  END
> <minimizedAffinity>
-6.87892

> <CNNscore>
0.2762391567

> <CNNaffinity>
6.0994124413

> <CNN_VS>
1.6848965883

> <CNNaffinity_variance>
0.0544842780

$$$$
[H]c1c([H])c(C2([H])C([H])([H])C([H])([H])N(S(=O)(=O)c3c([H])c(OC([H])([H])[H])c(OC([H])([H])[H])c(OC([H])([H])[H])c3[H])C([H])([H])C2([H])[H])c([H])c(Cl)c1Cl


 29 31  0  0  0  0  0  0  0  0999 V2000
  -13.9108   -7.0667    6.2009 S   0  0  0  0  0  0  0  0  0  0  0  0
  -14.0259   -5.5900    6.0605 O   0  0  0  0  0  0  0  0  0  0  0  0
  -13.7451   -7.6620    4.8383 O   0  0  0  0  0  0  0  0  0  0  0  0
  -17.6817   -8.3421    6.6399 C   0  0  0  0  0  0  0  0  0  0  0  0
  -16.5062   -7.8478    6.1113 C   0  0  0  0  0  0  0  0  0  0  0  0
  -15.3776   -7.6972    6.9083 C   0  0  0  0  0  0  0  0  0  0  0  0
  -15.4625   -8.0534    8.2368 C   0  0  0  0  0  0  0  0  0  0  0  0
  -16.6270   -8.5513    8.7938 C   0  0  0  0  0  0  0  0  0  0  0  0
  -17.7331   -8.6915    7.9827 C   0  0  0  0  0  0  0  0  0  0  0  0
  -19.0077   -7.9785    4.6009 C   0  0  0  0  0  0  0  0  0  0  0  0
  -18.8348   -8.5099    5.8820 O   0  0  0  0  0  0  0  0  0  0  0  0
  -16.7158   -8.9050   10.1080 O   0  0  0  0  0  0  0  0  0  0  0  0
  -15.6694   -8.9357   11.0397 C   0  0  0  0  0  0  0  0  0  0  0  0
  -18.8934   -9.1897    8.5463 O   0  0  0  0  0  0  0  0  0  0  0  0
  -19.8544   -9.7747    7.6830 C   0  0  0  0  0  0  0  0  0  0  0  0
  -12.5248   -7.4862    7.1370 N   0  0  0  0  0  0  0  0  0  0  0  0
  -11.7478   -6.3174    7.4175 C   0  0  0  0  0  0  0  0  0  0  0  0
  -10.2541   -6.5467    7.3730 C   0  0  0  0  0  0  0  0  0  0  0  0
   -9.9071   -7.8934    7.9157 C   0  0  0  0  0  0  0  0  0  0  0  0
  -10.5604   -8.9789    7.0891 C   0  0  0  0  0  0  0  0  0  0  0  0
  -11.8196   -8.5193    6.4285 C   0  0  0  0  0  0  0  0  0  0  0  0
   -8.4196   -8.0112    7.9013 C   0  0  0  0  0  0  0  0  0  0  0  0
   -7.7551   -8.7039    6.9148 C   0  0  0  0  0  0  0  0  0  0  0  0
   -6.3765   -8.8064    6.9136 C   0  0  0  0  0  0  0  0  0  0  0  0
   -5.6103   -8.2199    7.8994 C   0  0  0  0  0  0  0  0  0  0  0  0
   -3.8548   -8.3513    7.8961 Cl  0  0  0  0  0  0  0  0  0  0  0  0
   -6.2615   -7.5290    8.8847 C   0  0  0  0  0  0  0  0  0  0  0  0
   -5.2942   -6.7807   10.1418 Cl  0  0  0  0  0  0  0  0  0  0  0  0
   -7.6436   -7.4196    8.8959 C   0  0  0  0  0  0  0  0  0  0  0  0
 10 11  1  0  0  0
 11  4  1  0  0  0
  4  5  2  0  0  0
  5  6  1  0  0  0
  6  7  2  0  0  0
  7  8  1  0  0  0
  8 12  1  0  0  0
 12 13  1  0  0  0
  8  9  2  0  0  0
  9 14  1  0  0  0
 14 15  1  0  0  0
  6  1  1  0  0  0
  1  2  2  0  0  0
  1  3  2  0  0  0
  1 16  1  0  0  0
 16 17  1  0  0  0
 17 18  1  0  0  0
 18 19  1  0  0  0
 19 20  1  0  0  0
 20 21  1  0  0  0
 19 22  1  0  0  0
 22 23  2  0  0  0
 23 24  1  0  0  0
 24 25  2  0  0  0
 25 26  1  0  0  0
 25 27  1  0  0  0
 27 28  1  0  0  0
 27 29  2  0  0  0
  9  4  1  0  0  0
 21 16  1  0  0  0
 29 22  1  0  0  0
M  END
> <minimizedAffinity>
9.52965

> <CNNscore>
0.2483972758

> <CNNaffinity>
6.2366356850

> <CNN_VS>
1.5491633415

> <CNNaffinity_variance>
1.0390626192

$$$$
[H]c1c([H])c(C2([H])C([H])([H])C([H])([H])N(S(=O)(=O)c3c([H])c(OC([H])([H])[H])c(OC([H])([H])[H])c(OC([H])([H])[H])c3[H])C([H])([H])C2([H])[H])c([H])c(Cl)c1Cl


 29 31  0  0  0  0  0  0  0  0999 V2000
  -10.3677   -6.1248    9.3315 S   0  0  0  0  0  0  0  0  0  0  0  0
  -10.5348   -4.6817    9.0103 O   0  0  0  0  0  0  0  0  0  0  0  0
  -10.0319   -6.2525   10.7839 O   0  0  0  0  0  0  0  0  0  0  0  0
   -7.4407   -8.5379    8.0473 C   0  0  0  0  0  0  0  0  0  0  0  0
   -8.4878   -7.9955    8.7649 C   0  0  0  0  0  0  0  0  0  0  0  0
   -9.0452   -6.7769    8.3959 C   0  0  0  0  0  0  0  0  0  0  0  0
   -8.5266   -6.1261    7.2975 C   0  0  0  0  0  0  0  0  0  0  0  0
   -7.4778   -6.6455    6.5597 C   0  0  0  0  0  0  0  0  0  0  0  0
   -6.9418   -7.8558    6.9457 C   0  0  0  0  0  0  0  0  0  0  0  0
   -7.4249  -10.9965    8.1000 C   0  0  0  0  0  0  0  0  0  0  0  0
   -6.8517   -9.7526    8.3787 O   0  0  0  0  0  0  0  0  0  0  0  0
   -6.9612   -6.0049    5.4722 O   0  0  0  0  0  0  0  0  0  0  0  0
   -7.1399   -6.3591    4.1282 C   0  0  0  0  0  0  0  0  0  0  0  0
   -5.8938   -8.3688    6.2035 O   0  0  0  0  0  0  0  0  0  0  0  0
   -4.5737   -8.1304    6.6632 C   0  0  0  0  0  0  0  0  0  0  0  0
  -11.8323   -6.9889    9.0460 N   0  0  0  0  0  0  0  0  0  0  0  0
  -11.7206   -7.7653    7.8490 C   0  0  0  0  0  0  0  0  0  0  0  0
  -12.9860   -7.8066    7.0225 C   0  0  0  0  0  0  0  0  0  0  0  0
  -14.1926   -7.8499    7.9005 C   0  0  0  0  0  0  0  0  0  0  0  0
  -14.2557   -6.6140    8.7705 C   0  0  0  0  0  0  0  0  0  0  0  0
  -12.9061   -6.0331    9.0430 C   0  0  0  0  0  0  0  0  0  0  0  0
  -15.3872   -7.9594    7.0130 C   0  0  0  0  0  0  0  0  0  0  0  0
  -16.6664   -7.7901    7.4923 C   0  0  0  0  0  0  0  0  0  0  0  0
  -17.7648   -7.8952    6.6596 C   0  0  0  0  0  0  0  0  0  0  0  0
  -17.6253   -8.1737    5.3159 C   0  0  0  0  0  0  0  0  0  0  0  0
  -19.0253   -8.3068    4.2569 Cl  0  0  0  0  0  0  0  0  0  0  0  0
  -16.3577   -8.3436    4.8295 C   0  0  0  0  0  0  0  0  0  0  0  0
  -16.1722   -8.6982    3.1221 Cl  0  0  0  0  0  0  0  0  0  0  0  0
  -15.2488   -8.2404    5.6554 C   0  0  0  0  0  0  0  0  0  0  0  0
 10 11  1  0  0  0
 11  4  1  0  0  0
  4  5  2  0  0  0
  5  6  1  0  0  0
  6  7  2  0  0  0
  7  8  1  0  0  0
  8 12  1  0  0  0
 12 13  1  0  0  0
  8  9  2  0  0  0
  9 14  1  0  0  0
 14 15  1  0  0  0
  6  1  1  0  0  0
  1  2  2  0  0  0
  1  3  2  0  0  0
  1 16  1  0  0  0
 16 17  1  0  0  0
 17 18  1  0  0  0
 18 19  1  0  0  0
 19 20  1  0  0  0
 20 21  1  0  0  0
 19 22  1  0  0  0
 22 23  2  0  0  0
 23 24  1  0  0  0
 24 25  2  0  0  0
 25 26  1  0  0  0
 25 27  1  0  0  0
 27 28  1  0  0  0
 27 29  2  0  0  0
  9  4  1  0  0  0
 21 16  1  0  0  0
 29 22  1  0  0  0
M  END
> <minimizedAffinity>
-1.69298

> <CNNscore>
0.2160338610

> <CNNaffinity>
6.6243238449

> <CNN_VS>
1.4310783148

> <CNNaffinity_variance>
0.1646547019

$$$$
[H]c1c([H])c(S(=O)(=O)N2C([H])([H])C([H])([H])C([H])(N([H])C(=O)c3c([H])n([H])c4c([H])c([H])c(F)c([H])c34)C([H])([H])C2([H])[H])c([H])c([H])c1OC([H])([H])[H]


 32 35  0  0  0  0  0  0  0  0999 V2000
  -15.3978   -7.0276    6.4939 N   0  0  0  0  0  0  0  0  0  0  0  0
  -16.0283   -7.3469    7.7368 C   0  0  0  0  0  0  0  0  0  0  0  0
  -15.6909   -8.7248    8.2591 C   0  0  0  0  0  0  0  0  0  0  0  0
  -14.1793   -8.8941    8.2862 C   0  0  0  0  0  0  0  0  0  0  0  0
  -13.5808   -8.6375    6.9382 C   0  0  0  0  0  0  0  0  0  0  0  0
  -13.9973   -7.2766    6.4633 C   0  0  0  0  0  0  0  0  0  0  0  0
  -13.6562   -8.0216    9.3106 N   0  0  0  0  0  0  0  0  0  0  0  0
  -12.4042   -7.4147    9.2871 C   0  0  0  0  0  0  0  0  0  0  0  0
  -11.6237   -7.6031    8.3270 O   0  0  0  0  0  0  0  0  0  0  0  0
  -14.3000   -7.8547   10.1229 H   0  0  0  0  0  0  0  0  0  0  0  0
  -11.9804   -6.5532   10.3750 C   0  0  0  0  0  0  0  0  0  0  0  0
  -11.2882   -6.8869   11.5212 C   0  0  0  0  0  0  0  0  0  0  0  0
  -11.1126   -5.7856   12.2466 N   0  0  0  0  0  0  0  0  0  0  0  0
  -11.6526   -4.7128   11.6499 C   0  0  0  0  0  0  0  0  0  0  0  0
  -11.7134   -3.3885   12.0204 C   0  0  0  0  0  0  0  0  0  0  0  0
  -12.3500   -2.5035   11.1748 C   0  0  0  0  0  0  0  0  0  0  0  0
  -12.9075   -2.9681    9.9831 C   0  0  0  0  0  0  0  0  0  0  0  0
  -13.5395   -2.1259    9.1306 F   0  0  0  0  0  0  0  0  0  0  0  0
  -12.8370   -4.2920    9.6307 C   0  0  0  0  0  0  0  0  0  0  0  0
  -12.2007   -5.1735   10.4767 C   0  0  0  0  0  0  0  0  0  0  0  0
  -10.6184   -5.7234   13.1754 H   0  0  0  0  0  0  0  0  0  0  0  0
  -16.2479   -7.6194    5.1362 S   0  0  0  0  0  0  0  0  0  0  0  0
  -15.3811   -8.6788    4.4709 O   0  0  0  0  0  0  0  0  0  0  0  0
  -16.4650   -6.5628    4.0942 O   0  0  0  0  0  0  0  0  0  0  0  0
  -20.1738   -9.6009    6.3630 C   0  0  0  0  0  0  0  0  0  0  0  0
  -19.7106   -9.6892    5.0665 C   0  0  0  0  0  0  0  0  0  0  0  0
  -18.5223   -9.0935    4.6824 C   0  0  0  0  0  0  0  0  0  0  0  0
  -17.7552   -8.3857    5.5914 C   0  0  0  0  0  0  0  0  0  0  0  0
  -18.2385   -8.3093    6.8882 C   0  0  0  0  0  0  0  0  0  0  0  0
  -19.4202   -8.8997    7.2775 C   0  0  0  0  0  0  0  0  0  0  0  0
  -21.4044  -11.6274    6.9577 C   0  0  0  0  0  0  0  0  0  0  0  0
  -21.3829  -10.2119    6.7340 O   0  0  0  0  0  0  0  0  0  0  0  0
 31 32  1  0  0  0
 32 25  1  0  0  0
 25 26  2  0  0  0
 26 27  1  0  0  0
 27 28  2  0  0  0
 28 29  1  0  0  0
 29 30  2  0  0  0
 28 22  1  0  0  0
 22 23  2  0  0  0
 22 24  2  0  0  0
 22  1  1  0  0  0
  1  2  1  0  0  0
  2  3  1  0  0  0
  3  4  1  0  0  0
  4  5  1  0  0  0
  5  6  1  0  0  0
  4  7  1  0  0  0
  7  8  1  0  0  0
  8  9  2  0  0  0
  8 11  1  0  0  0
 11 12  2  0  0  0
 12 13  1  0  0  0
 13 14  1  0  0  0
 14 15  2  0  0  0
 15 16  1  0  0  0
 16 17  2  0  0  0
 17 18  1  0  0  0
 17 19  1  0  0  0
 19 20  2  0  0  0
 30 25  1  0  0  0
  6  1  1  0  0  0
 20 11  1  0  0  0
 20 14  1  0  0  0
  7 10  1  0  0  0
 13 21  1  0  0  0
M  END
> <minimizedAffinity>
11.10781

> <CNNscore>
0.5160819292

> <CNNaffinity>
6.7405753136

> <CNN_VS>
3.4786891937

> <CNNaffinity_variance>
0.5844916105

$$$$
[H]c1c([H])c(S(=O)(=O)N2C([H])([H])C([H])([H])C([H])(N([H])C(=O)c3c([H])n([H])c4c([H])c([H])c(F)c([H])c34)C([H])([H])C2([H])[H])c([H])c([H])c1OC([H])([H])[H]


 32 35  0  0  0  0  0  0  0  0999 V2000
   -6.0203   -5.9591    6.7810 N   0  0  0  0  0  0  0  0  0  0  0  0
   -6.6448   -6.5946    5.6628 C   0  0  0  0  0  0  0  0  0  0  0  0
   -6.5070   -8.1000    5.6576 C   0  0  0  0  0  0  0  0  0  0  0  0
   -6.9657   -8.6497    6.9999 C   0  0  0  0  0  0  0  0  0  0  0  0
   -6.2153   -8.0164    8.1300 C   0  0  0  0  0  0  0  0  0  0  0  0
   -6.3555   -6.5253    8.0425 C   0  0  0  0  0  0  0  0  0  0  0  0
   -8.3931   -8.4546    7.0918 N   0  0  0  0  0  0  0  0  0  0  0  0
   -9.3253   -9.4528    7.3584 C   0  0  0  0  0  0  0  0  0  0  0  0
   -8.9569  -10.6348    7.5418 O   0  0  0  0  0  0  0  0  0  0  0  0
   -8.7171   -7.4676    6.9394 H   0  0  0  0  0  0  0  0  0  0  0  0
  -10.7409   -9.1420    7.4281 C   0  0  0  0  0  0  0  0  0  0  0  0
  -11.7940   -9.7646    6.7897 C   0  0  0  0  0  0  0  0  0  0  0  0
  -12.9227   -9.1521    7.1371 N   0  0  0  0  0  0  0  0  0  0  0  0
  -12.6912   -8.1387    7.9843 C   0  0  0  0  0  0  0  0  0  0  0  0
  -13.5368   -7.2431    8.5988 C   0  0  0  0  0  0  0  0  0  0  0  0
  -12.9857   -6.2953    9.4363 C   0  0  0  0  0  0  0  0  0  0  0  0
  -11.6049   -6.2702    9.6354 C   0  0  0  0  0  0  0  0  0  0  0  0
  -11.0315   -5.3529   10.4511 F   0  0  0  0  0  0  0  0  0  0  0  0
  -10.7779   -7.1712    9.0141 C   0  0  0  0  0  0  0  0  0  0  0  0
  -11.3307   -8.1166    8.1784 C   0  0  0  0  0  0  0  0  0  0  0  0
  -13.8930   -9.4014    6.8101 H   0  0  0  0  0  0  0  0  0  0  0  0
   -4.3501   -5.6856    6.5536 S   0  0  0  0  0  0  0  0  0  0  0  0
   -3.9470   -4.5127    7.4358 O   0  0  0  0  0  0  0  0  0  0  0  0
   -4.0268   -5.2651    5.1506 O   0  0  0  0  0  0  0  0  0  0  0  0
   -1.8330   -9.2605    7.8679 C   0  0  0  0  0  0  0  0  0  0  0  0
   -2.5700   -9.3033    6.7025 C   0  0  0  0  0  0  0  0  0  0  0  0
   -3.3364   -8.2265    6.2931 C   0  0  0  0  0  0  0  0  0  0  0  0
   -3.3888   -7.0647    7.0437 C   0  0  0  0  0  0  0  0  0  0  0  0
   -2.6411   -7.0427    8.2105 C   0  0  0  0  0  0  0  0  0  0  0  0
   -1.8761   -8.1106    8.6239 C   0  0  0  0  0  0  0  0  0  0  0  0
   -1.0601  -11.5416    7.4501 C   0  0  0  0  0  0  0  0  0  0  0  0
   -1.0613  -10.3641    8.2673 O   0  0  0  0  0  0  0  0  0  0  0  0
 31 32  1  0  0  0
 32 25  1  0  0  0
 25 26  2  0  0  0
 26 27  1  0  0  0
 27 28  2  0  0  0
 28 29  1  0  0  0
 29 30  2  0  0  0
 28 22  1  0  0  0
 22 23  2  0  0  0
 22 24  2  0  0  0
 22  1  1  0  0  0
  1  2  1  0  0  0
  2  3  1  0  0  0
  3  4  1  0  0  0
  4  5  1  0  0  0
  5  6  1  0  0  0
  4  7  1  0  0  0
  7  8  1  0  0  0
  8  9  2  0  0  0
  8 11  1  0  0  0
 11 12  2  0  0  0
 12 13  1  0  0  0
 13 14  1  0  0  0
 14 15  2  0  0  0
 15 16  1  0  0  0
 16 17  2  0  0  0
 17 18  1  0  0  0
 17 19  1  0  0  0
 19 20  2  0  0  0
 30 25  1  0  0  0
  6  1  1  0  0  0
 20 11  1  0  0  0
 20 14  1  0  0  0
  7 10  1  0  0  0
 13 21  1  0  0  0
M  END
> <minimizedAffinity>
-8.19316

> <CNNscore>
0.4712010622

> <CNNaffinity>
6.5239753723

> <CNN_VS>
3.0741040707

> <CNNaffinity_variance>
0.0836882219

$$$$
[H]c1c([H])c(S(=O)(=O)N2C([H])([H])C([H])([H])C([H])(N([H])C(=O)c3c([H])n([H])c4c([H])c([H])c(F)c([H])c34)C([H])([H])C2([H])[H])c([H])c([H])c1OC([H])([H])[H]


 32 35  0  0  0  0  0  0  0  0999 V2000
   -6.4872   -6.6010    7.5164 N   0  0  0  0  0  0  0  0  0  0  0  0
   -7.1517   -7.0249    6.3235 C   0  0  0  0  0  0  0  0  0  0  0  0
   -7.1885   -8.5253    6.1423 C   0  0  0  0  0  0  0  0  0  0  0  0
   -7.7419   -9.1689    7.4048 C   0  0  0  0  0  0  0  0  0  0  0  0
   -6.9528   -8.7635    8.6106 C   0  0  0  0  0  0  0  0  0  0  0  0
   -6.9178   -7.2662    8.6981 C   0  0  0  0  0  0  0  0  0  0  0  0
   -9.1392   -8.8194    7.5018 N   0  0  0  0  0  0  0  0  0  0  0  0
  -10.2008   -9.6429    7.1398 C   0  0  0  0  0  0  0  0  0  0  0  0
   -9.9901  -10.7904    6.6865 O   0  0  0  0  0  0  0  0  0  0  0  0
   -9.3314   -7.8590    7.8800 H   0  0  0  0  0  0  0  0  0  0  0  0
  -11.5710   -9.1866    7.2805 C   0  0  0  0  0  0  0  0  0  0  0  0
  -12.6909   -9.5883    6.5813 C   0  0  0  0  0  0  0  0  0  0  0  0
  -13.7405   -8.9075    7.0339 N   0  0  0  0  0  0  0  0  0  0  0  0
  -13.3910   -8.0581    8.0111 C   0  0  0  0  0  0  0  0  0  0  0  0
  -14.1259   -7.1692    8.7624 C   0  0  0  0  0  0  0  0  0  0  0  0
  -13.4666   -6.4192    9.7144 C   0  0  0  0  0  0  0  0  0  0  0  0
  -12.0914   -6.5796    9.8879 C   0  0  0  0  0  0  0  0  0  0  0  0
  -11.4136   -5.8590   10.8135 F   0  0  0  0  0  0  0  0  0  0  0  0
  -11.3757   -7.4708    9.1294 C   0  0  0  0  0  0  0  0  0  0  0  0
  -12.0364   -8.2184    8.1796 C   0  0  0  0  0  0  0  0  0  0  0  0
  -14.7341   -8.9959    6.6941 H   0  0  0  0  0  0  0  0  0  0  0  0
   -4.7912   -6.5013    7.3430 S   0  0  0  0  0  0  0  0  0  0  0  0
   -4.4916   -6.1712    5.8878 O   0  0  0  0  0  0  0  0  0  0  0  0
   -4.1128   -7.8126    7.6073 O   0  0  0  0  0  0  0  0  0  0  0  0
   -3.0263   -3.1806    9.9318 C   0  0  0  0  0  0  0  0  0  0  0  0
   -2.7795   -3.2282    8.5753 C   0  0  0  0  0  0  0  0  0  0  0  0
   -3.3088   -4.2291    7.7799 C   0  0  0  0  0  0  0  0  0  0  0  0
   -4.1078   -5.2206    8.3223 C   0  0  0  0  0  0  0  0  0  0  0  0
   -4.3433   -5.1542    9.6866 C   0  0  0  0  0  0  0  0  0  0  0  0
   -3.8198   -4.1610   10.4841 C   0  0  0  0  0  0  0  0  0  0  0  0
   -2.9507   -0.8152   10.5435 C   0  0  0  0  0  0  0  0  0  0  0  0
   -2.4796   -2.1569   10.7230 O   0  0  0  0  0  0  0  0  0  0  0  0
 31 32  1  0  0  0
 32 25  1  0  0  0
 25 26  2  0  0  0
 26 27  1  0  0  0
 27 28  2  0  0  0
 28 29  1  0  0  0
 29 30  2  0  0  0
 28 22  1  0  0  0
 22 23  2  0  0  0
 22 24  2  0  0  0
 22  1  1  0  0  0
  1  2  1  0  0  0
  2  3  1  0  0  0
  3  4  1  0  0  0
  4  5  1  0  0  0
  5  6  1  0  0  0
  4  7  1  0  0  0
  7  8  1  0  0  0
  8  9  2  0  0  0
  8 11  1  0  0  0
 11 12  2  0  0  0
 12 13  1  0  0  0
 13 14  1  0  0  0
 14 15  2  0  0  0
 15 16  1  0  0  0
 16 17  2  0  0  0
 17 18  1  0  0  0
 17 19  1  0  0  0
 19 20  2  0  0  0
 30 25  1  0  0  0
  6  1  1  0  0  0
 20 11  1  0  0  0
 20 14  1  0  0  0
  7 10  1  0  0  0
 13 21  1  0  0  0
M  END
> <minimizedAffinity>
-8.70678

> <CNNscore>
0.4273785353

> <CNNaffinity>
6.4812750816

> <CNN_VS>
2.7699577808

> <CNNaffinity_variance>
0.1855384260

$$$$
[H]c1c([H])c(S(=O)(=O)N2C([H])([H])C([H])([H])C([H])(N([H])C(=O)c3c([H])n([H])c4c([H])c([H])c(F)c([H])c34)C([H])([H])C2([H])[H])c([H])c([H])c1OC([H])([H])[H]


 32 35  0  0  0  0  0  0  0  0999 V2000
  -12.2637   -7.1264    7.7511 N   0  0  0  0  0  0  0  0  0  0  0  0
  -12.3345   -8.2040    6.8140 C   0  0  0  0  0  0  0  0  0  0  0  0
  -13.0241   -9.4380    7.3498 C   0  0  0  0  0  0  0  0  0  0  0  0
  -14.3769   -9.0461    7.9248 C   0  0  0  0  0  0  0  0  0  0  0  0
  -14.2351   -7.9798    8.9659 C   0  0  0  0  0  0  0  0  0  0  0  0
  -13.5006   -6.8105    8.3793 C   0  0  0  0  0  0  0  0  0  0  0  0
  -15.2256   -8.6514    6.8256 N   0  0  0  0  0  0  0  0  0  0  0  0
  -16.5197   -8.1546    6.9474 C   0  0  0  0  0  0  0  0  0  0  0  0
  -17.0447   -8.0168    8.0752 O   0  0  0  0  0  0  0  0  0  0  0  0
  -14.7984   -8.7621    5.8729 H   0  0  0  0  0  0  0  0  0  0  0  0
  -17.2841   -7.7879    5.7699 C   0  0  0  0  0  0  0  0  0  0  0  0
  -18.3624   -8.4369    5.2039 C   0  0  0  0  0  0  0  0  0  0  0  0
  -18.7537   -7.7536    4.1316 N   0  0  0  0  0  0  0  0  0  0  0  0
  -17.9932   -6.6663    3.9372 C   0  0  0  0  0  0  0  0  0  0  0  0
  -18.0259   -5.6819    2.9756 C   0  0  0  0  0  0  0  0  0  0  0  0
  -17.0904   -4.6702    3.0462 C   0  0  0  0  0  0  0  0  0  0  0  0
  -16.1491   -4.6719    4.0762 C   0  0  0  0  0  0  0  0  0  0  0  0
  -15.2169   -3.6938    4.1746 F   0  0  0  0  0  0  0  0  0  0  0  0
  -16.1322   -5.6619    5.0257 C   0  0  0  0  0  0  0  0  0  0  0  0
  -17.0673   -6.6708    4.9530 C   0  0  0  0  0  0  0  0  0  0  0  0
  -19.5535   -8.0023    3.4919 H   0  0  0  0  0  0  0  0  0  0  0  0
  -10.9413   -7.2532    8.8242 S   0  0  0  0  0  0  0  0  0  0  0  0
  -11.1905   -8.4515    9.7289 O   0  0  0  0  0  0  0  0  0  0  0  0
  -10.8351   -6.0707    9.7407 O   0  0  0  0  0  0  0  0  0  0  0  0
   -7.0166   -7.9607    6.6017 C   0  0  0  0  0  0  0  0  0  0  0  0
   -7.6110   -8.9712    7.3289 C   0  0  0  0  0  0  0  0  0  0  0  0
   -8.8004   -8.7696    8.0064 C   0  0  0  0  0  0  0  0  0  0  0  0
   -9.4363   -7.5405    7.9764 C   0  0  0  0  0  0  0  0  0  0  0  0
   -8.8225   -6.5394    7.2402 C   0  0  0  0  0  0  0  0  0  0  0  0
   -7.6389   -6.7331    6.5635 C   0  0  0  0  0  0  0  0  0  0  0  0
   -4.5768   -8.1034    6.6494 C   0  0  0  0  0  0  0  0  0  0  0  0
   -5.8085   -8.1844    5.9209 O   0  0  0  0  0  0  0  0  0  0  0  0
 31 32  1  0  0  0
 32 25  1  0  0  0
 25 26  2  0  0  0
 26 27  1  0  0  0
 27 28  2  0  0  0
 28 29  1  0  0  0
 29 30  2  0  0  0
 28 22  1  0  0  0
 22 23  2  0  0  0
 22 24  2  0  0  0
 22  1  1  0  0  0
  1  2  1  0  0  0
  2  3  1  0  0  0
  3  4  1  0  0  0
  4  5  1  0  0  0
  5  6  1  0  0  0
  4  7  1  0  0  0
  7  8  1  0  0  0
  8  9  2  0  0  0
  8 11  1  0  0  0
 11 12  2  0  0  0
 12 13  1  0  0  0
 13 14  1  0  0  0
 14 15  2  0  0  0
 15 16  1  0  0  0
 16 17  2  0  0  0
 17 18  1  0  0  0
 17 19  1  0  0  0
 19 20  2  0  0  0
 30 25  1  0  0  0
  6  1  1  0  0  0
 20 11  1  0  0  0
 20 14  1  0  0  0
  7 10  1  0  0  0
 13 21  1  0  0  0
M  END
> <minimizedAffinity>
-7.87819

> <CNNscore>
0.4073598087

> <CNNaffinity>
7.1301069260

> <CNN_VS>
2.9045190811

> <CNNaffinity_variance>
0.0720643625

$$$$
[H]c1c([H])c(S(=O)(=O)N2C([H])([H])C([H])([H])C([H])(N([H])C(=O)c3c([H])n([H])c4c([H])c([H])c(F)c([H])c34)C([H])([H])C2([H])[H])c([H])c([H])c1OC([H])([H])[H]


 32 35  0  0  0  0  0  0  0  0999 V2000
   -6.2032   -7.3848    9.3446 N   0  0  0  0  0  0  0  0  0  0  0  0
   -7.2384   -6.6692    8.6659 C   0  0  0  0  0  0  0  0  0  0  0  0
   -6.7302   -5.5916    7.7354 C   0  0  0  0  0  0  0  0  0  0  0  0
   -5.6919   -6.1885    6.7973 C   0  0  0  0  0  0  0  0  0  0  0  0
   -4.5846   -6.8450    7.5615 C   0  0  0  0  0  0  0  0  0  0  0  0
   -5.1658   -7.8639    8.4969 C   0  0  0  0  0  0  0  0  0  0  0  0
   -6.3741   -7.0940    5.9035 N   0  0  0  0  0  0  0  0  0  0  0  0
   -5.9079   -8.3476    5.5195 C   0  0  0  0  0  0  0  0  0  0  0  0
   -4.8151   -8.7794    5.9505 O   0  0  0  0  0  0  0  0  0  0  0  0
   -7.2924   -6.7447    5.5334 H   0  0  0  0  0  0  0  0  0  0  0  0
   -6.6795   -9.1766    4.6125 C   0  0  0  0  0  0  0  0  0  0  0  0
   -6.4057   -9.5078    3.3011 C   0  0  0  0  0  0  0  0  0  0  0  0
   -7.3828  -10.2886    2.8478 N   0  0  0  0  0  0  0  0  0  0  0  0
   -8.3132  -10.5077    3.7885 C   0  0  0  0  0  0  0  0  0  0  0  0
   -9.4789  -11.2395    3.7752 C   0  0  0  0  0  0  0  0  0  0  0  0
  -10.2398  -11.2748    4.9255 C   0  0  0  0  0  0  0  0  0  0  0  0
   -9.8132  -10.5772    6.0562 C   0  0  0  0  0  0  0  0  0  0  0  0
  -10.5365  -10.5908    7.2017 F   0  0  0  0  0  0  0  0  0  0  0  0
   -8.6481   -9.8530    6.0504 C   0  0  0  0  0  0  0  0  0  0  0  0
   -7.8903   -9.8195    4.9005 C   0  0  0  0  0  0  0  0  0  0  0  0
   -7.4526  -10.7014    1.8807 H   0  0  0  0  0  0  0  0  0  0  0  0
   -5.6517   -6.5948   10.7546 S   0  0  0  0  0  0  0  0  0  0  0  0
   -4.9304   -7.6246   11.6121 O   0  0  0  0  0  0  0  0  0  0  0  0
   -6.7800   -6.0842   11.6006 O   0  0  0  0  0  0  0  0  0  0  0  0
   -2.6576   -3.2968    9.7535 C   0  0  0  0  0  0  0  0  0  0  0  0
   -3.2773   -3.3409   10.9854 C   0  0  0  0  0  0  0  0  0  0  0  0
   -4.1861   -4.3353   11.3010 C   0  0  0  0  0  0  0  0  0  0  0  0
   -4.5049   -5.3238   10.3861 C   0  0  0  0  0  0  0  0  0  0  0  0
   -3.8712   -5.2610    9.1550 C   0  0  0  0  0  0  0  0  0  0  0  0
   -2.9657   -4.2743    8.8342 C   0  0  0  0  0  0  0  0  0  0  0  0
   -1.2583   -1.4410   10.5105 C   0  0  0  0  0  0  0  0  0  0  0  0
   -1.7381   -2.2789    9.4513 O   0  0  0  0  0  0  0  0  0  0  0  0
 31 32  1  0  0  0
 32 25  1  0  0  0
 25 26  2  0  0  0
 26 27  1  0  0  0
 27 28  2  0  0  0
 28 29  1  0  0  0
 29 30  2  0  0  0
 28 22  1  0  0  0
 22 23  2  0  0  0
 22 24  2  0  0  0
 22  1  1  0  0  0
  1  2  1  0  0  0
  2  3  1  0  0  0
  3  4  1  0  0  0
  4  5  1  0  0  0
  5  6  1  0  0  0
  4  7  1  0  0  0
  7  8  1  0  0  0
  8  9  2  0  0  0
  8 11  1  0  0  0
 11 12  2  0  0  0
 12 13  1  0  0  0
 13 14  1  0  0  0
 14 15  2  0  0  0
 15 16  1  0  0  0
 16 17  2  0  0  0
 17 18  1  0  0  0
 17 19  1  0  0  0
 19 20  2  0  0  0
 30 25  1  0  0  0
  6  1  1  0  0  0
 20 11  1  0  0  0
 20 14  1  0  0  0
  7 10  1  0  0  0
 13 21  1  0  0  0
M  END
> <minimizedAffinity>
21.26257

> <CNNscore>
0.4037182629

> <CNNaffinity>
5.5723218918

> <CNN_VS>
2.2496480942

> <CNNaffinity_variance>
1.1083896160

$$$$
[H]c1c([H])c(S(=O)(=O)N2C([H])([H])C([H])([H])C([H])(N([H])C(=O)c3c([H])n([H])c4c([H])c([H])c(F)c([H])c34)C([H])([H])C2([H])[H])c([H])c([H])c1OC([H])([H])[H]


 32 35  0  0  0  0  0  0  0  0999 V2000
   -6.3597   -6.5881    7.4660 N   0  0  0  0  0  0  0  0  0  0  0  0
   -7.0134   -7.0333    6.2748 C   0  0  0  0  0  0  0  0  0  0  0  0
   -7.0749   -8.5373    6.1349 C   0  0  0  0  0  0  0  0  0  0  0  0
   -7.6596   -9.1352    7.4057 C   0  0  0  0  0  0  0  0  0  0  0  0
   -6.8820   -8.7102    8.6123 C   0  0  0  0  0  0  0  0  0  0  0  0
   -6.8208   -7.2119    8.6587 C   0  0  0  0  0  0  0  0  0  0  0  0
   -9.0516   -8.7579    7.4706 N   0  0  0  0  0  0  0  0  0  0  0  0
  -10.1249   -9.5908    7.1695 C   0  0  0  0  0  0  0  0  0  0  0  0
   -9.9308  -10.7729    6.8070 O   0  0  0  0  0  0  0  0  0  0  0  0
   -9.2298   -7.7684    7.7728 H   0  0  0  0  0  0  0  0  0  0  0  0
  -11.4882   -9.1042    7.2698 C   0  0  0  0  0  0  0  0  0  0  0  0
  -12.5965   -9.4847    6.5410 C   0  0  0  0  0  0  0  0  0  0  0  0
  -13.6433   -8.7792    6.9612 N   0  0  0  0  0  0  0  0  0  0  0  0
  -13.3030   -7.9332    7.9444 C   0  0  0  0  0  0  0  0  0  0  0  0
  -14.0390   -7.0250    8.6711 C   0  0  0  0  0  0  0  0  0  0  0  0
  -13.3905   -6.2852    9.6383 C   0  0  0  0  0  0  0  0  0  0  0  0
  -12.0246   -6.4746    9.8511 C   0  0  0  0  0  0  0  0  0  0  0  0
  -11.3575   -5.7646   10.7926 F   0  0  0  0  0  0  0  0  0  0  0  0
  -11.3074   -7.3846    9.1166 C   0  0  0  0  0  0  0  0  0  0  0  0
  -11.9574   -8.1220    8.1516 C   0  0  0  0  0  0  0  0  0  0  0  0
  -14.6287   -8.8476    6.5939 H   0  0  0  0  0  0  0  0  0  0  0  0
   -4.6597   -6.5238    7.3170 S   0  0  0  0  0  0  0  0  0  0  0  0
   -4.2266   -7.6843    6.4329 O   0  0  0  0  0  0  0  0  0  0  0  0
   -3.9639   -6.7342    8.6289 O   0  0  0  0  0  0  0  0  0  0  0  0
   -3.2540   -2.6592    5.3338 C   0  0  0  0  0  0  0  0  0  0  0  0
   -3.8346   -3.6662    4.5908 C   0  0  0  0  0  0  0  0  0  0  0  0
   -4.2651   -4.8418    5.1800 C   0  0  0  0  0  0  0  0  0  0  0  0
   -4.1265   -5.0469    6.5418 C   0  0  0  0  0  0  0  0  0  0  0  0
   -3.5409   -4.0230    7.2696 C   0  0  0  0  0  0  0  0  0  0  0  0
   -3.1103   -2.8504    6.6897 C   0  0  0  0  0  0  0  0  0  0  0  0
   -3.6893   -0.8252    3.7777 C   0  0  0  0  0  0  0  0  0  0  0  0
   -2.8227   -1.4730    4.7176 O   0  0  0  0  0  0  0  0  0  0  0  0
 31 32  1  0  0  0
 32 25  1  0  0  0
 25 26  2  0  0  0
 26 27  1  0  0  0
 27 28  2  0  0  0
 28 29  1  0  0  0
 29 30  2  0  0  0
 28 22  1  0  0  0
 22 23  2  0  0  0
 22 24  2  0  0  0
 22  1  1  0  0  0
  1  2  1  0  0  0
  2  3  1  0  0  0
  3  4  1  0  0  0
  4  5  1  0  0  0
  5  6  1  0  0  0
  4  7  1  0  0  0
  7  8  1  0  0  0
  8  9  2  0  0  0
  8 11  1  0  0  0
 11 12  2  0  0  0
 12 13  1  0  0  0
 13 14  1  0  0  0
 14 15  2  0  0  0
 15 16  1  0  0  0
 16 17  2  0  0  0
 17 18  1  0  0  0
 17 19  1  0  0  0
 19 20  2  0  0  0
 30 25  1  0  0  0
  6  1  1  0  0  0
 20 11  1  0  0  0
 20 14  1  0  0  0
  7 10  1  0  0  0
 13 21  1  0  0  0
M  END
> <minimizedAffinity>
-8.57764

> <CNNscore>
0.3963341713

> <CNNaffinity>
6.5635976791

> <CNN_VS>
2.6013779640

> <CNNaffinity_variance>
0.0484553613

$$$$
[H]c1c([H])c(S(=O)(=O)N2C([H])([H])C([H])([H])C([H])(N([H])C(=O)c3c([H])n([H])c4c([H])c([H])c(F)c([H])c34)C([H])([H])C2([H])[H])c([H])c([H])c1OC([H])([H])[H]


 32 35  0  0  0  0  0  0  0  0999 V2000
  -13.9273   -8.9925    8.1337 N   0  0  0  0  0  0  0  0  0  0  0  0
  -14.4878   -7.7222    8.4752 C   0  0  0  0  0  0  0  0  0  0  0  0
  -13.7567   -6.5465    7.8682 C   0  0  0  0  0  0  0  0  0  0  0  0
  -13.6173   -6.7631    6.3689 C   0  0  0  0  0  0  0  0  0  0  0  0
  -12.9420   -8.0653    6.0698 C   0  0  0  0  0  0  0  0  0  0  0  0
  -13.6916   -9.1770    6.7428 C   0  0  0  0  0  0  0  0  0  0  0  0
  -14.9337   -6.6636    5.7847 N   0  0  0  0  0  0  0  0  0  0  0  0
  -15.2855   -7.1110    4.5149 C   0  0  0  0  0  0  0  0  0  0  0  0
  -14.4350   -7.6513    3.7724 O   0  0  0  0  0  0  0  0  0  0  0  0
  -15.6578   -6.2117    6.3961 H   0  0  0  0  0  0  0  0  0  0  0  0
  -16.6439   -6.9591    4.0282 C   0  0  0  0  0  0  0  0  0  0  0  0
  -17.3378   -7.7571    3.1416 C   0  0  0  0  0  0  0  0  0  0  0  0
  -18.5552   -7.2471    2.9748 N   0  0  0  0  0  0  0  0  0  0  0  0
  -18.7272   -6.1365    3.7066 C   0  0  0  0  0  0  0  0  0  0  0  0
  -19.8016   -5.2884    3.8510 C   0  0  0  0  0  0  0  0  0  0  0  0
  -19.6696   -4.2071    4.6976 C   0  0  0  0  0  0  0  0  0  0  0  0
  -18.4669   -4.0049    5.3756 C   0  0  0  0  0  0  0  0  0  0  0  0
  -18.3040   -2.9533    6.2141 F   0  0  0  0  0  0  0  0  0  0  0  0
  -17.4067   -4.8612    5.2189 C   0  0  0  0  0  0  0  0  0  0  0  0
  -17.5413   -5.9401    4.3730 C   0  0  0  0  0  0  0  0  0  0  0  0
  -19.3144   -7.6364    2.3563 H   0  0  0  0  0  0  0  0  0  0  0  0
  -12.6192   -9.4423    9.1352 S   0  0  0  0  0  0  0  0  0  0  0  0
  -12.5962  -10.9619    9.2148 O   0  0  0  0  0  0  0  0  0  0  0  0
  -12.7921   -8.9668   10.5471 O   0  0  0  0  0  0  0  0  0  0  0  0
   -8.6147   -8.0654    7.4287 C   0  0  0  0  0  0  0  0  0  0  0  0
   -9.0879   -9.3385    7.1864 C   0  0  0  0  0  0  0  0  0  0  0  0
  -10.2999   -9.7675    7.6975 C   0  0  0  0  0  0  0  0  0  0  0  0
  -11.0817   -8.9287    8.4728 C   0  0  0  0  0  0  0  0  0  0  0  0
  -10.5881   -7.6544    8.7040 C   0  0  0  0  0  0  0  0  0  0  0  0
   -9.3827   -7.2208    8.1985 C   0  0  0  0  0  0  0  0  0  0  0  0
   -6.6787   -8.5205    6.0076 C   0  0  0  0  0  0  0  0  0  0  0  0
   -7.3814   -7.6481    6.9017 O   0  0  0  0  0  0  0  0  0  0  0  0
 31 32  1  0  0  0
 32 25  1  0  0  0
 25 26  2  0  0  0
 26 27  1  0  0  0
 27 28  2  0  0  0
 28 29  1  0  0  0
 29 30  2  0  0  0
 28 22  1  0  0  0
 22 23  2  0  0  0
 22 24  2  0  0  0
 22  1  1  0  0  0
  1  2  1  0  0  0
  2  3  1  0  0  0
  3  4  1  0  0  0
  4  5  1  0  0  0
  5  6  1  0  0  0
  4  7  1  0  0  0
  7  8  1  0  0  0
  8  9  2  0  0  0
  8 11  1  0  0  0
 11 12  2  0  0  0
 12 13  1  0  0  0
 13 14  1  0  0  0
 14 15  2  0  0  0
 15 16  1  0  0  0
 16 17  2  0  0  0
 17 18  1  0  0  0
 17 19  1  0  0  0
 19 20  2  0  0  0
 30 25  1  0  0  0
  6  1  1  0  0  0
 20 11  1  0  0  0
 20 14  1  0  0  0
  7 10  1  0  0  0
 13 21  1  0  0  0
M  END
> <minimizedAffinity>
-0.18727

> <CNNscore>
0.3708558977

> <CNNaffinity>
6.9010801315

> <CNN_VS>
2.5593063831

> <CNNaffinity_variance>
0.2543323636

$$$$
[H]c1c([H])c(S(=O)(=O)N2C([H])([H])C([H])([H])C([H])(N([H])C(=O)c3c([H])n([H])c4c([H])c([H])c(F)c([H])c34)C([H])([H])C2([H])[H])c([H])c([H])c1OC([H])([H])[H]


 32 35  0  0  0  0  0  0  0  0999 V2000
   -5.0216   -8.4613    7.0344 N   0  0  0  0  0  0  0  0  0  0  0  0
   -5.3985   -8.5276    8.4121 C   0  0  0  0  0  0  0  0  0  0  0  0
   -5.8696   -7.2094    8.9828 C   0  0  0  0  0  0  0  0  0  0  0  0
   -6.9551   -6.6342    8.0854 C   0  0  0  0  0  0  0  0  0  0  0  0
   -6.4767   -6.5010    6.6732 C   0  0  0  0  0  0  0  0  0  0  0  0
   -5.9800   -7.8323    6.1917 C   0  0  0  0  0  0  0  0  0  0  0  0
   -8.1211   -7.4765    8.2085 N   0  0  0  0  0  0  0  0  0  0  0  0
   -9.2777   -7.3649    7.4429 C   0  0  0  0  0  0  0  0  0  0  0  0
   -9.3743   -6.4819    6.5612 O   0  0  0  0  0  0  0  0  0  0  0  0
   -8.0547   -8.2218    8.9450 H   0  0  0  0  0  0  0  0  0  0  0  0
  -10.3927   -8.2693    7.6530 C   0  0  0  0  0  0  0  0  0  0  0  0
  -10.3690   -9.5947    8.0364 C   0  0  0  0  0  0  0  0  0  0  0  0
  -11.6211  -10.0391    8.1051 N   0  0  0  0  0  0  0  0  0  0  0  0
  -12.5014   -9.0788    7.7866 C   0  0  0  0  0  0  0  0  0  0  0  0
  -13.8764   -9.0772    7.7225 C   0  0  0  0  0  0  0  0  0  0  0  0
  -14.5107   -7.9078    7.3569 C   0  0  0  0  0  0  0  0  0  0  0  0
  -13.7519   -6.7736    7.0657 C   0  0  0  0  0  0  0  0  0  0  0  0
  -14.3430   -5.6097    6.7036 F   0  0  0  0  0  0  0  0  0  0  0  0
  -12.3820   -6.7945    7.1350 C   0  0  0  0  0  0  0  0  0  0  0  0
  -11.7512   -7.9633    7.5004 C   0  0  0  0  0  0  0  0  0  0  0  0
  -11.9229  -11.0130    8.3714 H   0  0  0  0  0  0  0  0  0  0  0  0
   -3.4178   -7.9236    6.8004 S   0  0  0  0  0  0  0  0  0  0  0  0
   -3.1806   -7.8077    5.3015 O   0  0  0  0  0  0  0  0  0  0  0  0
   -2.4061   -8.9150    7.2936 O   0  0  0  0  0  0  0  0  0  0  0  0
   -2.6959   -3.8111    8.6471 C   0  0  0  0  0  0  0  0  0  0  0  0
   -3.4589   -3.9513    7.5063 C   0  0  0  0  0  0  0  0  0  0  0  0
   -3.6854   -5.1920    6.9373 C   0  0  0  0  0  0  0  0  0  0  0  0
   -3.1508   -6.3394    7.4972 C   0  0  0  0  0  0  0  0  0  0  0  0
   -2.3876   -6.1764    8.6426 C   0  0  0  0  0  0  0  0  0  0  0  0
   -2.1582   -4.9446    9.2143 C   0  0  0  0  0  0  0  0  0  0  0  0
   -2.5845   -2.3868   10.6305 C   0  0  0  0  0  0  0  0  0  0  0  0
   -2.4766   -2.5430    9.2099 O   0  0  0  0  0  0  0  0  0  0  0  0
 31 32  1  0  0  0
 32 25  1  0  0  0
 25 26  2  0  0  0
 26 27  1  0  0  0
 27 28  2  0  0  0
 28 29  1  0  0  0
 29 30  2  0  0  0
 28 22  1  0  0  0
 22 23  2  0  0  0
 22 24  2  0  0  0
 22  1  1  0  0  0
  1  2  1  0  0  0
  2  3  1  0  0  0
  3  4  1  0  0  0
  4  5  1  0  0  0
  5  6  1  0  0  0
  4  7  1  0  0  0
  7  8  1  0  0  0
  8  9  2  0  0  0
  8 11  1  0  0  0
 11 12  2  0  0  0
 12 13  1  0  0  0
 13 14  1  0  0  0
 14 15  2  0  0  0
 15 16  1  0  0  0
 16 17  2  0  0  0
 17 18  1  0  0  0
 17 19  1  0  0  0
 19 20  2  0  0  0
 30 25  1  0  0  0
  6  1  1  0  0  0
 20 11  1  0  0  0
 20 14  1  0  0  0
  7 10  1  0  0  0
 13 21  1  0  0  0
M  END
> <minimizedAffinity>
-2.47717

> <CNNscore>
0.2583238482

> <CNNaffinity>
6.1479325294

> <CNN_VS>
1.5881575346

> <CNNaffinity_variance>
0.4535360336

$$$$
[H]c1c([H])c(S(=O)(=O)N2C([H])([H])C([H])([H])C([H])(N([H])C(=O)c3c([H])n([H])c4c([H])c([H])c(F)c([H])c34)C([H])([H])C2([H])[H])c([H])c([H])c1OC([H])([H])[H]


 32 35  0  0  0  0  0  0  0  0999 V2000
   -7.2619   -7.6278    6.6151 N   0  0  0  0  0  0  0  0  0  0  0  0
   -6.9816   -6.3578    7.2091 C   0  0  0  0  0  0  0  0  0  0  0  0
   -5.6550   -6.2983    7.9315 C   0  0  0  0  0  0  0  0  0  0  0  0
   -4.5553   -6.7871    7.0009 C   0  0  0  0  0  0  0  0  0  0  0  0
   -4.8554   -8.1582    6.4803 C   0  0  0  0  0  0  0  0  0  0  0  0
   -6.2037   -8.1531    5.8222 C   0  0  0  0  0  0  0  0  0  0  0  0
   -4.3979   -5.8078    5.9519 N   0  0  0  0  0  0  0  0  0  0  0  0
   -3.5724   -4.6893    6.0137 C   0  0  0  0  0  0  0  0  0  0  0  0
   -2.8869   -4.4602    7.0355 O   0  0  0  0  0  0  0  0  0  0  0  0
   -4.9676   -5.9867    5.0883 H   0  0  0  0  0  0  0  0  0  0  0  0
   -3.4915   -3.7682    4.8955 C   0  0  0  0  0  0  0  0  0  0  0  0
   -3.9854   -2.4834    4.7977 C   0  0  0  0  0  0  0  0  0  0  0  0
   -3.6872   -2.0047    3.5928 N   0  0  0  0  0  0  0  0  0  0  0  0
   -3.0114   -2.9025    2.8608 C   0  0  0  0  0  0  0  0  0  0  0  0
   -2.5035   -2.8507    1.5825 C   0  0  0  0  0  0  0  0  0  0  0  0
   -1.8408   -3.9598    1.0989 C   0  0  0  0  0  0  0  0  0  0  0  0
   -1.7049   -5.0890    1.9072 C   0  0  0  0  0  0  0  0  0  0  0  0
   -1.0601   -6.1947    1.4631 F   0  0  0  0  0  0  0  0  0  0  0  0
   -2.2181   -5.1220    3.1790 C   0  0  0  0  0  0  0  0  0  0  0  0
   -2.8793   -4.0132    3.6595 C   0  0  0  0  0  0  0  0  0  0  0  0
   -3.9328   -1.0485    3.2240 H   0  0  0  0  0  0  0  0  0  0  0  0
   -7.9439   -8.7471    7.7098 S   0  0  0  0  0  0  0  0  0  0  0  0
   -7.4884   -8.3636    9.1104 O   0  0  0  0  0  0  0  0  0  0  0  0
   -7.4382  -10.1417    7.4886 O   0  0  0  0  0  0  0  0  0  0  0  0
  -12.5079   -8.6458    7.6518 C   0  0  0  0  0  0  0  0  0  0  0  0
  -11.7839   -7.6233    8.2293 C   0  0  0  0  0  0  0  0  0  0  0  0
  -10.4006   -7.6420    8.2529 C   0  0  0  0  0  0  0  0  0  0  0  0
   -9.6941   -8.6933    7.6947 C   0  0  0  0  0  0  0  0  0  0  0  0
  -10.4405   -9.7099    7.1198 C   0  0  0  0  0  0  0  0  0  0  0  0
  -11.8173   -9.6976    7.0927 C   0  0  0  0  0  0  0  0  0  0  0  0
  -14.5729   -7.3382    7.6795 C   0  0  0  0  0  0  0  0  0  0  0  0
  -13.9120   -8.6093    7.6381 O   0  0  0  0  0  0  0  0  0  0  0  0
 31 32  1  0  0  0
 32 25  1  0  0  0
 25 26  2  0  0  0
 26 27  1  0  0  0
 27 28  2  0  0  0
 28 29  1  0  0  0
 29 30  2  0  0  0
 28 22  1  0  0  0
 22 23  2  0  0  0
 22 24  2  0  0  0
 22  1  1  0  0  0
  1  2  1  0  0  0
  2  3  1  0  0  0
  3  4  1  0  0  0
  4  5  1  0  0  0
  5  6  1  0  0  0
  4  7  1  0  0  0
  7  8  1  0  0  0
  8  9  2  0  0  0
  8 11  1  0  0  0
 11 12  2  0  0  0
 12 13  1  0  0  0
 13 14  1  0  0  0
 14 15  2  0  0  0
 15 16  1  0  0  0
 16 17  2  0  0  0
 17 18  1  0  0  0
 17 19  1  0  0  0
 19 20  2  0  0  0
 30 25  1  0  0  0
  6  1  1  0  0  0
 20 11  1  0  0  0
 20 14  1  0  0  0
  7 10  1  0  0  0
 13 21  1  0  0  0
M  END
> <minimizedAffinity>
-7.33555

> <CNNscore>
0.2470809370

> <CNNaffinity>
5.7118172646

> <CNN_VS>
1.4112811089

> <CNNaffinity_variance>
0.0881925896

$$$$
[H]c1c([H])c(S(=O)(=O)N2C([H])([H])C([H])([H])C([H])(c3c([H])n([H])c4c([H])c([H])c(C(F)(F)F)c([H])c34)C([H])([H])C2([H])[H])c([H])c([H])c1OC([H])([H])[H]


 31 34  0  0  0  0  0  0  0  0999 V2000
  -12.2564   -8.2363    7.0060 N   0  0  0  0  0  0  0  0  0  0  0  0
  -12.5602   -6.9984    6.3211 C   0  0  0  0  0  0  0  0  0  0  0  0
  -14.0912   -7.1871    6.0937 C   0  0  0  0  0  0  0  0  0  0  0  0
  -14.1658   -8.0039    4.8488 C   0  0  0  0  0  0  0  0  0  0  0  0
  -13.1569   -9.1635    4.9324 C   0  0  0  0  0  0  0  0  0  0  0  0
  -12.5599   -9.3824    6.3097 C   0  0  0  0  0  0  0  0  0  0  0  0
  -15.5343   -8.5901    4.7878 C   0  0  0  0  0  0  0  0  0  0  0  0
  -15.9453   -9.8961    4.7563 C   0  0  0  0  0  0  0  0  0  0  0  0
  -17.2836   -9.9636    4.4998 N   0  0  0  0  0  0  0  0  0  0  0  0
  -17.7604   -8.7149    4.3697 C   0  0  0  0  0  0  0  0  0  0  0  0
  -19.0251   -8.2119    4.1958 C   0  0  0  0  0  0  0  0  0  0  0  0
  -19.1762   -6.8164    4.2143 C   0  0  0  0  0  0  0  0  0  0  0  0
  -18.1247   -5.9526    4.3905 C   0  0  0  0  0  0  0  0  0  0  0  0
  -16.8616   -6.5078    4.5553 C   0  0  0  0  0  0  0  0  0  0  0  0
  -16.6968   -7.8670    4.5433 C   0  0  0  0  0  0  0  0  0  0  0  0
  -17.8943  -10.8188    4.4020 H   0  0  0  0  0  0  0  0  0  0  0  0
  -18.2854   -4.4625    4.4892 C   0  0  0  0  0  0  0  0  0  0  0  0
  -19.5776   -4.1870    4.0573 F   0  0  0  0  0  0  0  0  0  0  0  0
  -17.4513   -3.7662    3.6502 F   0  0  0  0  0  0  0  0  0  0  0  0
  -18.0941   -4.0564    5.7797 F   0  0  0  0  0  0  0  0  0  0  0  0
  -11.4581   -8.1991    8.4430 S   0  0  0  0  0  0  0  0  0  0  0  0
  -11.8541   -9.4130    9.3107 O   0  0  0  0  0  0  0  0  0  0  0  0
  -11.8839   -7.0141    9.3298 O   0  0  0  0  0  0  0  0  0  0  0  0
   -6.9262   -8.0657    8.0104 C   0  0  0  0  0  0  0  0  0  0  0  0
   -7.5489   -9.2742    8.0074 C   0  0  0  0  0  0  0  0  0  0  0  0
   -8.9321   -9.3172    8.1439 C   0  0  0  0  0  0  0  0  0  0  0  0
   -9.7158   -8.1995    8.2850 C   0  0  0  0  0  0  0  0  0  0  0  0
   -9.0620   -6.9676    8.2809 C   0  0  0  0  0  0  0  0  0  0  0  0
   -7.6926   -6.9155    8.1453 C   0  0  0  0  0  0  0  0  0  0  0  0
   -4.8846   -8.0989    6.6549 C   0  0  0  0  0  0  0  0  0  0  0  0
   -5.5588   -7.9038    7.8875 O   0  0  0  0  0  0  0  0  0  0  0  0
 30 31  1  0  0  0
 31 24  1  0  0  0
 24 25  2  0  0  0
 25 26  1  0  0  0
 26 27  2  0  0  0
 27 28  1  0  0  0
 28 29  2  0  0  0
 27 21  1  0  0  0
 21 22  2  0  0  0
 21 23  2  0  0  0
 21  1  1  0  0  0
  1  2  1  0  0  0
  2  3  1  0  0  0
  3  4  1  0  0  0
  4  5  1  0  0  0
  5  6  1  0  0  0
  4  7  1  0  0  0
  7  8  2  0  0  0
  8  9  1  0  0  0
  9 10  1  0  0  0
 10 11  2  0  0  0
 11 12  1  0  0  0
 12 13  2  0  0  0
 13 14  1  0  0  0
 14 15  2  0  0  0
 13 17  1  0  0  0
 17 18  1  0  0  0
 17 19  1  0  0  0
 17 20  1  0  0  0
 29 24  1  0  0  0
  6  1  1  0  0  0
 15  7  1  0  0  0
 15 10  1  0  0  0
  9 16  1  0  0  0
M  END
> <minimizedAffinity>
-0.96226

> <CNNscore>
0.4860711396

> <CNNaffinity>
7.0412611961

> <CNN_VS>
3.4225537777

> <CNNaffinity_variance>
0.6637912393

$$$$
[H]c1c([H])c(S(=O)(=O)N2C([H])([H])C([H])([H])C([H])(c3c([H])n([H])c4c([H])c([H])c(C(F)(F)F)c([H])c34)C([H])([H])C2([H])[H])c([H])c([H])c1OC([H])([H])[H]


 31 34  0  0  0  0  0  0  0  0999 V2000
   -5.4926   -6.9938    7.1448 N   0  0  0  0  0  0  0  0  0  0  0  0
   -5.9498   -6.7477    8.4954 C   0  0  0  0  0  0  0  0  0  0  0  0
   -6.9806   -7.9080    8.6446 C   0  0  0  0  0  0  0  0  0  0  0  0
   -8.2210   -7.3610    8.0245 C   0  0  0  0  0  0  0  0  0  0  0  0
   -7.8727   -6.6836    6.6868 C   0  0  0  0  0  0  0  0  0  0  0  0
   -6.4720   -6.9710    6.1800 C   0  0  0  0  0  0  0  0  0  0  0  0
   -9.1151   -8.5170    7.7340 C   0  0  0  0  0  0  0  0  0  0  0  0
   -8.8451   -9.7337    7.1662 C   0  0  0  0  0  0  0  0  0  0  0  0
  -10.0060  -10.4043    6.9126 N   0  0  0  0  0  0  0  0  0  0  0  0
  -11.0381   -9.6451    7.3149 C   0  0  0  0  0  0  0  0  0  0  0  0
  -12.3914   -9.8641    7.3727 C   0  0  0  0  0  0  0  0  0  0  0  0
  -13.1843   -8.8711    7.9691 C   0  0  0  0  0  0  0  0  0  0  0  0
  -12.6664   -7.7082    8.4814 C   0  0  0  0  0  0  0  0  0  0  0  0
  -11.2915   -7.5271    8.3937 C   0  0  0  0  0  0  0  0  0  0  0  0
  -10.5030   -8.4872    7.8182 C   0  0  0  0  0  0  0  0  0  0  0  0
  -10.1363  -11.3546    6.4727 H   0  0  0  0  0  0  0  0  0  0  0  0
  -13.4948   -6.6750    9.1901 C   0  0  0  0  0  0  0  0  0  0  0  0
  -14.3140   -6.1094    8.2200 F   0  0  0  0  0  0  0  0  0  0  0  0
  -12.7539   -5.6413    9.7070 F   0  0  0  0  0  0  0  0  0  0  0  0
  -14.2287   -7.2637   10.1808 F   0  0  0  0  0  0  0  0  0  0  0  0
   -3.8821   -7.1229    6.8393 S   0  0  0  0  0  0  0  0  0  0  0  0
   -3.5491   -8.5263    6.2891 O   0  0  0  0  0  0  0  0  0  0  0  0
   -3.0272   -7.0652    8.1189 O   0  0  0  0  0  0  0  0  0  0  0  0
   -2.4370   -3.9835    3.8729 C   0  0  0  0  0  0  0  0  0  0  0  0
   -1.7306   -5.1380    4.0005 C   0  0  0  0  0  0  0  0  0  0  0  0
   -2.1677   -6.0958    4.9090 C   0  0  0  0  0  0  0  0  0  0  0  0
   -3.2818   -5.9431    5.6954 C   0  0  0  0  0  0  0  0  0  0  0  0
   -3.9980   -4.7555    5.5486 C   0  0  0  0  0  0  0  0  0  0  0  0
   -3.5730   -3.8017    4.6507 C   0  0  0  0  0  0  0  0  0  0  0  0
   -3.0642   -2.2492    2.2589 C   0  0  0  0  0  0  0  0  0  0  0  0
   -2.0929   -2.9618    3.0075 O   0  0  0  0  0  0  0  0  0  0  0  0
 30 31  1  0  0  0
 31 24  1  0  0  0
 24 25  2  0  0  0
 25 26  1  0  0  0
 26 27  2  0  0  0
 27 28  1  0  0  0
 28 29  2  0  0  0
 27 21  1  0  0  0
 21 22  2  0  0  0
 21 23  2  0  0  0
 21  1  1  0  0  0
  1  2  1  0  0  0
  2  3  1  0  0  0
  3  4  1  0  0  0
  4  5  1  0  0  0
  5  6  1  0  0  0
  4  7  1  0  0  0
  7  8  2  0  0  0
  8  9  1  0  0  0
  9 10  1  0  0  0
 10 11  2  0  0  0
 11 12  1  0  0  0
 12 13  2  0  0  0
 13 14  1  0  0  0
 14 15  2  0  0  0
 13 17  1  0  0  0
 17 18  1  0  0  0
 17 19  1  0  0  0
 17 20  1  0  0  0
 29 24  1  0  0  0
  6  1  1  0  0  0
 15  7  1  0  0  0
 15 10  1  0  0  0
  9 16  1  0  0  0
M  END
> <minimizedAffinity>
-9.37486

> <CNNscore>
0.4577818513

> <CNNaffinity>
6.4224219322

> <CNN_VS>
2.9400682449

> <CNNaffinity_variance>
0.0343981534

$$$$
[H]c1c([H])c(S(=O)(=O)N2C([H])([H])C([H])([H])C([H])(c3c([H])n([H])c4c([H])c([H])c(C(F)(F)F)c([H])c34)C([H])([H])C2([H])[H])c([H])c([H])c1OC([H])([H])[H]


 31 34  0  0  0  0  0  0  0  0999 V2000
   -3.6893   -6.8225    5.5018 N   0  0  0  0  0  0  0  0  0  0  0  0
   -4.3191   -8.1231    5.5753 C   0  0  0  0  0  0  0  0  0  0  0  0
   -3.8967   -8.5439    7.0160 C   0  0  0  0  0  0  0  0  0  0  0  0
   -2.5305   -9.1114    6.8326 C   0  0  0  0  0  0  0  0  0  0  0  0
   -1.7029   -8.1799    5.9287 C   0  0  0  0  0  0  0  0  0  0  0  0
   -2.3268   -6.8186    5.6860 C   0  0  0  0  0  0  0  0  0  0  0  0
   -1.8827   -9.1431    8.1740 C   0  0  0  0  0  0  0  0  0  0  0  0
   -1.3945  -10.1934    8.9049 C   0  0  0  0  0  0  0  0  0  0  0  0
   -1.0703   -9.7815   10.1646 N   0  0  0  0  0  0  0  0  0  0  0  0
   -1.3324   -8.4685   10.2688 C   0  0  0  0  0  0  0  0  0  0  0  0
   -1.1190   -7.5502   11.2657 C   0  0  0  0  0  0  0  0  0  0  0  0
   -1.4197   -6.2078   10.9861 C   0  0  0  0  0  0  0  0  0  0  0  0
   -1.9157   -5.7886    9.7773 C   0  0  0  0  0  0  0  0  0  0  0  0
   -2.1224   -6.7554    8.8008 C   0  0  0  0  0  0  0  0  0  0  0  0
   -1.8312   -8.0688    9.0556 C   0  0  0  0  0  0  0  0  0  0  0  0
   -0.6828  -10.3495   10.9652 H   0  0  0  0  0  0  0  0  0  0  0  0
   -2.1677   -4.3466    9.4414 C   0  0  0  0  0  0  0  0  0  0  0  0
   -3.3518   -4.0047   10.0841 F   0  0  0  0  0  0  0  0  0  0  0  0
   -2.3881   -4.1275    8.1042 F   0  0  0  0  0  0  0  0  0  0  0  0
   -1.1253   -3.5768    9.8746 F   0  0  0  0  0  0  0  0  0  0  0  0
   -4.5776   -5.5092    5.0658 S   0  0  0  0  0  0  0  0  0  0  0  0
   -5.1424   -4.8018    6.3163 O   0  0  0  0  0  0  0  0  0  0  0  0
   -5.8594   -5.8856    4.2996 O   0  0  0  0  0  0  0  0  0  0  0  0
   -2.1884   -2.5289    2.5853 C   0  0  0  0  0  0  0  0  0  0  0  0
   -2.8497   -2.0831    3.6863 C   0  0  0  0  0  0  0  0  0  0  0  0
   -3.5834   -2.9907    4.4423 C   0  0  0  0  0  0  0  0  0  0  0  0
   -3.6828   -4.3253    4.1392 C   0  0  0  0  0  0  0  0  0  0  0  0
   -2.9944   -4.7674    3.0098 C   0  0  0  0  0  0  0  0  0  0  0  0
   -2.2646   -3.8757    2.2556 C   0  0  0  0  0  0  0  0  0  0  0  0
   -1.7442   -1.5452    0.3849 C   0  0  0  0  0  0  0  0  0  0  0  0
   -1.4346   -1.7170    1.7585 O   0  0  0  0  0  0  0  0  0  0  0  0
 30 31  1  0  0  0
 31 24  1  0  0  0
 24 25  2  0  0  0
 25 26  1  0  0  0
 26 27  2  0  0  0
 27 28  1  0  0  0
 28 29  2  0  0  0
 27 21  1  0  0  0
 21 22  2  0  0  0
 21 23  2  0  0  0
 21  1  1  0  0  0
  1  2  1  0  0  0
  2  3  1  0  0  0
  3  4  1  0  0  0
  4  5  1  0  0  0
  5  6  1  0  0  0
  4  7  1  0  0  0
  7  8  2  0  0  0
  8  9  1  0  0  0
  9 10  1  0  0  0
 10 11  2  0  0  0
 11 12  1  0  0  0
 12 13  2  0  0  0
 13 14  1  0  0  0
 14 15  2  0  0  0
 13 17  1  0  0  0
 17 18  1  0  0  0
 17 19  1  0  0  0
 17 20  1  0  0  0
 29 24  1  0  0  0
  6  1  1  0  0  0
 15  7  1  0  0  0
 15 10  1  0  0  0
  9 16  1  0  0  0
M  END
> <minimizedAffinity>
1.76893

> <CNNscore>
0.4075094759

> <CNNaffinity>
5.6500387192

> <CNN_VS>
2.3024442196

> <CNNaffinity_variance>
2.3514909744

$$$$
[H]c1c([H])c(S(=O)(=O)N2C([H])([H])C([H])([H])C([H])(c3c([H])n([H])c4c([H])c([H])c(C(F)(F)F)c([H])c34)C([H])([H])C2([H])[H])c([H])c([H])c1OC([H])([H])[H]


 31 34  0  0  0  0  0  0  0  0999 V2000
  -14.6600   -8.6938    5.9127 N   0  0  0  0  0  0  0  0  0  0  0  0
  -15.4776   -8.5299    7.0952 C   0  0  0  0  0  0  0  0  0  0  0  0
  -14.6190   -7.4851    7.8714 C   0  0  0  0  0  0  0  0  0  0  0  0
  -13.6015   -8.3166    8.5755 C   0  0  0  0  0  0  0  0  0  0  0  0
  -13.0208   -9.3559    7.5996 C   0  0  0  0  0  0  0  0  0  0  0  0
  -13.3731   -9.1195    6.1430 C   0  0  0  0  0  0  0  0  0  0  0  0
  -12.4962   -7.4060    8.9866 C   0  0  0  0  0  0  0  0  0  0  0  0
  -12.5274   -6.2018    9.6383 C   0  0  0  0  0  0  0  0  0  0  0  0
  -11.2899   -5.6274    9.6280 N   0  0  0  0  0  0  0  0  0  0  0  0
  -10.4415   -6.4445    8.9829 C   0  0  0  0  0  0  0  0  0  0  0  0
   -9.0881   -6.3992    8.7619 C   0  0  0  0  0  0  0  0  0  0  0  0
   -8.4964   -7.5053    8.1319 C   0  0  0  0  0  0  0  0  0  0  0  0
   -9.2091   -8.6072    7.7308 C   0  0  0  0  0  0  0  0  0  0  0  0
  -10.5781   -8.6048    7.9690 C   0  0  0  0  0  0  0  0  0  0  0  0
  -11.1709   -7.5356    8.5855 C   0  0  0  0  0  0  0  0  0  0  0  0
  -10.9893   -4.7006   10.0336 H   0  0  0  0  0  0  0  0  0  0  0  0
   -8.5756   -9.8276    7.1266 C   0  0  0  0  0  0  0  0  0  0  0  0
   -7.7642   -9.3677    6.0959 F   0  0  0  0  0  0  0  0  0  0  0  0
   -9.4794  -10.6801    6.5427 F   0  0  0  0  0  0  0  0  0  0  0  0
   -7.8497  -10.4943    8.0728 F   0  0  0  0  0  0  0  0  0  0  0  0
  -15.3354   -8.5216    4.4234 S   0  0  0  0  0  0  0  0  0  0  0  0
  -16.0071   -9.8393    3.9810 O   0  0  0  0  0  0  0  0  0  0  0  0
  -14.2872   -8.3044    3.3162 O   0  0  0  0  0  0  0  0  0  0  0  0
  -18.5508   -5.3083    4.1429 C   0  0  0  0  0  0  0  0  0  0  0  0
  -17.2600   -4.9278    4.3360 C   0  0  0  0  0  0  0  0  0  0  0  0
  -16.2775   -5.9077    4.4265 C   0  0  0  0  0  0  0  0  0  0  0  0
  -16.5358   -7.2521    4.3331 C   0  0  0  0  0  0  0  0  0  0  0  0
  -17.8641   -7.6253    4.1299 C   0  0  0  0  0  0  0  0  0  0  0  0
  -18.8436   -6.6617    4.0382 C   0  0  0  0  0  0  0  0  0  0  0  0
  -19.9022   -3.4832    5.0645 C   0  0  0  0  0  0  0  0  0  0  0  0
  -19.6080   -4.4230    4.0437 O   0  0  0  0  0  0  0  0  0  0  0  0
 30 31  1  0  0  0
 31 24  1  0  0  0
 24 25  2  0  0  0
 25 26  1  0  0  0
 26 27  2  0  0  0
 27 28  1  0  0  0
 28 29  2  0  0  0
 27 21  1  0  0  0
 21 22  2  0  0  0
 21 23  2  0  0  0
 21  1  1  0  0  0
  1  2  1  0  0  0
  2  3  1  0  0  0
  3  4  1  0  0  0
  4  5  1  0  0  0
  5  6  1  0  0  0
  4  7  1  0  0  0
  7  8  2  0  0  0
  8  9  1  0  0  0
  9 10  1  0  0  0
 10 11  2  0  0  0
 11 12  1  0  0  0
 12 13  2  0  0  0
 13 14  1  0  0  0
 14 15  2  0  0  0
 13 17  1  0  0  0
 17 18  1  0  0  0
 17 19  1  0  0  0
 17 20  1  0  0  0
 29 24  1  0  0  0
  6  1  1  0  0  0
 15  7  1  0  0  0
 15 10  1  0  0  0
  9 16  1  0  0  0
M  END
> <minimizedAffinity>
-6.80815

> <CNNscore>
0.3846897185

> <CNNaffinity>
7.0634469986

> <CNN_VS>
2.7172353268

> <CNNaffinity_variance>
0.2845520377

$$$$
[H]c1c([H])c(S(=O)(=O)N2C([H])([H])C([H])([H])C([H])(c3c([H])n([H])c4c([H])c([H])c(C(F)(F)F)c([H])c34)C([H])([H])C2([H])[H])c([H])c([H])c1OC([H])([H])[H]


 31 34  0  0  0  0  0  0  0  0999 V2000
  -15.2143   -8.6425    6.7325 N   0  0  0  0  0  0  0  0  0  0  0  0
  -15.7517   -8.7045    8.0746 C   0  0  0  0  0  0  0  0  0  0  0  0
  -14.7889   -7.7115    8.7945 C   0  0  0  0  0  0  0  0  0  0  0  0
  -13.6024   -8.5496    9.1297 C   0  0  0  0  0  0  0  0  0  0  0  0
  -13.2094   -9.3985    7.9072 C   0  0  0  0  0  0  0  0  0  0  0  0
  -13.8905   -8.9944    6.6132 C   0  0  0  0  0  0  0  0  0  0  0  0
  -12.4755   -7.6203    9.4240 C   0  0  0  0  0  0  0  0  0  0  0  0
  -12.4496   -6.4408   10.1196 C   0  0  0  0  0  0  0  0  0  0  0  0
  -11.2399   -5.8288    9.9660 N   0  0  0  0  0  0  0  0  0  0  0  0
  -10.4653   -6.5970    9.1827 C   0  0  0  0  0  0  0  0  0  0  0  0
   -9.1556   -6.5028    8.7848 C   0  0  0  0  0  0  0  0  0  0  0  0
   -8.6259   -7.5680    8.0397 C   0  0  0  0  0  0  0  0  0  0  0  0
   -9.3576   -8.6767    7.6956 C   0  0  0  0  0  0  0  0  0  0  0  0
  -10.6818   -8.7243    8.1144 C   0  0  0  0  0  0  0  0  0  0  0  0
  -11.2134   -7.6955    8.8449 C   0  0  0  0  0  0  0  0  0  0  0  0
  -10.9113   -4.9079   10.3630 H   0  0  0  0  0  0  0  0  0  0  0  0
   -8.7802   -9.8557    6.9660 C   0  0  0  0  0  0  0  0  0  0  0  0
   -8.0714  -10.5836    7.9147 F   0  0  0  0  0  0  0  0  0  0  0  0
   -7.8688   -9.5078    6.0002 F   0  0  0  0  0  0  0  0  0  0  0  0
   -9.7835  -10.6007    6.4138 F   0  0  0  0  0  0  0  0  0  0  0  0
  -16.2143   -8.3224    5.4671 S   0  0  0  0  0  0  0  0  0  0  0  0
  -17.6879   -8.5225    5.8814 O   0  0  0  0  0  0  0  0  0  0  0  0
  -16.0607   -9.3343    4.3165 O   0  0  0  0  0  0  0  0  0  0  0  0
  -15.6842   -4.0838    3.8870 C   0  0  0  0  0  0  0  0  0  0  0  0
  -16.8423   -4.7429    3.6176 C   0  0  0  0  0  0  0  0  0  0  0  0
  -17.0041   -6.0388    4.0953 C   0  0  0  0  0  0  0  0  0  0  0  0
  -16.0528   -6.7011    4.8299 C   0  0  0  0  0  0  0  0  0  0  0  0
  -14.8730   -6.0091    5.1019 C   0  0  0  0  0  0  0  0  0  0  0  0
  -14.7044   -4.7250    4.6335 C   0  0  0  0  0  0  0  0  0  0  0  0
  -14.7027   -1.8698    4.2633 C   0  0  0  0  0  0  0  0  0  0  0  0
  -15.4128   -2.7976    3.4590 O   0  0  0  0  0  0  0  0  0  0  0  0
 30 31  1  0  0  0
 31 24  1  0  0  0
 24 25  2  0  0  0
 25 26  1  0  0  0
 26 27  2  0  0  0
 27 28  1  0  0  0
 28 29  2  0  0  0
 27 21  1  0  0  0
 21 22  2  0  0  0
 21 23  2  0  0  0
 21  1  1  0  0  0
  1  2  1  0  0  0
  2  3  1  0  0  0
  3  4  1  0  0  0
  4  5  1  0  0  0
  5  6  1  0  0  0
  4  7  1  0  0  0
  7  8  2  0  0  0
  8  9  1  0  0  0
  9 10  1  0  0  0
 10 11  2  0  0  0
 11 12  1  0  0  0
 12 13  2  0  0  0
 13 14  1  0  0  0
 14 15  2  0  0  0
 13 17  1  0  0  0
 17 18  1  0  0  0
 17 19  1  0  0  0
 17 20  1  0  0  0
 29 24  1  0  0  0
  6  1  1  0  0  0
 15  7  1  0  0  0
 15 10  1  0  0  0
  9 16  1  0  0  0
M  END
> <minimizedAffinity>
-6.12385

> <CNNscore>
0.3741910458

> <CNNaffinity>
7.0318613052

> <CNN_VS>
2.6312594414

> <CNNaffinity_variance>
0.3283210695

$$$$
[H]c1c([H])c(S(=O)(=O)N2C([H])([H])C([H])([H])C([H])(c3c([H])n([H])c4c([H])c([H])c(C(F)(F)F)c([H])c34)C([H])([H])C2([H])[H])c([H])c([H])c1OC([H])([H])[H]


 31 34  0  0  0  0  0  0  0  0999 V2000
  -10.2661   -7.9510    7.9055 N   0  0  0  0  0  0  0  0  0  0  0  0
  -10.5513   -7.5237    9.2581 C   0  0  0  0  0  0  0  0  0  0  0  0
  -12.0289   -8.0052    9.3849 C   0  0  0  0  0  0  0  0  0  0  0  0
  -12.8156   -6.8988    8.7690 C   0  0  0  0  0  0  0  0  0  0  0  0
  -12.1575   -6.4745    7.4437 C   0  0  0  0  0  0  0  0  0  0  0  0
  -11.0886   -7.4246    6.9376 C   0  0  0  0  0  0  0  0  0  0  0  0
  -14.1680   -7.4405    8.4567 C   0  0  0  0  0  0  0  0  0  0  0  0
  -14.8905   -8.4376    9.0561 C   0  0  0  0  0  0  0  0  0  0  0  0
  -15.9960   -8.7319    8.3125 N   0  0  0  0  0  0  0  0  0  0  0  0
  -16.0135   -7.9333    7.2330 C   0  0  0  0  0  0  0  0  0  0  0  0
  -16.9225   -7.7506    6.2215 C   0  0  0  0  0  0  0  0  0  0  0  0
  -16.6662   -6.7266    5.2962 C   0  0  0  0  0  0  0  0  0  0  0  0
  -15.5577   -5.9203    5.3610 C   0  0  0  0  0  0  0  0  0  0  0  0
  -14.6615   -6.1474    6.3985 C   0  0  0  0  0  0  0  0  0  0  0  0
  -14.8979   -7.1398    7.3117 C   0  0  0  0  0  0  0  0  0  0  0  0
  -16.7419   -9.4552    8.4972 H   0  0  0  0  0  0  0  0  0  0  0  0
  -15.3129   -4.7730    4.4232 C   0  0  0  0  0  0  0  0  0  0  0  0
  -14.2005   -5.1260    3.6681 F   0  0  0  0  0  0  0  0  0  0  0  0
  -14.9784   -3.6057    5.0635 F   0  0  0  0  0  0  0  0  0  0  0  0
  -16.4091   -4.5737    3.6325 F   0  0  0  0  0  0  0  0  0  0  0  0
   -8.9384   -8.8730    7.6040 S   0  0  0  0  0  0  0  0  0  0  0  0
   -9.1993   -9.8196    6.4127 O   0  0  0  0  0  0  0  0  0  0  0  0
   -8.6299   -9.8626    8.7429 O   0  0  0  0  0  0  0  0  0  0  0  0
   -5.1748   -6.4360    6.8037 C   0  0  0  0  0  0  0  0  0  0  0  0
   -5.9812   -6.7578    5.7576 C   0  0  0  0  0  0  0  0  0  0  0  0
   -7.1284   -7.5057    5.9993 C   0  0  0  0  0  0  0  0  0  0  0  0
   -7.4990   -7.9454    7.2453 C   0  0  0  0  0  0  0  0  0  0  0  0
   -6.6638   -7.6023    8.3081 C   0  0  0  0  0  0  0  0  0  0  0  0
   -5.5261   -6.8612    8.0782 C   0  0  0  0  0  0  0  0  0  0  0  0
   -3.7422   -4.8974    5.5440 C   0  0  0  0  0  0  0  0  0  0  0  0
   -4.0091   -5.7032    6.6804 O   0  0  0  0  0  0  0  0  0  0  0  0
 30 31  1  0  0  0
 31 24  1  0  0  0
 24 25  2  0  0  0
 25 26  1  0  0  0
 26 27  2  0  0  0
 27 28  1  0  0  0
 28 29  2  0  0  0
 27 21  1  0  0  0
 21 22  2  0  0  0
 21 23  2  0  0  0
 21  1  1  0  0  0
  1  2  1  0  0  0
  2  3  1  0  0  0
  3  4  1  0  0  0
  4  5  1  0  0  0
  5  6  1  0  0  0
  4  7  1  0  0  0
  7  8  2  0  0  0
  8  9  1  0  0  0
  9 10  1  0  0  0
 10 11  2  0  0  0
 11 12  1  0  0  0
 12 13  2  0  0  0
 13 14  1  0  0  0
 14 15  2  0  0  0
 13 17  1  0  0  0
 17 18  1  0  0  0
 17 19  1  0  0  0
 17 20  1  0  0  0
 29 24  1  0  0  0
  6  1  1  0  0  0
 15  7  1  0  0  0
 15 10  1  0  0  0
  9 16  1  0  0  0
M  END
> <minimizedAffinity>
-7.25817

> <CNNscore>
0.3544378281

> <CNNaffinity>
6.9602613449

> <CNN_VS>
2.4669799805

> <CNNaffinity_variance>
0.1049864739

$$$$
[H]c1c([H])c(S(=O)(=O)N2C([H])([H])C([H])([H])C([H])(c3c([H])n([H])c4c([H])c([H])c(C(F)(F)F)c([H])c34)C([H])([H])C2([H])[H])c([H])c([H])c1OC([H])([H])[H]


 31 34  0  0  0  0  0  0  0  0999 V2000
   -5.3908   -7.0001    7.2284 N   0  0  0  0  0  0  0  0  0  0  0  0
   -5.8859   -6.6698    8.5473 C   0  0  0  0  0  0  0  0  0  0  0  0
   -6.9446   -7.8005    8.7266 C   0  0  0  0  0  0  0  0  0  0  0  0
   -8.1530   -7.2662    8.0362 C   0  0  0  0  0  0  0  0  0  0  0  0
   -7.7481   -6.6718    6.6752 C   0  0  0  0  0  0  0  0  0  0  0  0
   -6.3380   -7.0133    6.2319 C   0  0  0  0  0  0  0  0  0  0  0  0
   -9.0608   -8.4198    7.7809 C   0  0  0  0  0  0  0  0  0  0  0  0
   -8.8048   -9.6573    7.2529 C   0  0  0  0  0  0  0  0  0  0  0  0
   -9.9735  -10.3214    7.0185 N   0  0  0  0  0  0  0  0  0  0  0  0
  -10.9969   -9.5371    7.3940 C   0  0  0  0  0  0  0  0  0  0  0  0
  -12.3528   -9.7375    7.4559 C   0  0  0  0  0  0  0  0  0  0  0  0
  -13.1344   -8.7161    8.0184 C   0  0  0  0  0  0  0  0  0  0  0  0
  -12.6032   -7.5439    8.4943 C   0  0  0  0  0  0  0  0  0  0  0  0
  -11.2259   -7.3826    8.4038 C   0  0  0  0  0  0  0  0  0  0  0  0
  -10.4483   -8.3703    7.8611 C   0  0  0  0  0  0  0  0  0  0  0  0
  -10.1148  -11.2837    6.6089 H   0  0  0  0  0  0  0  0  0  0  0  0
  -13.4199   -6.4784    9.1678 C   0  0  0  0  0  0  0  0  0  0  0  0
  -14.1955   -5.9014    8.1689 F   0  0  0  0  0  0  0  0  0  0  0  0
  -12.6635   -5.4602    9.6928 F   0  0  0  0  0  0  0  0  0  0  0  0
  -14.1975   -7.0332   10.1446 F   0  0  0  0  0  0  0  0  0  0  0  0
   -3.7743   -7.1761    6.9842 S   0  0  0  0  0  0  0  0  0  0  0  0
   -3.5096   -8.1053    5.7801 O   0  0  0  0  0  0  0  0  0  0  0  0
   -3.0773   -7.9281    8.1333 O   0  0  0  0  0  0  0  0  0  0  0  0
   -1.7027   -3.1866    6.2524 C   0  0  0  0  0  0  0  0  0  0  0  0
   -1.0702   -4.3308    5.8799 C   0  0  0  0  0  0  0  0  0  0  0  0
   -1.6991   -5.5501    6.1067 C   0  0  0  0  0  0  0  0  0  0  0  0
   -2.9342   -5.6694    6.6926 C   0  0  0  0  0  0  0  0  0  0  0  0
   -3.5718   -4.4860    7.0641 C   0  0  0  0  0  0  0  0  0  0  0  0
   -2.9568   -3.2739    6.8425 C   0  0  0  0  0  0  0  0  0  0  0  0
   -1.3723   -0.8853    7.0281 C   0  0  0  0  0  0  0  0  0  0  0  0
   -1.1711   -1.9220    6.0811 O   0  0  0  0  0  0  0  0  0  0  0  0
 30 31  1  0  0  0
 31 24  1  0  0  0
 24 25  2  0  0  0
 25 26  1  0  0  0
 26 27  2  0  0  0
 27 28  1  0  0  0
 28 29  2  0  0  0
 27 21  1  0  0  0
 21 22  2  0  0  0
 21 23  2  0  0  0
 21  1  1  0  0  0
  1  2  1  0  0  0
  2  3  1  0  0  0
  3  4  1  0  0  0
  4  5  1  0  0  0
  5  6  1  0  0  0
  4  7  1  0  0  0
  7  8  2  0  0  0
  8  9  1  0  0  0
  9 10  1  0  0  0
 10 11  2  0  0  0
 11 12  1  0  0  0
 12 13  2  0  0  0
 13 14  1  0  0  0
 14 15  2  0  0  0
 13 17  1  0  0  0
 17 18  1  0  0  0
 17 19  1  0  0  0
 17 20  1  0  0  0
 29 24  1  0  0  0
  6  1  1  0  0  0
 15  7  1  0  0  0
 15 10  1  0  0  0
  9 16  1  0  0  0
M  END
> <minimizedAffinity>
-8.18193

> <CNNscore>
0.3533867002

> <CNNaffinity>
6.3730931282

> <CNN_VS>
2.2521662712

> <CNNaffinity_variance>
0.0671466589

$$$$
[H]c1c([H])c(S(=O)(=O)N2C([H])([H])C([H])([H])C([H])(c3c([H])n([H])c4c([H])c([H])c(C(F)(F)F)c([H])c34)C([H])([H])C2([H])[H])c([H])c([H])c1OC([H])([H])[H]


 31 34  0  0  0  0  0  0  0  0999 V2000
  -10.9135   -5.2985   12.5226 N   0  0  0  0  0  0  0  0  0  0  0  0
  -12.3321   -5.5713   12.4403 C   0  0  0  0  0  0  0  0  0  0  0  0
  -12.3162   -6.7734   11.4472 C   0  0  0  0  0  0  0  0  0  0  0  0
  -12.2676   -6.1237   10.1063 C   0  0  0  0  0  0  0  0  0  0  0  0
  -11.2161   -4.9995   10.1165 C   0  0  0  0  0  0  0  0  0  0  0  0
  -10.3024   -5.0011   11.3274 C   0  0  0  0  0  0  0  0  0  0  0  0
  -11.8228   -7.1588    9.1311 C   0  0  0  0  0  0  0  0  0  0  0  0
  -10.5851   -7.7005    8.9067 C   0  0  0  0  0  0  0  0  0  0  0  0
  -10.6041   -8.4703    7.7804 N   0  0  0  0  0  0  0  0  0  0  0  0
  -11.8438   -8.4478    7.2646 C   0  0  0  0  0  0  0  0  0  0  0  0
  -12.4279   -9.1018    6.2092 C   0  0  0  0  0  0  0  0  0  0  0  0
  -13.8071   -8.9234    6.0187 C   0  0  0  0  0  0  0  0  0  0  0  0
  -14.5775   -8.1290    6.8301 C   0  0  0  0  0  0  0  0  0  0  0  0
  -13.9410   -7.4809    7.8816 C   0  0  0  0  0  0  0  0  0  0  0  0
  -12.5970   -7.6466    8.0838 C   0  0  0  0  0  0  0  0  0  0  0  0
   -9.8130   -9.0099    7.3367 H   0  0  0  0  0  0  0  0  0  0  0  0
  -16.0660   -7.9922    6.6825 C   0  0  0  0  0  0  0  0  0  0  0  0
  -16.3786   -6.7115    7.1232 F   0  0  0  0  0  0  0  0  0  0  0  0
  -16.7758   -8.8504    7.4851 F   0  0  0  0  0  0  0  0  0  0  0  0
  -16.4244   -8.1712    5.3763 F   0  0  0  0  0  0  0  0  0  0  0  0
  -10.1838   -5.2094   13.9935 S   0  0  0  0  0  0  0  0  0  0  0  0
  -10.6813   -6.3468   14.9112 O   0  0  0  0  0  0  0  0  0  0  0  0
  -10.5912   -3.9527   14.7848 O   0  0  0  0  0  0  0  0  0  0  0  0
   -5.6382   -5.3369   13.7385 C   0  0  0  0  0  0  0  0  0  0  0  0
   -6.2987   -6.4295   14.2058 C   0  0  0  0  0  0  0  0  0  0  0  0
   -7.6863   -6.3908   14.2886 C   0  0  0  0  0  0  0  0  0  0  0  0
   -8.4381   -5.3022   13.9243 C   0  0  0  0  0  0  0  0  0  0  0  0
   -7.7457   -4.1917   13.4423 C   0  0  0  0  0  0  0  0  0  0  0  0
   -6.3716   -4.2214   13.3560 C   0  0  0  0  0  0  0  0  0  0  0  0
   -3.3937   -5.5995   14.6872 C   0  0  0  0  0  0  0  0  0  0  0  0
   -4.2631   -5.2614   13.6186 O   0  0  0  0  0  0  0  0  0  0  0  0
 30 31  1  0  0  0
 31 24  1  0  0  0
 24 25  2  0  0  0
 25 26  1  0  0  0
 26 27  2  0  0  0
 27 28  1  0  0  0
 28 29  2  0  0  0
 27 21  1  0  0  0
 21 22  2  0  0  0
 21 23  2  0  0  0
 21  1  1  0  0  0
  1  2  1  0  0  0
  2  3  1  0  0  0
  3  4  1  0  0  0
  4  5  1  0  0  0
  5  6  1  0  0  0
  4  7  1  0  0  0
  7  8  2  0  0  0
  8  9  1  0  0  0
  9 10  1  0  0  0
 10 11  2  0  0  0
 11 12  1  0  0  0
 12 13  2  0  0  0
 13 14  1  0  0  0
 14 15  2  0  0  0
 13 17  1  0  0  0
 17 18  1  0  0  0
 17 19  1  0  0  0
 17 20  1  0  0  0
 29 24  1  0  0  0
  6  1  1  0  0  0
 15  7  1  0  0  0
 15 10  1  0  0  0
  9 16  1  0  0  0
M  END
> <minimizedAffinity>
12.14983

> <CNNscore>
0.3465706706

> <CNNaffinity>
6.2765283585

> <CNN_VS>
2.1752605438

> <CNNaffinity_variance>
0.7817338705

$$$$
[H]c1c([H])c(S(=O)(=O)N2C([H])([H])C([H])([H])C([H])(c3c([H])n([H])c4c([H])c([H])c(C(F)(F)F)c([H])c34)C([H])([H])C2([H])[H])c([H])c([H])c1OC([H])([H])[H]


 31 34  0  0  0  0  0  0  0  0999 V2000
   -7.4939   -7.7360    6.8833 N   0  0  0  0  0  0  0  0  0  0  0  0
   -7.4690   -9.1151    7.3202 C   0  0  0  0  0  0  0  0  0  0  0  0
   -8.9292   -9.5337    6.9682 C   0  0  0  0  0  0  0  0  0  0  0  0
   -9.7216   -9.0767    8.1453 C   0  0  0  0  0  0  0  0  0  0  0  0
   -9.3025   -7.6447    8.5239 C   0  0  0  0  0  0  0  0  0  0  0  0
   -8.4414   -6.9451    7.4893 C   0  0  0  0  0  0  0  0  0  0  0  0
  -11.1512   -9.0406    7.7269 C   0  0  0  0  0  0  0  0  0  0  0  0
  -11.8207   -9.7604    6.7734 C   0  0  0  0  0  0  0  0  0  0  0  0
  -13.0756   -9.2554    6.5953 N   0  0  0  0  0  0  0  0  0  0  0  0
  -13.2428   -8.2147    7.4275 C   0  0  0  0  0  0  0  0  0  0  0  0
  -14.3190   -7.4144    7.7171 C   0  0  0  0  0  0  0  0  0  0  0  0
  -14.1681   -6.4719    8.7464 C   0  0  0  0  0  0  0  0  0  0  0  0
  -13.0037   -6.3199    9.4564 C   0  0  0  0  0  0  0  0  0  0  0  0
  -11.9385   -7.1476    9.1228 C   0  0  0  0  0  0  0  0  0  0  0  0
  -12.0697   -8.0746    8.1238 C   0  0  0  0  0  0  0  0  0  0  0  0
  -13.8284   -9.5783    5.9299 H   0  0  0  0  0  0  0  0  0  0  0  0
  -12.8558   -5.3694   10.6099 C   0  0  0  0  0  0  0  0  0  0  0  0
  -11.8472   -5.8925   11.4106 F   0  0  0  0  0  0  0  0  0  0  0  0
  -13.9714   -5.2996   11.4069 F   0  0  0  0  0  0  0  0  0  0  0  0
  -12.5321   -4.1240   10.1505 F   0  0  0  0  0  0  0  0  0  0  0  0
   -6.3374   -7.1858    5.8520 S   0  0  0  0  0  0  0  0  0  0  0  0
   -6.9825   -6.4076    4.6851 O   0  0  0  0  0  0  0  0  0  0  0  0
   -5.6052   -8.3239    5.1172 O   0  0  0  0  0  0  0  0  0  0  0  0
   -3.2139   -4.4290    7.6925 C   0  0  0  0  0  0  0  0  0  0  0  0
   -3.9214   -5.2542    8.5090 C   0  0  0  0  0  0  0  0  0  0  0  0
   -4.8787   -6.0933    7.9494 C   0  0  0  0  0  0  0  0  0  0  0  0
   -5.1568   -6.1379    6.6064 C   0  0  0  0  0  0  0  0  0  0  0  0
   -4.4187   -5.2890    5.7821 C   0  0  0  0  0  0  0  0  0  0  0  0
   -3.4680   -4.4552    6.3275 C   0  0  0  0  0  0  0  0  0  0  0  0
   -2.4693   -2.1521    8.2103 C   0  0  0  0  0  0  0  0  0  0  0  0
   -2.2439   -3.5507    8.1385 O   0  0  0  0  0  0  0  0  0  0  0  0
 30 31  1  0  0  0
 31 24  1  0  0  0
 24 25  2  0  0  0
 25 26  1  0  0  0
 26 27  2  0  0  0
 27 28  1  0  0  0
 28 29  2  0  0  0
 27 21  1  0  0  0
 21 22  2  0  0  0
 21 23  2  0  0  0
 21  1  1  0  0  0
  1  2  1  0  0  0
  2  3  1  0  0  0
  3  4  1  0  0  0
  4  5  1  0  0  0
  5  6  1  0  0  0
  4  7  1  0  0  0
  7  8  2  0  0  0
  8  9  1  0  0  0
  9 10  1  0  0  0
 10 11  2  0  0  0
 11 12  1  0  0  0
 12 13  2  0  0  0
 13 14  1  0  0  0
 14 15  2  0  0  0
 13 17  1  0  0  0
 17 18  1  0  0  0
 17 19  1  0  0  0
 17 20  1  0  0  0
 29 24  1  0  0  0
  6  1  1  0  0  0
 15  7  1  0  0  0
 15 10  1  0  0  0
  9 16  1  0  0  0
M  END
> <minimizedAffinity>
-8.53930

> <CNNscore>
0.3442352414

> <CNNaffinity>
6.6338920593

> <CNN_VS>
2.2836194038

> <CNNaffinity_variance>
0.0561225414

$$$$
[H]c1c([H])c(S(=O)(=O)N2C([H])([H])C([H])([H])C([H])(c3c([H])n([H])c4c([H])c([H])c(Cl)c([H])c34)C([H])([H])C2([H])[H])c([H])c([H])c1OC([H])([H])[H]


 28 31  0  0  0  0  0  0  0  0999 V2000
  -11.4621   -9.2374    7.8734 N   0  0  0  0  0  0  0  0  0  0  0  0
  -11.6144   -7.8257    7.8947 C   0  0  0  0  0  0  0  0  0  0  0  0
  -12.6795   -7.3098    6.9549 C   0  0  0  0  0  0  0  0  0  0  0  0
  -14.0215   -7.9158    7.1667 C   0  0  0  0  0  0  0  0  0  0  0  0
  -13.8611   -9.2228    7.9630 C   0  0  0  0  0  0  0  0  0  0  0  0
  -12.6343   -9.9542    7.4464 C   0  0  0  0  0  0  0  0  0  0  0  0
  -14.6718   -8.3404    5.8883 C   0  0  0  0  0  0  0  0  0  0  0  0
  -14.4298   -9.4356    5.0941 C   0  0  0  0  0  0  0  0  0  0  0  0
  -15.2914   -9.3630    4.0696 N   0  0  0  0  0  0  0  0  0  0  0  0
  -16.0674   -8.2849    4.1654 C   0  0  0  0  0  0  0  0  0  0  0  0
  -17.0982   -7.7508    3.3840 C   0  0  0  0  0  0  0  0  0  0  0  0
  -17.7130   -6.5920    3.7609 C   0  0  0  0  0  0  0  0  0  0  0  0
  -17.3574   -5.9024    4.9066 C   0  0  0  0  0  0  0  0  0  0  0  0
  -18.1836   -4.4045    5.3506 Cl  0  0  0  0  0  0  0  0  0  0  0  0
  -16.3439   -6.4209    5.6820 C   0  0  0  0  0  0  0  0  0  0  0  0
  -15.7109   -7.6036    5.3054 C   0  0  0  0  0  0  0  0  0  0  0  0
  -15.3455  -10.0629    3.2959 H   0  0  0  0  0  0  0  0  0  0  0  0
  -10.0645   -9.7879    7.0602 S   0  0  0  0  0  0  0  0  0  0  0  0
  -10.4393  -10.1325    5.6480 O   0  0  0  0  0  0  0  0  0  0  0  0
   -9.6321  -11.0803    7.7422 O   0  0  0  0  0  0  0  0  0  0  0  0
   -6.5979   -6.7987    7.2364 C   0  0  0  0  0  0  0  0  0  0  0  0
   -7.9033   -6.3611    7.2777 C   0  0  0  0  0  0  0  0  0  0  0  0
   -8.9634   -7.2659    7.2250 C   0  0  0  0  0  0  0  0  0  0  0  0
   -8.7697   -8.6211    7.1308 C   0  0  0  0  0  0  0  0  0  0  0  0
   -7.4625   -9.0602    7.0897 C   0  0  0  0  0  0  0  0  0  0  0  0
   -6.4086   -8.1717    7.1413 C   0  0  0  0  0  0  0  0  0  0  0  0
   -4.7328   -5.8444    8.4584 C   0  0  0  0  0  0  0  0  0  0  0  0
   -5.5097   -5.9272    7.2861 O   0  0  0  0  0  0  0  0  0  0  0  0
 27 28  1  0  0  0
 28 21  1  0  0  0
 21 22  2  0  0  0
 22 23  1  0  0  0
 23 24  2  0  0  0
 24 25  1  0  0  0
 25 26  2  0  0  0
 24 18  1  0  0  0
 18 19  2  0  0  0
 18 20  2  0  0  0
 18  1  1  0  0  0
  1  2  1  0  0  0
  2  3  1  0  0  0
  3  4  1  0  0  0
  4  5  1  0  0  0
  5  6  1  0  0  0
  4  7  1  0  0  0
  7  8  2  0  0  0
  8  9  1  0  0  0
  9 10  1  0  0  0
 10 11  2  0  0  0
 11 12  1  0  0  0
 12 13  2  0  0  0
 13 14  1  0  0  0
 13 15  1  0  0  0
 15 16  2  0  0  0
 26 21  1  0  0  0
  6  1  1  0  0  0
 16  7  1  0  0  0
 16 10  1  0  0  0
  9 17  1  0  0  0
M  END
> <minimizedAffinity>
-6.89552

> <CNNscore>
0.5365991592

> <CNNaffinity>
7.1345710754

> <CNN_VS>
3.8284049034

> <CNNaffinity_variance>
0.2139375657

$$$$
[H]c1c([H])c(S(=O)(=O)N2C([H])([H])C([H])([H])C([H])(c3c([H])n([H])c4c([H])c([H])c(Cl)c([H])c34)C([H])([H])C2([H])[H])c([H])c([H])c1OC([H])([H])[H]


 28 31  0  0  0  0  0  0  0  0999 V2000
  -11.2466  -10.0989    6.5155 N   0  0  0  0  0  0  0  0  0  0  0  0
  -11.8285  -10.5497    7.7300 C   0  0  0  0  0  0  0  0  0  0  0  0
  -11.8599   -9.5037    8.8201 C   0  0  0  0  0  0  0  0  0  0  0  0
  -12.5417   -8.2403    8.4300 C   0  0  0  0  0  0  0  0  0  0  0  0
  -12.6192   -8.1661    6.8949 C   0  0  0  0  0  0  0  0  0  0  0  0
  -11.3080   -8.6746    6.3212 C   0  0  0  0  0  0  0  0  0  0  0  0
  -11.7666   -7.0216    8.8194 C   0  0  0  0  0  0  0  0  0  0  0  0
  -10.5354   -6.5832    8.3943 C   0  0  0  0  0  0  0  0  0  0  0  0
  -10.2966   -5.4314    9.0373 N   0  0  0  0  0  0  0  0  0  0  0  0
  -11.3042   -5.1115    9.8473 C   0  0  0  0  0  0  0  0  0  0  0  0
  -11.5545   -4.0479   10.7217 C   0  0  0  0  0  0  0  0  0  0  0  0
  -12.7168   -4.0081   11.4361 C   0  0  0  0  0  0  0  0  0  0  0  0
  -13.6836   -4.9928   11.3353 C   0  0  0  0  0  0  0  0  0  0  0  0
  -15.1719   -4.8960   12.2833 Cl  0  0  0  0  0  0  0  0  0  0  0  0
  -13.4457   -6.0434   10.4767 C   0  0  0  0  0  0  0  0  0  0  0  0
  -12.2622   -6.0923    9.7431 C   0  0  0  0  0  0  0  0  0  0  0  0
   -9.4305   -4.8597    8.9176 H   0  0  0  0  0  0  0  0  0  0  0  0
   -9.6771  -10.7017    6.2142 S   0  0  0  0  0  0  0  0  0  0  0  0
   -9.5243  -10.9157    4.7362 O   0  0  0  0  0  0  0  0  0  0  0  0
   -9.5893  -12.0691    6.8812 O   0  0  0  0  0  0  0  0  0  0  0  0
   -6.4106   -7.9146    7.8097 C   0  0  0  0  0  0  0  0  0  0  0  0
   -7.2192   -8.6152    8.6771 C   0  0  0  0  0  0  0  0  0  0  0  0
   -8.2152   -9.4659    8.1981 C   0  0  0  0  0  0  0  0  0  0  0  0
   -8.4427   -9.6505    6.8575 C   0  0  0  0  0  0  0  0  0  0  0  0
   -7.6330   -8.9493    5.9880 C   0  0  0  0  0  0  0  0  0  0  0  0
   -6.6458   -8.1061    6.4539 C   0  0  0  0  0  0  0  0  0  0  0  0
   -4.1234   -7.1208    7.6640 C   0  0  0  0  0  0  0  0  0  0  0  0
   -5.4039   -7.0539    8.2476 O   0  0  0  0  0  0  0  0  0  0  0  0
 27 28  1  0  0  0
 28 21  1  0  0  0
 21 22  2  0  0  0
 22 23  1  0  0  0
 23 24  2  0  0  0
 24 25  1  0  0  0
 25 26  2  0  0  0
 24 18  1  0  0  0
 18 19  2  0  0  0
 18 20  2  0  0  0
 18  1  1  0  0  0
  1  2  1  0  0  0
  2  3  1  0  0  0
  3  4  1  0  0  0
  4  5  1  0  0  0
  5  6  1  0  0  0
  4  7  1  0  0  0
  7  8  2  0  0  0
  8  9  1  0  0  0
  9 10  1  0  0  0
 10 11  2  0  0  0
 11 12  1  0  0  0
 12 13  2  0  0  0
 13 14  1  0  0  0
 13 15  1  0  0  0
 15 16  2  0  0  0
 26 21  1  0  0  0
  6  1  1  0  0  0
 16  7  1  0  0  0
 16 10  1  0  0  0
  9 17  1  0  0  0
M  END
> <minimizedAffinity>
6.61060

> <CNNscore>
0.5273151398

> <CNNaffinity>
6.7094893456

> <CNN_VS>
3.5380153656

> <CNNaffinity_variance>
1.5045728683

$$$$
[H]c1c([H])c(S(=O)(=O)N2C([H])([H])C([H])([H])C([H])(c3c([H])n([H])c4c([H])c([H])c(Cl)c([H])c34)C([H])([H])C2([H])[H])c([H])c([H])c1OC([H])([H])[H]


 28 31  0  0  0  0  0  0  0  0999 V2000
   -9.5656   -9.0576    7.3232 N   0  0  0  0  0  0  0  0  0  0  0  0
   -9.3724   -7.8616    6.5822 C   0  0  0  0  0  0  0  0  0  0  0  0
  -10.1425   -6.6770    7.1184 C   0  0  0  0  0  0  0  0  0  0  0  0
   -9.8722   -6.3746    8.5497 C   0  0  0  0  0  0  0  0  0  0  0  0
   -9.2458   -7.6133    9.2140 C   0  0  0  0  0  0  0  0  0  0  0  0
   -9.9558   -8.8506    8.6925 C   0  0  0  0  0  0  0  0  0  0  0  0
  -11.1219   -6.1280    9.3340 C   0  0  0  0  0  0  0  0  0  0  0  0
  -12.4326   -6.0945    8.9219 C   0  0  0  0  0  0  0  0  0  0  0  0
  -13.1705   -5.8478   10.0136 N   0  0  0  0  0  0  0  0  0  0  0  0
  -12.4055   -5.7219   11.0965 C   0  0  0  0  0  0  0  0  0  0  0  0
  -12.6610   -5.4658   12.4483 C   0  0  0  0  0  0  0  0  0  0  0  0
  -11.6285   -5.3914   13.3380 C   0  0  0  0  0  0  0  0  0  0  0  0
  -10.3088   -5.5612   12.9586 C   0  0  0  0  0  0  0  0  0  0  0  0
   -9.0072   -5.4540   14.1492 Cl  0  0  0  0  0  0  0  0  0  0  0  0
  -10.0480   -5.8139   11.6299 C   0  0  0  0  0  0  0  0  0  0  0  0
  -11.0956   -5.8920   10.7145 C   0  0  0  0  0  0  0  0  0  0  0  0
  -14.2119   -5.7648   10.0130 H   0  0  0  0  0  0  0  0  0  0  0  0
  -10.5651  -10.2123    6.5583 S   0  0  0  0  0  0  0  0  0  0  0  0
  -10.4595  -11.5071    7.3106 O   0  0  0  0  0  0  0  0  0  0  0  0
   -9.9892  -10.4486    5.1673 O   0  0  0  0  0  0  0  0  0  0  0  0
  -14.9019   -8.7571    6.3180 C   0  0  0  0  0  0  0  0  0  0  0  0
  -14.1763   -8.9899    5.1706 C   0  0  0  0  0  0  0  0  0  0  0  0
  -12.8557   -9.4336    5.2366 C   0  0  0  0  0  0  0  0  0  0  0  0
  -12.2146   -9.6599    6.4286 C   0  0  0  0  0  0  0  0  0  0  0  0
  -12.9408   -9.4272    7.5782 C   0  0  0  0  0  0  0  0  0  0  0  0
  -14.2473   -8.9884    7.5213 C   0  0  0  0  0  0  0  0  0  0  0  0
  -16.9296   -8.2772    5.0766 C   0  0  0  0  0  0  0  0  0  0  0  0
  -16.2242   -8.3129    6.2956 O   0  0  0  0  0  0  0  0  0  0  0  0
 27 28  1  0  0  0
 28 21  1  0  0  0
 21 22  2  0  0  0
 22 23  1  0  0  0
 23 24  2  0  0  0
 24 25  1  0  0  0
 25 26  2  0  0  0
 24 18  1  0  0  0
 18 19  2  0  0  0
 18 20  2  0  0  0
 18  1  1  0  0  0
  1  2  1  0  0  0
  2  3  1  0  0  0
  3  4  1  0  0  0
  4  5  1  0  0  0
  5  6  1  0  0  0
  4  7  1  0  0  0
  7  8  2  0  0  0
  8  9  1  0  0  0
  9 10  1  0  0  0
 10 11  2  0  0  0
 11 12  1  0  0  0
 12 13  2  0  0  0
 13 14  1  0  0  0
 13 15  1  0  0  0
 15 16  2  0  0  0
 26 21  1  0  0  0
  6  1  1  0  0  0
 16  7  1  0  0  0
 16 10  1  0  0  0
  9 17  1  0  0  0
M  END
> <minimizedAffinity>
5.59696

> <CNNscore>
0.4988701344

> <CNNaffinity>
6.4718093872

> <CNN_VS>
3.2285923958

> <CNNaffinity_variance>
0.8026978374

$$$$
[H]c1c([H])c(S(=O)(=O)N2C([H])([H])C([H])([H])C([H])(c3c([H])n([H])c4c([H])c([H])c(Cl)c([H])c34)C([H])([H])C2([H])[H])c([H])c([H])c1OC([H])([H])[H]


 28 31  0  0  0  0  0  0  0  0999 V2000
  -10.7788   -8.9112    8.4136 N   0  0  0  0  0  0  0  0  0  0  0  0
  -11.2459   -9.9710    7.5918 C   0  0  0  0  0  0  0  0  0  0  0  0
  -10.3930  -10.2205    6.3695 C   0  0  0  0  0  0  0  0  0  0  0  0
   -8.9590  -10.4766    6.6715 C   0  0  0  0  0  0  0  0  0  0  0  0
   -8.6464   -9.9653    8.0889 C   0  0  0  0  0  0  0  0  0  0  0  0
   -9.3696   -8.6457    8.2955 C   0  0  0  0  0  0  0  0  0  0  0  0
   -8.0349   -9.7005    5.7875 C   0  0  0  0  0  0  0  0  0  0  0  0
   -7.2696   -8.5928    6.0633 C   0  0  0  0  0  0  0  0  0  0  0  0
   -6.6112   -8.2923    4.9349 N   0  0  0  0  0  0  0  0  0  0  0  0
   -6.9135   -9.1441    3.9568 C   0  0  0  0  0  0  0  0  0  0  0  0
   -6.5204   -9.2759    2.6202 C   0  0  0  0  0  0  0  0  0  0  0  0
   -7.0285  -10.2842    1.8534 C   0  0  0  0  0  0  0  0  0  0  0  0
   -7.9361  -11.2052    2.3457 C   0  0  0  0  0  0  0  0  0  0  0  0
   -8.5659  -12.4924    1.3113 Cl  0  0  0  0  0  0  0  0  0  0  0  0
   -8.3286  -11.0833    3.6604 C   0  0  0  0  0  0  0  0  0  0  0  0
   -7.8149  -10.0574    4.4509 C   0  0  0  0  0  0  0  0  0  0  0  0
   -5.9470   -7.4919    4.8369 H   0  0  0  0  0  0  0  0  0  0  0  0
  -11.6948   -7.4735    8.3059 S   0  0  0  0  0  0  0  0  0  0  0  0
  -10.7868   -6.3615    7.8672 O   0  0  0  0  0  0  0  0  0  0  0  0
  -12.1696   -7.1411    9.7153 O   0  0  0  0  0  0  0  0  0  0  0  0
  -15.3468   -7.8743    5.5700 C   0  0  0  0  0  0  0  0  0  0  0  0
  -14.2756   -8.7300    5.4386 C   0  0  0  0  0  0  0  0  0  0  0  0
  -13.1608   -8.6139    6.2687 C   0  0  0  0  0  0  0  0  0  0  0  0
  -13.0692   -7.6565    7.2474 C   0  0  0  0  0  0  0  0  0  0  0  0
  -14.1419   -6.7992    7.3798 C   0  0  0  0  0  0  0  0  0  0  0  0
  -15.2480   -6.9075    6.5628 C   0  0  0  0  0  0  0  0  0  0  0  0
  -16.6412   -7.0551    3.6895 C   0  0  0  0  0  0  0  0  0  0  0  0
  -16.4799   -7.9564    4.7602 O   0  0  0  0  0  0  0  0  0  0  0  0
 27 28  1  0  0  0
 28 21  1  0  0  0
 21 22  2  0  0  0
 22 23  1  0  0  0
 23 24  2  0  0  0
 24 25  1  0  0  0
 25 26  2  0  0  0
 24 18  1  0  0  0
 18 19  2  0  0  0
 18 20  2  0  0  0
 18  1  1  0  0  0
  1  2  1  0  0  0
  2  3  1  0  0  0
  3  4  1  0  0  0
  4  5  1  0  0  0
  5  6  1  0  0  0
  4  7  1  0  0  0
  7  8  2  0  0  0
  8  9  1  0  0  0
  9 10  1  0  0  0
 10 11  2  0  0  0
 11 12  1  0  0  0
 12 13  2  0  0  0
 13 14  1  0  0  0
 13 15  1  0  0  0
 15 16  2  0  0  0
 26 21  1  0  0  0
  6  1  1  0  0  0
 16  7  1  0  0  0
 16 10  1  0  0  0
  9 17  1  0  0  0
M  END
> <minimizedAffinity>
5.16798

> <CNNscore>
0.4937464297

> <CNNaffinity>
6.5173597336

> <CNN_VS>
3.2179231644

> <CNNaffinity_variance>
0.4855663180

$$$$
[H]c1c([H])c(S(=O)(=O)N2C([H])([H])C([H])([H])C([H])(c3c([H])n([H])c4c([H])c([H])c(Cl)c([H])c34)C([H])([H])C2([H])[H])c([H])c([H])c1OC([H])([H])[H]


 28 31  0  0  0  0  0  0  0  0999 V2000
  -14.7988   -8.5079    5.9814 N   0  0  0  0  0  0  0  0  0  0  0  0
  -14.3169   -9.8263    5.7659 C   0  0  0  0  0  0  0  0  0  0  0  0
  -12.8965  -10.0439    6.2336 C   0  0  0  0  0  0  0  0  0  0  0  0
  -12.6692   -9.7042    7.6640 C   0  0  0  0  0  0  0  0  0  0  0  0
  -13.8123   -8.7964    8.1510 C   0  0  0  0  0  0  0  0  0  0  0  0
  -14.1415   -7.8033    7.0499 C   0  0  0  0  0  0  0  0  0  0  0  0
  -11.4342   -8.8870    7.8745 C   0  0  0  0  0  0  0  0  0  0  0  0
  -10.1569   -9.0772    7.4040 C   0  0  0  0  0  0  0  0  0  0  0  0
   -9.4224   -8.0563    7.8683 N   0  0  0  0  0  0  0  0  0  0  0  0
  -10.1579   -7.2277    8.6073 C   0  0  0  0  0  0  0  0  0  0  0  0
   -9.8914   -6.0456    9.3073 C   0  0  0  0  0  0  0  0  0  0  0  0
  -10.8899   -5.4156    9.9922 C   0  0  0  0  0  0  0  0  0  0  0  0
  -12.1849   -5.9012   10.0290 C   0  0  0  0  0  0  0  0  0  0  0  0
  -13.4425   -5.0488   10.9319 Cl  0  0  0  0  0  0  0  0  0  0  0  0
  -12.4565   -7.0642    9.3426 C   0  0  0  0  0  0  0  0  0  0  0  0
  -11.4437   -7.7141    8.6403 C   0  0  0  0  0  0  0  0  0  0  0  0
   -8.4037   -7.9290    7.6747 H   0  0  0  0  0  0  0  0  0  0  0  0
  -14.8976   -7.5494    4.5711 S   0  0  0  0  0  0  0  0  0  0  0  0
  -14.6060   -8.4188    3.3825 O   0  0  0  0  0  0  0  0  0  0  0  0
  -13.7840   -6.5128    4.6579 O   0  0  0  0  0  0  0  0  0  0  0  0
  -18.9100   -5.3620    4.2569 C   0  0  0  0  0  0  0  0  0  0  0  0
  -18.7834   -6.6605    3.8153 C   0  0  0  0  0  0  0  0  0  0  0  0
  -17.5648   -7.3325    3.9086 C   0  0  0  0  0  0  0  0  0  0  0  0
  -16.4412   -6.7482    4.4369 C   0  0  0  0  0  0  0  0  0  0  0  0
  -16.5674   -5.4477    4.8796 C   0  0  0  0  0  0  0  0  0  0  0  0
  -17.7690   -4.7763    4.7909 C   0  0  0  0  0  0  0  0  0  0  0  0
  -20.1857   -3.3477    4.7017 C   0  0  0  0  0  0  0  0  0  0  0  0
  -20.1101   -4.6547    4.1813 O   0  0  0  0  0  0  0  0  0  0  0  0
 27 28  1  0  0  0
 28 21  1  0  0  0
 21 22  2  0  0  0
 22 23  1  0  0  0
 23 24  2  0  0  0
 24 25  1  0  0  0
 25 26  2  0  0  0
 24 18  1  0  0  0
 18 19  2  0  0  0
 18 20  2  0  0  0
 18  1  1  0  0  0
  1  2  1  0  0  0
  2  3  1  0  0  0
  3  4  1  0  0  0
  4  5  1  0  0  0
  5  6  1  0  0  0
  4  7  1  0  0  0
  7  8  2  0  0  0
  8  9  1  0  0  0
  9 10  1  0  0  0
 10 11  2  0  0  0
 11 12  1  0  0  0
 12 13  2  0  0  0
 13 14  1  0  0  0
 13 15  1  0  0  0
 15 16  2  0  0  0
 26 21  1  0  0  0
  6  1  1  0  0  0
 16  7  1  0  0  0
 16 10  1  0  0  0
  9 17  1  0  0  0
M  END
> <minimizedAffinity>
-4.47186

> <CNNscore>
0.4765589237

> <CNNaffinity>
6.8646612167

> <CNN_VS>
3.2714154720

> <CNNaffinity_variance>
0.1860115975

$$$$
[H]c1c([H])c(S(=O)(=O)N2C([H])([H])C([H])([H])C([H])(c3c([H])n([H])c4c([H])c([H])c(Cl)c([H])c34)C([H])([H])C2([H])[H])c([H])c([H])c1OC([H])([H])[H]


 28 31  0  0  0  0  0  0  0  0999 V2000
  -15.1091   -8.9974    6.4357 N   0  0  0  0  0  0  0  0  0  0  0  0
  -14.5254  -10.2854    6.5665 C   0  0  0  0  0  0  0  0  0  0  0  0
  -13.0828  -10.2619    7.0161 C   0  0  0  0  0  0  0  0  0  0  0  0
  -12.8556   -9.5275    8.2897 C   0  0  0  0  0  0  0  0  0  0  0  0
  -14.0591   -8.6072    8.5590 C   0  0  0  0  0  0  0  0  0  0  0  0
  -14.4904   -7.9808    7.2443 C   0  0  0  0  0  0  0  0  0  0  0  0
  -11.6875   -8.5957    8.2187 C   0  0  0  0  0  0  0  0  0  0  0  0
  -10.5153   -8.6994    7.5088 C   0  0  0  0  0  0  0  0  0  0  0  0
   -9.8054   -7.5949    7.7794 N   0  0  0  0  0  0  0  0  0  0  0  0
  -10.4576   -6.7944    8.6206 C   0  0  0  0  0  0  0  0  0  0  0  0
  -10.1736   -5.5574    9.2099 C   0  0  0  0  0  0  0  0  0  0  0  0
  -11.0739   -4.9803   10.0581 C   0  0  0  0  0  0  0  0  0  0  0  0
  -12.2838   -5.5740   10.3713 C   0  0  0  0  0  0  0  0  0  0  0  0
  -13.4155   -4.7864   11.4768 Cl  0  0  0  0  0  0  0  0  0  0  0  0
  -12.5719   -6.7917    9.7955 C   0  0  0  0  0  0  0  0  0  0  0  0
  -11.6590   -7.3882    8.9282 C   0  0  0  0  0  0  0  0  0  0  0  0
   -8.8616   -7.3901    7.3809 H   0  0  0  0  0  0  0  0  0  0  0  0
  -15.3143   -8.4720    4.8234 S   0  0  0  0  0  0  0  0  0  0  0  0
  -16.6032   -9.0352    4.2989 O   0  0  0  0  0  0  0  0  0  0  0  0
  -14.1851   -9.0885    4.0067 O   0  0  0  0  0  0  0  0  0  0  0  0
  -15.0660   -3.9133    4.4493 C   0  0  0  0  0  0  0  0  0  0  0  0
  -16.2270   -4.5192    4.8761 C   0  0  0  0  0  0  0  0  0  0  0  0
  -16.3092   -5.9066    4.9927 C   0  0  0  0  0  0  0  0  0  0  0  0
  -15.2556   -6.7334    4.6941 C   0  0  0  0  0  0  0  0  0  0  0  0
  -14.0923   -6.1273    4.2669 C   0  0  0  0  0  0  0  0  0  0  0  0
  -14.0030   -4.7559    4.1489 C   0  0  0  0  0  0  0  0  0  0  0  0
  -14.4626   -1.7652    5.4001 C   0  0  0  0  0  0  0  0  0  0  0  0
  -14.9427   -2.5298    4.3187 O   0  0  0  0  0  0  0  0  0  0  0  0
 27 28  1  0  0  0
 28 21  1  0  0  0
 21 22  2  0  0  0
 22 23  1  0  0  0
 23 24  2  0  0  0
 24 25  1  0  0  0
 25 26  2  0  0  0
 24 18  1  0  0  0
 18 19  2  0  0  0
 18 20  2  0  0  0
 18  1  1  0  0  0
  1  2  1  0  0  0
  2  3  1  0  0  0
  3  4  1  0  0  0
  4  5  1  0  0  0
  5  6  1  0  0  0
  4  7  1  0  0  0
  7  8  2  0  0  0
  8  9  1  0  0  0
  9 10  1  0  0  0
 10 11  2  0  0  0
 11 12  1  0  0  0
 12 13  2  0  0  0
 13 14  1  0  0  0
 13 15  1  0  0  0
 15 16  2  0  0  0
 26 21  1  0  0  0
  6  1  1  0  0  0
 16  7  1  0  0  0
 16 10  1  0  0  0
  9 17  1  0  0  0
M  END
> <minimizedAffinity>
-2.73990

> <CNNscore>
0.4262813330

> <CNNaffinity>
6.8859529495

> <CNN_VS>
2.9353532791

> <CNNaffinity_variance>
0.5075893998

$$$$
[H]c1c([H])c(S(=O)(=O)N2C([H])([H])C([H])([H])C([H])(c3c([H])n([H])c4c([H])c([H])c(Cl)c([H])c34)C([H])([H])C2([H])[H])c([H])c([H])c1OC([H])([H])[H]


 28 31  0  0  0  0  0  0  0  0999 V2000
   -7.3541   -7.0516    6.6669 N   0  0  0  0  0  0  0  0  0  0  0  0
   -6.9353   -8.3282    7.1271 C   0  0  0  0  0  0  0  0  0  0  0  0
   -5.8300   -8.2765    8.1564 C   0  0  0  0  0  0  0  0  0  0  0  0
   -6.1483   -7.4448    9.3480 C   0  0  0  0  0  0  0  0  0  0  0  0
   -7.3129   -6.4999    9.0030 C   0  0  0  0  0  0  0  0  0  0  0  0
   -7.1075   -5.9773    7.5918 C   0  0  0  0  0  0  0  0  0  0  0  0
   -5.0294   -6.5274    9.7278 C   0  0  0  0  0  0  0  0  0  0  0  0
   -5.0299   -5.4234   10.5463 C   0  0  0  0  0  0  0  0  0  0  0  0
   -3.7712   -4.9624   10.5672 N   0  0  0  0  0  0  0  0  0  0  0  0
   -2.9698   -5.7086    9.8093 C   0  0  0  0  0  0  0  0  0  0  0  0
   -1.6079   -5.6652    9.4905 C   0  0  0  0  0  0  0  0  0  0  0  0
   -1.0702   -6.6013    8.6553 C   0  0  0  0  0  0  0  0  0  0  0  0
   -1.8251   -7.6162    8.0945 C   0  0  0  0  0  0  0  0  0  0  0  0
   -1.0816   -8.8037    7.0173 Cl  0  0  0  0  0  0  0  0  0  0  0  0
   -3.1667   -7.6668    8.4030 C   0  0  0  0  0  0  0  0  0  0  0  0
   -3.7243   -6.7157    9.2550 C   0  0  0  0  0  0  0  0  0  0  0  0
   -3.4607   -4.1247   11.1088 H   0  0  0  0  0  0  0  0  0  0  0  0
   -6.8201   -6.6544    5.0938 S   0  0  0  0  0  0  0  0  0  0  0  0
   -7.9560   -6.0100    4.3534 O   0  0  0  0  0  0  0  0  0  0  0  0
   -6.5044   -7.9664    4.3859 O   0  0  0  0  0  0  0  0  0  0  0  0
   -3.1305   -3.9397    5.1105 C   0  0  0  0  0  0  0  0  0  0  0  0
   -3.1940   -5.0408    5.9355 C   0  0  0  0  0  0  0  0  0  0  0  0
   -4.3141   -5.8718    5.9350 C   0  0  0  0  0  0  0  0  0  0  0  0
   -5.3987   -5.6437    5.1260 C   0  0  0  0  0  0  0  0  0  0  0  0
   -5.3357   -4.5412    4.2992 C   0  0  0  0  0  0  0  0  0  0  0  0
   -4.2315   -3.7145    4.2938 C   0  0  0  0  0  0  0  0  0  0  0  0
   -1.1401   -3.0495    6.1731 C   0  0  0  0  0  0  0  0  0  0  0  0
   -2.0294   -3.0835    5.0809 O   0  0  0  0  0  0  0  0  0  0  0  0
 27 28  1  0  0  0
 28 21  1  0  0  0
 21 22  2  0  0  0
 22 23  1  0  0  0
 23 24  2  0  0  0
 24 25  1  0  0  0
 25 26  2  0  0  0
 24 18  1  0  0  0
 18 19  2  0  0  0
 18 20  2  0  0  0
 18  1  1  0  0  0
  1  2  1  0  0  0
  2  3  1  0  0  0
  3  4  1  0  0  0
  4  5  1  0  0  0
  5  6  1  0  0  0
  4  7  1  0  0  0
  7  8  2  0  0  0
  8  9  1  0  0  0
  9 10  1  0  0  0
 10 11  2  0  0  0
 11 12  1  0  0  0
 12 13  2  0  0  0
 13 14  1  0  0  0
 13 15  1  0  0  0
 15 16  2  0  0  0
 26 21  1  0  0  0
  6  1  1  0  0  0
 16  7  1  0  0  0
 16 10  1  0  0  0
  9 17  1  0  0  0
M  END
> <minimizedAffinity>
3.91827

> <CNNscore>
0.4024654925

> <CNNaffinity>
5.3549528122

> <CNN_VS>
2.1551837921

> <CNNaffinity_variance>
0.6933318377

$$$$
[H]c1c([H])c(S(=O)(=O)N2C([H])([H])C([H])([H])C([H])(c3c([H])n([H])c4c([H])c([H])c(Cl)c([H])c34)C([H])([H])C2([H])[H])c([H])c([H])c1OC([H])([H])[H]


 28 31  0  0  0  0  0  0  0  0999 V2000
  -13.3300   -8.8095    6.4325 N   0  0  0  0  0  0  0  0  0  0  0  0
  -13.4312   -9.9077    5.5377 C   0  0  0  0  0  0  0  0  0  0  0  0
  -14.6949   -9.9087    4.7090 C   0  0  0  0  0  0  0  0  0  0  0  0
  -14.9086   -8.6621    3.9258 C   0  0  0  0  0  0  0  0  0  0  0  0
  -14.0394   -7.5408    4.5218 C   0  0  0  0  0  0  0  0  0  0  0  0
  -14.0839   -7.6499    6.0361 C   0  0  0  0  0  0  0  0  0  0  0  0
  -16.3071   -8.1428    4.0365 C   0  0  0  0  0  0  0  0  0  0  0  0
  -17.4996   -8.8222    4.1085 C   0  0  0  0  0  0  0  0  0  0  0  0
  -18.4624   -7.8948    4.2095 N   0  0  0  0  0  0  0  0  0  0  0  0
  -17.9520   -6.6648    4.2054 C   0  0  0  0  0  0  0  0  0  0  0  0
  -18.5003   -5.3795    4.2816 C   0  0  0  0  0  0  0  0  0  0  0  0
  -17.6859   -4.2847    4.2473 C   0  0  0  0  0  0  0  0  0  0  0  0
  -16.3104   -4.3865    4.1379 C   0  0  0  0  0  0  0  0  0  0  0  0
  -15.2992   -2.9377    4.0961 Cl  0  0  0  0  0  0  0  0  0  0  0  0
  -15.7619   -5.6478    4.0624 C   0  0  0  0  0  0  0  0  0  0  0  0
  -16.5853   -6.7713    4.0971 C   0  0  0  0  0  0  0  0  0  0  0  0
  -19.4820   -8.1111    4.2814 H   0  0  0  0  0  0  0  0  0  0  0  0
  -13.6066   -9.2021    8.0716 S   0  0  0  0  0  0  0  0  0  0  0  0
  -13.0605  -10.5762    8.3313 O   0  0  0  0  0  0  0  0  0  0  0  0
  -15.1166   -9.2710    8.2646 O   0  0  0  0  0  0  0  0  0  0  0  0
  -11.9071   -6.0744   10.9547 C   0  0  0  0  0  0  0  0  0  0  0  0
  -11.1491   -6.5454    9.9056 C   0  0  0  0  0  0  0  0  0  0  0  0
  -11.6606   -7.4972    9.0237 C   0  0  0  0  0  0  0  0  0  0  0  0
  -12.9272   -8.0102    9.1489 C   0  0  0  0  0  0  0  0  0  0  0  0
  -13.6871   -7.5388   10.1993 C   0  0  0  0  0  0  0  0  0  0  0  0
  -13.1885   -6.5975   11.0757 C   0  0  0  0  0  0  0  0  0  0  0  0
  -11.2773   -5.4659   13.2166 C   0  0  0  0  0  0  0  0  0  0  0  0
  -11.4331   -5.1235   11.8589 O   0  0  0  0  0  0  0  0  0  0  0  0
 27 28  1  0  0  0
 28 21  1  0  0  0
 21 22  2  0  0  0
 22 23  1  0  0  0
 23 24  2  0  0  0
 24 25  1  0  0  0
 25 26  2  0  0  0
 24 18  1  0  0  0
 18 19  2  0  0  0
 18 20  2  0  0  0
 18  1  1  0  0  0
  1  2  1  0  0  0
  2  3  1  0  0  0
  3  4  1  0  0  0
  4  5  1  0  0  0
  5  6  1  0  0  0
  4  7  1  0  0  0
  7  8  2  0  0  0
  8  9  1  0  0  0
  9 10  1  0  0  0
 10 11  2  0  0  0
 11 12  1  0  0  0
 12 13  2  0  0  0
 13 14  1  0  0  0
 13 15  1  0  0  0
 15 16  2  0  0  0
 26 21  1  0  0  0
  6  1  1  0  0  0
 16  7  1  0  0  0
 16 10  1  0  0  0
  9 17  1  0  0  0
M  END
> <minimizedAffinity>
-3.92962

> <CNNscore>
0.3944647908

> <CNNaffinity>
6.7166504860

> <CNN_VS>
2.6494820118

> <CNNaffinity_variance>
0.1273795813

$$$$
[H]c1c([H])c(S(=O)(=O)N2C([H])([H])C([H])([H])C([H])(c3c([H])n([H])c4c([H])c([H])c(Cl)c([H])c34)C([H])([H])C2([H])[H])c([H])c([H])c1OC([H])([H])[H]


 28 31  0  0  0  0  0  0  0  0999 V2000
  -14.9548   -7.8166    7.4777 N   0  0  0  0  0  0  0  0  0  0  0  0
  -14.5985   -9.0546    8.0753 C   0  0  0  0  0  0  0  0  0  0  0  0
  -13.1770   -9.1021    8.5861 C   0  0  0  0  0  0  0  0  0  0  0  0
  -12.8410   -8.0185    9.5484 C   0  0  0  0  0  0  0  0  0  0  0  0
  -13.8742   -6.8866    9.4092 C   0  0  0  0  0  0  0  0  0  0  0  0
  -14.1809   -6.6929    7.9343 C   0  0  0  0  0  0  0  0  0  0  0  0
  -11.5316   -7.3619    9.2449 C   0  0  0  0  0  0  0  0  0  0  0  0
  -11.0458   -6.1364    9.6331 C   0  0  0  0  0  0  0  0  0  0  0  0
   -9.8179   -6.0275    9.1062 N   0  0  0  0  0  0  0  0  0  0  0  0
   -9.4943   -7.1124    8.4049 C   0  0  0  0  0  0  0  0  0  0  0  0
   -8.3677   -7.5010    7.6712 C   0  0  0  0  0  0  0  0  0  0  0  0
   -8.3439   -8.7130    7.0440 C   0  0  0  0  0  0  0  0  0  0  0  0
   -9.4059   -9.5980    7.0998 C   0  0  0  0  0  0  0  0  0  0  0  0
   -9.3265  -11.1558    6.2688 Cl  0  0  0  0  0  0  0  0  0  0  0  0
  -10.5190   -9.2239    7.8200 C   0  0  0  0  0  0  0  0  0  0  0  0
  -10.5522   -7.9888    8.4638 C   0  0  0  0  0  0  0  0  0  0  0  0
   -9.1962   -5.1972    9.2305 H   0  0  0  0  0  0  0  0  0  0  0  0
  -15.0529   -7.8541    5.7728 S   0  0  0  0  0  0  0  0  0  0  0  0
  -15.0271   -9.2869    5.3253 O   0  0  0  0  0  0  0  0  0  0  0  0
  -13.7894   -7.1902    5.2391 O   0  0  0  0  0  0  0  0  0  0  0  0
  -18.7105   -5.5437    4.2673 C   0  0  0  0  0  0  0  0  0  0  0  0
  -18.5608   -6.8826    3.9807 C   0  0  0  0  0  0  0  0  0  0  0  0
  -17.4499   -7.5921    4.4365 C   0  0  0  0  0  0  0  0  0  0  0  0
  -16.4592   -7.0066    5.1841 C   0  0  0  0  0  0  0  0  0  0  0  0
  -16.6087   -5.6657    5.4717 C   0  0  0  0  0  0  0  0  0  0  0  0
  -17.7044   -4.9570    5.0246 C   0  0  0  0  0  0  0  0  0  0  0  0
  -20.1313   -3.5891    4.4762 C   0  0  0  0  0  0  0  0  0  0  0  0
  -19.8057   -4.7981    3.8303 O   0  0  0  0  0  0  0  0  0  0  0  0
 27 28  1  0  0  0
 28 21  1  0  0  0
 21 22  2  0  0  0
 22 23  1  0  0  0
 23 24  2  0  0  0
 24 25  1  0  0  0
 25 26  2  0  0  0
 24 18  1  0  0  0
 18 19  2  0  0  0
 18 20  2  0  0  0
 18  1  1  0  0  0
  1  2  1  0  0  0
  2  3  1  0  0  0
  3  4  1  0  0  0
  4  5  1  0  0  0
  5  6  1  0  0  0
  4  7  1  0  0  0
  7  8  2  0  0  0
  8  9  1  0  0  0
  9 10  1  0  0  0
 10 11  2  0  0  0
 11 12  1  0  0  0
 12 13  2  0  0  0
 13 14  1  0  0  0
 13 15  1  0  0  0
 15 16  2  0  0  0
 26 21  1  0  0  0
  6  1  1  0  0  0
 16  7  1  0  0  0
 16 10  1  0  0  0
  9 17  1  0  0  0
M  END
> <minimizedAffinity>
-6.53499

> <CNNscore>
0.3808689117

> <CNNaffinity>
6.8441557884

> <CNN_VS>
2.6067261696

> <CNNaffinity_variance>
0.1138391644

$$$$
[H]c1c([H])c(C(=O)N([H])C2([H])C([H])([H])C([H])([H])N(S(=O)(=O)c3c([H])c([H])c(OC([H])([H])[H])c([H])c3[H])C([H])([H])C2([H])[H])c([H])c(Cl)c1Cl


 29 31  0  0  0  0  0  0  0  0999 V2000
  -13.6380   -8.1551    9.7838 N   0  0  0  0  0  0  0  0  0  0  0  0
  -13.0480   -6.8929    9.4932 C   0  0  0  0  0  0  0  0  0  0  0  0
  -13.7984   -6.1002    8.4484 C   0  0  0  0  0  0  0  0  0  0  0  0
  -14.3423   -7.0601    7.4212 C   0  0  0  0  0  0  0  0  0  0  0  0
  -15.4017   -7.8919    8.0963 C   0  0  0  0  0  0  0  0  0  0  0  0
  -15.0361   -8.2476    9.5161 C   0  0  0  0  0  0  0  0  0  0  0  0
  -14.9022   -6.3754    6.2712 N   0  0  0  0  0  0  0  0  0  0  0  0
  -16.2815   -6.2087    6.0665 C   0  0  0  0  0  0  0  0  0  0  0  0
  -17.0651   -6.6805    6.9291 O   0  0  0  0  0  0  0  0  0  0  0  0
  -14.2005   -6.0062    5.5904 H   0  0  0  0  0  0  0  0  0  0  0  0
  -16.8606   -5.5270    4.9230 C   0  0  0  0  0  0  0  0  0  0  0  0
  -16.1510   -5.3536    3.7505 C   0  0  0  0  0  0  0  0  0  0  0  0
  -16.6740   -4.7125    2.6521 C   0  0  0  0  0  0  0  0  0  0  0  0
  -17.9562   -4.2084    2.6847 C   0  0  0  0  0  0  0  0  0  0  0  0
  -18.6701   -3.3820    1.3095 Cl  0  0  0  0  0  0  0  0  0  0  0  0
  -18.6994   -4.3619    3.8415 C   0  0  0  0  0  0  0  0  0  0  0  0
  -20.3362   -3.7647    4.0023 Cl  0  0  0  0  0  0  0  0  0  0  0  0
  -18.1396   -5.0153    4.9332 C   0  0  0  0  0  0  0  0  0  0  0  0
  -13.3687   -8.5246   11.4478 S   0  0  0  0  0  0  0  0  0  0  0  0
  -14.7366   -8.5943   12.0993 O   0  0  0  0  0  0  0  0  0  0  0  0
  -12.7778   -9.9180   11.6029 O   0  0  0  0  0  0  0  0  0  0  0  0
  -10.7246   -5.3907   13.4835 C   0  0  0  0  0  0  0  0  0  0  0  0
  -11.2695   -6.4302   14.2055 C   0  0  0  0  0  0  0  0  0  0  0  0
  -12.0736   -7.3838   13.5927 C   0  0  0  0  0  0  0  0  0  0  0  0
  -12.3627   -7.3370   12.2454 C   0  0  0  0  0  0  0  0  0  0  0  0
  -11.8059   -6.2809   11.5257 C   0  0  0  0  0  0  0  0  0  0  0  0
  -11.0071   -5.3336   12.1343 C   0  0  0  0  0  0  0  0  0  0  0  0
   -8.5641   -4.6816   14.3771 C   0  0  0  0  0  0  0  0  0  0  0  0
   -9.9186   -4.4317   14.0889 O   0  0  0  0  0  0  0  0  0  0  0  0
 28 29  1  0  0  0
 29 22  1  0  0  0
 22 23  2  0  0  0
 23 24  1  0  0  0
 24 25  2  0  0  0
 25 26  1  0  0  0
 26 27  2  0  0  0
 25 19  1  0  0  0
 19 20  2  0  0  0
 19 21  2  0  0  0
 19  1  1  0  0  0
  1  2  1  0  0  0
  2  3  1  0  0  0
  3  4  1  0  0  0
  4  5  1  0  0  0
  5  6  1  0  0  0
  4  7  1  0  0  0
  7  8  1  0  0  0
  8  9  2  0  0  0
  8 11  1  0  0  0
 11 12  2  0  0  0
 12 13  1  0  0  0
 13 14  2  0  0  0
 14 15  1  0  0  0
 14 16  1  0  0  0
 16 17  1  0  0  0
 16 18  2  0  0  0
 27 22  1  0  0  0
  6  1  1  0  0  0
 18 11  1  0  0  0
  7 10  1  0  0  0
M  END
> <minimizedAffinity>
21.78965

> <CNNscore>
0.6249914169

> <CNNaffinity>
6.5760064125

> <CNN_VS>
4.1099476814

> <CNNaffinity_variance>
1.5429447889

$$$$
[H]c1c([H])c(C(=O)N([H])C2([H])C([H])([H])C([H])([H])N(S(=O)(=O)c3c([H])c([H])c(OC([H])([H])[H])c([H])c3[H])C([H])([H])C2([H])[H])c([H])c(Cl)c1Cl


 29 31  0  0  0  0  0  0  0  0999 V2000
  -11.9407   -5.8325   11.7066 N   0  0  0  0  0  0  0  0  0  0  0  0
  -12.5210   -7.1287   11.8012 C   0  0  0  0  0  0  0  0  0  0  0  0
  -13.1345   -7.6130   10.5081 C   0  0  0  0  0  0  0  0  0  0  0  0
  -13.7564   -6.4339    9.8044 C   0  0  0  0  0  0  0  0  0  0  0  0
  -12.6366   -5.5232    9.3725 C   0  0  0  0  0  0  0  0  0  0  0  0
  -11.5311   -5.4452   10.3962 C   0  0  0  0  0  0  0  0  0  0  0  0
  -14.5465   -6.8338    8.6552 N   0  0  0  0  0  0  0  0  0  0  0  0
  -14.0847   -6.7482    7.3317 C   0  0  0  0  0  0  0  0  0  0  0  0
  -12.9253   -6.3006    7.1414 O   0  0  0  0  0  0  0  0  0  0  0  0
  -15.5007   -7.1972    8.8782 H   0  0  0  0  0  0  0  0  0  0  0  0
  -14.8597   -7.1432    6.1694 C   0  0  0  0  0  0  0  0  0  0  0  0
  -14.4548   -8.1790    5.3498 C   0  0  0  0  0  0  0  0  0  0  0  0
  -15.1687   -8.5746    4.2430 C   0  0  0  0  0  0  0  0  0  0  0  0
  -16.3419   -7.9352    3.9055 C   0  0  0  0  0  0  0  0  0  0  0  0
  -17.2900   -8.4021    2.5031 Cl  0  0  0  0  0  0  0  0  0  0  0  0
  -16.7810   -6.8925    4.7018 C   0  0  0  0  0  0  0  0  0  0  0  0
  -18.2533   -6.0055    4.3745 Cl  0  0  0  0  0  0  0  0  0  0  0  0
  -16.0347   -6.5185    5.8131 C   0  0  0  0  0  0  0  0  0  0  0  0
  -10.5738   -5.7576   12.7572 S   0  0  0  0  0  0  0  0  0  0  0  0
  -10.5644   -4.3621   13.3512 O   0  0  0  0  0  0  0  0  0  0  0  0
  -10.7502   -6.6974   13.9408 O   0  0  0  0  0  0  0  0  0  0  0  0
   -6.6677   -6.6402   10.5390 C   0  0  0  0  0  0  0  0  0  0  0  0
   -6.6545   -6.2267   11.8534 C   0  0  0  0  0  0  0  0  0  0  0  0
   -7.8373   -5.9565   12.5313 C   0  0  0  0  0  0  0  0  0  0  0  0
   -9.0699   -6.0879   11.9278 C   0  0  0  0  0  0  0  0  0  0  0  0
   -9.0705   -6.5067   10.5982 C   0  0  0  0  0  0  0  0  0  0  0  0
   -7.8957   -6.7751    9.9247 C   0  0  0  0  0  0  0  0  0  0  0  0
   -5.4990   -7.4152    8.5384 C   0  0  0  0  0  0  0  0  0  0  0  0
   -5.4885   -6.9128    9.8528 O   0  0  0  0  0  0  0  0  0  0  0  0
 28 29  1  0  0  0
 29 22  1  0  0  0
 22 23  2  0  0  0
 23 24  1  0  0  0
 24 25  2  0  0  0
 25 26  1  0  0  0
 26 27  2  0  0  0
 25 19  1  0  0  0
 19 20  2  0  0  0
 19 21  2  0  0  0
 19  1  1  0  0  0
  1  2  1  0  0  0
  2  3  1  0  0  0
  3  4  1  0  0  0
  4  5  1  0  0  0
  5  6  1  0  0  0
  4  7  1  0  0  0
  7  8  1  0  0  0
  8  9  2  0  0  0
  8 11  1  0  0  0
 11 12  2  0  0  0
 12 13  1  0  0  0
 13 14  2  0  0  0
 14 15  1  0  0  0
 14 16  1  0  0  0
 16 17  1  0  0  0
 16 18  2  0  0  0
 27 22  1  0  0  0
  6  1  1  0  0  0
 18 11  1  0  0  0
  7 10  1  0  0  0
M  END
> <minimizedAffinity>
16.68262

> <CNNscore>
0.5600401759

> <CNNaffinity>
6.4702239037

> <CNN_VS>
3.6235852242

> <CNNaffinity_variance>
0.6999253035

$$$$
[H]c1c([H])c(C(=O)N([H])C2([H])C([H])([H])C([H])([H])N(S(=O)(=O)c3c([H])c([H])c(OC([H])([H])[H])c([H])c3[H])C([H])([H])C2([H])[H])c([H])c(Cl)c1Cl


 29 31  0  0  0  0  0  0  0  0999 V2000
   -8.6731   -5.6632    5.5467 N   0  0  0  0  0  0  0  0  0  0  0  0
   -9.4810   -6.3213    6.5162 C   0  0  0  0  0  0  0  0  0  0  0  0
  -10.9538   -6.3197    6.1786 C   0  0  0  0  0  0  0  0  0  0  0  0
  -11.2897   -5.0080    5.5162 C   0  0  0  0  0  0  0  0  0  0  0  0
  -10.5962   -4.9862    4.1788 C   0  0  0  0  0  0  0  0  0  0  0  0
   -9.2241   -5.6112    4.2319 C   0  0  0  0  0  0  0  0  0  0  0  0
  -12.7189   -4.8308    5.3408 N   0  0  0  0  0  0  0  0  0  0  0  0
  -13.5699   -5.8394    4.8607 C   0  0  0  0  0  0  0  0  0  0  0  0
  -13.0588   -6.9507    4.5697 O   0  0  0  0  0  0  0  0  0  0  0  0
  -13.0834   -3.8861    5.5995 H   0  0  0  0  0  0  0  0  0  0  0  0
  -15.0015   -5.6816    4.6785 C   0  0  0  0  0  0  0  0  0  0  0  0
  -15.7232   -6.5302    3.8616 C   0  0  0  0  0  0  0  0  0  0  0  0
  -17.0792   -6.4046    3.6707 C   0  0  0  0  0  0  0  0  0  0  0  0
  -17.7820   -5.4024    4.3040 C   0  0  0  0  0  0  0  0  0  0  0  0
  -19.5136   -5.1994    4.0936 Cl  0  0  0  0  0  0  0  0  0  0  0  0
  -17.0947   -4.5317    5.1307 C   0  0  0  0  0  0  0  0  0  0  0  0
  -17.8773   -3.2217    5.9870 Cl  0  0  0  0  0  0  0  0  0  0  0  0
  -15.7241   -4.6875    5.3011 C   0  0  0  0  0  0  0  0  0  0  0  0
   -7.1404   -6.4527    5.4723 S   0  0  0  0  0  0  0  0  0  0  0  0
   -6.1581   -5.4334    4.9274 O   0  0  0  0  0  0  0  0  0  0  0  0
   -6.6378   -6.7892    6.8684 O   0  0  0  0  0  0  0  0  0  0  0  0
   -7.2166  -10.2315    2.8895 C   0  0  0  0  0  0  0  0  0  0  0  0
   -7.1214   -8.9842    2.3118 C   0  0  0  0  0  0  0  0  0  0  0  0
   -7.0987   -7.8336    3.0911 C   0  0  0  0  0  0  0  0  0  0  0  0
   -7.1696   -7.8835    4.4671 C   0  0  0  0  0  0  0  0  0  0  0  0
   -7.2658   -9.1508    5.0398 C   0  0  0  0  0  0  0  0  0  0  0  0
   -7.2882  -10.2936    4.2659 C   0  0  0  0  0  0  0  0  0  0  0  0
   -7.0576  -11.3481    0.7223 C   0  0  0  0  0  0  0  0  0  0  0  0
   -7.2399  -11.3884    2.1170 O   0  0  0  0  0  0  0  0  0  0  0  0
 28 29  1  0  0  0
 29 22  1  0  0  0
 22 23  2  0  0  0
 23 24  1  0  0  0
 24 25  2  0  0  0
 25 26  1  0  0  0
 26 27  2  0  0  0
 25 19  1  0  0  0
 19 20  2  0  0  0
 19 21  2  0  0  0
 19  1  1  0  0  0
  1  2  1  0  0  0
  2  3  1  0  0  0
  3  4  1  0  0  0
  4  5  1  0  0  0
  5  6  1  0  0  0
  4  7  1  0  0  0
  7  8  1  0  0  0
  8  9  2  0  0  0
  8 11  1  0  0  0
 11 12  2  0  0  0
 12 13  1  0  0  0
 13 14  2  0  0  0
 14 15  1  0  0  0
 14 16  1  0  0  0
 16 17  1  0  0  0
 16 18  2  0  0  0
 27 22  1  0  0  0
  6  1  1  0  0  0
 18 11  1  0  0  0
  7 10  1  0  0  0
M  END
> <minimizedAffinity>
42.03997

> <CNNscore>
0.5081619024

> <CNNaffinity>
5.8766117096

> <CNN_VS>
2.9862701893

> <CNNaffinity_variance>
1.1447534561

$$$$
[H]c1c([H])c(C(=O)N([H])C2([H])C([H])([H])C([H])([H])N(S(=O)(=O)c3c([H])c([H])c(OC([H])([H])[H])c([H])c3[H])C([H])([H])C2([H])[H])c([H])c(Cl)c1Cl


 29 31  0  0  0  0  0  0  0  0999 V2000
  -13.2566   -8.4363    7.8892 N   0  0  0  0  0  0  0  0  0  0  0  0
  -11.9617   -8.5764    8.4631 C   0  0  0  0  0  0  0  0  0  0  0  0
  -11.0290   -9.4421    7.6484 C   0  0  0  0  0  0  0  0  0  0  0  0
  -11.8312  -10.5612    7.0350 C   0  0  0  0  0  0  0  0  0  0  0  0
  -12.7597   -9.9478    6.0194 C   0  0  0  0  0  0  0  0  0  0  0  0
  -13.3176   -8.6225    6.4762 C   0  0  0  0  0  0  0  0  0  0  0  0
  -10.9888  -11.5591    6.4031 N   0  0  0  0  0  0  0  0  0  0  0  0
  -10.3326  -11.3540    5.1786 C   0  0  0  0  0  0  0  0  0  0  0  0
  -10.4887  -10.2454    4.6064 O   0  0  0  0  0  0  0  0  0  0  0  0
  -10.8986  -12.4590    6.9270 H   0  0  0  0  0  0  0  0  0  0  0  0
   -9.4859  -12.3395    4.5309 C   0  0  0  0  0  0  0  0  0  0  0  0
   -9.1452  -13.5223    5.1581 C   0  0  0  0  0  0  0  0  0  0  0  0
   -8.3456  -14.4734    4.5689 C   0  0  0  0  0  0  0  0  0  0  0  0
   -7.8444  -14.2739    3.3007 C   0  0  0  0  0  0  0  0  0  0  0  0
   -6.8196  -15.4569    2.5045 Cl  0  0  0  0  0  0  0  0  0  0  0  0
   -8.1631  -13.1012    2.6393 C   0  0  0  0  0  0  0  0  0  0  0  0
   -7.5868  -12.7356    1.0281 Cl  0  0  0  0  0  0  0  0  0  0  0  0
   -8.9740  -12.1612    3.2644 C   0  0  0  0  0  0  0  0  0  0  0  0
  -13.8645   -6.8657    8.2659 S   0  0  0  0  0  0  0  0  0  0  0  0
  -13.4868   -5.9685    7.1028 O   0  0  0  0  0  0  0  0  0  0  0  0
  -15.3857   -6.8680    8.2946 O   0  0  0  0  0  0  0  0  0  0  0  0
  -12.1812   -5.2782   12.2159 C   0  0  0  0  0  0  0  0  0  0  0  0
  -12.5193   -4.4157   11.1960 C   0  0  0  0  0  0  0  0  0  0  0  0
  -13.0299   -4.8923    9.9944 C   0  0  0  0  0  0  0  0  0  0  0  0
  -13.2213   -6.2384    9.7663 C   0  0  0  0  0  0  0  0  0  0  0  0
  -12.8756   -7.1011   10.8054 C   0  0  0  0  0  0  0  0  0  0  0  0
  -12.3685   -6.6278   11.9989 C   0  0  0  0  0  0  0  0  0  0  0  0
  -10.7086   -5.5375   14.1480 C   0  0  0  0  0  0  0  0  0  0  0  0
  -11.6694   -4.8098   13.4219 O   0  0  0  0  0  0  0  0  0  0  0  0
 28 29  1  0  0  0
 29 22  1  0  0  0
 22 23  2  0  0  0
 23 24  1  0  0  0
 24 25  2  0  0  0
 25 26  1  0  0  0
 26 27  2  0  0  0
 25 19  1  0  0  0
 19 20  2  0  0  0
 19 21  2  0  0  0
 19  1  1  0  0  0
  1  2  1  0  0  0
  2  3  1  0  0  0
  3  4  1  0  0  0
  4  5  1  0  0  0
  5  6  1  0  0  0
  4  7  1  0  0  0
  7  8  1  0  0  0
  8  9  2  0  0  0
  8 11  1  0  0  0
 11 12  2  0  0  0
 12 13  1  0  0  0
 13 14  2  0  0  0
 14 15  1  0  0  0
 14 16  1  0  0  0
 16 17  1  0  0  0
 16 18  2  0  0  0
 27 22  1  0  0  0
  6  1  1  0  0  0
 18 11  1  0  0  0
  7 10  1  0  0  0
M  END
> <minimizedAffinity>
18.98723

> <CNNscore>
0.4051550329

> <CNNaffinity>
5.9342679977

> <CNN_VS>
2.4042985439

> <CNNaffinity_variance>
0.6649902463

$$$$
[H]c1c([H])c(C(=O)N([H])C2([H])C([H])([H])C([H])([H])N(S(=O)(=O)c3c([H])c([H])c(OC([H])([H])[H])c([H])c3[H])C([H])([H])C2([H])[H])c([H])c(Cl)c1Cl


 29 31  0  0  0  0  0  0  0  0999 V2000
   -9.4504   -7.5112    8.9831 N   0  0  0  0  0  0  0  0  0  0  0  0
  -10.0518   -8.5908    8.2770 C   0  0  0  0  0  0  0  0  0  0  0  0
  -11.3452   -8.2190    7.5901 C   0  0  0  0  0  0  0  0  0  0  0  0
  -12.0829   -7.2356    8.4625 C   0  0  0  0  0  0  0  0  0  0  0  0
  -11.2840   -5.9583    8.4791 C   0  0  0  0  0  0  0  0  0  0  0  0
   -9.7969   -6.2101    8.5120 C   0  0  0  0  0  0  0  0  0  0  0  0
  -13.4279   -6.9774    7.9840 N   0  0  0  0  0  0  0  0  0  0  0  0
  -13.8408   -7.2273    6.6652 C   0  0  0  0  0  0  0  0  0  0  0  0
  -12.9947   -7.6990    5.8637 O   0  0  0  0  0  0  0  0  0  0  0  0
  -14.0843   -6.5858    8.6968 H   0  0  0  0  0  0  0  0  0  0  0  0
  -15.1813   -6.9759    6.1679 C   0  0  0  0  0  0  0  0  0  0  0  0
  -16.2770   -7.6481    6.6741 C   0  0  0  0  0  0  0  0  0  0  0  0
  -17.5575   -7.4302    6.2226 C   0  0  0  0  0  0  0  0  0  0  0  0
  -17.7973   -6.5106    5.2245 C   0  0  0  0  0  0  0  0  0  0  0  0
  -19.4131   -6.1957    4.6132 Cl  0  0  0  0  0  0  0  0  0  0  0  0
  -16.7256   -5.8168    4.6914 C   0  0  0  0  0  0  0  0  0  0  0  0
  -16.9049   -4.6263    3.4216 Cl  0  0  0  0  0  0  0  0  0  0  0  0
  -15.4443   -6.0619    5.1713 C   0  0  0  0  0  0  0  0  0  0  0  0
   -7.7352   -7.6863    8.9101 S   0  0  0  0  0  0  0  0  0  0  0  0
   -7.1486   -6.3583    9.3491 O   0  0  0  0  0  0  0  0  0  0  0  0
   -7.2515   -8.6990    9.9375 O   0  0  0  0  0  0  0  0  0  0  0  0
   -6.2187   -8.8431    4.7485 C   0  0  0  0  0  0  0  0  0  0  0  0
   -7.1791   -7.8673    4.9031 C   0  0  0  0  0  0  0  0  0  0  0  0
   -7.6437   -7.5128    6.1642 C   0  0  0  0  0  0  0  0  0  0  0  0
   -7.1709   -8.1143    7.3111 C   0  0  0  0  0  0  0  0  0  0  0  0
   -6.1997   -9.1000    7.1419 C   0  0  0  0  0  0  0  0  0  0  0  0
   -5.7382   -9.4521    5.8895 C   0  0  0  0  0  0  0  0  0  0  0  0
   -6.6165   -9.6556    2.4791 C   0  0  0  0  0  0  0  0  0  0  0  0
   -5.7480   -9.2042    3.4901 O   0  0  0  0  0  0  0  0  0  0  0  0
 28 29  1  0  0  0
 29 22  1  0  0  0
 22 23  2  0  0  0
 23 24  1  0  0  0
 24 25  2  0  0  0
 25 26  1  0  0  0
 26 27  2  0  0  0
 25 19  1  0  0  0
 19 20  2  0  0  0
 19 21  2  0  0  0
 19  1  1  0  0  0
  1  2  1  0  0  0
  2  3  1  0  0  0
  3  4  1  0  0  0
  4  5  1  0  0  0
  5  6  1  0  0  0
  4  7  1  0  0  0
  7  8  1  0  0  0
  8  9  2  0  0  0
  8 11  1  0  0  0
 11 12  2  0  0  0
 12 13  1  0  0  0
 13 14  2  0  0  0
 14 15  1  0  0  0
 14 16  1  0  0  0
 16 17  1  0  0  0
 16 18  2  0  0  0
 27 22  1  0  0  0
  6  1  1  0  0  0
 18 11  1  0  0  0
  7 10  1  0  0  0
M  END
> <minimizedAffinity>
5.06262

> <CNNscore>
0.4003545344

> <CNNaffinity>
6.4987421036

> <CNN_VS>
2.6018009186

> <CNNaffinity_variance>
0.9534702301

$$$$
[H]c1c([H])c(C(=O)N([H])C2([H])C([H])([H])C([H])([H])N(S(=O)(=O)c3c([H])c([H])c(OC([H])([H])[H])c([H])c3[H])C([H])([H])C2([H])[H])c([H])c(Cl)c1Cl


 29 31  0  0  0  0  0  0  0  0999 V2000
   -4.8932   -7.7087    6.9297 N   0  0  0  0  0  0  0  0  0  0  0  0
   -5.6729   -7.2994    5.8116 C   0  0  0  0  0  0  0  0  0  0  0  0
   -7.1004   -6.9515    6.1640 C   0  0  0  0  0  0  0  0  0  0  0  0
   -7.5656   -7.8888    7.2489 C   0  0  0  0  0  0  0  0  0  0  0  0
   -6.7805   -7.5650    8.4934 C   0  0  0  0  0  0  0  0  0  0  0  0
   -5.3421   -7.2224    8.1933 C   0  0  0  0  0  0  0  0  0  0  0  0
   -8.9876   -7.7657    7.5093 N   0  0  0  0  0  0  0  0  0  0  0  0
   -9.8679   -8.8597    7.5282 C   0  0  0  0  0  0  0  0  0  0  0  0
   -9.3911  -10.0018    7.3068 O   0  0  0  0  0  0  0  0  0  0  0  0
   -9.3231   -6.7917    7.6858 H   0  0  0  0  0  0  0  0  0  0  0  0
  -11.2927   -8.7567    7.7868 C   0  0  0  0  0  0  0  0  0  0  0  0
  -12.1916   -9.6540    7.2434 C   0  0  0  0  0  0  0  0  0  0  0  0
  -13.5458   -9.5809    7.4712 C   0  0  0  0  0  0  0  0  0  0  0  0
  -14.0652   -8.5849    8.2697 C   0  0  0  0  0  0  0  0  0  0  0  0
  -15.7860   -8.4481    8.5918 Cl  0  0  0  0  0  0  0  0  0  0  0  0
  -13.1969   -7.6665    8.8325 C   0  0  0  0  0  0  0  0  0  0  0  0
  -13.7376   -6.3591    9.8621 Cl  0  0  0  0  0  0  0  0  0  0  0  0
  -11.8338   -7.7699    8.5812 C   0  0  0  0  0  0  0  0  0  0  0  0
   -3.2632   -7.1959    6.6881 S   0  0  0  0  0  0  0  0  0  0  0  0
   -2.6305   -7.1128    8.0641 O   0  0  0  0  0  0  0  0  0  0  0  0
   -2.4678   -8.2576    5.9431 O   0  0  0  0  0  0  0  0  0  0  0  0
   -3.0198   -3.1425    4.5745 C   0  0  0  0  0  0  0  0  0  0  0  0
   -2.5023   -4.2764    3.9871 C   0  0  0  0  0  0  0  0  0  0  0  0
   -2.5727   -5.5094    4.6247 C   0  0  0  0  0  0  0  0  0  0  0  0
   -3.1581   -5.6569    5.8642 C   0  0  0  0  0  0  0  0  0  0  0  0
   -3.6779   -4.5027    6.4484 C   0  0  0  0  0  0  0  0  0  0  0  0
   -3.6081   -3.2781    5.8152 C   0  0  0  0  0  0  0  0  0  0  0  0
   -4.0438   -1.0147    3.9481 C   0  0  0  0  0  0  0  0  0  0  0  0
   -2.9536   -1.9043    3.9434 O   0  0  0  0  0  0  0  0  0  0  0  0
 28 29  1  0  0  0
 29 22  1  0  0  0
 22 23  2  0  0  0
 23 24  1  0  0  0
 24 25  2  0  0  0
 25 26  1  0  0  0
 26 27  2  0  0  0
 25 19  1  0  0  0
 19 20  2  0  0  0
 19 21  2  0  0  0
 19  1  1  0  0  0
  1  2  1  0  0  0
  2  3  1  0  0  0
  3  4  1  0  0  0
  4  5  1  0  0  0
  5  6  1  0  0  0
  4  7  1  0  0  0
  7  8  1  0  0  0
  8  9  2  0  0  0
  8 11  1  0  0  0
 11 12  2  0  0  0
 12 13  1  0  0  0
 13 14  2  0  0  0
 14 15  1  0  0  0
 14 16  1  0  0  0
 16 17  1  0  0  0
 16 18  2  0  0  0
 27 22  1  0  0  0
  6  1  1  0  0  0
 18 11  1  0  0  0
  7 10  1  0  0  0
M  END
> <minimizedAffinity>
-7.77602

> <CNNscore>
0.3104543984

> <CNNaffinity>
5.9751615524

> <CNN_VS>
1.8550151587

> <CNNaffinity_variance>
0.0777276084

$$$$
[H]c1c([H])c(C(=O)N([H])C2([H])C([H])([H])C([H])([H])N(S(=O)(=O)c3c([H])c([H])c(OC([H])([H])[H])c([H])c3[H])C([H])([H])C2([H])[H])c([H])c(Cl)c1Cl


 29 31  0  0  0  0  0  0  0  0999 V2000
  -11.2938   -7.9554    6.7044 N   0  0  0  0  0  0  0  0  0  0  0  0
  -10.5744   -9.1410    7.0250 C   0  0  0  0  0  0  0  0  0  0  0  0
   -9.3768   -8.9003    7.9144 C   0  0  0  0  0  0  0  0  0  0  0  0
   -8.7514   -7.5849    7.5263 C   0  0  0  0  0  0  0  0  0  0  0  0
   -9.7228   -6.4951    7.8990 C   0  0  0  0  0  0  0  0  0  0  0  0
  -11.1562   -6.8896    7.6424 C   0  0  0  0  0  0  0  0  0  0  0  0
   -7.4779   -7.3659    8.1859 N   0  0  0  0  0  0  0  0  0  0  0  0
   -6.3725   -6.7719    7.5554 C   0  0  0  0  0  0  0  0  0  0  0  0
   -6.5014   -6.4144    6.3569 O   0  0  0  0  0  0  0  0  0  0  0  0
   -7.4333   -7.6843    9.1804 H   0  0  0  0  0  0  0  0  0  0  0  0
   -5.0909   -6.5443    8.1983 C   0  0  0  0  0  0  0  0  0  0  0  0
   -4.9715   -5.7152    9.2968 C   0  0  0  0  0  0  0  0  0  0  0  0
   -3.7711   -5.4815    9.9257 C   0  0  0  0  0  0  0  0  0  0  0  0
   -2.6173   -6.0817    9.4697 C   0  0  0  0  0  0  0  0  0  0  0  0
   -1.0603   -5.8162   10.2372 Cl  0  0  0  0  0  0  0  0  0  0  0  0
   -2.6956   -6.9192    8.3713 C   0  0  0  0  0  0  0  0  0  0  0  0
   -1.3007   -7.7364    7.7017 Cl  0  0  0  0  0  0  0  0  0  0  0  0
   -3.9253   -7.1332    7.7598 C   0  0  0  0  0  0  0  0  0  0  0  0
  -12.9681   -8.3452    6.5530 S   0  0  0  0  0  0  0  0  0  0  0  0
  -13.5998   -7.2226    5.7522 O   0  0  0  0  0  0  0  0  0  0  0  0
  -13.1570   -9.5970    5.7090 O   0  0  0  0  0  0  0  0  0  0  0  0
  -15.0920   -8.8027   10.5824 C   0  0  0  0  0  0  0  0  0  0  0  0
  -13.7168   -8.7548   10.5114 C   0  0  0  0  0  0  0  0  0  0  0  0
  -13.0668   -8.6170    9.2907 C   0  0  0  0  0  0  0  0  0  0  0  0
  -13.7595   -8.5221    8.1024 C   0  0  0  0  0  0  0  0  0  0  0  0
  -15.1501   -8.5719    8.1870 C   0  0  0  0  0  0  0  0  0  0  0  0
  -15.7958   -8.7088    9.3994 C   0  0  0  0  0  0  0  0  0  0  0  0
  -15.4321   -8.1324   12.9070 C   0  0  0  0  0  0  0  0  0  0  0  0
  -15.7508   -8.9406   11.8000 O   0  0  0  0  0  0  0  0  0  0  0  0
 28 29  1  0  0  0
 29 22  1  0  0  0
 22 23  2  0  0  0
 23 24  1  0  0  0
 24 25  2  0  0  0
 25 26  1  0  0  0
 26 27  2  0  0  0
 25 19  1  0  0  0
 19 20  2  0  0  0
 19 21  2  0  0  0
 19  1  1  0  0  0
  1  2  1  0  0  0
  2  3  1  0  0  0
  3  4  1  0  0  0
  4  5  1  0  0  0
  5  6  1  0  0  0
  4  7  1  0  0  0
  7  8  1  0  0  0
  8  9  2  0  0  0
  8 11  1  0  0  0
 11 12  2  0  0  0
 12 13  1  0  0  0
 13 14  2  0  0  0
 14 15  1  0  0  0
 14 16  1  0  0  0
 16 17  1  0  0  0
 16 18  2  0  0  0
 27 22  1  0  0  0
  6  1  1  0  0  0
 18 11  1  0  0  0
  7 10  1  0  0  0
M  END
> <minimizedAffinity>
2.44778

> <CNNscore>
0.2870257497

> <CNNaffinity>
6.0914564133

> <CNN_VS>
1.7484048605

> <CNNaffinity_variance>
0.8292441368

$$$$
[H]c1c([H])c(C(=O)N([H])C2([H])C([H])([H])C([H])([H])N(S(=O)(=O)c3c([H])c([H])c(OC([H])([H])[H])c([H])c3[H])C([H])([H])C2([H])[H])c([H])c(Cl)c1Cl


 29 31  0  0  0  0  0  0  0  0999 V2000
   -8.9864   -8.7763    8.0213 N   0  0  0  0  0  0  0  0  0  0  0  0
   -9.6405   -9.9133    7.4689 C   0  0  0  0  0  0  0  0  0  0  0  0
  -10.8338   -9.5667    6.6092 C   0  0  0  0  0  0  0  0  0  0  0  0
  -11.5302   -8.3764    7.2177 C   0  0  0  0  0  0  0  0  0  0  0  0
  -10.6083   -7.1930    7.0777 C   0  0  0  0  0  0  0  0  0  0  0  0
   -9.1614   -7.5622    7.2933 C   0  0  0  0  0  0  0  0  0  0  0  0
  -12.8020   -8.0973    6.5778 N   0  0  0  0  0  0  0  0  0  0  0  0
  -13.7176   -7.1473    7.0587 C   0  0  0  0  0  0  0  0  0  0  0  0
  -13.4119   -6.5101    8.0986 O   0  0  0  0  0  0  0  0  0  0  0  0
  -12.9984   -8.6588    5.7185 H   0  0  0  0  0  0  0  0  0  0  0  0
  -14.9942   -6.8539    6.4328 C   0  0  0  0  0  0  0  0  0  0  0  0
  -16.1388   -7.5523    6.7655 C   0  0  0  0  0  0  0  0  0  0  0  0
  -17.3608   -7.2958    6.1893 C   0  0  0  0  0  0  0  0  0  0  0  0
  -17.4883   -6.3085    5.2363 C   0  0  0  0  0  0  0  0  0  0  0  0
  -19.0257   -5.9421    4.4709 Cl  0  0  0  0  0  0  0  0  0  0  0  0
  -16.3645   -5.5865    4.8758 C   0  0  0  0  0  0  0  0  0  0  0  0
  -16.4018   -4.3106    3.6790 Cl  0  0  0  0  0  0  0  0  0  0  0  0
  -15.1449   -5.8720    5.4783 C   0  0  0  0  0  0  0  0  0  0  0  0
   -7.2975   -9.1102    8.1406 S   0  0  0  0  0  0  0  0  0  0  0  0
   -7.1559  -10.2687    9.1093 O   0  0  0  0  0  0  0  0  0  0  0  0
   -6.7539   -9.6248    6.8159 O   0  0  0  0  0  0  0  0  0  0  0  0
   -4.8624   -5.4883    9.5221 C   0  0  0  0  0  0  0  0  0  0  0  0
   -5.6499   -6.1888   10.4097 C   0  0  0  0  0  0  0  0  0  0  0  0
   -6.3919   -7.2886    9.9954 C   0  0  0  0  0  0  0  0  0  0  0  0
   -6.3765   -7.7283    8.6888 C   0  0  0  0  0  0  0  0  0  0  0  0
   -5.5763   -7.0115    7.8003 C   0  0  0  0  0  0  0  0  0  0  0  0
   -4.8393   -5.9192    8.2116 C   0  0  0  0  0  0  0  0  0  0  0  0
   -3.8187   -4.1560   11.2841 C   0  0  0  0  0  0  0  0  0  0  0  0
   -4.1165   -4.3863    9.9282 O   0  0  0  0  0  0  0  0  0  0  0  0
 28 29  1  0  0  0
 29 22  1  0  0  0
 22 23  2  0  0  0
 23 24  1  0  0  0
 24 25  2  0  0  0
 25 26  1  0  0  0
 26 27  2  0  0  0
 25 19  1  0  0  0
 19 20  2  0  0  0
 19 21  2  0  0  0
 19  1  1  0  0  0
  1  2  1  0  0  0
  2  3  1  0  0  0
  3  4  1  0  0  0
  4  5  1  0  0  0
  5  6  1  0  0  0
  4  7  1  0  0  0
  7  8  1  0  0  0
  8  9  2  0  0  0
  8 11  1  0  0  0
 11 12  2  0  0  0
 12 13  1  0  0  0
 13 14  2  0  0  0
 14 15  1  0  0  0
 14 16  1  0  0  0
 16 17  1  0  0  0
 16 18  2  0  0  0
 27 22  1  0  0  0
  6  1  1  0  0  0
 18 11  1  0  0  0
  7 10  1  0  0  0
M  END
> <minimizedAffinity>
-3.33730

> <CNNscore>
0.2688872814

> <CNNaffinity>
6.2498464584

> <CNN_VS>
1.6805042028

> <CNNaffinity_variance>
0.2996595502

$$$$
[H]c1c([H])c(C(=O)N([H])C2([H])C([H])([H])C([H])([H])N(S(=O)(=O)c3c([H])c([H])c(OC([H])([H])[H])c([H])c3[H])C([H])([H])C2([H])[H])c([H])c(Cl)c1Cl


 29 31  0  0  0  0  0  0  0  0999 V2000
   -9.3871   -8.7058    8.4077 N   0  0  0  0  0  0  0  0  0  0  0  0
  -10.0439   -9.4629    7.3971 C   0  0  0  0  0  0  0  0  0  0  0  0
  -11.1885   -8.7286    6.7386 C   0  0  0  0  0  0  0  0  0  0  0  0
  -11.8816   -7.8912    7.7829 C   0  0  0  0  0  0  0  0  0  0  0  0
  -10.9251   -6.8037    8.1981 C   0  0  0  0  0  0  0  0  0  0  0  0
   -9.4990   -7.2900    8.2745 C   0  0  0  0  0  0  0  0  0  0  0  0
  -13.1161   -7.3095    7.2906 N   0  0  0  0  0  0  0  0  0  0  0  0
  -13.8943   -7.8908    6.2763 C   0  0  0  0  0  0  0  0  0  0  0  0
  -13.4932   -8.9712    5.7739 O   0  0  0  0  0  0  0  0  0  0  0  0
  -13.3963   -6.4122    7.7474 H   0  0  0  0  0  0  0  0  0  0  0  0
  -15.1317   -7.3244    5.7707 C   0  0  0  0  0  0  0  0  0  0  0  0
  -15.2431   -5.9790    5.4777 C   0  0  0  0  0  0  0  0  0  0  0  0
  -16.4020   -5.4154    4.9976 C   0  0  0  0  0  0  0  0  0  0  0  0
  -17.5198   -6.1935    4.7872 C   0  0  0  0  0  0  0  0  0  0  0  0
  -19.0231   -5.5227    4.1757 Cl  0  0  0  0  0  0  0  0  0  0  0  0
  -17.4482   -7.5462    5.0688 C   0  0  0  0  0  0  0  0  0  0  0  0
  -18.8001   -8.6338    4.8427 Cl  0  0  0  0  0  0  0  0  0  0  0  0
  -16.2610   -8.0828    5.5529 C   0  0  0  0  0  0  0  0  0  0  0  0
   -7.7140   -9.1288    8.4198 S   0  0  0  0  0  0  0  0  0  0  0  0
   -7.2840   -9.1389    9.8743 O   0  0  0  0  0  0  0  0  0  0  0  0
   -7.5142  -10.5558    7.9313 O   0  0  0  0  0  0  0  0  0  0  0  0
   -5.1219   -6.2006    6.0402 C   0  0  0  0  0  0  0  0  0  0  0  0
   -6.0817   -6.9640    5.4120 C   0  0  0  0  0  0  0  0  0  0  0  0
   -6.8708   -7.8552    6.1295 C   0  0  0  0  0  0  0  0  0  0  0  0
   -6.7333   -8.0174    7.4917 C   0  0  0  0  0  0  0  0  0  0  0  0
   -5.7591   -7.2398    8.1159 C   0  0  0  0  0  0  0  0  0  0  0  0
   -4.9753   -6.3546    7.4034 C   0  0  0  0  0  0  0  0  0  0  0  0
   -3.7439   -4.1852    5.9487 C   0  0  0  0  0  0  0  0  0  0  0  0
   -4.3276   -5.3061    5.3297 O   0  0  0  0  0  0  0  0  0  0  0  0
 28 29  1  0  0  0
 29 22  1  0  0  0
 22 23  2  0  0  0
 23 24  1  0  0  0
 24 25  2  0  0  0
 25 26  1  0  0  0
 26 27  2  0  0  0
 25 19  1  0  0  0
 19 20  2  0  0  0
 19 21  2  0  0  0
 19  1  1  0  0  0
  1  2  1  0  0  0
  2  3  1  0  0  0
  3  4  1  0  0  0
  4  5  1  0  0  0
  5  6  1  0  0  0
  4  7  1  0  0  0
  7  8  1  0  0  0
  8  9  2  0  0  0
  8 11  1  0  0  0
 11 12  2  0  0  0
 12 13  1  0  0  0
 13 14  2  0  0  0
 14 15  1  0  0  0
 14 16  1  0  0  0
 16 17  1  0  0  0
 16 18  2  0  0  0
 27 22  1  0  0  0
  6  1  1  0  0  0
 18 11  1  0  0  0
  7 10  1  0  0  0
M  END
> <minimizedAffinity>
-6.90366

> <CNNscore>
0.2434114814

> <CNNaffinity>
6.3691697121

> <CNN_VS>
1.5503290892

> <CNNaffinity_variance>
0.0110255461

$$$$
[H]c1c([H])c(S(=O)(=O)N2C([H])([H])C([H])([H])C([H])(c3c([H])n([H])c4c([H])c([H])c(F)c([H])c34)C([H])([H])C2([H])[H])c([H])c([H])c1C(F)(F)F


 30 33  0  0  0  0  0  0  0  0999 V2000
   -6.1279   -7.2561    6.5254 N   0  0  0  0  0  0  0  0  0  0  0  0
   -7.1559   -6.4093    6.2282 C   0  0  0  0  0  0  0  0  0  0  0  0
   -8.5601   -6.6714    6.7587 C   0  0  0  0  0  0  0  0  0  0  0  0
   -8.6755   -7.7957    7.6999 C   0  0  0  0  0  0  0  0  0  0  0  0
   -7.4708   -8.5381    8.1381 C   0  0  0  0  0  0  0  0  0  0  0  0
   -6.3504   -8.5423    7.1458 C   0  0  0  0  0  0  0  0  0  0  0  0
   -9.9728   -8.4657    7.9279 C   0  0  0  0  0  0  0  0  0  0  0  0
  -10.5508   -9.5988    7.3998 C   0  0  0  0  0  0  0  0  0  0  0  0
  -11.8733   -9.6350    7.6721 N   0  0  0  0  0  0  0  0  0  0  0  0
  -12.2206   -8.5320    8.3970 C   0  0  0  0  0  0  0  0  0  0  0  0
  -13.3992   -8.1265    8.9871 C   0  0  0  0  0  0  0  0  0  0  0  0
  -13.4548   -6.9946    9.7590 C   0  0  0  0  0  0  0  0  0  0  0  0
  -12.2943   -6.2887    9.9263 C   0  0  0  0  0  0  0  0  0  0  0  0
  -12.3194   -5.1730   10.7322 F   0  0  0  0  0  0  0  0  0  0  0  0
  -11.1248   -6.7006    9.3303 C   0  0  0  0  0  0  0  0  0  0  0  0
  -11.0693   -7.8331    8.5466 C   0  0  0  0  0  0  0  0  0  0  0  0
  -12.5449  -10.3747    7.3973 H   0  0  0  0  0  0  0  0  0  0  0  0
   -4.6051   -6.6664    6.9068 S   0  0  0  0  0  0  0  0  0  0  0  0
   -3.7242   -7.9030    7.2864 O   0  0  0  0  0  0  0  0  0  0  0  0
   -4.7508   -5.9434    8.2581 O   0  0  0  0  0  0  0  0  0  0  0  0
   -2.5189   -4.0674    3.8106 C   0  0  0  0  0  0  0  0  0  0  0  0
   -1.9602   -5.2564    4.1932 C   0  0  0  0  0  0  0  0  0  0  0  0
   -2.5671   -6.0571    5.1723 C   0  0  0  0  0  0  0  0  0  0  0  0
   -3.7286   -5.7129    5.7951 C   0  0  0  0  0  0  0  0  0  0  0  0
   -4.2749   -4.4770    5.3779 C   0  0  0  0  0  0  0  0  0  0  0  0
   -3.7024   -3.6784    4.4261 C   0  0  0  0  0  0  0  0  0  0  0  0
   -1.2775   -3.9691    1.8206 F   0  0  0  0  0  0  0  0  0  0  0  0
   -1.9176   -3.2031    2.7484 C   0  0  0  0  0  0  0  0  0  0  0  0
   -1.0802   -2.2699    3.3192 F   0  0  0  0  0  0  0  0  0  0  0  0
   -2.9021   -2.4770    2.1024 F   0  0  0  0  0  0  0  0  0  0  0  0
 27 28  1  0  0  0
 28 29  1  0  0  0
 28 30  1  0  0  0
 28 21  1  0  0  0
 21 22  2  0  0  0
 22 23  1  0  0  0
 23 24  2  0  0  0
 24 25  1  0  0  0
 25 26  2  0  0  0
 24 18  1  0  0  0
 18 19  2  0  0  0
 18 20  2  0  0  0
 18  1  1  0  0  0
  1  2  1  0  0  0
  2  3  1  0  0  0
  3  4  1  0  0  0
  4  5  1  0  0  0
  5  6  1  0  0  0
  4  7  1  0  0  0
  7  8  2  0  0  0
  8  9  1  0  0  0
  9 10  1  0  0  0
 10 11  2  0  0  0
 11 12  1  0  0  0
 12 13  2  0  0  0
 13 14  1  0  0  0
 13 15  1  0  0  0
 15 16  2  0  0  0
 26 21  1  0  0  0
  6  1  1  0  0  0
 16  7  1  0  0  0
 16 10  1  0  0  0
  9 17  1  0  0  0
M  END
> <minimizedAffinity>
-8.85954

> <CNNscore>
0.4393436313

> <CNNaffinity>
6.4147214890

> <CNN_VS>
2.8182671070

> <CNNaffinity_variance>
0.0130954031

$$$$
[H]c1c([H])c(S(=O)(=O)N2C([H])([H])C([H])([H])C([H])(c3c([H])n([H])c4c([H])c([H])c(F)c([H])c34)C([H])([H])C2([H])[H])c([H])c([H])c1C(F)(F)F


 30 33  0  0  0  0  0  0  0  0999 V2000
   -6.0452   -7.1167    6.3256 N   0  0  0  0  0  0  0  0  0  0  0  0
   -7.0938   -6.2938    6.0331 C   0  0  0  0  0  0  0  0  0  0  0  0
   -8.4682   -6.5347    6.6452 C   0  0  0  0  0  0  0  0  0  0  0  0
   -8.5280   -7.6060    7.6513 C   0  0  0  0  0  0  0  0  0  0  0  0
   -7.2970   -8.3157    8.0700 C   0  0  0  0  0  0  0  0  0  0  0  0
   -6.2261   -8.3680    7.0258 C   0  0  0  0  0  0  0  0  0  0  0  0
   -9.8068   -8.2701    7.9789 C   0  0  0  0  0  0  0  0  0  0  0  0
  -10.3792   -9.4567    7.5774 C   0  0  0  0  0  0  0  0  0  0  0  0
  -11.6930   -9.4862    7.8898 N   0  0  0  0  0  0  0  0  0  0  0  0
  -12.0395   -8.3244    8.5167 C   0  0  0  0  0  0  0  0  0  0  0  0
  -13.2084   -7.8820    9.0996 C   0  0  0  0  0  0  0  0  0  0  0  0
  -13.2624   -6.6828    9.7621 C   0  0  0  0  0  0  0  0  0  0  0  0
  -12.1102   -5.9472    9.8284 C   0  0  0  0  0  0  0  0  0  0  0  0
  -12.1326   -4.7604   10.5254 F   0  0  0  0  0  0  0  0  0  0  0  0
  -10.9504   -6.3967    9.2405 C   0  0  0  0  0  0  0  0  0  0  0  0
  -10.8968   -7.5977    8.5663 C   0  0  0  0  0  0  0  0  0  0  0  0
  -12.3590  -10.2584    7.7057 H   0  0  0  0  0  0  0  0  0  0  0  0
   -4.5108   -6.4976    6.5990 S   0  0  0  0  0  0  0  0  0  0  0  0
   -4.1151   -5.6901    5.3181 O   0  0  0  0  0  0  0  0  0  0  0  0
   -3.5472   -7.6966    6.5387 O   0  0  0  0  0  0  0  0  0  0  0  0
   -3.3714   -3.8924   10.1498 C   0  0  0  0  0  0  0  0  0  0  0  0
   -4.2414   -4.9351   10.3183 C   0  0  0  0  0  0  0  0  0  0  0  0
   -4.6349   -5.7296    9.2311 C   0  0  0  0  0  0  0  0  0  0  0  0
   -4.1874   -5.5216    7.9614 C   0  0  0  0  0  0  0  0  0  0  0  0
   -3.2939   -4.4341    7.8242 C   0  0  0  0  0  0  0  0  0  0  0  0
   -2.8954   -3.6447    8.8680 C   0  0  0  0  0  0  0  0  0  0  0  0
   -3.4861   -3.4528   12.4530 F   0  0  0  0  0  0  0  0  0  0  0  0
   -2.9053   -3.0441   11.2899 C   0  0  0  0  0  0  0  0  0  0  0  0
   -3.1566   -1.7163   11.0219 F   0  0  0  0  0  0  0  0  0  0  0  0
   -1.5331   -3.1432   11.4355 F   0  0  0  0  0  0  0  0  0  0  0  0
 27 28  1  0  0  0
 28 29  1  0  0  0
 28 30  1  0  0  0
 28 21  1  0  0  0
 21 22  2  0  0  0
 22 23  1  0  0  0
 23 24  2  0  0  0
 24 25  1  0  0  0
 25 26  2  0  0  0
 24 18  1  0  0  0
 18 19  2  0  0  0
 18 20  2  0  0  0
 18  1  1  0  0  0
  1  2  1  0  0  0
  2  3  1  0  0  0
  3  4  1  0  0  0
  4  5  1  0  0  0
  5  6  1  0  0  0
  4  7  1  0  0  0
  7  8  2  0  0  0
  8  9  1  0  0  0
  9 10  1  0  0  0
 10 11  2  0  0  0
 11 12  1  0  0  0
 12 13  2  0  0  0
 13 14  1  0  0  0
 13 15  1  0  0  0
 15 16  2  0  0  0
 26 21  1  0  0  0
  6  1  1  0  0  0
 16  7  1  0  0  0
 16 10  1  0  0  0
  9 17  1  0  0  0
M  END
> <minimizedAffinity>
-8.56758

> <CNNscore>
0.4162371159

> <CNNaffinity>
6.5156469345

> <CNN_VS>
2.7120540142

> <CNNaffinity_variance>
0.0386569239

$$$$
[H]c1c([H])c(S(=O)(=O)N2C([H])([H])C([H])([H])C([H])(c3c([H])n([H])c4c([H])c([H])c(F)c([H])c34)C([H])([H])C2([H])[H])c([H])c([H])c1C(F)(F)F


 30 33  0  0  0  0  0  0  0  0999 V2000
  -12.6157   -8.7177    6.2862 N   0  0  0  0  0  0  0  0  0  0  0  0
  -12.8043   -7.4894    5.7225 C   0  0  0  0  0  0  0  0  0  0  0  0
  -14.1926   -7.0361    5.2875 C   0  0  0  0  0  0  0  0  0  0  0  0
  -15.2908   -7.9467    5.6455 C   0  0  0  0  0  0  0  0  0  0  0  0
  -15.0286   -9.1646    6.4470 C   0  0  0  0  0  0  0  0  0  0  0  0
  -13.6505   -9.7265    6.2879 C   0  0  0  0  0  0  0  0  0  0  0  0
  -16.5764   -7.9095    4.9179 C   0  0  0  0  0  0  0  0  0  0  0  0
  -17.1702   -8.7633    4.0150 C   0  0  0  0  0  0  0  0  0  0  0  0
  -18.1945   -8.1539    3.3794 N   0  0  0  0  0  0  0  0  0  0  0  0
  -18.3235   -6.8763    3.8420 C   0  0  0  0  0  0  0  0  0  0  0  0
  -19.2357   -5.8727    3.5923 C   0  0  0  0  0  0  0  0  0  0  0  0
  -19.1932   -4.6868    4.2793 C   0  0  0  0  0  0  0  0  0  0  0  0
  -18.2158   -4.5421    5.2263 C   0  0  0  0  0  0  0  0  0  0  0  0
  -18.1822   -3.3757    5.9566 F   0  0  0  0  0  0  0  0  0  0  0  0
  -17.3089   -5.5486    5.4649 C   0  0  0  0  0  0  0  0  0  0  0  0
  -17.3446   -6.7377    4.7688 C   0  0  0  0  0  0  0  0  0  0  0  0
  -18.8118   -8.5664    2.6566 H   0  0  0  0  0  0  0  0  0  0  0  0
  -11.5852   -8.9194    7.5939 S   0  0  0  0  0  0  0  0  0  0  0  0
  -10.1279   -8.9272    7.0232 O   0  0  0  0  0  0  0  0  0  0  0  0
  -11.7609  -10.3766    8.0580 O   0  0  0  0  0  0  0  0  0  0  0  0
  -11.9734   -5.9938   11.0556 C   0  0  0  0  0  0  0  0  0  0  0  0
  -10.8253   -6.0240   10.3117 C   0  0  0  0  0  0  0  0  0  0  0  0
  -10.6692   -6.9421    9.2625 C   0  0  0  0  0  0  0  0  0  0  0  0
  -11.6289   -7.8461    8.9203 C   0  0  0  0  0  0  0  0  0  0  0  0
  -12.7990   -7.7888    9.7125 C   0  0  0  0  0  0  0  0  0  0  0  0
  -12.9752   -6.9037   10.7406 C   0  0  0  0  0  0  0  0  0  0  0  0
  -13.5201   -4.8415   12.3938 F   0  0  0  0  0  0  0  0  0  0  0  0
  -12.1879   -5.0089   12.1605 C   0  0  0  0  0  0  0  0  0  0  0  0
  -11.5595   -3.8203   11.8599 F   0  0  0  0  0  0  0  0  0  0  0  0
  -11.5990   -5.4586   13.3288 F   0  0  0  0  0  0  0  0  0  0  0  0
 27 28  1  0  0  0
 28 29  1  0  0  0
 28 30  1  0  0  0
 28 21  1  0  0  0
 21 22  2  0  0  0
 22 23  1  0  0  0
 23 24  2  0  0  0
 24 25  1  0  0  0
 25 26  2  0  0  0
 24 18  1  0  0  0
 18 19  2  0  0  0
 18 20  2  0  0  0
 18  1  1  0  0  0
  1  2  1  0  0  0
  2  3  1  0  0  0
  3  4  1  0  0  0
  4  5  1  0  0  0
  5  6  1  0  0  0
  4  7  1  0  0  0
  7  8  2  0  0  0
  8  9  1  0  0  0
  9 10  1  0  0  0
 10 11  2  0  0  0
 11 12  1  0  0  0
 12 13  2  0  0  0
 13 14  1  0  0  0
 13 15  1  0  0  0
 15 16  2  0  0  0
 26 21  1  0  0  0
  6  1  1  0  0  0
 16  7  1  0  0  0
 16 10  1  0  0  0
  9 17  1  0  0  0
M  END
> <minimizedAffinity>
1.12449

> <CNNscore>
0.4145381153

> <CNNaffinity>
6.6639657021

> <CNN_VS>
2.7624678612

> <CNNaffinity_variance>
0.5016866922

$$$$
[H]c1c([H])c(S(=O)(=O)N2C([H])([H])C([H])([H])C([H])(c3c([H])n([H])c4c([H])c([H])c(F)c([H])c34)C([H])([H])C2([H])[H])c([H])c([H])c1C(F)(F)F


 30 33  0  0  0  0  0  0  0  0999 V2000
   -5.8167   -7.1678    6.3978 N   0  0  0  0  0  0  0  0  0  0  0  0
   -6.8648   -6.3876    6.0042 C   0  0  0  0  0  0  0  0  0  0  0  0
   -8.2711   -6.6477    6.5301 C   0  0  0  0  0  0  0  0  0  0  0  0
   -8.3707   -7.6839    7.5692 C   0  0  0  0  0  0  0  0  0  0  0  0
   -7.1525   -8.3411    8.0969 C   0  0  0  0  0  0  0  0  0  0  0  0
   -6.0111   -8.3983    7.1305 C   0  0  0  0  0  0  0  0  0  0  0  0
   -9.6503   -8.3739    7.8338 C   0  0  0  0  0  0  0  0  0  0  0  0
  -10.1887   -9.5598    7.3856 C   0  0  0  0  0  0  0  0  0  0  0  0
  -11.5126   -9.6157    7.6473 N   0  0  0  0  0  0  0  0  0  0  0  0
  -11.9006   -8.4732    8.2853 C   0  0  0  0  0  0  0  0  0  0  0  0
  -13.0974   -8.0610    8.8327 C   0  0  0  0  0  0  0  0  0  0  0  0
  -13.1951   -6.8775    9.5182 C   0  0  0  0  0  0  0  0  0  0  0  0
  -12.0578   -6.1266    9.6437 C   0  0  0  0  0  0  0  0  0  0  0  0
  -12.1250   -4.9558   10.3646 F   0  0  0  0  0  0  0  0  0  0  0  0
  -10.8699   -6.5459    9.0908 C   0  0  0  0  0  0  0  0  0  0  0  0
  -10.7721   -7.7308    8.3937 C   0  0  0  0  0  0  0  0  0  0  0  0
  -12.1590  -10.3934    7.4216 H   0  0  0  0  0  0  0  0  0  0  0  0
   -4.3225   -6.4937    6.7515 S   0  0  0  0  0  0  0  0  0  0  0  0
   -3.2401   -7.5039    6.2441 O   0  0  0  0  0  0  0  0  0  0  0  0
   -4.1615   -6.5846    8.2798 O   0  0  0  0  0  0  0  0  0  0  0  0
   -3.3407   -2.2407    5.4704 C   0  0  0  0  0  0  0  0  0  0  0  0
   -3.7569   -3.1554    4.5418 C   0  0  0  0  0  0  0  0  0  0  0  0
   -4.0307   -4.4819    4.9076 C   0  0  0  0  0  0  0  0  0  0  0  0
   -3.9037   -4.9393    6.1843 C   0  0  0  0  0  0  0  0  0  0  0  0
   -3.4680   -3.9684    7.1156 C   0  0  0  0  0  0  0  0  0  0  0  0
   -3.1944   -2.6697    6.7839 C   0  0  0  0  0  0  0  0  0  0  0  0
   -3.7145   -0.4732    3.9713 F   0  0  0  0  0  0  0  0  0  0  0  0
   -3.0700   -0.8113    5.1235 C   0  0  0  0  0  0  0  0  0  0  0  0
   -1.7117   -0.5961    5.0417 F   0  0  0  0  0  0  0  0  0  0  0  0
   -3.5212    0.0233    6.1303 F   0  0  0  0  0  0  0  0  0  0  0  0
 27 28  1  0  0  0
 28 29  1  0  0  0
 28 30  1  0  0  0
 28 21  1  0  0  0
 21 22  2  0  0  0
 22 23  1  0  0  0
 23 24  2  0  0  0
 24 25  1  0  0  0
 25 26  2  0  0  0
 24 18  1  0  0  0
 18 19  2  0  0  0
 18 20  2  0  0  0
 18  1  1  0  0  0
  1  2  1  0  0  0
  2  3  1  0  0  0
  3  4  1  0  0  0
  4  5  1  0  0  0
  5  6  1  0  0  0
  4  7  1  0  0  0
  7  8  2  0  0  0
  8  9  1  0  0  0
  9 10  1  0  0  0
 10 11  2  0  0  0
 11 12  1  0  0  0
 12 13  2  0  0  0
 13 14  1  0  0  0
 13 15  1  0  0  0
 15 16  2  0  0  0
 26 21  1  0  0  0
  6  1  1  0  0  0
 16  7  1  0  0  0
 16 10  1  0  0  0
  9 17  1  0  0  0
M  END
> <minimizedAffinity>
-8.56404

> <CNNscore>
0.4008269608

> <CNNaffinity>
6.3590197563

> <CNN_VS>
2.5488665104

> <CNNaffinity_variance>
0.0381198153

$$$$
[H]c1c([H])c(S(=O)(=O)N2C([H])([H])C([H])([H])C([H])(c3c([H])n([H])c4c([H])c([H])c(F)c([H])c34)C([H])([H])C2([H])[H])c([H])c([H])c1C(F)(F)F


 30 33  0  0  0  0  0  0  0  0999 V2000
  -13.5360   -7.5525    9.7545 N   0  0  0  0  0  0  0  0  0  0  0  0
  -14.5785   -6.9460    9.1162 C   0  0  0  0  0  0  0  0  0  0  0  0
  -15.0767   -7.4626    7.7720 C   0  0  0  0  0  0  0  0  0  0  0  0
  -14.4518   -8.7110    7.3090 C   0  0  0  0  0  0  0  0  0  0  0  0
  -13.4740   -9.4256    8.1622 C   0  0  0  0  0  0  0  0  0  0  0  0
  -12.7123   -8.5451    9.1027 C   0  0  0  0  0  0  0  0  0  0  0  0
  -14.4602   -9.0796    5.8780 C   0  0  0  0  0  0  0  0  0  0  0  0
  -13.4837   -9.5322    5.0185 C   0  0  0  0  0  0  0  0  0  0  0  0
  -13.8870   -9.4245    3.7339 N   0  0  0  0  0  0  0  0  0  0  0  0
  -15.1481   -8.9041    3.6933 C   0  0  0  0  0  0  0  0  0  0  0  0
  -16.0356   -8.6671    2.6647 C   0  0  0  0  0  0  0  0  0  0  0  0
  -17.3066   -8.2163    2.9127 C   0  0  0  0  0  0  0  0  0  0  0  0
  -17.6611   -8.0185    4.2197 C   0  0  0  0  0  0  0  0  0  0  0  0
  -18.9460   -7.6068    4.4923 F   0  0  0  0  0  0  0  0  0  0  0  0
  -16.7665   -8.2551    5.2377 C   0  0  0  0  0  0  0  0  0  0  0  0
  -15.4857   -8.6995    4.9896 C   0  0  0  0  0  0  0  0  0  0  0  0
  -13.3515   -9.6950    2.8891 H   0  0  0  0  0  0  0  0  0  0  0  0
  -13.5625   -7.7966   11.4134 S   0  0  0  0  0  0  0  0  0  0  0  0
  -14.9104   -7.1974   11.9364 O   0  0  0  0  0  0  0  0  0  0  0  0
  -12.5236   -6.8275   12.0065 O   0  0  0  0  0  0  0  0  0  0  0  0
  -13.2135  -12.0698   12.9336 C   0  0  0  0  0  0  0  0  0  0  0  0
  -13.6201  -11.0744   13.7798 C   0  0  0  0  0  0  0  0  0  0  0  0
  -13.7005   -9.7437   13.3429 C   0  0  0  0  0  0  0  0  0  0  0  0
  -13.3862   -9.3605   12.0741 C   0  0  0  0  0  0  0  0  0  0  0  0
  -12.9666  -10.4140   11.2291 C   0  0  0  0  0  0  0  0  0  0  0  0
  -12.8795  -11.7187   11.6313 C   0  0  0  0  0  0  0  0  0  0  0  0
  -14.1831  -13.8021   14.1865 F   0  0  0  0  0  0  0  0  0  0  0  0
  -13.1457  -13.5033   13.3548 C   0  0  0  0  0  0  0  0  0  0  0  0
  -11.9234  -13.7665   13.9331 F   0  0  0  0  0  0  0  0  0  0  0  0
  -13.2247  -14.3345   12.2518 F   0  0  0  0  0  0  0  0  0  0  0  0
 27 28  1  0  0  0
 28 29  1  0  0  0
 28 30  1  0  0  0
 28 21  1  0  0  0
 21 22  2  0  0  0
 22 23  1  0  0  0
 23 24  2  0  0  0
 24 25  1  0  0  0
 25 26  2  0  0  0
 24 18  1  0  0  0
 18 19  2  0  0  0
 18 20  2  0  0  0
 18  1  1  0  0  0
  1  2  1  0  0  0
  2  3  1  0  0  0
  3  4  1  0  0  0
  4  5  1  0  0  0
  5  6  1  0  0  0
  4  7  1  0  0  0
  7  8  2  0  0  0
  8  9  1  0  0  0
  9 10  1  0  0  0
 10 11  2  0  0  0
 11 12  1  0  0  0
 12 13  2  0  0  0
 13 14  1  0  0  0
 13 15  1  0  0  0
 15 16  2  0  0  0
 26 21  1  0  0  0
  6  1  1  0  0  0
 16  7  1  0  0  0
 16 10  1  0  0  0
  9 17  1  0  0  0
M  END
> <minimizedAffinity>
30.22293

> <CNNscore>
0.3975208700

> <CNNaffinity>
6.3030705452

> <CNN_VS>
2.5056021214

> <CNNaffinity_variance>
0.8225585818

$$$$
[H]c1c([H])c(S(=O)(=O)N2C([H])([H])C([H])([H])C([H])(c3c([H])n([H])c4c([H])c([H])c(F)c([H])c34)C([H])([H])C2([H])[H])c([H])c([H])c1C(F)(F)F


 30 33  0  0  0  0  0  0  0  0999 V2000
  -12.0338   -7.2129    8.9794 N   0  0  0  0  0  0  0  0  0  0  0  0
  -12.1026   -8.2084    8.0486 C   0  0  0  0  0  0  0  0  0  0  0  0
  -13.2867   -8.3030    7.0942 C   0  0  0  0  0  0  0  0  0  0  0  0
  -14.2420   -7.1870    7.1671 C   0  0  0  0  0  0  0  0  0  0  0  0
  -13.9854   -6.0327    8.0594 C   0  0  0  0  0  0  0  0  0  0  0  0
  -13.1599   -6.3535    9.2659 C   0  0  0  0  0  0  0  0  0  0  0  0
  -15.6304   -7.3427    6.6858 C   0  0  0  0  0  0  0  0  0  0  0  0
  -16.5890   -8.3125    6.8798 C   0  0  0  0  0  0  0  0  0  0  0  0
  -17.5897   -8.1853    5.9815 N   0  0  0  0  0  0  0  0  0  0  0  0
  -17.3366   -7.1227    5.1633 C   0  0  0  0  0  0  0  0  0  0  0  0
  -18.0559   -6.5213    4.1520 C   0  0  0  0  0  0  0  0  0  0  0  0
  -17.6043   -5.3803    3.5404 C   0  0  0  0  0  0  0  0  0  0  0  0
  -16.4171   -4.8587    3.9778 C   0  0  0  0  0  0  0  0  0  0  0  0
  -15.9673   -3.6901    3.4060 F   0  0  0  0  0  0  0  0  0  0  0  0
  -15.7061   -5.4687    4.9853 C   0  0  0  0  0  0  0  0  0  0  0  0
  -16.1541   -6.6208    5.5949 C   0  0  0  0  0  0  0  0  0  0  0  0
  -18.4359   -8.7784    5.9049 H   0  0  0  0  0  0  0  0  0  0  0  0
  -10.5877   -6.4257    9.2978 S   0  0  0  0  0  0  0  0  0  0  0  0
  -10.3471   -6.5303   10.8407 O   0  0  0  0  0  0  0  0  0  0  0  0
  -10.8671   -4.9232    9.1130 O   0  0  0  0  0  0  0  0  0  0  0  0
   -6.8998   -7.6649    6.9405 C   0  0  0  0  0  0  0  0  0  0  0  0
   -7.1153   -8.1763    8.1912 C   0  0  0  0  0  0  0  0  0  0  0  0
   -8.2265   -7.7812    8.9509 C   0  0  0  0  0  0  0  0  0  0  0  0
   -9.1466   -6.8813    8.5048 C   0  0  0  0  0  0  0  0  0  0  0  0
   -8.8899   -6.3710    7.2111 C   0  0  0  0  0  0  0  0  0  0  0  0
   -7.8139   -6.7399    6.4510 C   0  0  0  0  0  0  0  0  0  0  0  0
   -6.1577   -8.9568    5.1263 F   0  0  0  0  0  0  0  0  0  0  0  0
   -5.7442   -8.0859    6.0895 C   0  0  0  0  0  0  0  0  0  0  0  0
   -4.7481   -8.6182    6.8785 F   0  0  0  0  0  0  0  0  0  0  0  0
   -5.1801   -6.9882    5.4644 F   0  0  0  0  0  0  0  0  0  0  0  0
 27 28  1  0  0  0
 28 29  1  0  0  0
 28 30  1  0  0  0
 28 21  1  0  0  0
 21 22  2  0  0  0
 22 23  1  0  0  0
 23 24  2  0  0  0
 24 25  1  0  0  0
 25 26  2  0  0  0
 24 18  1  0  0  0
 18 19  2  0  0  0
 18 20  2  0  0  0
 18  1  1  0  0  0
  1  2  1  0  0  0
  2  3  1  0  0  0
  3  4  1  0  0  0
  4  5  1  0  0  0
  5  6  1  0  0  0
  4  7  1  0  0  0
  7  8  2  0  0  0
  8  9  1  0  0  0
  9 10  1  0  0  0
 10 11  2  0  0  0
 11 12  1  0  0  0
 12 13  2  0  0  0
 13 14  1  0  0  0
 13 15  1  0  0  0
 15 16  2  0  0  0
 26 21  1  0  0  0
  6  1  1  0  0  0
 16  7  1  0  0  0
 16 10  1  0  0  0
  9 17  1  0  0  0
M  END
> <minimizedAffinity>
-7.36608

> <CNNscore>
0.3905180693

> <CNNaffinity>
7.0831604004

> <CNN_VS>
2.7661020756

> <CNNaffinity_variance>
0.3741030097

$$$$
[H]c1c([H])c(S(=O)(=O)N2C([H])([H])C([H])([H])C([H])(c3c([H])n([H])c4c([H])c([H])c(F)c([H])c34)C([H])([H])C2([H])[H])c([H])c([H])c1C(F)(F)F


 30 33  0  0  0  0  0  0  0  0999 V2000
   -8.0776   -5.3941   12.5861 N   0  0  0  0  0  0  0  0  0  0  0  0
   -9.1158   -5.5589   13.4562 C   0  0  0  0  0  0  0  0  0  0  0  0
  -10.5036   -5.9352   12.9518 C   0  0  0  0  0  0  0  0  0  0  0  0
  -10.5891   -6.2331   11.5140 C   0  0  0  0  0  0  0  0  0  0  0  0
   -9.3705   -6.2377   10.6718 C   0  0  0  0  0  0  0  0  0  0  0  0
   -8.2790   -5.3355   11.1561 C   0  0  0  0  0  0  0  0  0  0  0  0
  -11.8777   -6.1472   10.7956 C   0  0  0  0  0  0  0  0  0  0  0  0
  -13.0574   -5.4866   11.0577 C   0  0  0  0  0  0  0  0  0  0  0  0
  -14.0575   -5.9647   10.2860 N   0  0  0  0  0  0  0  0  0  0  0  0
  -13.5775   -6.9545    9.4780 C   0  0  0  0  0  0  0  0  0  0  0  0
  -14.1452   -7.7038    8.4690 C   0  0  0  0  0  0  0  0  0  0  0  0
  -13.3976   -8.5866    7.7329 C   0  0  0  0  0  0  0  0  0  0  0  0
  -12.0665   -8.6888    8.0339 C   0  0  0  0  0  0  0  0  0  0  0  0
  -11.2898   -9.5380    7.2786 F   0  0  0  0  0  0  0  0  0  0  0  0
  -11.5113   -7.9388    9.0448 C   0  0  0  0  0  0  0  0  0  0  0  0
  -12.2632   -7.0576    9.7917 C   0  0  0  0  0  0  0  0  0  0  0  0
  -15.0432   -5.6453   10.2768 H   0  0  0  0  0  0  0  0  0  0  0  0
   -6.5459   -5.9729   12.9486 S   0  0  0  0  0  0  0  0  0  0  0  0
   -6.6532   -7.5335   12.9980 O   0  0  0  0  0  0  0  0  0  0  0  0
   -6.2909   -5.6172   14.4245 O   0  0  0  0  0  0  0  0  0  0  0  0
   -3.0254   -5.1108   10.1998 C   0  0  0  0  0  0  0  0  0  0  0  0
   -2.8720   -5.0183   11.5564 C   0  0  0  0  0  0  0  0  0  0  0  0
   -3.9527   -5.2445   12.4219 C   0  0  0  0  0  0  0  0  0  0  0  0
   -5.2009   -5.5647   11.9804 C   0  0  0  0  0  0  0  0  0  0  0  0
   -5.3232   -5.6475   10.5739 C   0  0  0  0  0  0  0  0  0  0  0  0
   -4.2854   -5.4311    9.7093 C   0  0  0  0  0  0  0  0  0  0  0  0
   -1.0672   -5.9941    9.2531 F   0  0  0  0  0  0  0  0  0  0  0  0
   -1.8897   -4.9075    9.2481 C   0  0  0  0  0  0  0  0  0  0  0  0
   -1.2177   -3.7456    9.5588 F   0  0  0  0  0  0  0  0  0  0  0  0
   -2.3645   -4.7324    7.9606 F   0  0  0  0  0  0  0  0  0  0  0  0
 27 28  1  0  0  0
 28 29  1  0  0  0
 28 30  1  0  0  0
 28 21  1  0  0  0
 21 22  2  0  0  0
 22 23  1  0  0  0
 23 24  2  0  0  0
 24 25  1  0  0  0
 25 26  2  0  0  0
 24 18  1  0  0  0
 18 19  2  0  0  0
 18 20  2  0  0  0
 18  1  1  0  0  0
  1  2  1  0  0  0
  2  3  1  0  0  0
  3  4  1  0  0  0
  4  5  1  0  0  0
  5  6  1  0  0  0
  4  7  1  0  0  0
  7  8  2  0  0  0
  8  9  1  0  0  0
  9 10  1  0  0  0
 10 11  2  0  0  0
 11 12  1  0  0  0
 12 13  2  0  0  0
 13 14  1  0  0  0
 13 15  1  0  0  0
 15 16  2  0  0  0
 26 21  1  0  0  0
  6  1  1  0  0  0
 16  7  1  0  0  0
 16 10  1  0  0  0
  9 17  1  0  0  0
M  END
> <minimizedAffinity>
13.49282

> <CNNscore>
0.2898985744

> <CNNaffinity>
5.6794428825

> <CNN_VS>
1.6464624405

> <CNNaffinity_variance>
0.5950258970

$$$$
[H]c1c([H])c(S(=O)(=O)N2C([H])([H])C([H])([H])C([H])(c3c([H])n([H])c4c([H])c([H])c(F)c([H])c34)C([H])([H])C2([H])[H])c([H])c([H])c1C(F)(F)F


 30 33  0  0  0  0  0  0  0  0999 V2000
  -10.9836   -8.2054    7.0928 N   0  0  0  0  0  0  0  0  0  0  0  0
  -11.3890   -7.1938    7.9140 C   0  0  0  0  0  0  0  0  0  0  0  0
  -12.8705   -6.9335    8.1576 C   0  0  0  0  0  0  0  0  0  0  0  0
  -13.7865   -7.9202    7.5654 C   0  0  0  0  0  0  0  0  0  0  0  0
  -13.2578   -9.1126    6.8631 C   0  0  0  0  0  0  0  0  0  0  0  0
  -11.9093   -8.9195    6.2432 C   0  0  0  0  0  0  0  0  0  0  0  0
  -15.2003   -7.5813    7.3006 C   0  0  0  0  0  0  0  0  0  0  0  0
  -16.3922   -8.1418    7.7031 C   0  0  0  0  0  0  0  0  0  0  0  0
  -17.4163   -7.6854    6.9499 N   0  0  0  0  0  0  0  0  0  0  0  0
  -16.9437   -6.7998    6.0251 C   0  0  0  0  0  0  0  0  0  0  0  0
  -17.5610   -6.0029    5.0839 C   0  0  0  0  0  0  0  0  0  0  0  0
  -16.8446   -5.1105    4.3286 C   0  0  0  0  0  0  0  0  0  0  0  0
  -15.4962   -5.0368    4.5509 C   0  0  0  0  0  0  0  0  0  0  0  0
  -14.7656   -4.1172    3.8330 F   0  0  0  0  0  0  0  0  0  0  0  0
  -14.8903   -5.8390    5.4902 C   0  0  0  0  0  0  0  0  0  0  0  0
  -15.6076   -6.7430    6.2438 C   0  0  0  0  0  0  0  0  0  0  0  0
  -18.4167   -7.9397    7.0405 H   0  0  0  0  0  0  0  0  0  0  0  0
   -9.6763   -9.1752    7.4966 S   0  0  0  0  0  0  0  0  0  0  0  0
   -9.8444  -10.5130    6.7020 O   0  0  0  0  0  0  0  0  0  0  0  0
   -9.9102   -9.6278    8.9493 O   0  0  0  0  0  0  0  0  0  0  0  0
   -5.4845   -7.4672    7.0444 C   0  0  0  0  0  0  0  0  0  0  0  0
   -6.0616   -8.1461    6.0060 C   0  0  0  0  0  0  0  0  0  0  0  0
   -7.3387   -8.7124    6.1349 C   0  0  0  0  0  0  0  0  0  0  0  0
   -8.0749   -8.6266    7.2778 C   0  0  0  0  0  0  0  0  0  0  0  0
   -7.4460   -7.9220    8.3303 C   0  0  0  0  0  0  0  0  0  0  0  0
   -6.2021   -7.3614    8.2296 C   0  0  0  0  0  0  0  0  0  0  0  0
   -3.5691   -6.7016    8.1651 F   0  0  0  0  0  0  0  0  0  0  0  0
   -4.1390   -6.8236    6.9333 C   0  0  0  0  0  0  0  0  0  0  0  0
   -4.2492   -5.6109    6.2890 F   0  0  0  0  0  0  0  0  0  0  0  0
   -3.3006   -7.5914    6.1448 F   0  0  0  0  0  0  0  0  0  0  0  0
 27 28  1  0  0  0
 28 29  1  0  0  0
 28 30  1  0  0  0
 28 21  1  0  0  0
 21 22  2  0  0  0
 22 23  1  0  0  0
 23 24  2  0  0  0
 24 25  1  0  0  0
 25 26  2  0  0  0
 24 18  1  0  0  0
 18 19  2  0  0  0
 18 20  2  0  0  0
 18  1  1  0  0  0
  1  2  1  0  0  0
  2  3  1  0  0  0
  3  4  1  0  0  0
  4  5  1  0  0  0
  5  6  1  0  0  0
  4  7  1  0  0  0
  7  8  2  0  0  0
  8  9  1  0  0  0
  9 10  1  0  0  0
 10 11  2  0  0  0
 11 12  1  0  0  0
 12 13  2  0  0  0
 13 14  1  0  0  0
 13 15  1  0  0  0
 15 16  2  0  0  0
 26 21  1  0  0  0
  6  1  1  0  0  0
 16  7  1  0  0  0
 16 10  1  0  0  0
  9 17  1  0  0  0
M  END
> <minimizedAffinity>
-7.41805

> <CNNscore>
0.2186543792

> <CNNaffinity>
6.8337478638

> <CNN_VS>
1.4942288399

> <CNNaffinity_variance>
0.0505944714

$$$$
[H]c1c([H])c(S(=O)(=O)N2C([H])([H])C([H])([H])C([H])(c3c([H])n([H])c4c([H])c([H])c(F)c([H])c34)C([H])([H])C2([H])[H])c([H])c([H])c1C(F)(F)F


 30 33  0  0  0  0  0  0  0  0999 V2000
   -9.1413   -7.6135    7.7036 N   0  0  0  0  0  0  0  0  0  0  0  0
   -9.5907   -6.5262    8.3949 C   0  0  0  0  0  0  0  0  0  0  0  0
  -11.0130   -6.4821    8.9400 C   0  0  0  0  0  0  0  0  0  0  0  0
  -11.7833   -7.7255    8.7846 C   0  0  0  0  0  0  0  0  0  0  0  0
  -11.1517   -8.9361    8.2102 C   0  0  0  0  0  0  0  0  0  0  0  0
  -10.0338   -8.6579    7.2548 C   0  0  0  0  0  0  0  0  0  0  0  0
  -13.2606   -7.7128    8.8147 C   0  0  0  0  0  0  0  0  0  0  0  0
  -14.1862   -8.1838    9.7194 C   0  0  0  0  0  0  0  0  0  0  0  0
  -15.4175   -8.2313    9.1663 N   0  0  0  0  0  0  0  0  0  0  0  0
  -15.3566   -7.7867    7.8773 C   0  0  0  0  0  0  0  0  0  0  0  0
  -16.3164   -7.5624    6.9128 C   0  0  0  0  0  0  0  0  0  0  0  0
  -15.9909   -7.0078    5.7018 C   0  0  0  0  0  0  0  0  0  0  0  0
  -14.6790   -6.6793    5.4917 C   0  0  0  0  0  0  0  0  0  0  0  0
  -14.3386   -6.0823    4.2990 F   0  0  0  0  0  0  0  0  0  0  0  0
  -13.7292   -6.9104    6.4597 C   0  0  0  0  0  0  0  0  0  0  0  0
  -14.0533   -7.4762    7.6740 C   0  0  0  0  0  0  0  0  0  0  0  0
  -16.2936   -8.5417    9.6243 H   0  0  0  0  0  0  0  0  0  0  0  0
   -7.5957   -8.2159    7.9498 S   0  0  0  0  0  0  0  0  0  0  0  0
   -7.6563   -9.7507    7.6495 O   0  0  0  0  0  0  0  0  0  0  0  0
   -7.3625   -8.1908    9.4712 O   0  0  0  0  0  0  0  0  0  0  0  0
   -3.8754   -6.5008    5.9721 C   0  0  0  0  0  0  0  0  0  0  0  0
   -5.1022   -5.9541    5.7106 C   0  0  0  0  0  0  0  0  0  0  0  0
   -6.2671   -6.4889    6.2808 C   0  0  0  0  0  0  0  0  0  0  0  0
   -6.2563   -7.5654    7.1155 C   0  0  0  0  0  0  0  0  0  0  0  0
   -4.9727   -8.1064    7.3598 C   0  0  0  0  0  0  0  0  0  0  0  0
   -3.8226   -7.6036    6.8158 C   0  0  0  0  0  0  0  0  0  0  0  0
   -1.7581   -6.9444    5.0602 F   0  0  0  0  0  0  0  0  0  0  0  0
   -2.6096   -5.9386    5.4077 C   0  0  0  0  0  0  0  0  0  0  0  0
   -2.0410   -5.0638    6.3074 F   0  0  0  0  0  0  0  0  0  0  0  0
   -2.8768   -5.1899    4.2755 F   0  0  0  0  0  0  0  0  0  0  0  0
 27 28  1  0  0  0
 28 29  1  0  0  0
 28 30  1  0  0  0
 28 21  1  0  0  0
 21 22  2  0  0  0
 22 23  1  0  0  0
 23 24  2  0  0  0
 24 25  1  0  0  0
 25 26  2  0  0  0
 24 18  1  0  0  0
 18 19  2  0  0  0
 18 20  2  0  0  0
 18  1  1  0  0  0
  1  2  1  0  0  0
  2  3  1  0  0  0
  3  4  1  0  0  0
  4  5  1  0  0  0
  5  6  1  0  0  0
  4  7  1  0  0  0
  7  8  2  0  0  0
  8  9  1  0  0  0
  9 10  1  0  0  0
 10 11  2  0  0  0
 11 12  1  0  0  0
 12 13  2  0  0  0
 13 14  1  0  0  0
 13 15  1  0  0  0
 15 16  2  0  0  0
 26 21  1  0  0  0
  6  1  1  0  0  0
 16  7  1  0  0  0
 16 10  1  0  0  0
  9 17  1  0  0  0
M  END
> <minimizedAffinity>
-8.49578

> <CNNscore>
0.2041340172

> <CNNaffinity>
6.5029067993

> <CNN_VS>
1.3274644613

> <CNNaffinity_variance>
0.0685296282

$$$$
[H]c1c([H])c(S(=O)(=O)N2C([H])([H])C([H])([H])C([H])(c3c([H])n([H])c4c([H])c([H])c(F)c([H])c34)C([H])([H])C2([H])[H])c([H])c([H])c1OC([H])([H])[H]


 28 31  0  0  0  0  0  0  0  0999 V2000
  -14.6834   -8.4098    5.6897 N   0  0  0  0  0  0  0  0  0  0  0  0
  -13.9610   -9.6176    5.5509 C   0  0  0  0  0  0  0  0  0  0  0  0
  -12.8213   -9.8534    6.4688 C   0  0  0  0  0  0  0  0  0  0  0  0
  -12.9428   -9.3333    7.8549 C   0  0  0  0  0  0  0  0  0  0  0  0
  -14.2416   -8.5513    8.0282 C   0  0  0  0  0  0  0  0  0  0  0  0
  -14.3641   -7.6277    6.8349 C   0  0  0  0  0  0  0  0  0  0  0  0
  -11.7894   -8.4651    8.2173 C   0  0  0  0  0  0  0  0  0  0  0  0
  -10.4724   -8.5072    7.8352 C   0  0  0  0  0  0  0  0  0  0  0  0
   -9.8427   -7.4745    8.4356 N   0  0  0  0  0  0  0  0  0  0  0  0
  -10.6794   -6.7660    9.1857 C   0  0  0  0  0  0  0  0  0  0  0  0
  -10.5532   -5.6354    9.9977 C   0  0  0  0  0  0  0  0  0  0  0  0
  -11.6404   -5.1329   10.6666 C   0  0  0  0  0  0  0  0  0  0  0  0
  -12.8833   -5.7164   10.5655 C   0  0  0  0  0  0  0  0  0  0  0  0
  -13.9672   -5.2108   11.2360 F   0  0  0  0  0  0  0  0  0  0  0  0
  -13.0011   -6.8342    9.7605 C   0  0  0  0  0  0  0  0  0  0  0  0
  -11.9150   -7.3603    9.0730 C   0  0  0  0  0  0  0  0  0  0  0  0
   -8.8167   -7.2647    8.3189 H   0  0  0  0  0  0  0  0  0  0  0  0
  -14.9305   -7.5173    4.2645 S   0  0  0  0  0  0  0  0  0  0  0  0
  -14.7593   -8.4328    3.0790 O   0  0  0  0  0  0  0  0  0  0  0  0
  -13.8270   -6.4972    4.1551 O   0  0  0  0  0  0  0  0  0  0  0  0
  -18.9590   -5.3698    4.2422 C   0  0  0  0  0  0  0  0  0  0  0  0
  -18.8555   -6.6656    3.7994 C   0  0  0  0  0  0  0  0  0  0  0  0
  -17.6463   -7.3708    3.7834 C   0  0  0  0  0  0  0  0  0  0  0  0
  -16.4987   -6.7485    4.2295 C   0  0  0  0  0  0  0  0  0  0  0  0
  -16.5735   -5.4462    4.6800 C   0  0  0  0  0  0  0  0  0  0  0  0
  -17.7778   -4.7690    4.6873 C   0  0  0  0  0  0  0  0  0  0  0  0
  -20.2175   -3.3312    4.6749 C   0  0  0  0  0  0  0  0  0  0  0  0
  -20.1606   -4.6755    4.2565 O   0  0  0  0  0  0  0  0  0  0  0  0
 27 28  1  0  0  0
 28 21  1  0  0  0
 21 22  2  0  0  0
 22 23  1  0  0  0
 23 24  2  0  0  0
 24 25  1  0  0  0
 25 26  2  0  0  0
 24 18  1  0  0  0
 18 19  2  0  0  0
 18 20  2  0  0  0
 18  1  1  0  0  0
  1  2  1  0  0  0
  2  3  1  0  0  0
  3  4  1  0  0  0
  4  5  1  0  0  0
  5  6  1  0  0  0
  4  7  1  0  0  0
  7  8  2  0  0  0
  8  9  1  0  0  0
  9 10  1  0  0  0
 10 11  2  0  0  0
 11 12  1  0  0  0
 12 13  2  0  0  0
 13 14  1  0  0  0
 13 15  1  0  0  0
 15 16  2  0  0  0
 26 21  1  0  0  0
  6  1  1  0  0  0
 16  7  1  0  0  0
 16 10  1  0  0  0
  9 17  1  0  0  0
M  END
> <minimizedAffinity>
-4.71452

> <CNNscore>
0.5073199868

> <CNNaffinity>
6.9037847519

> <CNN_VS>
3.5024280548

> <CNNaffinity_variance>
0.1989455521

$$$$
[H]c1c([H])c(S(=O)(=O)N2C([H])([H])C([H])([H])C([H])(c3c([H])n([H])c4c([H])c([H])c(F)c([H])c34)C([H])([H])C2([H])[H])c([H])c([H])c1OC([H])([H])[H]


 28 31  0  0  0  0  0  0  0  0999 V2000
  -16.2765   -4.8013    4.6215 N   0  0  0  0  0  0  0  0  0  0  0  0
  -16.5015   -4.9376    3.2320 C   0  0  0  0  0  0  0  0  0  0  0  0
  -17.2754   -6.1131    2.7669 C   0  0  0  0  0  0  0  0  0  0  0  0
  -18.3693   -6.6009    3.6456 C   0  0  0  0  0  0  0  0  0  0  0  0
  -18.4141   -5.8055    4.9472 C   0  0  0  0  0  0  0  0  0  0  0  0
  -16.9910   -5.7073    5.4543 C   0  0  0  0  0  0  0  0  0  0  0  0
  -18.2192   -8.0491    3.9546 C   0  0  0  0  0  0  0  0  0  0  0  0
  -17.3630   -8.9957    3.4516 C   0  0  0  0  0  0  0  0  0  0  0  0
  -17.6258  -10.1583    4.0862 N   0  0  0  0  0  0  0  0  0  0  0  0
  -18.6052  -10.0168    4.9724 C   0  0  0  0  0  0  0  0  0  0  0  0
  -19.2518  -10.8744    5.8667 C   0  0  0  0  0  0  0  0  0  0  0  0
  -20.2624  -10.4105    6.6701 C   0  0  0  0  0  0  0  0  0  0  0  0
  -20.6742   -9.0975    6.6266 C   0  0  0  0  0  0  0  0  0  0  0  0
  -21.6849   -8.6382    7.4313 F   0  0  0  0  0  0  0  0  0  0  0  0
  -20.0302   -8.2546    5.7399 C   0  0  0  0  0  0  0  0  0  0  0  0
  -19.0041   -8.7014    4.9174 C   0  0  0  0  0  0  0  0  0  0  0  0
  -17.1140  -11.0596    3.8959 H   0  0  0  0  0  0  0  0  0  0  0  0
  -14.6693   -4.5153    5.0951 S   0  0  0  0  0  0  0  0  0  0  0  0
  -14.5983   -3.1870    5.8046 O   0  0  0  0  0  0  0  0  0  0  0  0
  -13.8364   -4.3579    3.8494 O   0  0  0  0  0  0  0  0  0  0  0  0
  -13.0682   -7.7565    7.8828 C   0  0  0  0  0  0  0  0  0  0  0  0
  -13.0090   -7.9154    6.5201 C   0  0  0  0  0  0  0  0  0  0  0  0
  -13.4854   -6.9549    5.6199 C   0  0  0  0  0  0  0  0  0  0  0  0
  -14.0423   -5.7915    6.1097 C   0  0  0  0  0  0  0  0  0  0  0  0
  -14.1147   -5.6056    7.4752 C   0  0  0  0  0  0  0  0  0  0  0  0
  -13.6380   -6.5668    8.3457 C   0  0  0  0  0  0  0  0  0  0  0  0
  -11.2141   -8.9744    8.8860 C   0  0  0  0  0  0  0  0  0  0  0  0
  -12.5937   -8.7118    8.7708 O   0  0  0  0  0  0  0  0  0  0  0  0
 27 28  1  0  0  0
 28 21  1  0  0  0
 21 22  2  0  0  0
 22 23  1  0  0  0
 23 24  2  0  0  0
 24 25  1  0  0  0
 25 26  2  0  0  0
 24 18  1  0  0  0
 18 19  2  0  0  0
 18 20  2  0  0  0
 18  1  1  0  0  0
  1  2  1  0  0  0
  2  3  1  0  0  0
  3  4  1  0  0  0
  4  5  1  0  0  0
  5  6  1  0  0  0
  4  7  1  0  0  0
  7  8  2  0  0  0
  8  9  1  0  0  0
  9 10  1  0  0  0
 10 11  2  0  0  0
 11 12  1  0  0  0
 12 13  2  0  0  0
 13 14  1  0  0  0
 13 15  1  0  0  0
 15 16  2  0  0  0
 26 21  1  0  0  0
  6  1  1  0  0  0
 16  7  1  0  0  0
 16 10  1  0  0  0
  9 17  1  0  0  0
M  END
> <minimizedAffinity>
14.32055

> <CNNscore>
0.5047256351

> <CNNaffinity>
6.8243203163

> <CNN_VS>
3.4444093704

> <CNNaffinity_variance>
2.1725337505

$$$$
[H]c1c([H])c(S(=O)(=O)N2C([H])([H])C([H])([H])C([H])(c3c([H])n([H])c4c([H])c([H])c(F)c([H])c34)C([H])([H])C2([H])[H])c([H])c([H])c1OC([H])([H])[H]


 28 31  0  0  0  0  0  0  0  0999 V2000
  -14.7387   -7.8295    7.0557 N   0  0  0  0  0  0  0  0  0  0  0  0
  -14.3807   -9.0440    7.6856 C   0  0  0  0  0  0  0  0  0  0  0  0
  -13.1710   -9.0508    8.5420 C   0  0  0  0  0  0  0  0  0  0  0  0
  -12.8733   -7.8158    9.3120 C   0  0  0  0  0  0  0  0  0  0  0  0
  -13.8751   -6.7143    8.9779 C   0  0  0  0  0  0  0  0  0  0  0  0
  -14.0083   -6.6805    7.4702 C   0  0  0  0  0  0  0  0  0  0  0  0
  -11.4924   -7.3262    9.0497 C   0  0  0  0  0  0  0  0  0  0  0  0
  -10.8669   -6.1568    9.4010 C   0  0  0  0  0  0  0  0  0  0  0  0
   -9.6016   -6.2173    8.9332 N   0  0  0  0  0  0  0  0  0  0  0  0
   -9.3733   -7.3615    8.2982 C   0  0  0  0  0  0  0  0  0  0  0  0
   -8.2715   -7.9176    7.6421 C   0  0  0  0  0  0  0  0  0  0  0  0
   -8.3579   -9.1587    7.0643 C   0  0  0  0  0  0  0  0  0  0  0  0
   -9.5200   -9.8957    7.1072 C   0  0  0  0  0  0  0  0  0  0  0  0
   -9.6019  -11.1359    6.5280 F   0  0  0  0  0  0  0  0  0  0  0  0
  -10.6058   -9.3399    7.7578 C   0  0  0  0  0  0  0  0  0  0  0  0
  -10.5417   -8.0856    8.3510 C   0  0  0  0  0  0  0  0  0  0  0  0
   -8.8917   -5.4490    9.0600 H   0  0  0  0  0  0  0  0  0  0  0  0
  -15.0452   -7.9140    5.3860 S   0  0  0  0  0  0  0  0  0  0  0  0
  -15.1345   -9.3628    4.9786 O   0  0  0  0  0  0  0  0  0  0  0  0
  -13.8455   -7.3597    4.6624 O   0  0  0  0  0  0  0  0  0  0  0  0
  -18.7792   -5.5306    4.2829 C   0  0  0  0  0  0  0  0  0  0  0  0
  -18.6890   -6.8671    3.9809 C   0  0  0  0  0  0  0  0  0  0  0  0
  -17.5683   -7.6450    4.2949 C   0  0  0  0  0  0  0  0  0  0  0  0
  -16.4986   -7.0555    4.9365 C   0  0  0  0  0  0  0  0  0  0  0  0
  -16.5621   -5.7135    5.2519 C   0  0  0  0  0  0  0  0  0  0  0  0
  -17.6785   -4.9646    4.9328 C   0  0  0  0  0  0  0  0  0  0  0  0
  -20.1026   -3.5076    4.5722 C   0  0  0  0  0  0  0  0  0  0  0  0
  -19.8931   -4.7642    3.9699 O   0  0  0  0  0  0  0  0  0  0  0  0
 27 28  1  0  0  0
 28 21  1  0  0  0
 21 22  2  0  0  0
 22 23  1  0  0  0
 23 24  2  0  0  0
 24 25  1  0  0  0
 25 26  2  0  0  0
 24 18  1  0  0  0
 18 19  2  0  0  0
 18 20  2  0  0  0
 18  1  1  0  0  0
  1  2  1  0  0  0
  2  3  1  0  0  0
  3  4  1  0  0  0
  4  5  1  0  0  0
  5  6  1  0  0  0
  4  7  1  0  0  0
  7  8  2  0  0  0
  8  9  1  0  0  0
  9 10  1  0  0  0
 10 11  2  0  0  0
 11 12  1  0  0  0
 12 13  2  0  0  0
 13 14  1  0  0  0
 13 15  1  0  0  0
 15 16  2  0  0  0
 26 21  1  0  0  0
  6  1  1  0  0  0
 16  7  1  0  0  0
 16 10  1  0  0  0
  9 17  1  0  0  0
M  END
> <minimizedAffinity>
-7.00184

> <CNNscore>
0.4888674617

> <CNNaffinity>
6.8825120926

> <CNN_VS>
3.3646361828

> <CNNaffinity_variance>
0.1050693542

$$$$
[H]c1c([H])c(S(=O)(=O)N2C([H])([H])C([H])([H])C([H])(c3c([H])n([H])c4c([H])c([H])c(F)c([H])c34)C([H])([H])C2([H])[H])c([H])c([H])c1OC([H])([H])[H]


 28 31  0  0  0  0  0  0  0  0999 V2000
  -13.4060   -9.0496    7.7393 N   0  0  0  0  0  0  0  0  0  0  0  0
  -14.7687   -8.9377    8.1005 C   0  0  0  0  0  0  0  0  0  0  0  0
  -15.6734   -8.2120    7.1777 C   0  0  0  0  0  0  0  0  0  0  0  0
  -15.4025   -8.3320    5.7220 C   0  0  0  0  0  0  0  0  0  0  0  0
  -14.1363   -9.1460    5.4719 C   0  0  0  0  0  0  0  0  0  0  0  0
  -13.0797   -8.6228    6.4215 C   0  0  0  0  0  0  0  0  0  0  0  0
  -15.2688   -6.9969    5.0778 C   0  0  0  0  0  0  0  0  0  0  0  0
  -14.1613   -6.2409    4.7880 C   0  0  0  0  0  0  0  0  0  0  0  0
  -14.5878   -5.1128    4.1806 N   0  0  0  0  0  0  0  0  0  0  0  0
  -15.9107   -5.0965    4.0612 C   0  0  0  0  0  0  0  0  0  0  0  0
  -16.8378   -4.1951    3.5307 C   0  0  0  0  0  0  0  0  0  0  0  0
  -18.1803   -4.4753    3.5645 C   0  0  0  0  0  0  0  0  0  0  0  0
  -18.6607   -5.6414    4.1165 C   0  0  0  0  0  0  0  0  0  0  0  0
  -20.0034   -5.9172    4.1483 F   0  0  0  0  0  0  0  0  0  0  0  0
  -17.7382   -6.5287    4.6393 C   0  0  0  0  0  0  0  0  0  0  0  0
  -16.3744   -6.2670    4.6155 C   0  0  0  0  0  0  0  0  0  0  0  0
  -13.9455   -4.3470    3.8471 H   0  0  0  0  0  0  0  0  0  0  0  0
  -12.2770   -8.6077    8.9306 S   0  0  0  0  0  0  0  0  0  0  0  0
  -12.3311   -9.6141   10.0519 O   0  0  0  0  0  0  0  0  0  0  0  0
  -12.7217   -7.3005    9.5335 O   0  0  0  0  0  0  0  0  0  0  0  0
   -8.0422   -8.1149    7.2983 C   0  0  0  0  0  0  0  0  0  0  0  0
   -8.6781   -9.3305    7.2356 C   0  0  0  0  0  0  0  0  0  0  0  0
   -9.9746   -9.5378    7.7211 C   0  0  0  0  0  0  0  0  0  0  0  0
  -10.6563   -8.4824    8.2912 C   0  0  0  0  0  0  0  0  0  0  0  0
  -10.0411   -7.2494    8.3675 C   0  0  0  0  0  0  0  0  0  0  0  0
   -8.7606   -7.0671    7.8816 C   0  0  0  0  0  0  0  0  0  0  0  0
   -6.2527   -6.6152    6.6086 C   0  0  0  0  0  0  0  0  0  0  0  0
   -6.7568   -7.9148    6.8148 O   0  0  0  0  0  0  0  0  0  0  0  0
 27 28  1  0  0  0
 28 21  1  0  0  0
 21 22  2  0  0  0
 22 23  1  0  0  0
 23 24  2  0  0  0
 24 25  1  0  0  0
 25 26  2  0  0  0
 24 18  1  0  0  0
 18 19  2  0  0  0
 18 20  2  0  0  0
 18  1  1  0  0  0
  1  2  1  0  0  0
  2  3  1  0  0  0
  3  4  1  0  0  0
  4  5  1  0  0  0
  5  6  1  0  0  0
  4  7  1  0  0  0
  7  8  2  0  0  0
  8  9  1  0  0  0
  9 10  1  0  0  0
 10 11  2  0  0  0
 11 12  1  0  0  0
 12 13  2  0  0  0
 13 14  1  0  0  0
 13 15  1  0  0  0
 15 16  2  0  0  0
 26 21  1  0  0  0
  6  1  1  0  0  0
 16  7  1  0  0  0
 16 10  1  0  0  0
  9 17  1  0  0  0
M  END
> <minimizedAffinity>
-6.13909

> <CNNscore>
0.4244944453

> <CNNaffinity>
7.0066957474

> <CNN_VS>
2.9743034840

> <CNNaffinity_variance>
0.1617075503

$$$$
[H]c1c([H])c(S(=O)(=O)N2C([H])([H])C([H])([H])C([H])(c3c([H])n([H])c4c([H])c([H])c(F)c([H])c34)C([H])([H])C2([H])[H])c([H])c([H])c1OC([H])([H])[H]


 28 31  0  0  0  0  0  0  0  0999 V2000
   -5.4746   -5.7802    6.6001 N   0  0  0  0  0  0  0  0  0  0  0  0
   -5.9856   -5.9960    5.2993 C   0  0  0  0  0  0  0  0  0  0  0  0
   -7.3486   -6.5650    5.1753 C   0  0  0  0  0  0  0  0  0  0  0  0
   -8.3484   -6.1707    6.2009 C   0  0  0  0  0  0  0  0  0  0  0  0
   -7.7093   -5.2882    7.2693 C   0  0  0  0  0  0  0  0  0  0  0  0
   -6.4047   -5.9469    7.6642 C   0  0  0  0  0  0  0  0  0  0  0  0
   -8.9691   -7.3597    6.8462 C   0  0  0  0  0  0  0  0  0  0  0  0
  -10.2696   -7.6213    7.1961 C   0  0  0  0  0  0  0  0  0  0  0  0
  -10.3035   -8.8591    7.7347 N   0  0  0  0  0  0  0  0  0  0  0  0
   -9.0966   -9.4135    7.7529 C   0  0  0  0  0  0  0  0  0  0  0  0
   -8.5851  -10.6385    8.1904 C   0  0  0  0  0  0  0  0  0  0  0  0
   -7.2473  -10.9178    8.0710 C   0  0  0  0  0  0  0  0  0  0  0  0
   -6.3670  -10.0125    7.5225 C   0  0  0  0  0  0  0  0  0  0  0  0
   -5.0306  -10.2959    7.4053 F   0  0  0  0  0  0  0  0  0  0  0  0
   -6.8796   -8.8029    7.0917 C   0  0  0  0  0  0  0  0  0  0  0  0
   -8.2302   -8.4983    7.2014 C   0  0  0  0  0  0  0  0  0  0  0  0
  -11.1810   -9.3193    8.0933 H   0  0  0  0  0  0  0  0  0  0  0  0
   -3.9226   -6.4014    6.9074 S   0  0  0  0  0  0  0  0  0  0  0  0
   -3.0880   -6.2700    5.6588 O   0  0  0  0  0  0  0  0  0  0  0  0
   -4.0531   -7.8814    7.1575 O   0  0  0  0  0  0  0  0  0  0  0  0
   -1.7587   -4.2965   10.3320 C   0  0  0  0  0  0  0  0  0  0  0  0
   -3.0182   -4.8125   10.5138 C   0  0  0  0  0  0  0  0  0  0  0  0
   -3.7273   -5.4662    9.4990 C   0  0  0  0  0  0  0  0  0  0  0  0
   -3.1470   -5.6053    8.2551 C   0  0  0  0  0  0  0  0  0  0  0  0
   -1.8818   -5.0959    8.0443 C   0  0  0  0  0  0  0  0  0  0  0  0
   -1.1998   -4.4545    9.0604 C   0  0  0  0  0  0  0  0  0  0  0  0
   -1.0631   -4.1470   12.6603 C   0  0  0  0  0  0  0  0  0  0  0  0
   -1.0600   -3.6499   11.3419 O   0  0  0  0  0  0  0  0  0  0  0  0
 27 28  1  0  0  0
 28 21  1  0  0  0
 21 22  2  0  0  0
 22 23  1  0  0  0
 23 24  2  0  0  0
 24 25  1  0  0  0
 25 26  2  0  0  0
 24 18  1  0  0  0
 18 19  2  0  0  0
 18 20  2  0  0  0
 18  1  1  0  0  0
  1  2  1  0  0  0
  2  3  1  0  0  0
  3  4  1  0  0  0
  4  5  1  0  0  0
  5  6  1  0  0  0
  4  7  1  0  0  0
  7  8  2  0  0  0
  8  9  1  0  0  0
  9 10  1  0  0  0
 10 11  2  0  0  0
 11 12  1  0  0  0
 12 13  2  0  0  0
 13 14  1  0  0  0
 13 15  1  0  0  0
 15 16  2  0  0  0
 26 21  1  0  0  0
  6  1  1  0  0  0
 16  7  1  0  0  0
 16 10  1  0  0  0
  9 17  1  0  0  0
M  END
> <minimizedAffinity>
4.26358

> <CNNscore>
0.4061191380

> <CNNaffinity>
5.7613716125

> <CNN_VS>
2.3398032188

> <CNNaffinity_variance>
0.8296135068

$$$$
[H]c1c([H])c(S(=O)(=O)N2C([H])([H])C([H])([H])C([H])(c3c([H])n([H])c4c([H])c([H])c(F)c([H])c34)C([H])([H])C2([H])[H])c([H])c([H])c1OC([H])([H])[H]


 28 31  0  0  0  0  0  0  0  0999 V2000
  -15.0666   -9.0184    6.1999 N   0  0  0  0  0  0  0  0  0  0  0  0
  -14.2147  -10.1462    6.1497 C   0  0  0  0  0  0  0  0  0  0  0  0
  -12.9583  -10.1017    6.9348 C   0  0  0  0  0  0  0  0  0  0  0  0
  -12.9894   -9.3774    8.2314 C   0  0  0  0  0  0  0  0  0  0  0  0
  -14.3504   -8.7245    8.4548 C   0  0  0  0  0  0  0  0  0  0  0  0
  -14.7241   -8.0286    7.1633 C   0  0  0  0  0  0  0  0  0  0  0  0
  -11.9241   -8.3405    8.3052 C   0  0  0  0  0  0  0  0  0  0  0  0
  -10.7097   -8.2470    7.6739 C   0  0  0  0  0  0  0  0  0  0  0  0
  -10.1323   -7.0937    8.0741 N   0  0  0  0  0  0  0  0  0  0  0  0
  -10.9060   -6.4353    8.9300 C   0  0  0  0  0  0  0  0  0  0  0  0
  -10.7923   -5.2313    9.6306 C   0  0  0  0  0  0  0  0  0  0  0  0
  -11.7953   -4.8154   10.4691 C   0  0  0  0  0  0  0  0  0  0  0  0
  -12.9391   -5.5597   10.6511 C   0  0  0  0  0  0  0  0  0  0  0  0
  -13.9390   -5.1403   11.4903 F   0  0  0  0  0  0  0  0  0  0  0  0
  -13.0451   -6.7495    9.9549 C   0  0  0  0  0  0  0  0  0  0  0  0
  -12.0433   -7.1903    9.1000 C   0  0  0  0  0  0  0  0  0  0  0  0
   -9.1868   -6.7654    7.7445 H   0  0  0  0  0  0  0  0  0  0  0  0
  -15.5851   -8.4046    4.7021 S   0  0  0  0  0  0  0  0  0  0  0  0
  -17.0168   -8.8181    4.4741 O   0  0  0  0  0  0  0  0  0  0  0  0
  -14.7870   -9.0819    3.6183 O   0  0  0  0  0  0  0  0  0  0  0  0
  -14.9918   -3.8869    4.4221 C   0  0  0  0  0  0  0  0  0  0  0  0
  -16.2248   -4.4124    4.7206 C   0  0  0  0  0  0  0  0  0  0  0  0
  -16.4631   -5.7884    4.8181 C   0  0  0  0  0  0  0  0  0  0  0  0
  -15.4214   -6.6681    4.6070 C   0  0  0  0  0  0  0  0  0  0  0  0
  -14.1713   -6.1674    4.3052 C   0  0  0  0  0  0  0  0  0  0  0  0
  -13.9585   -4.8053    4.2142 C   0  0  0  0  0  0  0  0  0  0  0  0
  -14.5363   -1.7415    5.4790 C   0  0  0  0  0  0  0  0  0  0  0  0
  -14.7610   -2.5216    4.3273 O   0  0  0  0  0  0  0  0  0  0  0  0
 27 28  1  0  0  0
 28 21  1  0  0  0
 21 22  2  0  0  0
 22 23  1  0  0  0
 23 24  2  0  0  0
 24 25  1  0  0  0
 25 26  2  0  0  0
 24 18  1  0  0  0
 18 19  2  0  0  0
 18 20  2  0  0  0
 18  1  1  0  0  0
  1  2  1  0  0  0
  2  3  1  0  0  0
  3  4  1  0  0  0
  4  5  1  0  0  0
  5  6  1  0  0  0
  4  7  1  0  0  0
  7  8  2  0  0  0
  8  9  1  0  0  0
  9 10  1  0  0  0
 10 11  2  0  0  0
 11 12  1  0  0  0
 12 13  2  0  0  0
 13 14  1  0  0  0
 13 15  1  0  0  0
 15 16  2  0  0  0
 26 21  1  0  0  0
  6  1  1  0  0  0
 16  7  1  0  0  0
 16 10  1  0  0  0
  9 17  1  0  0  0
M  END
> <minimizedAffinity>
-4.63656

> <CNNscore>
0.4027324319

> <CNNaffinity>
6.7790460587

> <CNN_VS>
2.7301416397

> <CNNaffinity_variance>
0.2276321650

$$$$
[H]c1c([H])c(S(=O)(=O)N2C([H])([H])C([H])([H])C([H])(c3c([H])n([H])c4c([H])c([H])c(F)c([H])c34)C([H])([H])C2([H])[H])c([H])c([H])c1OC([H])([H])[H]


 28 31  0  0  0  0  0  0  0  0999 V2000
  -11.8530   -9.0172    6.7232 N   0  0  0  0  0  0  0  0  0  0  0  0
  -12.4899  -10.1808    7.2133 C   0  0  0  0  0  0  0  0  0  0  0  0
  -13.9692  -10.2431    7.1440 C   0  0  0  0  0  0  0  0  0  0  0  0
  -14.6256   -9.5932    5.9806 C   0  0  0  0  0  0  0  0  0  0  0  0
  -13.5964   -8.8879    5.1021 C   0  0  0  0  0  0  0  0  0  0  0  0
  -12.6908   -8.1019    6.0264 C   0  0  0  0  0  0  0  0  0  0  0  0
  -15.6621   -8.6159    6.4119 C   0  0  0  0  0  0  0  0  0  0  0  0
  -16.0899   -8.2459    7.6619 C   0  0  0  0  0  0  0  0  0  0  0  0
  -17.0416   -7.3015    7.5017 N   0  0  0  0  0  0  0  0  0  0  0  0
  -17.2539   -7.0396    6.2169 C   0  0  0  0  0  0  0  0  0  0  0  0
  -18.1040   -6.1782    5.5176 C   0  0  0  0  0  0  0  0  0  0  0  0
  -18.0874   -6.1441    4.1463 C   0  0  0  0  0  0  0  0  0  0  0  0
  -17.2429   -6.9481    3.4143 C   0  0  0  0  0  0  0  0  0  0  0  0
  -17.2298   -6.9108    2.0438 F   0  0  0  0  0  0  0  0  0  0  0  0
  -16.4046   -7.7976    4.1123 C   0  0  0  0  0  0  0  0  0  0  0  0
  -16.4030   -7.8488    5.5002 C   0  0  0  0  0  0  0  0  0  0  0  0
  -17.5475   -6.8366    8.3007 H   0  0  0  0  0  0  0  0  0  0  0  0
  -10.7150   -8.2943    7.7583 S   0  0  0  0  0  0  0  0  0  0  0  0
   -9.5758   -7.7551    6.9311 O   0  0  0  0  0  0  0  0  0  0  0  0
  -10.1170   -9.3744    8.6219 O   0  0  0  0  0  0  0  0  0  0  0  0
  -12.4027   -4.9515   10.3694 C   0  0  0  0  0  0  0  0  0  0  0  0
  -13.2392   -5.7462    9.6248 C   0  0  0  0  0  0  0  0  0  0  0  0
  -12.7759   -6.7838    8.8071 C   0  0  0  0  0  0  0  0  0  0  0  0
  -11.4203   -7.0303    8.7362 C   0  0  0  0  0  0  0  0  0  0  0  0
  -10.5565   -6.2467    9.4739 C   0  0  0  0  0  0  0  0  0  0  0  0
  -11.0356   -5.2278   10.2748 C   0  0  0  0  0  0  0  0  0  0  0  0
  -12.9670   -2.6055   10.6934 C   0  0  0  0  0  0  0  0  0  0  0  0
  -12.8675   -3.9245   11.1790 O   0  0  0  0  0  0  0  0  0  0  0  0
 27 28  1  0  0  0
 28 21  1  0  0  0
 21 22  2  0  0  0
 22 23  1  0  0  0
 23 24  2  0  0  0
 24 25  1  0  0  0
 25 26  2  0  0  0
 24 18  1  0  0  0
 18 19  2  0  0  0
 18 20  2  0  0  0
 18  1  1  0  0  0
  1  2  1  0  0  0
  2  3  1  0  0  0
  3  4  1  0  0  0
  4  5  1  0  0  0
  5  6  1  0  0  0
  4  7  1  0  0  0
  7  8  2  0  0  0
  8  9  1  0  0  0
  9 10  1  0  0  0
 10 11  2  0  0  0
 11 12  1  0  0  0
 12 13  2  0  0  0
 13 14  1  0  0  0
 13 15  1  0  0  0
 15 16  2  0  0  0
 26 21  1  0  0  0
  6  1  1  0  0  0
 16  7  1  0  0  0
 16 10  1  0  0  0
  9 17  1  0  0  0
M  END
> <minimizedAffinity>
-0.86423

> <CNNscore>
0.3862647712

> <CNNaffinity>
6.7009973526

> <CNN_VS>
2.5883591175

> <CNNaffinity_variance>
0.2205917537

$$$$
[H]c1c([H])c(S(=O)(=O)N2C([H])([H])C([H])([H])C([H])(c3c([H])n([H])c4c([H])c([H])c(F)c([H])c34)C([H])([H])C2([H])[H])c([H])c([H])c1OC([H])([H])[H]


 28 31  0  0  0  0  0  0  0  0999 V2000
  -15.1098   -8.6017    7.3029 N   0  0  0  0  0  0  0  0  0  0  0  0
  -14.3011   -9.7349    7.5518 C   0  0  0  0  0  0  0  0  0  0  0  0
  -13.0475   -9.5374    8.3175 C   0  0  0  0  0  0  0  0  0  0  0  0
  -13.0568   -8.5073    9.3878 C   0  0  0  0  0  0  0  0  0  0  0  0
  -14.3931   -7.7712    9.4196 C   0  0  0  0  0  0  0  0  0  0  0  0
  -14.7344   -7.4127    7.9888 C   0  0  0  0  0  0  0  0  0  0  0  0
  -11.9533   -7.5242    9.2114 C   0  0  0  0  0  0  0  0  0  0  0  0
  -11.8054   -6.2404    9.6721 C   0  0  0  0  0  0  0  0  0  0  0  0
  -10.6053   -5.7920    9.2452 N   0  0  0  0  0  0  0  0  0  0  0  0
   -9.9679   -6.7147    8.5333 C   0  0  0  0  0  0  0  0  0  0  0  0
   -8.7360   -6.7699    7.8754 C   0  0  0  0  0  0  0  0  0  0  0  0
   -8.3554   -7.9029    7.2022 C   0  0  0  0  0  0  0  0  0  0  0  0
   -9.1633   -9.0165    7.1487 C   0  0  0  0  0  0  0  0  0  0  0  0
   -8.7790  -10.1468    6.4744 F   0  0  0  0  0  0  0  0  0  0  0  0
  -10.3804   -8.9553    7.8017 C   0  0  0  0  0  0  0  0  0  0  0  0
  -10.7864   -7.8196    8.4904 C   0  0  0  0  0  0  0  0  0  0  0  0
  -10.2299   -4.8300    9.4545 H   0  0  0  0  0  0  0  0  0  0  0  0
  -15.5981   -8.3698    5.6914 S   0  0  0  0  0  0  0  0  0  0  0  0
  -17.0058   -8.8843    5.5288 O   0  0  0  0  0  0  0  0  0  0  0  0
  -14.7402   -9.2433    4.8133 O   0  0  0  0  0  0  0  0  0  0  0  0
  -15.1532   -4.0137    4.4003 C   0  0  0  0  0  0  0  0  0  0  0  0
  -16.3852   -4.5219    4.7312 C   0  0  0  0  0  0  0  0  0  0  0  0
  -16.5789   -5.8491    5.1325 C   0  0  0  0  0  0  0  0  0  0  0  0
  -15.4921   -6.6960    5.2030 C   0  0  0  0  0  0  0  0  0  0  0  0
  -14.2419   -6.2118    4.8758 C   0  0  0  0  0  0  0  0  0  0  0  0
  -14.0736   -4.8980    4.4825 C   0  0  0  0  0  0  0  0  0  0  0  0
  -14.4673   -1.7320    4.9010 C   0  0  0  0  0  0  0  0  0  0  0  0
  -14.9667   -2.6969    4.0037 O   0  0  0  0  0  0  0  0  0  0  0  0
 27 28  1  0  0  0
 28 21  1  0  0  0
 21 22  2  0  0  0
 22 23  1  0  0  0
 23 24  2  0  0  0
 24 25  1  0  0  0
 25 26  2  0  0  0
 24 18  1  0  0  0
 18 19  2  0  0  0
 18 20  2  0  0  0
 18  1  1  0  0  0
  1  2  1  0  0  0
  2  3  1  0  0  0
  3  4  1  0  0  0
  4  5  1  0  0  0
  5  6  1  0  0  0
  4  7  1  0  0  0
  7  8  2  0  0  0
  8  9  1  0  0  0
  9 10  1  0  0  0
 10 11  2  0  0  0
 11 12  1  0  0  0
 12 13  2  0  0  0
 13 14  1  0  0  0
 13 15  1  0  0  0
 15 16  2  0  0  0
 26 21  1  0  0  0
  6  1  1  0  0  0
 16  7  1  0  0  0
 16 10  1  0  0  0
  9 17  1  0  0  0
M  END
> <minimizedAffinity>
-6.27074

> <CNNscore>
0.3804366589

> <CNNaffinity>
6.8373274803

> <CNN_VS>
2.6011700630

> <CNNaffinity_variance>
0.1490568370

$$$$
[H]c1c([H])c(S(=O)(=O)N2C([H])([H])C([H])([H])C([H])(c3c([H])n([H])c4c([H])c([H])c(F)c([H])c34)C([H])([H])C2([H])[H])c([H])c([H])c1OC([H])([H])[H]


 28 31  0  0  0  0  0  0  0  0999 V2000
  -11.1202   -8.5855    8.4644 N   0  0  0  0  0  0  0  0  0  0  0  0
  -11.2278   -7.1805    8.3449 C   0  0  0  0  0  0  0  0  0  0  0  0
  -12.5863   -6.5878    8.3291 C   0  0  0  0  0  0  0  0  0  0  0  0
  -13.6261   -7.2429    9.1636 C   0  0  0  0  0  0  0  0  0  0  0  0
  -13.0746   -8.5014    9.8273 C   0  0  0  0  0  0  0  0  0  0  0  0
  -12.3301   -9.2743    8.7595 C   0  0  0  0  0  0  0  0  0  0  0  0
  -14.8311   -7.5923    8.3628 C   0  0  0  0  0  0  0  0  0  0  0  0
  -15.9217   -8.3682    8.6639 C   0  0  0  0  0  0  0  0  0  0  0  0
  -16.7441   -8.3451    7.5931 N   0  0  0  0  0  0  0  0  0  0  0  0
  -16.2460   -7.5970    6.6150 C   0  0  0  0  0  0  0  0  0  0  0  0
  -16.6731   -7.2482    5.3306 C   0  0  0  0  0  0  0  0  0  0  0  0
  -15.9045   -6.4345    4.5375 C   0  0  0  0  0  0  0  0  0  0  0  0
  -14.6964   -5.9362    4.9708 C   0  0  0  0  0  0  0  0  0  0  0  0
  -13.9314   -5.1233    4.1746 F   0  0  0  0  0  0  0  0  0  0  0  0
  -14.2801   -6.2849    6.2422 C   0  0  0  0  0  0  0  0  0  0  0  0
  -15.0416   -7.1064    7.0634 C   0  0  0  0  0  0  0  0  0  0  0  0
  -17.6629   -8.8590    7.5475 H   0  0  0  0  0  0  0  0  0  0  0  0
  -10.1194   -9.3590    7.3291 S   0  0  0  0  0  0  0  0  0  0  0  0
  -10.9318   -9.6798    6.1004 O   0  0  0  0  0  0  0  0  0  0  0  0
   -9.7038  -10.6889    7.9025 O   0  0  0  0  0  0  0  0  0  0  0  0
   -6.3861   -6.9805    6.2127 C   0  0  0  0  0  0  0  0  0  0  0  0
   -7.5350   -6.3361    6.6007 C   0  0  0  0  0  0  0  0  0  0  0  0
   -8.7075   -7.0151    6.9526 C   0  0  0  0  0  0  0  0  0  0  0  0
   -8.7242   -8.3941    6.9122 C   0  0  0  0  0  0  0  0  0  0  0  0
   -7.5834   -9.0678    6.5256 C   0  0  0  0  0  0  0  0  0  0  0  0
   -6.4369   -8.3772    6.1827 C   0  0  0  0  0  0  0  0  0  0  0  0
   -4.1212   -6.2590    6.7389 C   0  0  0  0  0  0  0  0  0  0  0  0
   -5.2261   -6.3023    5.8655 O   0  0  0  0  0  0  0  0  0  0  0  0
 27 28  1  0  0  0
 28 21  1  0  0  0
 21 22  2  0  0  0
 22 23  1  0  0  0
 23 24  2  0  0  0
 24 25  1  0  0  0
 25 26  2  0  0  0
 24 18  1  0  0  0
 18 19  2  0  0  0
 18 20  2  0  0  0
 18  1  1  0  0  0
  1  2  1  0  0  0
  2  3  1  0  0  0
  3  4  1  0  0  0
  4  5  1  0  0  0
  5  6  1  0  0  0
  4  7  1  0  0  0
  7  8  2  0  0  0
  8  9  1  0  0  0
  9 10  1  0  0  0
 10 11  2  0  0  0
 11 12  1  0  0  0
 12 13  2  0  0  0
 13 14  1  0  0  0
 13 15  1  0  0  0
 15 16  2  0  0  0
 26 21  1  0  0  0
  6  1  1  0  0  0
 16  7  1  0  0  0
 16 10  1  0  0  0
  9 17  1  0  0  0
M  END
> <minimizedAffinity>
-7.65931

> <CNNscore>
0.3767812550

> <CNNaffinity>
6.9766678810

> <CNN_VS>
2.6286776066

> <CNNaffinity_variance>
0.1735937893

$$$$
[H]c1c([H])c(S(=O)(=O)N2C([H])([H])C([H])([H])N(c3c([H])c([H])c(C(F)(F)F)c([H])c3[H])C([H])([H])C2([H])[H])c([H])c([H])c1OC([H])([H])[H]


 27 29  0  0  0  0  0  0  0  0999 V2000
  -11.8645   -8.8434    8.1447 N   0  0  0  0  0  0  0  0  0  0  0  0
  -11.8318   -9.8426    7.1627 C   0  0  0  0  0  0  0  0  0  0  0  0
  -12.8299   -9.3920    6.0382 C   0  0  0  0  0  0  0  0  0  0  0  0
  -14.0362   -8.9743    6.7170 N   0  0  0  0  0  0  0  0  0  0  0  0
  -14.2364   -9.3702    8.0959 C   0  0  0  0  0  0  0  0  0  0  0  0
  -13.0536   -8.8138    8.8941 C   0  0  0  0  0  0  0  0  0  0  0  0
  -15.0118   -8.1524    6.0512 C   0  0  0  0  0  0  0  0  0  0  0  0
  -16.1637   -7.8136    6.7146 C   0  0  0  0  0  0  0  0  0  0  0  0
  -17.1023   -6.9885    6.1445 C   0  0  0  0  0  0  0  0  0  0  0  0
  -16.9461   -6.4585    4.8949 C   0  0  0  0  0  0  0  0  0  0  0  0
  -15.7862   -6.7869    4.1908 C   0  0  0  0  0  0  0  0  0  0  0  0
  -14.8285   -7.6308    4.7771 C   0  0  0  0  0  0  0  0  0  0  0  0
  -17.9705   -5.5516    4.3065 C   0  0  0  0  0  0  0  0  0  0  0  0
  -18.3045   -4.5951    5.2648 F   0  0  0  0  0  0  0  0  0  0  0  0
  -19.1285   -6.2000    3.9396 F   0  0  0  0  0  0  0  0  0  0  0  0
  -17.3775   -4.8963    3.2482 F   0  0  0  0  0  0  0  0  0  0  0  0
  -10.7537   -7.6804    8.2472 S   0  0  0  0  0  0  0  0  0  0  0  0
  -10.6716   -7.1187    9.6720 O   0  0  0  0  0  0  0  0  0  0  0  0
  -11.1879   -6.3834    7.4586 O   0  0  0  0  0  0  0  0  0  0  0  0
   -6.4211   -8.1744    6.7885 C   0  0  0  0  0  0  0  0  0  0  0  0
   -7.0512   -9.2128    7.4376 C   0  0  0  0  0  0  0  0  0  0  0  0
   -8.3713   -9.1051    7.9012 C   0  0  0  0  0  0  0  0  0  0  0  0
   -9.1075   -7.9886    7.7405 C   0  0  0  0  0  0  0  0  0  0  0  0
   -8.4421   -6.9315    7.0712 C   0  0  0  0  0  0  0  0  0  0  0  0
   -7.1579   -7.0212    6.6195 C   0  0  0  0  0  0  0  0  0  0  0  0
   -3.9602   -7.9327    6.9841 C   0  0  0  0  0  0  0  0  0  0  0  0
   -5.1268   -8.3234    6.3399 O   0  0  0  0  0  0  0  0  0  0  0  0
 26 27  1  0  0  0
 27 20  1  0  0  0
 20 21  2  0  0  0
 21 22  1  0  0  0
 22 23  2  0  0  0
 23 24  1  0  0  0
 24 25  2  0  0  0
 23 17  1  0  0  0
 17 18  2  0  0  0
 17 19  2  0  0  0
 17  1  1  0  0  0
  1  2  1  0  0  0
  2  3  1  0  0  0
  3  4  1  0  0  0
  4  5  1  0  0  0
  5  6  1  0  0  0
  4  7  1  0  0  0
  7  8  2  0  0  0
  8  9  1  0  0  0
  9 10  2  0  0  0
 10 11  1  0  0  0
 11 12  2  0  0  0
 10 13  1  0  0  0
 13 14  1  0  0  0
 13 15  1  0  0  0
 13 16  1  0  0  0
 25 20  1  0  0  0
  6  1  1  0  0  0
 12  7  1  0  0  0
M  END
> <minimizedAffinity>
-8.58344

> <CNNscore>
0.6117738485

> <CNNaffinity>
6.7332086563

> <CNN_VS>
4.1192011833

> <CNNaffinity_variance>
0.0168456975

$$$$
[H]c1c([H])c(S(=O)(=O)N2C([H])([H])C([H])([H])N(c3c([H])c([H])c(C(F)(F)F)c([H])c3[H])C([H])([H])C2([H])[H])c([H])c([H])c1OC([H])([H])[H]


 27 29  0  0  0  0  0  0  0  0999 V2000
  -16.7989   -7.9681    4.3016 N   0  0  0  0  0  0  0  0  0  0  0  0
  -17.5556   -8.6458    5.2670 C   0  0  0  0  0  0  0  0  0  0  0  0
  -16.9110   -8.3032    6.6565 C   0  0  0  0  0  0  0  0  0  0  0  0
  -15.4851   -8.4749    6.4900 N   0  0  0  0  0  0  0  0  0  0  0  0
  -14.9986   -9.2211    5.3478 C   0  0  0  0  0  0  0  0  0  0  0  0
  -15.5162   -8.5057    4.0964 C   0  0  0  0  0  0  0  0  0  0  0  0
  -14.5567   -7.8906    7.4213 C   0  0  0  0  0  0  0  0  0  0  0  0
  -13.3142   -7.5146    6.9782 C   0  0  0  0  0  0  0  0  0  0  0  0
  -12.4104   -6.9043    7.8133 C   0  0  0  0  0  0  0  0  0  0  0  0
  -12.6921   -6.6354    9.1230 C   0  0  0  0  0  0  0  0  0  0  0  0
  -13.9471   -7.0092    9.6069 C   0  0  0  0  0  0  0  0  0  0  0  0
  -14.8689   -7.6329    8.7499 C   0  0  0  0  0  0  0  0  0  0  0  0
  -11.7011   -5.9561   10.0029 C   0  0  0  0  0  0  0  0  0  0  0  0
  -10.4368   -6.1161    9.4365 F   0  0  0  0  0  0  0  0  0  0  0  0
  -11.6578   -6.4731   11.2784 F   0  0  0  0  0  0  0  0  0  0  0  0
  -11.9989   -4.6099    9.9917 F   0  0  0  0  0  0  0  0  0  0  0  0
  -17.2544   -6.5608    3.6622 S   0  0  0  0  0  0  0  0  0  0  0  0
  -18.7097   -6.2359    4.0214 O   0  0  0  0  0  0  0  0  0  0  0  0
  -17.3642   -6.6394    2.0892 O   0  0  0  0  0  0  0  0  0  0  0  0
  -14.7246   -2.8902    4.7889 C   0  0  0  0  0  0  0  0  0  0  0  0
  -15.4305   -2.9026    3.6064 C   0  0  0  0  0  0  0  0  0  0  0  0
  -16.2134   -4.0019    3.2221 C   0  0  0  0  0  0  0  0  0  0  0  0
  -16.3299   -5.1096    3.9797 C   0  0  0  0  0  0  0  0  0  0  0  0
  -15.5962   -5.0782    5.1916 C   0  0  0  0  0  0  0  0  0  0  0  0
  -14.8278   -4.0182    5.5753 C   0  0  0  0  0  0  0  0  0  0  0  0
  -14.1694   -0.9409    6.2188 C   0  0  0  0  0  0  0  0  0  0  0  0
  -13.9749   -1.7870    5.1349 O   0  0  0  0  0  0  0  0  0  0  0  0
 26 27  1  0  0  0
 27 20  1  0  0  0
 20 21  2  0  0  0
 21 22  1  0  0  0
 22 23  2  0  0  0
 23 24  1  0  0  0
 24 25  2  0  0  0
 23 17  1  0  0  0
 17 18  2  0  0  0
 17 19  2  0  0  0
 17  1  1  0  0  0
  1  2  1  0  0  0
  2  3  1  0  0  0
  3  4  1  0  0  0
  4  5  1  0  0  0
  5  6  1  0  0  0
  4  7  1  0  0  0
  7  8  2  0  0  0
  8  9  1  0  0  0
  9 10  2  0  0  0
 10 11  1  0  0  0
 11 12  2  0  0  0
 10 13  1  0  0  0
 13 14  1  0  0  0
 13 15  1  0  0  0
 13 16  1  0  0  0
 25 20  1  0  0  0
  6  1  1  0  0  0
 12  7  1  0  0  0
M  END
> <minimizedAffinity>
-1.20031

> <CNNscore>
0.6096627712

> <CNNaffinity>
6.8277983665

> <CNN_VS>
4.1626543999

> <CNNaffinity_variance>
0.1707981229

$$$$
[H]c1c([H])c(S(=O)(=O)N2C([H])([H])C([H])([H])N(c3c([H])c([H])c(C(F)(F)F)c([H])c3[H])C([H])([H])C2([H])[H])c([H])c([H])c1OC([H])([H])[H]


 27 29  0  0  0  0  0  0  0  0999 V2000
  -14.0428   -6.5368    8.1190 N   0  0  0  0  0  0  0  0  0  0  0  0
  -15.2633   -6.9273    8.6861 C   0  0  0  0  0  0  0  0  0  0  0  0
  -15.8911   -7.9801    7.7057 C   0  0  0  0  0  0  0  0  0  0  0  0
  -15.7669   -7.4169    6.3799 N   0  0  0  0  0  0  0  0  0  0  0  0
  -15.4924   -6.0012    6.2436 C   0  0  0  0  0  0  0  0  0  0  0  0
  -14.1733   -5.7320    6.9737 C   0  0  0  0  0  0  0  0  0  0  0  0
  -15.8810   -8.2477    5.2106 C   0  0  0  0  0  0  0  0  0  0  0  0
  -14.7415   -8.6295    4.5492 C   0  0  0  0  0  0  0  0  0  0  0  0
  -14.7914   -9.4646    3.4597 C   0  0  0  0  0  0  0  0  0  0  0  0
  -15.9676   -9.9628    2.9747 C   0  0  0  0  0  0  0  0  0  0  0  0
  -17.1467   -9.5902    3.6227 C   0  0  0  0  0  0  0  0  0  0  0  0
  -17.0918   -8.7362    4.7366 C   0  0  0  0  0  0  0  0  0  0  0  0
  -15.9930  -10.8814    1.8027 C   0  0  0  0  0  0  0  0  0  0  0  0
  -16.1678  -12.1819    2.2748 F   0  0  0  0  0  0  0  0  0  0  0  0
  -14.8319  -10.8560    1.0631 F   0  0  0  0  0  0  0  0  0  0  0  0
  -17.1019  -10.5551    1.0509 F   0  0  0  0  0  0  0  0  0  0  0  0
  -12.6263   -7.1491    8.5835 S   0  0  0  0  0  0  0  0  0  0  0  0
  -11.5849   -7.0448    7.4624 O   0  0  0  0  0  0  0  0  0  0  0  0
  -12.6942   -8.7167    8.7589 O   0  0  0  0  0  0  0  0  0  0  0  0
  -10.8934   -5.5806   12.5434 C   0  0  0  0  0  0  0  0  0  0  0  0
  -10.0501   -5.9080   11.5049 C   0  0  0  0  0  0  0  0  0  0  0  0
  -10.5352   -6.3919   10.2803 C   0  0  0  0  0  0  0  0  0  0  0  0
  -11.8490   -6.5640   10.0378 C   0  0  0  0  0  0  0  0  0  0  0  0
  -12.7005   -6.2225   11.1178 C   0  0  0  0  0  0  0  0  0  0  0  0
  -12.2420   -5.7554   12.3149 C   0  0  0  0  0  0  0  0  0  0  0  0
   -9.0683   -5.1967   14.1785 C   0  0  0  0  0  0  0  0  0  0  0  0
  -10.3780   -5.0993   13.7271 O   0  0  0  0  0  0  0  0  0  0  0  0
 26 27  1  0  0  0
 27 20  1  0  0  0
 20 21  2  0  0  0
 21 22  1  0  0  0
 22 23  2  0  0  0
 23 24  1  0  0  0
 24 25  2  0  0  0
 23 17  1  0  0  0
 17 18  2  0  0  0
 17 19  2  0  0  0
 17  1  1  0  0  0
  1  2  1  0  0  0
  2  3  1  0  0  0
  3  4  1  0  0  0
  4  5  1  0  0  0
  5  6  1  0  0  0
  4  7  1  0  0  0
  7  8  2  0  0  0
  8  9  1  0  0  0
  9 10  2  0  0  0
 10 11  1  0  0  0
 11 12  2  0  0  0
 10 13  1  0  0  0
 13 14  1  0  0  0
 13 15  1  0  0  0
 13 16  1  0  0  0
 25 20  1  0  0  0
  6  1  1  0  0  0
 12  7  1  0  0  0
M  END
> <minimizedAffinity>
15.01110

> <CNNscore>
0.4840740263

> <CNNaffinity>
6.3062090874

> <CNN_VS>
3.0526719093

> <CNNaffinity_variance>
1.8716886044

$$$$
[H]c1c([H])c(S(=O)(=O)N2C([H])([H])C([H])([H])N(c3c([H])c([H])c(C(F)(F)F)c([H])c3[H])C([H])([H])C2([H])[H])c([H])c([H])c1OC([H])([H])[H]


 27 29  0  0  0  0  0  0  0  0999 V2000
   -3.0783   -4.7756    6.4195 N   0  0  0  0  0  0  0  0  0  0  0  0
   -2.1885   -3.6969    6.3278 C   0  0  0  0  0  0  0  0  0  0  0  0
   -1.5276   -3.5456    7.7434 C   0  0  0  0  0  0  0  0  0  0  0  0
   -2.6095   -3.6132    8.7001 N   0  0  0  0  0  0  0  0  0  0  0  0
   -3.9684   -3.4266    8.2344 C   0  0  0  0  0  0  0  0  0  0  0  0
   -4.2293   -4.5072    7.1809 C   0  0  0  0  0  0  0  0  0  0  0  0
   -2.3522   -3.8923   10.0881 C   0  0  0  0  0  0  0  0  0  0  0  0
   -2.3096   -2.8522   10.9814 C   0  0  0  0  0  0  0  0  0  0  0  0
   -2.1202   -3.0689   12.3245 C   0  0  0  0  0  0  0  0  0  0  0  0
   -1.9664   -4.3218   12.8475 C   0  0  0  0  0  0  0  0  0  0  0  0
   -2.0005   -5.4025   11.9645 C   0  0  0  0  0  0  0  0  0  0  0  0
   -2.1946   -5.1771   10.5916 C   0  0  0  0  0  0  0  0  0  0  0  0
   -1.7805   -4.5311   14.3103 C   0  0  0  0  0  0  0  0  0  0  0  0
   -3.0415   -4.6100   14.9007 F   0  0  0  0  0  0  0  0  0  0  0  0
   -1.0924   -3.5094   14.9256 F   0  0  0  0  0  0  0  0  0  0  0  0
   -1.1632   -5.7532   14.4736 F   0  0  0  0  0  0  0  0  0  0  0  0
   -2.7095   -6.2598    5.9115 S   0  0  0  0  0  0  0  0  0  0  0  0
   -1.6572   -6.2167    4.7966 O   0  0  0  0  0  0  0  0  0  0  0  0
   -3.9113   -6.9304    5.1376 O   0  0  0  0  0  0  0  0  0  0  0  0
   -1.4337   -9.6824    8.7046 C   0  0  0  0  0  0  0  0  0  0  0  0
   -1.1406   -8.3782    9.0361 C   0  0  0  0  0  0  0  0  0  0  0  0
   -1.5090   -7.3033    8.2126 C   0  0  0  0  0  0  0  0  0  0  0  0
   -2.1728   -7.4727    7.0528 C   0  0  0  0  0  0  0  0  0  0  0  0
   -2.4648   -8.8209    6.7287 C   0  0  0  0  0  0  0  0  0  0  0  0
   -2.1086   -9.8754    7.5178 C   0  0  0  0  0  0  0  0  0  0  0  0
   -1.3083  -12.0661    9.3789 C   0  0  0  0  0  0  0  0  0  0  0  0
   -1.0631  -10.7093    9.5452 O   0  0  0  0  0  0  0  0  0  0  0  0
 26 27  1  0  0  0
 27 20  1  0  0  0
 20 21  2  0  0  0
 21 22  1  0  0  0
 22 23  2  0  0  0
 23 24  1  0  0  0
 24 25  2  0  0  0
 23 17  1  0  0  0
 17 18  2  0  0  0
 17 19  2  0  0  0
 17  1  1  0  0  0
  1  2  1  0  0  0
  2  3  1  0  0  0
  3  4  1  0  0  0
  4  5  1  0  0  0
  5  6  1  0  0  0
  4  7  1  0  0  0
  7  8  2  0  0  0
  8  9  1  0  0  0
  9 10  2  0  0  0
 10 11  1  0  0  0
 11 12  2  0  0  0
 10 13  1  0  0  0
 13 14  1  0  0  0
 13 15  1  0  0  0
 13 16  1  0  0  0
 25 20  1  0  0  0
  6  1  1  0  0  0
 12  7  1  0  0  0
M  END
> <minimizedAffinity>
-1.40730

> <CNNscore>
0.4507192969

> <CNNaffinity>
5.0284433365

> <CNN_VS>
2.2664165497

> <CNNaffinity_variance>
1.0605466366

$$$$
[H]c1c([H])c(S(=O)(=O)N2C([H])([H])C([H])([H])N(c3c([H])c([H])c(C(F)(F)F)c([H])c3[H])C([H])([H])C2([H])[H])c([H])c([H])c1OC([H])([H])[H]


 27 29  0  0  0  0  0  0  0  0999 V2000
   -6.8689   -6.7180    7.3836 N   0  0  0  0  0  0  0  0  0  0  0  0
   -7.8475   -6.8605    8.3764 C   0  0  0  0  0  0  0  0  0  0  0  0
   -8.3863   -8.3302    8.2602 C   0  0  0  0  0  0  0  0  0  0  0  0
   -8.6324   -8.5568    6.8537 N   0  0  0  0  0  0  0  0  0  0  0  0
   -8.7142   -7.4161    5.9647 C   0  0  0  0  0  0  0  0  0  0  0  0
   -7.3812   -6.6701    6.0753 C   0  0  0  0  0  0  0  0  0  0  0  0
   -8.7634   -9.8915    6.3321 C   0  0  0  0  0  0  0  0  0  0  0  0
   -8.4612  -10.1260    5.0148 C   0  0  0  0  0  0  0  0  0  0  0  0
   -8.5186  -11.3903    4.4809 C   0  0  0  0  0  0  0  0  0  0  0  0
   -8.8746  -12.4810    5.2230 C   0  0  0  0  0  0  0  0  0  0  0  0
   -9.1925  -12.2760    6.5668 C   0  0  0  0  0  0  0  0  0  0  0  0
   -9.1325  -10.9817    7.1094 C   0  0  0  0  0  0  0  0  0  0  0  0
   -8.9115  -13.8442    4.6246 C   0  0  0  0  0  0  0  0  0  0  0  0
   -7.7968  -14.5479    5.0799 F   0  0  0  0  0  0  0  0  0  0  0  0
   -8.8706  -13.8384    3.2483 F   0  0  0  0  0  0  0  0  0  0  0  0
  -10.0353  -14.4757    5.1140 F   0  0  0  0  0  0  0  0  0  0  0  0
   -5.2910   -6.8440    7.6856 S   0  0  0  0  0  0  0  0  0  0  0  0
   -4.9184   -8.2759    8.0900 O   0  0  0  0  0  0  0  0  0  0  0  0
   -4.8808   -6.0662    8.9970 O   0  0  0  0  0  0  0  0  0  0  0  0
   -2.4059   -5.2628    4.4732 C   0  0  0  0  0  0  0  0  0  0  0  0
   -2.1556   -6.4688    5.0894 C   0  0  0  0  0  0  0  0  0  0  0  0
   -3.0077   -6.9882    6.0760 C   0  0  0  0  0  0  0  0  0  0  0  0
   -4.1221   -6.3492    6.4813 C   0  0  0  0  0  0  0  0  0  0  0  0
   -4.3623   -5.1104    5.8366 C   0  0  0  0  0  0  0  0  0  0  0  0
   -3.5400   -4.5918    4.8794 C   0  0  0  0  0  0  0  0  0  0  0  0
   -1.2875   -5.3584    2.2614 C   0  0  0  0  0  0  0  0  0  0  0  0
   -1.5496   -4.7919    3.5019 O   0  0  0  0  0  0  0  0  0  0  0  0
 26 27  1  0  0  0
 27 20  1  0  0  0
 20 21  2  0  0  0
 21 22  1  0  0  0
 22 23  2  0  0  0
 23 24  1  0  0  0
 24 25  2  0  0  0
 23 17  1  0  0  0
 17 18  2  0  0  0
 17 19  2  0  0  0
 17  1  1  0  0  0
  1  2  1  0  0  0
  2  3  1  0  0  0
  3  4  1  0  0  0
  4  5  1  0  0  0
  5  6  1  0  0  0
  4  7  1  0  0  0
  7  8  2  0  0  0
  8  9  1  0  0  0
  9 10  2  0  0  0
 10 11  1  0  0  0
 11 12  2  0  0  0
 10 13  1  0  0  0
 13 14  1  0  0  0
 13 15  1  0  0  0
 13 16  1  0  0  0
 25 20  1  0  0  0
  6  1  1  0  0  0
 12  7  1  0  0  0
M  END
> <minimizedAffinity>
11.42743

> <CNNscore>
0.4461538196

> <CNNaffinity>
5.6885995865

> <CNN_VS>
2.5379903316

> <CNNaffinity_variance>
0.8847123384

$$$$
[H]c1c([H])c(S(=O)(=O)N2C([H])([H])C([H])([H])N(c3c([H])c([H])c(C(F)(F)F)c([H])c3[H])C([H])([H])C2([H])[H])c([H])c([H])c1OC([H])([H])[H]


 27 29  0  0  0  0  0  0  0  0999 V2000
   -2.7719   -4.2985    5.7429 N   0  0  0  0  0  0  0  0  0  0  0  0
   -1.8829   -3.2164    5.6927 C   0  0  0  0  0  0  0  0  0  0  0  0
   -1.3557   -3.0074    7.1563 C   0  0  0  0  0  0  0  0  0  0  0  0
   -2.5207   -3.0487    8.0116 N   0  0  0  0  0  0  0  0  0  0  0  0
   -3.8319   -2.8910    7.4165 C   0  0  0  0  0  0  0  0  0  0  0  0
   -3.9894   -4.0118    6.3848 C   0  0  0  0  0  0  0  0  0  0  0  0
   -2.3907   -3.2742    9.4268 C   0  0  0  0  0  0  0  0  0  0  0  0
   -2.2442   -2.1973   10.2637 C   0  0  0  0  0  0  0  0  0  0  0  0
   -2.1691   -2.3540   11.6262 C   0  0  0  0  0  0  0  0  0  0  0  0
   -2.2375   -3.5802   12.2252 C   0  0  0  0  0  0  0  0  0  0  0  0
   -2.3825   -4.6978   11.4013 C   0  0  0  0  0  0  0  0  0  0  0  0
   -2.4591   -4.5337   10.0083 C   0  0  0  0  0  0  0  0  0  0  0  0
   -2.1720   -3.7215   13.7063 C   0  0  0  0  0  0  0  0  0  0  0  0
   -1.5640   -4.9420   13.9990 F   0  0  0  0  0  0  0  0  0  0  0  0
   -3.4088   -3.7130   14.3114 F   0  0  0  0  0  0  0  0  0  0  0  0
   -1.3501   -2.7195   14.1770 F   0  0  0  0  0  0  0  0  0  0  0  0
   -2.3505   -5.7973    5.3269 S   0  0  0  0  0  0  0  0  0  0  0  0
   -1.0631   -5.7981    4.4933 O   0  0  0  0  0  0  0  0  0  0  0  0
   -3.3595   -6.4227    4.2859 O   0  0  0  0  0  0  0  0  0  0  0  0
   -1.9379   -9.2544    8.3304 C   0  0  0  0  0  0  0  0  0  0  0  0
   -1.5632   -7.9796    8.6928 C   0  0  0  0  0  0  0  0  0  0  0  0
   -1.6700   -6.8958    7.8079 C   0  0  0  0  0  0  0  0  0  0  0  0
   -2.1465   -7.0270    6.5548 C   0  0  0  0  0  0  0  0  0  0  0  0
   -2.5262   -8.3454    6.2004 C   0  0  0  0  0  0  0  0  0  0  0  0
   -2.4234   -9.4086    7.0491 C   0  0  0  0  0  0  0  0  0  0  0  0
   -1.0865  -11.4568    9.0898 C   0  0  0  0  0  0  0  0  0  0  0  0
   -1.8265  -10.2903    9.2321 O   0  0  0  0  0  0  0  0  0  0  0  0
 26 27  1  0  0  0
 27 20  1  0  0  0
 20 21  2  0  0  0
 21 22  1  0  0  0
 22 23  2  0  0  0
 23 24  1  0  0  0
 24 25  2  0  0  0
 23 17  1  0  0  0
 17 18  2  0  0  0
 17 19  2  0  0  0
 17  1  1  0  0  0
  1  2  1  0  0  0
  2  3  1  0  0  0
  3  4  1  0  0  0
  4  5  1  0  0  0
  5  6  1  0  0  0
  4  7  1  0  0  0
  7  8  2  0  0  0
  8  9  1  0  0  0
  9 10  2  0  0  0
 10 11  1  0  0  0
 11 12  2  0  0  0
 10 13  1  0  0  0
 13 14  1  0  0  0
 13 15  1  0  0  0
 13 16  1  0  0  0
 25 20  1  0  0  0
  6  1  1  0  0  0
 12  7  1  0  0  0
M  END
> <minimizedAffinity>
-0.24485

> <CNNscore>
0.4407336414

> <CNNaffinity>
4.8815317154

> <CNN_VS>
2.1514551640

> <CNNaffinity_variance>
0.9142656326

$$$$
[H]c1c([H])c(S(=O)(=O)N2C([H])([H])C([H])([H])N(c3c([H])c([H])c(C(F)(F)F)c([H])c3[H])C([H])([H])C2([H])[H])c([H])c([H])c1OC([H])([H])[H]


 27 29  0  0  0  0  0  0  0  0999 V2000
  -10.3794   -8.5294    8.0619 N   0  0  0  0  0  0  0  0  0  0  0  0
  -10.3491   -9.7071    7.3030 C   0  0  0  0  0  0  0  0  0  0  0  0
  -11.4902   -9.5747    6.2333 C   0  0  0  0  0  0  0  0  0  0  0  0
  -12.6583   -9.1119    6.9487 N   0  0  0  0  0  0  0  0  0  0  0  0
  -12.6847   -9.2235    8.3927 C   0  0  0  0  0  0  0  0  0  0  0  0
  -11.4871   -8.4289    8.9217 C   0  0  0  0  0  0  0  0  0  0  0  0
  -13.7671   -8.5197    6.2484 C   0  0  0  0  0  0  0  0  0  0  0  0
  -14.3621   -7.3980    6.7673 C   0  0  0  0  0  0  0  0  0  0  0  0
  -15.3889   -6.7635    6.1116 C   0  0  0  0  0  0  0  0  0  0  0  0
  -15.8739   -7.2056    4.9132 C   0  0  0  0  0  0  0  0  0  0  0  0
  -15.2928   -8.3478    4.3594 C   0  0  0  0  0  0  0  0  0  0  0  0
  -14.2428   -8.9939    5.0326 C   0  0  0  0  0  0  0  0  0  0  0  0
  -16.9761   -6.4888    4.2137 C   0  0  0  0  0  0  0  0  0  0  0  0
  -17.8585   -6.0034    5.1783 F   0  0  0  0  0  0  0  0  0  0  0  0
  -17.6930   -7.2926    3.3559 F   0  0  0  0  0  0  0  0  0  0  0  0
  -16.4166   -5.4039    3.5726 F   0  0  0  0  0  0  0  0  0  0  0  0
   -9.3780   -7.2941    7.8007 S   0  0  0  0  0  0  0  0  0  0  0  0
   -9.4556   -6.2696    8.9395 O   0  0  0  0  0  0  0  0  0  0  0  0
   -9.8514   -6.4016    6.5874 O   0  0  0  0  0  0  0  0  0  0  0  0
   -4.8432   -7.8914    7.3295 C   0  0  0  0  0  0  0  0  0  0  0  0
   -5.7063   -8.4017    6.3853 C   0  0  0  0  0  0  0  0  0  0  0  0
   -7.0968   -8.2448    6.4903 C   0  0  0  0  0  0  0  0  0  0  0  0
   -7.6771   -7.5859    7.5118 C   0  0  0  0  0  0  0  0  0  0  0  0
   -6.7733   -7.0688    8.4729 C   0  0  0  0  0  0  0  0  0  0  0  0
   -5.4200   -7.2180    8.3855 C   0  0  0  0  0  0  0  0  0  0  0  0
   -2.8224   -8.7949    6.2103 C   0  0  0  0  0  0  0  0  0  0  0  0
   -3.4832   -8.0586    7.1850 O   0  0  0  0  0  0  0  0  0  0  0  0
 26 27  1  0  0  0
 27 20  1  0  0  0
 20 21  2  0  0  0
 21 22  1  0  0  0
 22 23  2  0  0  0
 23 24  1  0  0  0
 24 25  2  0  0  0
 23 17  1  0  0  0
 17 18  2  0  0  0
 17 19  2  0  0  0
 17  1  1  0  0  0
  1  2  1  0  0  0
  2  3  1  0  0  0
  3  4  1  0  0  0
  4  5  1  0  0  0
  5  6  1  0  0  0
  4  7  1  0  0  0
  7  8  2  0  0  0
  8  9  1  0  0  0
  9 10  2  0  0  0
 10 11  1  0  0  0
 11 12  2  0  0  0
 10 13  1  0  0  0
 13 14  1  0  0  0
 13 15  1  0  0  0
 13 16  1  0  0  0
 25 20  1  0  0  0
  6  1  1  0  0  0
 12  7  1  0  0  0
M  END
> <minimizedAffinity>
-6.73011

> <CNNscore>
0.4313292503

> <CNNaffinity>
6.3700780869

> <CNN_VS>
2.7476010323

> <CNNaffinity_variance>
0.0214724801

$$$$
[H]c1c([H])c(S(=O)(=O)N2C([H])([H])C([H])([H])N(c3c([H])c([H])c(C(F)(F)F)c([H])c3[H])C([H])([H])C2([H])[H])c([H])c([H])c1OC([H])([H])[H]


 27 29  0  0  0  0  0  0  0  0999 V2000
  -11.7848   -9.1176    8.4239 N   0  0  0  0  0  0  0  0  0  0  0  0
  -12.7767  -10.0536    8.7460 C   0  0  0  0  0  0  0  0  0  0  0  0
  -14.0315   -9.6867    7.8772 C   0  0  0  0  0  0  0  0  0  0  0  0
  -14.2054   -8.2573    8.0080 N   0  0  0  0  0  0  0  0  0  0  0  0
  -13.5333   -7.5664    9.0893 C   0  0  0  0  0  0  0  0  0  0  0  0
  -12.0335   -7.8249    8.9173 C   0  0  0  0  0  0  0  0  0  0  0  0
  -15.0053   -7.5210    7.0654 C   0  0  0  0  0  0  0  0  0  0  0  0
  -16.3462   -7.7941    6.9709 C   0  0  0  0  0  0  0  0  0  0  0  0
  -17.1639   -7.0843    6.1257 C   0  0  0  0  0  0  0  0  0  0  0  0
  -16.6961   -6.0714    5.3369 C   0  0  0  0  0  0  0  0  0  0  0  0
  -15.3346   -5.7707    5.4061 C   0  0  0  0  0  0  0  0  0  0  0  0
  -14.5015   -6.4985    6.2717 C   0  0  0  0  0  0  0  0  0  0  0  0
  -17.6072   -5.3049    4.4423 C   0  0  0  0  0  0  0  0  0  0  0  0
  -18.3267   -4.4031    5.2258 F   0  0  0  0  0  0  0  0  0  0  0  0
  -18.5141   -6.0984    3.7761 F   0  0  0  0  0  0  0  0  0  0  0  0
  -16.8160   -4.5746    3.5810 F   0  0  0  0  0  0  0  0  0  0  0  0
  -10.5955   -9.4266    7.3812 S   0  0  0  0  0  0  0  0  0  0  0  0
  -11.1310   -9.5331    5.9480 O   0  0  0  0  0  0  0  0  0  0  0  0
  -10.0116  -10.8811    7.5717 O   0  0  0  0  0  0  0  0  0  0  0  0
   -6.7185   -6.9592    7.2256 C   0  0  0  0  0  0  0  0  0  0  0  0
   -7.9397   -6.3282    7.1388 C   0  0  0  0  0  0  0  0  0  0  0  0
   -9.1473   -7.0417    7.1799 C   0  0  0  0  0  0  0  0  0  0  0  0
   -9.1939   -8.3817    7.3102 C   0  0  0  0  0  0  0  0  0  0  0  0
   -7.9281   -9.0127    7.3974 C   0  0  0  0  0  0  0  0  0  0  0  0
   -6.7466   -8.3318    7.3542 C   0  0  0  0  0  0  0  0  0  0  0  0
   -4.8012   -5.8869    6.0738 C   0  0  0  0  0  0  0  0  0  0  0  0
   -5.5553   -6.2215    7.1910 O   0  0  0  0  0  0  0  0  0  0  0  0
 26 27  1  0  0  0
 27 20  1  0  0  0
 20 21  2  0  0  0
 21 22  1  0  0  0
 22 23  2  0  0  0
 23 24  1  0  0  0
 24 25  2  0  0  0
 23 17  1  0  0  0
 17 18  2  0  0  0
 17 19  2  0  0  0
 17  1  1  0  0  0
  1  2  1  0  0  0
  2  3  1  0  0  0
  3  4  1  0  0  0
  4  5  1  0  0  0
  5  6  1  0  0  0
  4  7  1  0  0  0
  7  8  2  0  0  0
  8  9  1  0  0  0
  9 10  2  0  0  0
 10 11  1  0  0  0
 11 12  2  0  0  0
 10 13  1  0  0  0
 13 14  1  0  0  0
 13 15  1  0  0  0
 13 16  1  0  0  0
 25 20  1  0  0  0
  6  1  1  0  0  0
 12  7  1  0  0  0
M  END
> <minimizedAffinity>
-8.14194

> <CNNscore>
0.4049693346

> <CNNaffinity>
6.6247100830

> <CNN_VS>
2.6828043461

> <CNNaffinity_variance>
0.0795888528

$$$$
[H]c1c([H])c(S(=O)(=O)N2C([H])([H])C([H])([H])N(c3c([H])c([H])c(C(F)(F)F)c([H])c3[H])C([H])([H])C2([H])[H])c([H])c([H])c1OC([H])([H])[H]


 27 29  0  0  0  0  0  0  0  0999 V2000
   -3.7476   -4.8239    4.7625 N   0  0  0  0  0  0  0  0  0  0  0  0
   -5.0107   -5.2942    5.1463 C   0  0  0  0  0  0  0  0  0  0  0  0
   -5.0407   -5.2544    6.7152 C   0  0  0  0  0  0  0  0  0  0  0  0
   -3.7971   -5.8464    7.1549 N   0  0  0  0  0  0  0  0  0  0  0  0
   -3.0256   -6.6334    6.2150 C   0  0  0  0  0  0  0  0  0  0  0  0
   -2.6960   -5.7166    5.0332 C   0  0  0  0  0  0  0  0  0  0  0  0
   -3.3110   -5.6360    8.4928 C   0  0  0  0  0  0  0  0  0  0  0  0
   -3.0435   -4.3577    8.9125 C   0  0  0  0  0  0  0  0  0  0  0  0
   -2.6283   -4.0973   10.1957 C   0  0  0  0  0  0  0  0  0  0  0  0
   -2.4603   -5.0860   11.1237 C   0  0  0  0  0  0  0  0  0  0  0  0
   -2.7202   -6.3991   10.7275 C   0  0  0  0  0  0  0  0  0  0  0  0
   -3.1448   -6.6616    9.4145 C   0  0  0  0  0  0  0  0  0  0  0  0
   -2.0265   -4.7751   12.5141 C   0  0  0  0  0  0  0  0  0  0  0  0
   -1.4499   -3.5053   12.5148 F   0  0  0  0  0  0  0  0  0  0  0  0
   -1.0934   -5.6599   13.0064 F   0  0  0  0  0  0  0  0  0  0  0  0
   -3.1620   -4.7210   13.2945 F   0  0  0  0  0  0  0  0  0  0  0  0
   -3.4872   -3.3076    4.2828 S   0  0  0  0  0  0  0  0  0  0  0  0
   -4.7853   -2.6509    3.7971 O   0  0  0  0  0  0  0  0  0  0  0  0
   -2.6308   -3.2505    2.9576 O   0  0  0  0  0  0  0  0  0  0  0  0
   -1.6783   -0.4235    7.3736 C   0  0  0  0  0  0  0  0  0  0  0  0
   -1.2618   -0.3759    6.0617 C   0  0  0  0  0  0  0  0  0  0  0  0
   -1.7851   -1.2381    5.0861 C   0  0  0  0  0  0  0  0  0  0  0  0
   -2.7261   -2.1611    5.3635 C   0  0  0  0  0  0  0  0  0  0  0  0
   -3.1413   -2.1952    6.7179 C   0  0  0  0  0  0  0  0  0  0  0  0
   -2.6378   -1.3661    7.6772 C   0  0  0  0  0  0  0  0  0  0  0  0
   -1.1243    0.3003    9.6804 C   0  0  0  0  0  0  0  0  0  0  0  0
   -1.1467    0.4473    8.2997 O   0  0  0  0  0  0  0  0  0  0  0  0
 26 27  1  0  0  0
 27 20  1  0  0  0
 20 21  2  0  0  0
 21 22  1  0  0  0
 22 23  2  0  0  0
 23 24  1  0  0  0
 24 25  2  0  0  0
 23 17  1  0  0  0
 17 18  2  0  0  0
 17 19  2  0  0  0
 17  1  1  0  0  0
  1  2  1  0  0  0
  2  3  1  0  0  0
  3  4  1  0  0  0
  4  5  1  0  0  0
  5  6  1  0  0  0
  4  7  1  0  0  0
  7  8  2  0  0  0
  8  9  1  0  0  0
  9 10  2  0  0  0
 10 11  1  0  0  0
 11 12  2  0  0  0
 10 13  1  0  0  0
 13 14  1  0  0  0
 13 15  1  0  0  0
 13 16  1  0  0  0
 25 20  1  0  0  0
  6  1  1  0  0  0
 12  7  1  0  0  0
M  END
> <minimizedAffinity>
-0.75018

> <CNNscore>
0.3845249414

> <CNNaffinity>
4.9506359100

> <CNN_VS>
1.9036430120

> <CNNaffinity_variance>
0.8216962814

$$$$
[H]c1c([H])c(S(=O)(=O)N2C([H])([H])C([H])([H])C([H])(c3c([H])n([H])c4c([H])c([H])c(C#N)c([H])c34)C([H])([H])C2([H])[H])c([H])c([H])c1OC([H])([H])[H]


 29 32  0  0  0  0  0  0  0  0999 V2000
  -11.1774   -9.8731    6.4130 N   0  0  0  0  0  0  0  0  0  0  0  0
  -11.9965  -10.4927    7.4413 C   0  0  0  0  0  0  0  0  0  0  0  0
  -11.6231   -9.9805    8.8078 C   0  0  0  0  0  0  0  0  0  0  0  0
  -11.6078   -8.5052    9.0089 C   0  0  0  0  0  0  0  0  0  0  0  0
  -11.9185   -7.8927    7.6432 C   0  0  0  0  0  0  0  0  0  0  0  0
  -11.1288   -8.4377    6.5154 C   0  0  0  0  0  0  0  0  0  0  0  0
  -12.7375   -8.0633    9.8808 C   0  0  0  0  0  0  0  0  0  0  0  0
  -13.7798   -8.7724   10.4121 C   0  0  0  0  0  0  0  0  0  0  0  0
  -14.6336   -7.8997   11.0332 N   0  0  0  0  0  0  0  0  0  0  0  0
  -14.1391   -6.6495   10.8998 C   0  0  0  0  0  0  0  0  0  0  0  0
  -14.5570   -5.4145   11.3833 C   0  0  0  0  0  0  0  0  0  0  0  0
  -13.8067   -4.2655   11.1661 C   0  0  0  0  0  0  0  0  0  0  0  0
  -12.5943   -4.3398   10.4422 C   0  0  0  0  0  0  0  0  0  0  0  0
  -12.2314   -5.5712    9.9886 C   0  0  0  0  0  0  0  0  0  0  0  0
  -12.9678   -6.7101   10.1942 C   0  0  0  0  0  0  0  0  0  0  0  0
  -15.5178   -8.2193   11.5067 H   0  0  0  0  0  0  0  0  0  0  0  0
  -11.8141   -3.1564   10.2626 C   0  0  0  0  0  0  0  0  0  0  0  0
  -11.1591   -2.1844   10.1473 N   0  0  0  0  0  0  0  0  0  0  0  0
   -9.6468  -10.6076    6.1881 S   0  0  0  0  0  0  0  0  0  0  0  0
   -9.3619  -10.7664    4.7026 O   0  0  0  0  0  0  0  0  0  0  0  0
   -9.6652  -11.9697    6.8331 O   0  0  0  0  0  0  0  0  0  0  0  0
   -6.4648   -7.8659    8.0285 C   0  0  0  0  0  0  0  0  0  0  0  0
   -7.5976   -7.3647    7.3582 C   0  0  0  0  0  0  0  0  0  0  0  0
   -8.5165   -8.2331    6.8245 C   0  0  0  0  0  0  0  0  0  0  0  0
   -8.4051   -9.6143    6.8967 C   0  0  0  0  0  0  0  0  0  0  0  0
   -7.2861  -10.0964    7.5601 C   0  0  0  0  0  0  0  0  0  0  0  0
   -6.3450   -9.2304    8.1081 C   0  0  0  0  0  0  0  0  0  0  0  0
   -5.4337   -5.6358    8.4296 C   0  0  0  0  0  0  0  0  0  0  0  0
   -5.5267   -7.0148    8.5625 O   0  0  0  0  0  0  0  0  0  0  0  0
 28 29  1  0  0  0
 29 22  1  0  0  0
 22 23  2  0  0  0
 23 24  1  0  0  0
 24 25  2  0  0  0
 25 26  1  0  0  0
 26 27  2  0  0  0
 25 19  1  0  0  0
 19 20  2  0  0  0
 19 21  2  0  0  0
 19  1  1  0  0  0
  1  2  1  0  0  0
  2  3  1  0  0  0
  3  4  1  0  0  0
  4  5  1  0  0  0
  5  6  1  0  0  0
  4  7  1  0  0  0
  7  8  2  0  0  0
  8  9  1  0  0  0
  9 10  1  0  0  0
 10 11  2  0  0  0
 11 12  1  0  0  0
 12 13  2  0  0  0
 13 14  1  0  0  0
 14 15  2  0  0  0
 13 17  1  0  0  0
 17 18  3  0  0  0
 27 22  1  0  0  0
  6  1  1  0  0  0
 15  7  1  0  0  0
 15 10  1  0  0  0
  9 16  1  0  0  0
M  END
> <minimizedAffinity>
12.68508

> <CNNscore>
0.5417132974

> <CNNaffinity>
6.5932402611

> <CNN_VS>
3.5716459751

> <CNNaffinity_variance>
1.6188846827

$$$$
[H]c1c([H])c(S(=O)(=O)N2C([H])([H])C([H])([H])C([H])(c3c([H])n([H])c4c([H])c([H])c(C#N)c([H])c34)C([H])([H])C2([H])[H])c([H])c([H])c1OC([H])([H])[H]


 29 32  0  0  0  0  0  0  0  0999 V2000
   -7.1291   -9.3009    6.5611 N   0  0  0  0  0  0  0  0  0  0  0  0
   -7.9748  -10.2843    5.9054 C   0  0  0  0  0  0  0  0  0  0  0  0
   -8.4722   -9.7683    4.5804 C   0  0  0  0  0  0  0  0  0  0  0  0
   -7.4577   -9.2642    3.6139 C   0  0  0  0  0  0  0  0  0  0  0  0
   -6.1130   -9.3471    4.3363 C   0  0  0  0  0  0  0  0  0  0  0  0
   -6.0976   -8.7783    5.7033 C   0  0  0  0  0  0  0  0  0  0  0  0
   -7.3116  -10.1868    2.4481 C   0  0  0  0  0  0  0  0  0  0  0  0
   -6.9147   -9.9383    1.1627 C   0  0  0  0  0  0  0  0  0  0  0  0
   -7.0718  -11.0821    0.4255 N   0  0  0  0  0  0  0  0  0  0  0  0
   -7.5618  -12.0479    1.2334 C   0  0  0  0  0  0  0  0  0  0  0  0
   -7.8434  -13.3942    1.0289 C   0  0  0  0  0  0  0  0  0  0  0  0
   -8.2714  -14.2062    2.0719 C   0  0  0  0  0  0  0  0  0  0  0  0
   -8.4272  -13.6663    3.3695 C   0  0  0  0  0  0  0  0  0  0  0  0
   -8.1411  -12.3432    3.5158 C   0  0  0  0  0  0  0  0  0  0  0  0
   -7.7224  -11.5328    2.4914 C   0  0  0  0  0  0  0  0  0  0  0  0
   -6.8397  -11.1261   -0.6003 H   0  0  0  0  0  0  0  0  0  0  0  0
   -8.8289  -14.5237    4.4394 C   0  0  0  0  0  0  0  0  0  0  0  0
   -9.1888  -15.2111    5.3254 N   0  0  0  0  0  0  0  0  0  0  0  0
   -7.9837   -8.1007    7.4339 S   0  0  0  0  0  0  0  0  0  0  0  0
   -7.9430   -6.7823    6.6768 O   0  0  0  0  0  0  0  0  0  0  0  0
   -7.3229   -7.9170    8.7761 O   0  0  0  0  0  0  0  0  0  0  0  0
  -12.3873   -9.2370    8.0219 C   0  0  0  0  0  0  0  0  0  0  0  0
  -11.8317   -8.0615    8.5633 C   0  0  0  0  0  0  0  0  0  0  0  0
  -10.5058   -7.7736    8.3571 C   0  0  0  0  0  0  0  0  0  0  0  0
   -9.6440   -8.5848    7.6331 C   0  0  0  0  0  0  0  0  0  0  0  0
  -10.2024   -9.7393    7.1038 C   0  0  0  0  0  0  0  0  0  0  0  0
  -11.5449  -10.0463    7.3021 C   0  0  0  0  0  0  0  0  0  0  0  0
  -14.8366   -8.9315    7.6977 C   0  0  0  0  0  0  0  0  0  0  0  0
  -13.7104   -9.5504    8.2238 O   0  0  0  0  0  0  0  0  0  0  0  0
 28 29  1  0  0  0
 29 22  1  0  0  0
 22 23  2  0  0  0
 23 24  1  0  0  0
 24 25  2  0  0  0
 25 26  1  0  0  0
 26 27  2  0  0  0
 25 19  1  0  0  0
 19 20  2  0  0  0
 19 21  2  0  0  0
 19  1  1  0  0  0
  1  2  1  0  0  0
  2  3  1  0  0  0
  3  4  1  0  0  0
  4  5  1  0  0  0
  5  6  1  0  0  0
  4  7  1  0  0  0
  7  8  2  0  0  0
  8  9  1  0  0  0
  9 10  1  0  0  0
 10 11  2  0  0  0
 11 12  1  0  0  0
 12 13  2  0  0  0
 13 14  1  0  0  0
 14 15  2  0  0  0
 13 17  1  0  0  0
 17 18  3  0  0  0
 27 22  1  0  0  0
  6  1  1  0  0  0
 15  7  1  0  0  0
 15 10  1  0  0  0
  9 16  1  0  0  0
M  END
> <minimizedAffinity>
11.17251

> <CNNscore>
0.4727900624

> <CNNaffinity>
6.3583760262

> <CNN_VS>
3.0061769485

> <CNNaffinity_variance>
0.4968028069

$$$$
[H]c1c([H])c(S(=O)(=O)N2C([H])([H])C([H])([H])C([H])(c3c([H])n([H])c4c([H])c([H])c(C#N)c([H])c34)C([H])([H])C2([H])[H])c([H])c([H])c1OC([H])([H])[H]


 29 32  0  0  0  0  0  0  0  0999 V2000
  -14.8822   -8.9442    6.9953 N   0  0  0  0  0  0  0  0  0  0  0  0
  -13.8785   -8.7750    5.9579 C   0  0  0  0  0  0  0  0  0  0  0  0
  -12.5567   -8.3616    6.5504 C   0  0  0  0  0  0  0  0  0  0  0  0
  -12.0003   -9.2036    7.6452 C   0  0  0  0  0  0  0  0  0  0  0  0
  -13.0531  -10.2758    7.9259 C   0  0  0  0  0  0  0  0  0  0  0  0
  -14.4363   -9.7720    8.0858 C   0  0  0  0  0  0  0  0  0  0  0  0
  -10.8020   -9.9692    7.1872 C   0  0  0  0  0  0  0  0  0  0  0  0
  -10.6984  -11.2316    6.6704 C   0  0  0  0  0  0  0  0  0  0  0  0
   -9.3715  -11.5404    6.5275 N   0  0  0  0  0  0  0  0  0  0  0  0
   -8.6392  -10.4855    6.9475 C   0  0  0  0  0  0  0  0  0  0  0  0
   -7.2717  -10.2342    6.9626 C   0  0  0  0  0  0  0  0  0  0  0  0
   -6.7702   -9.0076    7.3801 C   0  0  0  0  0  0  0  0  0  0  0  0
   -7.6556   -7.9879    7.7993 C   0  0  0  0  0  0  0  0  0  0  0  0
   -8.9838   -8.2854    7.7679 C   0  0  0  0  0  0  0  0  0  0  0  0
   -9.4880   -9.4947    7.3617 C   0  0  0  0  0  0  0  0  0  0  0  0
   -9.0476  -12.4704    6.1559 H   0  0  0  0  0  0  0  0  0  0  0  0
   -7.1263   -6.7187    8.1869 C   0  0  0  0  0  0  0  0  0  0  0  0
   -6.6588   -5.6822    8.4938 N   0  0  0  0  0  0  0  0  0  0  0  0
  -15.6427   -7.4916    7.4893 S   0  0  0  0  0  0  0  0  0  0  0  0
  -14.8341   -6.8346    8.5974 O   0  0  0  0  0  0  0  0  0  0  0  0
  -17.0175   -7.8198    8.0129 O   0  0  0  0  0  0  0  0  0  0  0  0
  -16.0792   -4.6079    3.9505 C   0  0  0  0  0  0  0  0  0  0  0  0
  -17.1742   -5.3062    4.4955 C   0  0  0  0  0  0  0  0  0  0  0  0
  -16.9836   -6.1589    5.5537 C   0  0  0  0  0  0  0  0  0  0  0  0
  -15.7495   -6.3932    6.1429 C   0  0  0  0  0  0  0  0  0  0  0  0
  -14.6785   -5.6993    5.5987 C   0  0  0  0  0  0  0  0  0  0  0  0
  -14.8537   -4.8301    4.5264 C   0  0  0  0  0  0  0  0  0  0  0  0
  -15.7887   -2.4528    2.7387 C   0  0  0  0  0  0  0  0  0  0  0  0
  -16.2450   -3.7561    2.8845 O   0  0  0  0  0  0  0  0  0  0  0  0
 28 29  1  0  0  0
 29 22  1  0  0  0
 22 23  2  0  0  0
 23 24  1  0  0  0
 24 25  2  0  0  0
 25 26  1  0  0  0
 26 27  2  0  0  0
 25 19  1  0  0  0
 19 20  2  0  0  0
 19 21  2  0  0  0
 19  1  1  0  0  0
  1  2  1  0  0  0
  2  3  1  0  0  0
  3  4  1  0  0  0
  4  5  1  0  0  0
  5  6  1  0  0  0
  4  7  1  0  0  0
  7  8  2  0  0  0
  8  9  1  0  0  0
  9 10  1  0  0  0
 10 11  2  0  0  0
 11 12  1  0  0  0
 12 13  2  0  0  0
 13 14  1  0  0  0
 14 15  2  0  0  0
 13 17  1  0  0  0
 17 18  3  0  0  0
 27 22  1  0  0  0
  6  1  1  0  0  0
 15  7  1  0  0  0
 15 10  1  0  0  0
  9 16  1  0  0  0
M  END
> <minimizedAffinity>
1.21233

> <CNNscore>
0.3970046937

> <CNNaffinity>
6.7376432419

> <CNN_VS>
2.6748759747

> <CNNaffinity_variance>
1.3193463087

$$$$
[H]c1c([H])c(S(=O)(=O)N2C([H])([H])C([H])([H])C([H])(c3c([H])n([H])c4c([H])c([H])c(C#N)c([H])c34)C([H])([H])C2([H])[H])c([H])c([H])c1OC([H])([H])[H]


 29 32  0  0  0  0  0  0  0  0999 V2000
  -11.8890   -7.4704    9.5216 N   0  0  0  0  0  0  0  0  0  0  0  0
  -13.1821   -6.8182    9.6426 C   0  0  0  0  0  0  0  0  0  0  0  0
  -13.6044   -6.2127    8.3295 C   0  0  0  0  0  0  0  0  0  0  0  0
  -13.6065   -7.0986    7.1327 C   0  0  0  0  0  0  0  0  0  0  0  0
  -13.0583   -8.4447    7.6064 C   0  0  0  0  0  0  0  0  0  0  0  0
  -11.8110   -8.3711    8.4010 C   0  0  0  0  0  0  0  0  0  0  0  0
  -14.9984   -7.4011    6.6823 C   0  0  0  0  0  0  0  0  0  0  0  0
  -15.8339   -8.4334    7.0103 C   0  0  0  0  0  0  0  0  0  0  0  0
  -16.9601   -8.3507    6.2349 N   0  0  0  0  0  0  0  0  0  0  0  0
  -16.8429   -7.2766    5.4236 C   0  0  0  0  0  0  0  0  0  0  0  0
  -17.7034   -6.6967    4.4980 C   0  0  0  0  0  0  0  0  0  0  0  0
  -17.3661   -5.5200    3.8409 C   0  0  0  0  0  0  0  0  0  0  0  0
  -16.1286   -4.8906    4.1092 C   0  0  0  0  0  0  0  0  0  0  0  0
  -15.3218   -5.4999    5.0211 C   0  0  0  0  0  0  0  0  0  0  0  0
  -15.6442   -6.6638    5.6715 C   0  0  0  0  0  0  0  0  0  0  0  0
  -17.7433   -9.0504    6.3047 H   0  0  0  0  0  0  0  0  0  0  0  0
  -15.8145   -3.6597    3.4554 C   0  0  0  0  0  0  0  0  0  0  0  0
  -15.5288   -2.6610    2.9003 N   0  0  0  0  0  0  0  0  0  0  0  0
  -10.5473   -6.4155    9.6620 S   0  0  0  0  0  0  0  0  0  0  0  0
  -10.0554   -6.3919   11.1009 O   0  0  0  0  0  0  0  0  0  0  0  0
  -10.9814   -5.0268    9.2684 O   0  0  0  0  0  0  0  0  0  0  0  0
   -7.1661   -7.7384    6.8608 C   0  0  0  0  0  0  0  0  0  0  0  0
   -8.0428   -6.6834    6.5411 C   0  0  0  0  0  0  0  0  0  0  0  0
   -9.0389   -6.3324    7.4173 C   0  0  0  0  0  0  0  0  0  0  0  0
   -9.2543   -6.9643    8.6336 C   0  0  0  0  0  0  0  0  0  0  0  0
   -8.3842   -8.0011    8.9384 C   0  0  0  0  0  0  0  0  0  0  0  0
   -7.3682   -8.3696    8.0622 C   0  0  0  0  0  0  0  0  0  0  0  0
   -4.8025   -8.2041    6.2333 C   0  0  0  0  0  0  0  0  0  0  0  0
   -6.1673   -8.1134    5.9940 O   0  0  0  0  0  0  0  0  0  0  0  0
 28 29  1  0  0  0
 29 22  1  0  0  0
 22 23  2  0  0  0
 23 24  1  0  0  0
 24 25  2  0  0  0
 25 26  1  0  0  0
 26 27  2  0  0  0
 25 19  1  0  0  0
 19 20  2  0  0  0
 19 21  2  0  0  0
 19  1  1  0  0  0
  1  2  1  0  0  0
  2  3  1  0  0  0
  3  4  1  0  0  0
  4  5  1  0  0  0
  5  6  1  0  0  0
  4  7  1  0  0  0
  7  8  2  0  0  0
  8  9  1  0  0  0
  9 10  1  0  0  0
 10 11  2  0  0  0
 11 12  1  0  0  0
 12 13  2  0  0  0
 13 14  1  0  0  0
 14 15  2  0  0  0
 13 17  1  0  0  0
 17 18  3  0  0  0
 27 22  1  0  0  0
  6  1  1  0  0  0
 15  7  1  0  0  0
 15 10  1  0  0  0
  9 16  1  0  0  0
M  END
> <minimizedAffinity>
-3.91251

> <CNNscore>
0.3896358013

> <CNNaffinity>
7.1522307396

> <CNN_VS>
2.7867650986

> <CNNaffinity_variance>
0.6808621287

$$$$
[H]c1c([H])c(S(=O)(=O)N2C([H])([H])C([H])([H])C([H])(c3c([H])n([H])c4c([H])c([H])c(C#N)c([H])c34)C([H])([H])C2([H])[H])c([H])c([H])c1OC([H])([H])[H]


 29 32  0  0  0  0  0  0  0  0999 V2000
   -5.9125   -6.6859    6.3920 N   0  0  0  0  0  0  0  0  0  0  0  0
   -6.3862   -7.8891    5.7284 C   0  0  0  0  0  0  0  0  0  0  0  0
   -6.8358   -8.9166    6.7340 C   0  0  0  0  0  0  0  0  0  0  0  0
   -7.8317   -8.4896    7.7554 C   0  0  0  0  0  0  0  0  0  0  0  0
   -8.0618   -6.9971    7.5182 C   0  0  0  0  0  0  0  0  0  0  0  0
   -6.8311   -6.1852    7.3812 C   0  0  0  0  0  0  0  0  0  0  0  0
   -9.1655   -9.1158    7.5096 C   0  0  0  0  0  0  0  0  0  0  0  0
   -9.5048  -10.2330    6.7968 C   0  0  0  0  0  0  0  0  0  0  0  0
  -10.8707  -10.3261    6.7497 N   0  0  0  0  0  0  0  0  0  0  0  0
  -11.3944   -9.2804    7.4262 C   0  0  0  0  0  0  0  0  0  0  0  0
  -12.6999   -8.9228    7.7445 C   0  0  0  0  0  0  0  0  0  0  0  0
  -12.9691   -7.8164    8.5405 C   0  0  0  0  0  0  0  0  0  0  0  0
  -11.9053   -7.0318    9.0428 C   0  0  0  0  0  0  0  0  0  0  0  0
  -10.6470   -7.4228    8.7002 C   0  0  0  0  0  0  0  0  0  0  0  0
  -10.3717   -8.5106    7.9112 C   0  0  0  0  0  0  0  0  0  0  0  0
  -11.3639  -11.1050    6.2416 H   0  0  0  0  0  0  0  0  0  0  0  0
  -12.1971   -5.9214    9.8933 C   0  0  0  0  0  0  0  0  0  0  0  0
  -12.4531   -4.9901   10.5673 N   0  0  0  0  0  0  0  0  0  0  0  0
   -4.2876   -6.7645    6.9268 S   0  0  0  0  0  0  0  0  0  0  0  0
   -3.3448   -6.6172    5.7425 O   0  0  0  0  0  0  0  0  0  0  0  0
   -4.0566   -8.1057    7.5747 O   0  0  0  0  0  0  0  0  0  0  0  0
   -3.4205   -3.2881    9.7890 C   0  0  0  0  0  0  0  0  0  0  0  0
   -3.0616   -3.2532    8.4275 C   0  0  0  0  0  0  0  0  0  0  0  0
   -3.3441   -4.3247    7.6179 C   0  0  0  0  0  0  0  0  0  0  0  0
   -3.9754   -5.4790    8.0585 C   0  0  0  0  0  0  0  0  0  0  0  0
   -4.3253   -5.5017    9.4008 C   0  0  0  0  0  0  0  0  0  0  0  0
   -4.0474   -4.4239   10.2357 C   0  0  0  0  0  0  0  0  0  0  0  0
   -2.4797   -2.2419   11.8426 C   0  0  0  0  0  0  0  0  0  0  0  0
   -3.1389   -2.2305   10.6206 O   0  0  0  0  0  0  0  0  0  0  0  0
 28 29  1  0  0  0
 29 22  1  0  0  0
 22 23  2  0  0  0
 23 24  1  0  0  0
 24 25  2  0  0  0
 25 26  1  0  0  0
 26 27  2  0  0  0
 25 19  1  0  0  0
 19 20  2  0  0  0
 19 21  2  0  0  0
 19  1  1  0  0  0
  1  2  1  0  0  0
  2  3  1  0  0  0
  3  4  1  0  0  0
  4  5  1  0  0  0
  5  6  1  0  0  0
  4  7  1  0  0  0
  7  8  2  0  0  0
  8  9  1  0  0  0
  9 10  1  0  0  0
 10 11  2  0  0  0
 11 12  1  0  0  0
 12 13  2  0  0  0
 13 14  1  0  0  0
 14 15  2  0  0  0
 13 17  1  0  0  0
 17 18  3  0  0  0
 27 22  1  0  0  0
  6  1  1  0  0  0
 15  7  1  0  0  0
 15 10  1  0  0  0
  9 16  1  0  0  0
M  END
> <minimizedAffinity>
-7.72852

> <CNNscore>
0.3697388470

> <CNNaffinity>
6.3592567444

> <CNN_VS>
2.3512642384

> <CNNaffinity_variance>
0.0295390896

$$$$
[H]c1c([H])c(S(=O)(=O)N2C([H])([H])C([H])([H])C([H])(c3c([H])n([H])c4c([H])c([H])c(C#N)c([H])c34)C([H])([H])C2([H])[H])c([H])c([H])c1OC([H])([H])[H]


 29 32  0  0  0  0  0  0  0  0999 V2000
  -14.2474   -9.3843    8.7299 N   0  0  0  0  0  0  0  0  0  0  0  0
  -15.2697   -8.3646    8.5642 C   0  0  0  0  0  0  0  0  0  0  0  0
  -14.8219   -7.3071    7.5894 C   0  0  0  0  0  0  0  0  0  0  0  0
  -14.3525   -7.7600    6.2508 C   0  0  0  0  0  0  0  0  0  0  0  0
  -14.3865   -9.2878    6.2894 C   0  0  0  0  0  0  0  0  0  0  0  0
  -13.7542   -9.9008    7.4797 C   0  0  0  0  0  0  0  0  0  0  0  0
  -15.3270   -7.3927    5.1798 C   0  0  0  0  0  0  0  0  0  0  0  0
  -16.1493   -8.1781    4.4193 C   0  0  0  0  0  0  0  0  0  0  0  0
  -16.7585   -7.3929    3.4766 N   0  0  0  0  0  0  0  0  0  0  0  0
  -16.3295   -6.1217    3.6366 C   0  0  0  0  0  0  0  0  0  0  0  0
  -16.6656   -4.9278    3.0080 C   0  0  0  0  0  0  0  0  0  0  0  0
  -16.1264   -3.7177    3.4266 C   0  0  0  0  0  0  0  0  0  0  0  0
  -15.2185   -3.6859    4.5102 C   0  0  0  0  0  0  0  0  0  0  0  0
  -14.9208   -4.8817    5.0892 C   0  0  0  0  0  0  0  0  0  0  0  0
  -15.4445   -6.0817    4.6800 C   0  0  0  0  0  0  0  0  0  0  0  0
  -17.4307   -7.7848    2.7677 H   0  0  0  0  0  0  0  0  0  0  0  0
  -14.7045   -2.4290    4.9544 C   0  0  0  0  0  0  0  0  0  0  0  0
  -14.2498   -1.4081    5.3261 N   0  0  0  0  0  0  0  0  0  0  0  0
  -13.0171   -8.9789    9.8500 S   0  0  0  0  0  0  0  0  0  0  0  0
  -12.5533  -10.2274   10.5842 O   0  0  0  0  0  0  0  0  0  0  0  0
  -13.5777   -8.0005   10.8502 O   0  0  0  0  0  0  0  0  0  0  0  0
   -9.4564   -7.0172    7.7280 C   0  0  0  0  0  0  0  0  0  0  0  0
  -10.2711   -6.3182    8.6397 C   0  0  0  0  0  0  0  0  0  0  0  0
  -11.3256   -6.9561    9.2434 C   0  0  0  0  0  0  0  0  0  0  0  0
  -11.6603   -8.2824    9.0106 C   0  0  0  0  0  0  0  0  0  0  0  0
  -10.8504   -8.9612    8.1116 C   0  0  0  0  0  0  0  0  0  0  0  0
   -9.7767   -8.3303    7.4912 C   0  0  0  0  0  0  0  0  0  0  0  0
   -7.5813   -6.8852    6.0959 C   0  0  0  0  0  0  0  0  0  0  0  0
   -8.4009   -6.3957    7.1043 O   0  0  0  0  0  0  0  0  0  0  0  0
 28 29  1  0  0  0
 29 22  1  0  0  0
 22 23  2  0  0  0
 23 24  1  0  0  0
 24 25  2  0  0  0
 25 26  1  0  0  0
 26 27  2  0  0  0
 25 19  1  0  0  0
 19 20  2  0  0  0
 19 21  2  0  0  0
 19  1  1  0  0  0
  1  2  1  0  0  0
  2  3  1  0  0  0
  3  4  1  0  0  0
  4  5  1  0  0  0
  5  6  1  0  0  0
  4  7  1  0  0  0
  7  8  2  0  0  0
  8  9  1  0  0  0
  9 10  1  0  0  0
 10 11  2  0  0  0
 11 12  1  0  0  0
 12 13  2  0  0  0
 13 14  1  0  0  0
 14 15  2  0  0  0
 13 17  1  0  0  0
 17 18  3  0  0  0
 27 22  1  0  0  0
  6  1  1  0  0  0
 15  7  1  0  0  0
 15 10  1  0  0  0
  9 16  1  0  0  0
M  END
> <minimizedAffinity>
-2.75559

> <CNNscore>
0.3609024584

> <CNNaffinity>
7.0639328957

> <CNN_VS>
2.5493907928

> <CNNaffinity_variance>
0.3017089367

$$$$
[H]c1c([H])c(S(=O)(=O)N2C([H])([H])C([H])([H])C([H])(c3c([H])n([H])c4c([H])c([H])c(C#N)c([H])c34)C([H])([H])C2([H])[H])c([H])c([H])c1OC([H])([H])[H]


 29 32  0  0  0  0  0  0  0  0999 V2000
   -7.9124   -8.5223    6.4784 N   0  0  0  0  0  0  0  0  0  0  0  0
   -9.0367   -9.4327    6.6184 C   0  0  0  0  0  0  0  0  0  0  0  0
   -9.9813   -8.9599    7.6923 C   0  0  0  0  0  0  0  0  0  0  0  0
  -10.4849   -7.5617    7.5987 C   0  0  0  0  0  0  0  0  0  0  0  0
   -9.7771   -6.9410    6.3943 C   0  0  0  0  0  0  0  0  0  0  0  0
   -8.3110   -7.1444    6.3531 C   0  0  0  0  0  0  0  0  0  0  0  0
  -11.9339   -7.5285    7.2369 C   0  0  0  0  0  0  0  0  0  0  0  0
  -12.5460   -7.2530    6.0449 C   0  0  0  0  0  0  0  0  0  0  0  0
  -13.9006   -7.2153    6.2449 N   0  0  0  0  0  0  0  0  0  0  0  0
  -14.1475   -7.4655    7.5495 C   0  0  0  0  0  0  0  0  0  0  0  0
  -15.3252   -7.6102    8.2746 C   0  0  0  0  0  0  0  0  0  0  0  0
  -15.3037   -7.9554    9.6202 C   0  0  0  0  0  0  0  0  0  0  0  0
  -14.0688   -8.1667   10.2758 C   0  0  0  0  0  0  0  0  0  0  0  0
  -12.9458   -8.0102    9.5222 C   0  0  0  0  0  0  0  0  0  0  0  0
  -12.9569   -7.6651    8.1946 C   0  0  0  0  0  0  0  0  0  0  0  0
  -14.5782   -7.0079    5.4666 H   0  0  0  0  0  0  0  0  0  0  0  0
  -14.0653   -8.5610   11.6491 C   0  0  0  0  0  0  0  0  0  0  0  0
  -14.0785   -8.9158   12.7721 N   0  0  0  0  0  0  0  0  0  0  0  0
   -6.6463   -8.7818    7.6020 S   0  0  0  0  0  0  0  0  0  0  0  0
   -5.9880  -10.1273    7.3388 O   0  0  0  0  0  0  0  0  0  0  0  0
   -7.2273   -8.7828    8.9927 O   0  0  0  0  0  0  0  0  0  0  0  0
   -3.5620   -5.4019    7.2976 C   0  0  0  0  0  0  0  0  0  0  0  0
   -4.7130   -5.3040    8.1035 C   0  0  0  0  0  0  0  0  0  0  0  0
   -5.6036   -6.3469    8.1538 C   0  0  0  0  0  0  0  0  0  0  0  0
   -5.4490   -7.5281    7.4425 C   0  0  0  0  0  0  0  0  0  0  0  0
   -4.3113   -7.6138    6.6532 C   0  0  0  0  0  0  0  0  0  0  0  0
   -3.3974   -6.5665    6.5911 C   0  0  0  0  0  0  0  0  0  0  0  0
   -1.2800   -4.4089    7.3593 C   0  0  0  0  0  0  0  0  0  0  0  0
   -2.6613   -4.3661    7.2245 O   0  0  0  0  0  0  0  0  0  0  0  0
 28 29  1  0  0  0
 29 22  1  0  0  0
 22 23  2  0  0  0
 23 24  1  0  0  0
 24 25  2  0  0  0
 25 26  1  0  0  0
 26 27  2  0  0  0
 25 19  1  0  0  0
 19 20  2  0  0  0
 19 21  2  0  0  0
 19  1  1  0  0  0
  1  2  1  0  0  0
  2  3  1  0  0  0
  3  4  1  0  0  0
  4  5  1  0  0  0
  5  6  1  0  0  0
  4  7  1  0  0  0
  7  8  2  0  0  0
  8  9  1  0  0  0
  9 10  1  0  0  0
 10 11  2  0  0  0
 11 12  1  0  0  0
 12 13  2  0  0  0
 13 14  1  0  0  0
 14 15  2  0  0  0
 13 17  1  0  0  0
 17 18  3  0  0  0
 27 22  1  0  0  0
  6  1  1  0  0  0
 15  7  1  0  0  0
 15 10  1  0  0  0
  9 16  1  0  0  0
M  END
> <minimizedAffinity>
2.44216

> <CNNscore>
0.3436779678

> <CNNaffinity>
6.2299413681

> <CNN_VS>
2.1410934925

> <CNNaffinity_variance>
0.4390935898

$$$$
[H]c1c([H])c(S(=O)(=O)N2C([H])([H])C([H])([H])C([H])(c3c([H])n([H])c4c([H])c([H])c(C#N)c([H])c34)C([H])([H])C2([H])[H])c([H])c([H])c1OC([H])([H])[H]


 29 32  0  0  0  0  0  0  0  0999 V2000
  -14.7325   -9.2133    3.9692 N   0  0  0  0  0  0  0  0  0  0  0  0
  -14.3739   -8.2181    2.9726 C   0  0  0  0  0  0  0  0  0  0  0  0
  -15.3119   -7.0407    3.0261 C   0  0  0  0  0  0  0  0  0  0  0  0
  -15.5053   -6.3747    4.3438 C   0  0  0  0  0  0  0  0  0  0  0  0
  -14.6981   -7.1945    5.3504 C   0  0  0  0  0  0  0  0  0  0  0  0
  -14.9128   -8.6581    5.2854 C   0  0  0  0  0  0  0  0  0  0  0  0
  -14.8692   -5.0232    4.3688 C   0  0  0  0  0  0  0  0  0  0  0  0
  -13.6342   -4.6145    3.9457 C   0  0  0  0  0  0  0  0  0  0  0  0
  -13.4584   -3.3041    4.3039 N   0  0  0  0  0  0  0  0  0  0  0  0
  -14.5699   -2.8836    4.9466 C   0  0  0  0  0  0  0  0  0  0  0  0
  -14.9520   -1.6482    5.4581 C   0  0  0  0  0  0  0  0  0  0  0  0
  -16.2120   -1.4571    6.0113 C   0  0  0  0  0  0  0  0  0  0  0  0
  -17.1320   -2.5298    6.0608 C   0  0  0  0  0  0  0  0  0  0  0  0
  -16.7082   -3.7183    5.5494 C   0  0  0  0  0  0  0  0  0  0  0  0
  -15.4648   -3.9177    5.0055 C   0  0  0  0  0  0  0  0  0  0  0  0
  -12.5723   -2.7773    4.0914 H   0  0  0  0  0  0  0  0  0  0  0  0
  -18.4379   -2.3062    6.5956 C   0  0  0  0  0  0  0  0  0  0  0  0
  -19.5087   -2.0873    7.0346 N   0  0  0  0  0  0  0  0  0  0  0  0
  -15.9812  -10.2813    3.4867 S   0  0  0  0  0  0  0  0  0  0  0  0
  -15.5874  -11.7157    3.8040 O   0  0  0  0  0  0  0  0  0  0  0  0
  -16.1853  -10.1455    1.9995 O   0  0  0  0  0  0  0  0  0  0  0  0
  -19.8697   -9.4242    5.7615 C   0  0  0  0  0  0  0  0  0  0  0  0
  -19.4712  -10.7289    5.4114 C   0  0  0  0  0  0  0  0  0  0  0  0
  -18.2976  -10.9255    4.7277 C   0  0  0  0  0  0  0  0  0  0  0  0
  -17.4490   -9.8982    4.3409 C   0  0  0  0  0  0  0  0  0  0  0  0
  -17.8510   -8.6176    4.6920 C   0  0  0  0  0  0  0  0  0  0  0  0
  -19.0372   -8.4002    5.3860 C   0  0  0  0  0  0  0  0  0  0  0  0
  -21.6730  -10.0159    7.3725 C   0  0  0  0  0  0  0  0  0  0  0  0
  -21.0458   -9.2029    6.4378 O   0  0  0  0  0  0  0  0  0  0  0  0
 28 29  1  0  0  0
 29 22  1  0  0  0
 22 23  2  0  0  0
 23 24  1  0  0  0
 24 25  2  0  0  0
 25 26  1  0  0  0
 26 27  2  0  0  0
 25 19  1  0  0  0
 19 20  2  0  0  0
 19 21  2  0  0  0
 19  1  1  0  0  0
  1  2  1  0  0  0
  2  3  1  0  0  0
  3  4  1  0  0  0
  4  5  1  0  0  0
  5  6  1  0  0  0
  4  7  1  0  0  0
  7  8  2  0  0  0
  8  9  1  0  0  0
  9 10  1  0  0  0
 10 11  2  0  0  0
 11 12  1  0  0  0
 12 13  2  0  0  0
 13 14  1  0  0  0
 14 15  2  0  0  0
 13 17  1  0  0  0
 17 18  3  0  0  0
 27 22  1  0  0  0
  6  1  1  0  0  0
 15  7  1  0  0  0
 15 10  1  0  0  0
  9 16  1  0  0  0
M  END
> <minimizedAffinity>
36.81570

> <CNNscore>
0.3260854483

> <CNNaffinity>
6.2451524734

> <CNN_VS>
2.0364532471

> <CNNaffinity_variance>
1.1585735083

$$$$
[H]c1c([H])c(S(=O)(=O)N2C([H])([H])C([H])([H])C([H])(c3c([H])n([H])c4c([H])c([H])c(C#N)c([H])c34)C([H])([H])C2([H])[H])c([H])c([H])c1OC([H])([H])[H]


 29 32  0  0  0  0  0  0  0  0999 V2000
  -10.3730   -6.9923    6.2498 N   0  0  0  0  0  0  0  0  0  0  0  0
  -11.4590   -7.9302    6.4805 C   0  0  0  0  0  0  0  0  0  0  0  0
  -12.6613   -7.2298    7.0579 C   0  0  0  0  0  0  0  0  0  0  0  0
  -13.1807   -6.0404    6.3280 C   0  0  0  0  0  0  0  0  0  0  0  0
  -12.2185   -5.8105    5.1626 C   0  0  0  0  0  0  0  0  0  0  0  0
  -10.7822   -5.8192    5.5220 C   0  0  0  0  0  0  0  0  0  0  0  0
  -14.4926   -6.3325    5.6759 C   0  0  0  0  0  0  0  0  0  0  0  0
  -14.9735   -5.9727    4.4468 C   0  0  0  0  0  0  0  0  0  0  0  0
  -16.2831   -6.3637    4.3557 N   0  0  0  0  0  0  0  0  0  0  0  0
  -16.6310   -6.9669    5.5136 C   0  0  0  0  0  0  0  0  0  0  0  0
  -17.7961   -7.5993    5.9335 C   0  0  0  0  0  0  0  0  0  0  0  0
  -17.8687   -8.2253    7.1717 C   0  0  0  0  0  0  0  0  0  0  0  0
  -16.7447   -8.2268    8.0296 C   0  0  0  0  0  0  0  0  0  0  0  0
  -15.6302   -7.5921    7.5726 C   0  0  0  0  0  0  0  0  0  0  0  0
  -15.5505   -6.9676    6.3539 C   0  0  0  0  0  0  0  0  0  0  0  0
  -16.8660   -6.1811    3.4984 H   0  0  0  0  0  0  0  0  0  0  0  0
  -16.8226   -8.9099    9.2821 C   0  0  0  0  0  0  0  0  0  0  0  0
  -16.8915   -9.5030   10.2973 N   0  0  0  0  0  0  0  0  0  0  0  0
   -9.4203   -6.6570    7.6327 S   0  0  0  0  0  0  0  0  0  0  0  0
  -10.3170   -6.4759    8.8478 O   0  0  0  0  0  0  0  0  0  0  0  0
   -8.6536   -5.3816    7.3935 O   0  0  0  0  0  0  0  0  0  0  0  0
   -6.6612  -10.2363    8.4109 C   0  0  0  0  0  0  0  0  0  0  0  0
   -8.0645  -10.3548    8.3895 C   0  0  0  0  0  0  0  0  0  0  0  0
   -8.8410   -9.2480    8.1540 C   0  0  0  0  0  0  0  0  0  0  0  0
   -8.3271   -7.9785    7.9315 C   0  0  0  0  0  0  0  0  0  0  0  0
   -6.9439   -7.8740    7.9538 C   0  0  0  0  0  0  0  0  0  0  0  0
   -6.1414   -8.9858    8.1900 C   0  0  0  0  0  0  0  0  0  0  0  0
   -4.9846  -11.9689    7.7909 C   0  0  0  0  0  0  0  0  0  0  0  0
   -5.8641  -11.3294    8.6544 O   0  0  0  0  0  0  0  0  0  0  0  0
 28 29  1  0  0  0
 29 22  1  0  0  0
 22 23  2  0  0  0
 23 24  1  0  0  0
 24 25  2  0  0  0
 25 26  1  0  0  0
 26 27  2  0  0  0
 25 19  1  0  0  0
 19 20  2  0  0  0
 19 21  2  0  0  0
 19  1  1  0  0  0
  1  2  1  0  0  0
  2  3  1  0  0  0
  3  4  1  0  0  0
  4  5  1  0  0  0
  5  6  1  0  0  0
  4  7  1  0  0  0
  7  8  2  0  0  0
  8  9  1  0  0  0
  9 10  1  0  0  0
 10 11  2  0  0  0
 11 12  1  0  0  0
 12 13  2  0  0  0
 13 14  1  0  0  0
 14 15  2  0  0  0
 13 17  1  0  0  0
 17 18  3  0  0  0
 27 22  1  0  0  0
  6  1  1  0  0  0
 15  7  1  0  0  0
 15 10  1  0  0  0
  9 16  1  0  0  0
M  END
> <minimizedAffinity>
25.58772

> <CNNscore>
0.3167540729

> <CNNaffinity>
6.1990756989

> <CNN_VS>
1.9635825157

> <CNNaffinity_variance>
1.4329196215

$$$$
[H]c1c([H])c(S(=O)(=O)N2C([H])([H])C([H])([H])C([H])(N([H])C(=O)c3c([H])n([H])c4c([H])c([H])c([H])c([H])c34)C([H])([H])C2([H])[H])c([H])c([H])c1C(F)(F)F


 33 36  0  0  0  0  0  0  0  0999 V2000
  -14.2485   -6.8042    8.1722 N   0  0  0  0  0  0  0  0  0  0  0  0
  -15.1357   -7.8784    8.4057 C   0  0  0  0  0  0  0  0  0  0  0  0
  -14.4193   -9.0597    9.0761 C   0  0  0  0  0  0  0  0  0  0  0  0
  -13.9991   -8.4899   10.4371 C   0  0  0  0  0  0  0  0  0  0  0  0
  -13.0439   -7.3531   10.2664 C   0  0  0  0  0  0  0  0  0  0  0  0
  -13.0521   -6.7194    8.9099 C   0  0  0  0  0  0  0  0  0  0  0  0
  -13.4408   -9.5512   11.2597 N   0  0  0  0  0  0  0  0  0  0  0  0
  -13.3821   -9.4873   12.6700 C   0  0  0  0  0  0  0  0  0  0  0  0
  -13.8133   -8.4843   13.2919 O   0  0  0  0  0  0  0  0  0  0  0  0
  -13.0438  -10.3829   10.7281 H   0  0  0  0  0  0  0  0  0  0  0  0
  -12.8171  -10.5726   13.4780 C   0  0  0  0  0  0  0  0  0  0  0  0
  -11.7910  -10.3686   14.4085 C   0  0  0  0  0  0  0  0  0  0  0  0
  -11.4464  -11.5595   14.9021 N   0  0  0  0  0  0  0  0  0  0  0  0
  -12.1980  -12.5177   14.3384 C   0  0  0  0  0  0  0  0  0  0  0  0
  -12.2363  -13.8949   14.5116 C   0  0  0  0  0  0  0  0  0  0  0  0
  -13.1208  -14.6765   13.8114 C   0  0  0  0  0  0  0  0  0  0  0  0
  -13.9751  -14.0695   12.9320 C   0  0  0  0  0  0  0  0  0  0  0  0
  -13.9573  -12.6937   12.7393 C   0  0  0  0  0  0  0  0  0  0  0  0
  -13.0569  -11.9183   13.4508 C   0  0  0  0  0  0  0  0  0  0  0  0
  -10.6863  -11.7307   15.6343 H   0  0  0  0  0  0  0  0  0  0  0  0
  -14.0567   -6.2566    6.5893 S   0  0  0  0  0  0  0  0  0  0  0  0
  -14.8186   -4.9386    6.4690 O   0  0  0  0  0  0  0  0  0  0  0  0
  -12.5941   -5.8438    6.3730 O   0  0  0  0  0  0  0  0  0  0  0  0
  -15.3771   -9.2305    3.4399 C   0  0  0  0  0  0  0  0  0  0  0  0
  -14.6757   -8.1224    3.0653 C   0  0  0  0  0  0  0  0  0  0  0  0
  -14.2468   -7.1959    4.0132 C   0  0  0  0  0  0  0  0  0  0  0  0
  -14.5052   -7.3547    5.3426 C   0  0  0  0  0  0  0  0  0  0  0  0
  -15.2230   -8.4931    5.7154 C   0  0  0  0  0  0  0  0  0  0  0  0
  -15.6508   -9.4106    4.7911 C   0  0  0  0  0  0  0  0  0  0  0  0
  -14.9205  -10.5992    1.5350 F   0  0  0  0  0  0  0  0  0  0  0  0
  -15.8716  -10.2514    2.4511 C   0  0  0  0  0  0  0  0  0  0  0  0
  -16.2914  -11.3706    3.1240 F   0  0  0  0  0  0  0  0  0  0  0  0
  -16.9807   -9.6958    1.8133 F   0  0  0  0  0  0  0  0  0  0  0  0
 30 31  1  0  0  0
 31 32  1  0  0  0
 31 33  1  0  0  0
 31 24  1  0  0  0
 24 25  2  0  0  0
 25 26  1  0  0  0
 26 27  2  0  0  0
 27 28  1  0  0  0
 28 29  2  0  0  0
 27 21  1  0  0  0
 21 22  2  0  0  0
 21 23  2  0  0  0
 21  1  1  0  0  0
  1  2  1  0  0  0
  2  3  1  0  0  0
  3  4  1  0  0  0
  4  5  1  0  0  0
  5  6  1  0  0  0
  4  7  1  0  0  0
  7  8  1  0  0  0
  8  9  2  0  0  0
  8 11  1  0  0  0
 11 12  2  0  0  0
 12 13  1  0  0  0
 13 14  1  0  0  0
 14 15  2  0  0  0
 15 16  1  0  0  0
 16 17  2  0  0  0
 17 18  1  0  0  0
 18 19  2  0  0  0
 29 24  1  0  0  0
  6  1  1  0  0  0
 19 11  1  0  0  0
 19 14  1  0  0  0
  7 10  1  0  0  0
 13 20  1  0  0  0
M  END
> <minimizedAffinity>
36.70470

> <CNNscore>
0.4683906436

> <CNNaffinity>
6.1996407509

> <CNN_VS>
2.9038536549

> <CNNaffinity_variance>
0.9898430109

$$$$
[H]c1c([H])c(S(=O)(=O)N2C([H])([H])C([H])([H])C([H])(N([H])C(=O)c3c([H])n([H])c4c([H])c([H])c([H])c([H])c34)C([H])([H])C2([H])[H])c([H])c([H])c1C(F)(F)F


 33 36  0  0  0  0  0  0  0  0999 V2000
  -14.9314   -8.3169    3.5289 N   0  0  0  0  0  0  0  0  0  0  0  0
  -14.1947   -7.1179    3.4047 C   0  0  0  0  0  0  0  0  0  0  0  0
  -13.4974   -6.7511    4.7226 C   0  0  0  0  0  0  0  0  0  0  0  0
  -12.5002   -7.8992    4.9246 C   0  0  0  0  0  0  0  0  0  0  0  0
  -13.2138   -9.2033    5.0787 C   0  0  0  0  0  0  0  0  0  0  0  0
  -14.6200   -9.2186    4.5646 C   0  0  0  0  0  0  0  0  0  0  0  0
  -11.6449   -7.6087    6.0643 N   0  0  0  0  0  0  0  0  0  0  0  0
  -10.5726   -8.4399    6.4587 C   0  0  0  0  0  0  0  0  0  0  0  0
  -10.3071   -9.4963    5.8325 O   0  0  0  0  0  0  0  0  0  0  0  0
  -11.8949   -6.7326    6.6139 H   0  0  0  0  0  0  0  0  0  0  0  0
   -9.7219   -8.1234    7.6102 C   0  0  0  0  0  0  0  0  0  0  0  0
  -10.2089   -7.4902    8.7601 C   0  0  0  0  0  0  0  0  0  0  0  0
   -9.1734   -7.2670    9.5716 N   0  0  0  0  0  0  0  0  0  0  0  0
   -8.0469   -7.7247    9.0039 C   0  0  0  0  0  0  0  0  0  0  0  0
   -6.7265   -7.7405    9.4336 C   0  0  0  0  0  0  0  0  0  0  0  0
   -5.7325   -8.2864    8.6607 C   0  0  0  0  0  0  0  0  0  0  0  0
   -6.0678   -8.8224    7.4475 C   0  0  0  0  0  0  0  0  0  0  0  0
   -7.3808   -8.8190    6.9934 C   0  0  0  0  0  0  0  0  0  0  0  0
   -8.3728   -8.2618    7.7832 C   0  0  0  0  0  0  0  0  0  0  0  0
   -9.2268   -6.7942   10.5290 H   0  0  0  0  0  0  0  0  0  0  0  0
  -16.5845   -8.2760    3.2005 S   0  0  0  0  0  0  0  0  0  0  0  0
  -16.8898   -6.9173    2.5738 O   0  0  0  0  0  0  0  0  0  0  0  0
  -16.8982   -9.2678    2.0716 O   0  0  0  0  0  0  0  0  0  0  0  0
  -19.2650   -8.9736    6.7830 C   0  0  0  0  0  0  0  0  0  0  0  0
  -19.5651   -9.5694    5.5934 C   0  0  0  0  0  0  0  0  0  0  0  0
  -18.7528   -9.3820    4.4771 C   0  0  0  0  0  0  0  0  0  0  0  0
  -17.6336   -8.6045    4.5243 C   0  0  0  0  0  0  0  0  0  0  0  0
  -17.3350   -8.0002    5.7473 C   0  0  0  0  0  0  0  0  0  0  0  0
  -18.1278   -8.1768    6.8516 C   0  0  0  0  0  0  0  0  0  0  0  0
  -19.3859   -9.4270    9.1262 F   0  0  0  0  0  0  0  0  0  0  0  0
  -20.1190   -9.1367    8.0112 C   0  0  0  0  0  0  0  0  0  0  0  0
  -20.8381   -7.9876    8.2212 F   0  0  0  0  0  0  0  0  0  0  0  0
  -21.0242  -10.1636    7.7436 F   0  0  0  0  0  0  0  0  0  0  0  0
 30 31  1  0  0  0
 31 32  1  0  0  0
 31 33  1  0  0  0
 31 24  1  0  0  0
 24 25  2  0  0  0
 25 26  1  0  0  0
 26 27  2  0  0  0
 27 28  1  0  0  0
 28 29  2  0  0  0
 27 21  1  0  0  0
 21 22  2  0  0  0
 21 23  2  0  0  0
 21  1  1  0  0  0
  1  2  1  0  0  0
  2  3  1  0  0  0
  3  4  1  0  0  0
  4  5  1  0  0  0
  5  6  1  0  0  0
  4  7  1  0  0  0
  7  8  1  0  0  0
  8  9  2  0  0  0
  8 11  1  0  0  0
 11 12  2  0  0  0
 12 13  1  0  0  0
 13 14  1  0  0  0
 14 15  2  0  0  0
 15 16  1  0  0  0
 16 17  2  0  0  0
 17 18  1  0  0  0
 18 19  2  0  0  0
 29 24  1  0  0  0
  6  1  1  0  0  0
 19 11  1  0  0  0
 19 14  1  0  0  0
  7 10  1  0  0  0
 13 20  1  0  0  0
M  END
> <minimizedAffinity>
21.99168

> <CNNscore>
0.4078857303

> <CNNaffinity>
6.4107460976

> <CNN_VS>
2.6148519516

> <CNNaffinity_variance>
2.0850186348

$$$$
[H]c1c([H])c(S(=O)(=O)N2C([H])([H])C([H])([H])C([H])(N([H])C(=O)c3c([H])n([H])c4c([H])c([H])c([H])c([H])c34)C([H])([H])C2([H])[H])c([H])c([H])c1C(F)(F)F


 33 36  0  0  0  0  0  0  0  0999 V2000
   -7.6187   -7.7563    7.3887 N   0  0  0  0  0  0  0  0  0  0  0  0
   -8.4091   -6.6784    7.8460 C   0  0  0  0  0  0  0  0  0  0  0  0
   -9.8488   -6.7788    7.3216 C   0  0  0  0  0  0  0  0  0  0  0  0
  -10.3741   -8.0616    7.9788 C   0  0  0  0  0  0  0  0  0  0  0  0
   -9.5898   -9.2509    7.5271 C   0  0  0  0  0  0  0  0  0  0  0  0
   -8.2450   -8.9379    6.9479 C   0  0  0  0  0  0  0  0  0  0  0  0
  -11.7938   -8.2076    7.6995 N   0  0  0  0  0  0  0  0  0  0  0  0
  -12.7891   -7.4178    8.3176 C   0  0  0  0  0  0  0  0  0  0  0  0
  -12.4866   -6.5375    9.1615 O   0  0  0  0  0  0  0  0  0  0  0  0
  -12.0491   -8.9781    7.0117 H   0  0  0  0  0  0  0  0  0  0  0  0
  -14.2146   -7.5819    8.0166 C   0  0  0  0  0  0  0  0  0  0  0  0
  -15.0767   -8.3363    8.8218 C   0  0  0  0  0  0  0  0  0  0  0  0
  -16.2715   -8.3605    8.2280 N   0  0  0  0  0  0  0  0  0  0  0  0
  -16.2226   -7.6604    7.0843 C   0  0  0  0  0  0  0  0  0  0  0  0
  -17.1829   -7.3801    6.1212 C   0  0  0  0  0  0  0  0  0  0  0  0
  -16.8862   -6.6157    5.0208 C   0  0  0  0  0  0  0  0  0  0  0  0
  -15.6152   -6.1271    4.8878 C   0  0  0  0  0  0  0  0  0  0  0  0
  -14.6354   -6.3929    5.8362 C   0  0  0  0  0  0  0  0  0  0  0  0
  -14.9489   -7.1686    6.9400 C   0  0  0  0  0  0  0  0  0  0  0  0
  -17.1391   -8.8615    8.6012 H   0  0  0  0  0  0  0  0  0  0  0  0
   -6.2288   -7.4070    6.5008 S   0  0  0  0  0  0  0  0  0  0  0  0
   -5.5415   -8.7352    6.1914 O   0  0  0  0  0  0  0  0  0  0  0  0
   -6.6343   -6.8845    5.1156 O   0  0  0  0  0  0  0  0  0  0  0  0
   -3.3477   -4.3465    8.1856 C   0  0  0  0  0  0  0  0  0  0  0  0
   -4.0153   -5.1794    9.0346 C   0  0  0  0  0  0  0  0  0  0  0  0
   -4.8994   -6.1380    8.5445 C   0  0  0  0  0  0  0  0  0  0  0  0
   -5.1329   -6.2854    7.2092 C   0  0  0  0  0  0  0  0  0  0  0  0
   -4.4434   -5.4284    6.3487 C   0  0  0  0  0  0  0  0  0  0  0  0
   -3.5721   -4.4810    6.8201 C   0  0  0  0  0  0  0  0  0  0  0  0
   -2.0303   -3.4650    9.9738 F   0  0  0  0  0  0  0  0  0  0  0  0
   -2.3934   -3.2884    8.6693 C   0  0  0  0  0  0  0  0  0  0  0  0
   -1.2735   -3.2891    7.8772 F   0  0  0  0  0  0  0  0  0  0  0  0
   -3.0317   -2.0591    8.5046 F   0  0  0  0  0  0  0  0  0  0  0  0
 30 31  1  0  0  0
 31 32  1  0  0  0
 31 33  1  0  0  0
 31 24  1  0  0  0
 24 25  2  0  0  0
 25 26  1  0  0  0
 26 27  2  0  0  0
 27 28  1  0  0  0
 28 29  2  0  0  0
 27 21  1  0  0  0
 21 22  2  0  0  0
 21 23  2  0  0  0
 21  1  1  0  0  0
  1  2  1  0  0  0
  2  3  1  0  0  0
  3  4  1  0  0  0
  4  5  1  0  0  0
  5  6  1  0  0  0
  4  7  1  0  0  0
  7  8  1  0  0  0
  8  9  2  0  0  0
  8 11  1  0  0  0
 11 12  2  0  0  0
 12 13  1  0  0  0
 13 14  1  0  0  0
 14 15  2  0  0  0
 15 16  1  0  0  0
 16 17  2  0  0  0
 17 18  1  0  0  0
 18 19  2  0  0  0
 29 24  1  0  0  0
  6  1  1  0  0  0
 19 11  1  0  0  0
 19 14  1  0  0  0
  7 10  1  0  0  0
 13 20  1  0  0  0
M  END
> <minimizedAffinity>
-8.56609

> <CNNscore>
0.4068576694

> <CNNaffinity>
6.8956360817

> <CNN_VS>
2.8055424690

> <CNNaffinity_variance>
0.1841368377

$$$$
[H]c1c([H])c(S(=O)(=O)N2C([H])([H])C([H])([H])C([H])(N([H])C(=O)c3c([H])n([H])c4c([H])c([H])c([H])c([H])c34)C([H])([H])C2([H])[H])c([H])c([H])c1C(F)(F)F


 33 36  0  0  0  0  0  0  0  0999 V2000
   -9.9715   -7.8701    8.1146 N   0  0  0  0  0  0  0  0  0  0  0  0
   -8.7077   -7.2399    8.1533 C   0  0  0  0  0  0  0  0  0  0  0  0
   -7.6648   -8.1210    8.8560 C   0  0  0  0  0  0  0  0  0  0  0  0
   -7.5559   -9.3416    7.9330 C   0  0  0  0  0  0  0  0  0  0  0  0
   -8.8593  -10.0687    7.8558 C   0  0  0  0  0  0  0  0  0  0  0  0
  -10.0551   -9.2674    8.2676 C   0  0  0  0  0  0  0  0  0  0  0  0
   -6.4774  -10.2041    8.3889 N   0  0  0  0  0  0  0  0  0  0  0  0
   -6.2860  -11.5207    7.9131 C   0  0  0  0  0  0  0  0  0  0  0  0
   -7.0609  -12.0205    7.0597 O   0  0  0  0  0  0  0  0  0  0  0  0
   -5.8449   -9.7907    9.1380 H   0  0  0  0  0  0  0  0  0  0  0  0
   -5.1884  -12.3700    8.3861 C   0  0  0  0  0  0  0  0  0  0  0  0
   -5.3958  -13.4980    9.1893 C   0  0  0  0  0  0  0  0  0  0  0  0
   -4.1995  -13.9900    9.5171 N   0  0  0  0  0  0  0  0  0  0  0  0
   -3.2345  -13.2380    8.9658 C   0  0  0  0  0  0  0  0  0  0  0  0
   -1.8492  -13.3296    8.9969 C   0  0  0  0  0  0  0  0  0  0  0  0
   -1.0606  -12.4262    8.3296 C   0  0  0  0  0  0  0  0  0  0  0  0
   -1.6683  -11.4241    7.6237 C   0  0  0  0  0  0  0  0  0  0  0  0
   -3.0520  -11.3092    7.5766 C   0  0  0  0  0  0  0  0  0  0  0  0
   -3.8349  -12.2266    8.2576 C   0  0  0  0  0  0  0  0  0  0  0  0
   -4.0295  -14.8511   10.1275 H   0  0  0  0  0  0  0  0  0  0  0  0
  -11.2814   -7.0763    8.8190 S   0  0  0  0  0  0  0  0  0  0  0  0
  -11.4082   -7.5912   10.2511 O   0  0  0  0  0  0  0  0  0  0  0  0
  -10.9315   -5.5930    9.0032 O   0  0  0  0  0  0  0  0  0  0  0  0
  -15.3222   -7.3728    6.7967 C   0  0  0  0  0  0  0  0  0  0  0  0
  -14.2492   -6.9159    6.0896 C   0  0  0  0  0  0  0  0  0  0  0  0
  -12.9915   -6.8243    6.6821 C   0  0  0  0  0  0  0  0  0  0  0  0
  -12.7799   -7.1846    7.9800 C   0  0  0  0  0  0  0  0  0  0  0  0
  -13.8850   -7.6520    8.6944 C   0  0  0  0  0  0  0  0  0  0  0  0
  -15.1270   -7.7452    8.1218 C   0  0  0  0  0  0  0  0  0  0  0  0
  -17.0634   -6.3542    5.5154 F   0  0  0  0  0  0  0  0  0  0  0  0
  -16.7011   -7.4770    6.2032 C   0  0  0  0  0  0  0  0  0  0  0  0
  -16.7563   -8.5641    5.3685 F   0  0  0  0  0  0  0  0  0  0  0  0
  -17.5825   -7.7052    7.2600 F   0  0  0  0  0  0  0  0  0  0  0  0
 30 31  1  0  0  0
 31 32  1  0  0  0
 31 33  1  0  0  0
 31 24  1  0  0  0
 24 25  2  0  0  0
 25 26  1  0  0  0
 26 27  2  0  0  0
 27 28  1  0  0  0
 28 29  2  0  0  0
 27 21  1  0  0  0
 21 22  2  0  0  0
 21 23  2  0  0  0
 21  1  1  0  0  0
  1  2  1  0  0  0
  2  3  1  0  0  0
  3  4  1  0  0  0
  4  5  1  0  0  0
  5  6  1  0  0  0
  4  7  1  0  0  0
  7  8  1  0  0  0
  8  9  2  0  0  0
  8 11  1  0  0  0
 11 12  2  0  0  0
 12 13  1  0  0  0
 13 14  1  0  0  0
 14 15  2  0  0  0
 15 16  1  0  0  0
 16 17  2  0  0  0
 17 18  1  0  0  0
 18 19  2  0  0  0
 29 24  1  0  0  0
  6  1  1  0  0  0
 19 11  1  0  0  0
 19 14  1  0  0  0
  7 10  1  0  0  0
 13 20  1  0  0  0
M  END
> <minimizedAffinity>
13.21399

> <CNNscore>
0.3626157939

> <CNNaffinity>
5.9760060310

> <CNN_VS>
2.1669940948

> <CNNaffinity_variance>
0.6678321958

$$$$
[H]c1c([H])c(S(=O)(=O)N2C([H])([H])C([H])([H])C([H])(N([H])C(=O)c3c([H])n([H])c4c([H])c([H])c([H])c([H])c34)C([H])([H])C2([H])[H])c([H])c([H])c1C(F)(F)F


 33 36  0  0  0  0  0  0  0  0999 V2000
  -15.3797   -7.0584    3.5599 N   0  0  0  0  0  0  0  0  0  0  0  0
  -16.7300   -6.7727    3.8610 C   0  0  0  0  0  0  0  0  0  0  0  0
  -16.8467   -5.6131    4.8607 C   0  0  0  0  0  0  0  0  0  0  0  0
  -16.2734   -4.4204    4.0847 C   0  0  0  0  0  0  0  0  0  0  0  0
  -14.8362   -4.6483    3.7436 C   0  0  0  0  0  0  0  0  0  0  0  0
  -14.3951   -6.0783    3.7897 C   0  0  0  0  0  0  0  0  0  0  0  0
  -16.4638   -3.2005    4.8531 N   0  0  0  0  0  0  0  0  0  0  0  0
  -15.4042   -2.5090    5.4820 C   0  0  0  0  0  0  0  0  0  0  0  0
  -14.2225   -2.9299    5.4102 O   0  0  0  0  0  0  0  0  0  0  0  0
  -17.4701   -2.8668    4.9421 H   0  0  0  0  0  0  0  0  0  0  0  0
  -15.6213   -1.2783    6.2489 C   0  0  0  0  0  0  0  0  0  0  0  0
  -16.3206   -0.1794    5.7352 C   0  0  0  0  0  0  0  0  0  0  0  0
  -16.2613    0.7999    6.6397 N   0  0  0  0  0  0  0  0  0  0  0  0
  -15.5616    0.3875    7.7079 C   0  0  0  0  0  0  0  0  0  0  0  0
  -15.2254    1.0142    8.9006 C   0  0  0  0  0  0  0  0  0  0  0  0
  -14.4945    0.3660    9.8644 C   0  0  0  0  0  0  0  0  0  0  0  0
  -14.1001   -0.9227    9.6293 C   0  0  0  0  0  0  0  0  0  0  0  0
  -14.4224   -1.5729    8.4446 C   0  0  0  0  0  0  0  0  0  0  0  0
  -15.1580   -0.9047    7.4797 C   0  0  0  0  0  0  0  0  0  0  0  0
  -16.7009    1.7688    6.5341 H   0  0  0  0  0  0  0  0  0  0  0  0
  -14.8064   -8.6149    3.8613 S   0  0  0  0  0  0  0  0  0  0  0  0
  -15.9738   -9.5773    3.6534 O   0  0  0  0  0  0  0  0  0  0  0  0
  -13.8175   -9.0101    2.7557 O   0  0  0  0  0  0  0  0  0  0  0  0
  -12.9370   -9.1256    7.9540 C   0  0  0  0  0  0  0  0  0  0  0  0
  -12.8146  -10.1218    7.0306 C   0  0  0  0  0  0  0  0  0  0  0  0
  -13.3697   -9.9882    5.7598 C   0  0  0  0  0  0  0  0  0  0  0  0
  -14.0511   -8.8676    5.3866 C   0  0  0  0  0  0  0  0  0  0  0  0
  -14.1696   -7.8534    6.3392 C   0  0  0  0  0  0  0  0  0  0  0  0
  -13.6284   -7.9748    7.5928 C   0  0  0  0  0  0  0  0  0  0  0  0
  -11.0165   -9.0208    9.3722 F   0  0  0  0  0  0  0  0  0  0  0  0
  -12.3656   -9.2302    9.3422 C   0  0  0  0  0  0  0  0  0  0  0  0
  -12.9891   -8.3229   10.1605 F   0  0  0  0  0  0  0  0  0  0  0  0
  -12.6698  -10.5080    9.8119 F   0  0  0  0  0  0  0  0  0  0  0  0
 30 31  1  0  0  0
 31 32  1  0  0  0
 31 33  1  0  0  0
 31 24  1  0  0  0
 24 25  2  0  0  0
 25 26  1  0  0  0
 26 27  2  0  0  0
 27 28  1  0  0  0
 28 29  2  0  0  0
 27 21  1  0  0  0
 21 22  2  0  0  0
 21 23  2  0  0  0
 21  1  1  0  0  0
  1  2  1  0  0  0
  2  3  1  0  0  0
  3  4  1  0  0  0
  4  5  1  0  0  0
  5  6  1  0  0  0
  4  7  1  0  0  0
  7  8  1  0  0  0
  8  9  2  0  0  0
  8 11  1  0  0  0
 11 12  2  0  0  0
 12 13  1  0  0  0
 13 14  1  0  0  0
 14 15  2  0  0  0
 15 16  1  0  0  0
 16 17  2  0  0  0
 17 18  1  0  0  0
 18 19  2  0  0  0
 29 24  1  0  0  0
  6  1  1  0  0  0
 19 11  1  0  0  0
 19 14  1  0  0  0
  7 10  1  0  0  0
 13 20  1  0  0  0
M  END
> <minimizedAffinity>
35.06520

> <CNNscore>
0.3592014015

> <CNNaffinity>
6.5774850845

> <CNN_VS>
2.3626418114

> <CNNaffinity_variance>
1.3125028610

$$$$
[H]c1c([H])c(S(=O)(=O)N2C([H])([H])C([H])([H])C([H])(N([H])C(=O)c3c([H])n([H])c4c([H])c([H])c([H])c([H])c34)C([H])([H])C2([H])[H])c([H])c([H])c1C(F)(F)F


 33 36  0  0  0  0  0  0  0  0999 V2000
  -14.8780   -9.5535    6.5216 N   0  0  0  0  0  0  0  0  0  0  0  0
  -13.8615  -10.5267    6.3988 C   0  0  0  0  0  0  0  0  0  0  0  0
  -12.4753   -9.8762    6.2843 C   0  0  0  0  0  0  0  0  0  0  0  0
  -12.3006   -9.1793    7.6398 C   0  0  0  0  0  0  0  0  0  0  0  0
  -13.3388   -8.1216    7.8324 C   0  0  0  0  0  0  0  0  0  0  0  0
  -14.5478   -8.2566    6.9595 C   0  0  0  0  0  0  0  0  0  0  0  0
  -10.9524   -8.6442    7.7438 N   0  0  0  0  0  0  0  0  0  0  0  0
   -9.9531   -8.8703    6.7709 C   0  0  0  0  0  0  0  0  0  0  0  0
  -10.1870   -9.5658    5.7510 O   0  0  0  0  0  0  0  0  0  0  0  0
  -10.7473   -8.0861    8.6261 H   0  0  0  0  0  0  0  0  0  0  0  0
   -8.6012   -8.3168    6.8968 C   0  0  0  0  0  0  0  0  0  0  0  0
   -7.7026   -8.2616    5.8245 C   0  0  0  0  0  0  0  0  0  0  0  0
   -6.5429   -7.7924    6.2888 N   0  0  0  0  0  0  0  0  0  0  0  0
   -6.6496   -7.5424    7.6029 C   0  0  0  0  0  0  0  0  0  0  0  0
   -5.7464   -7.0461    8.5336 C   0  0  0  0  0  0  0  0  0  0  0  0
   -6.1033   -6.8656    9.8463 C   0  0  0  0  0  0  0  0  0  0  0  0
   -7.3782   -7.1842   10.2268 C   0  0  0  0  0  0  0  0  0  0  0  0
   -8.3013   -7.6830    9.3162 C   0  0  0  0  0  0  0  0  0  0  0  0
   -7.9257   -7.8626    7.9952 C   0  0  0  0  0  0  0  0  0  0  0  0
   -5.6590   -7.6388    5.7073 H   0  0  0  0  0  0  0  0  0  0  0  0
  -16.1127   -9.5390    5.3736 S   0  0  0  0  0  0  0  0  0  0  0  0
  -15.5672  -10.2033    4.1113 O   0  0  0  0  0  0  0  0  0  0  0  0
  -17.2294  -10.4914    5.8234 O   0  0  0  0  0  0  0  0  0  0  0  0
  -17.8111   -5.4165    4.5829 C   0  0  0  0  0  0  0  0  0  0  0  0
  -18.0755   -6.4306    3.7101 C   0  0  0  0  0  0  0  0  0  0  0  0
  -17.5757   -7.7118    3.9332 C   0  0  0  0  0  0  0  0  0  0  0  0
  -16.8099   -8.0056    5.0224 C   0  0  0  0  0  0  0  0  0  0  0  0
  -16.5462   -6.9603    5.9102 C   0  0  0  0  0  0  0  0  0  0  0  0
  -17.0319   -5.6958    5.6998 C   0  0  0  0  0  0  0  0  0  0  0  0
  -19.3966   -3.9638    3.5404 F   0  0  0  0  0  0  0  0  0  0  0  0
  -18.3183   -4.0148    4.3769 C   0  0  0  0  0  0  0  0  0  0  0  0
  -18.6525   -3.4689    5.5901 F   0  0  0  0  0  0  0  0  0  0  0  0
  -17.2604   -3.2725    3.8520 F   0  0  0  0  0  0  0  0  0  0  0  0
 30 31  1  0  0  0
 31 32  1  0  0  0
 31 33  1  0  0  0
 31 24  1  0  0  0
 24 25  2  0  0  0
 25 26  1  0  0  0
 26 27  2  0  0  0
 27 28  1  0  0  0
 28 29  2  0  0  0
 27 21  1  0  0  0
 21 22  2  0  0  0
 21 23  2  0  0  0
 21  1  1  0  0  0
  1  2  1  0  0  0
  2  3  1  0  0  0
  3  4  1  0  0  0
  4  5  1  0  0  0
  5  6  1  0  0  0
  4  7  1  0  0  0
  7  8  1  0  0  0
  8  9  2  0  0  0
  8 11  1  0  0  0
 11 12  2  0  0  0
 12 13  1  0  0  0
 13 14  1  0  0  0
 14 15  2  0  0  0
 15 16  1  0  0  0
 16 17  2  0  0  0
 17 18  1  0  0  0
 18 19  2  0  0  0
 29 24  1  0  0  0
  6  1  1  0  0  0
 19 11  1  0  0  0
 19 14  1  0  0  0
  7 10  1  0  0  0
 13 20  1  0  0  0
M  END
> <minimizedAffinity>
14.49526

> <CNNscore>
0.3165003061

> <CNNaffinity>
6.3418478966

> <CNN_VS>
2.0071969032

> <CNNaffinity_variance>
1.6448280811

$$$$
[H]c1c([H])c(S(=O)(=O)N2C([H])([H])C([H])([H])C([H])(N([H])C(=O)c3c([H])n([H])c4c([H])c([H])c([H])c([H])c34)C([H])([H])C2([H])[H])c([H])c([H])c1C(F)(F)F


 33 36  0  0  0  0  0  0  0  0999 V2000
   -7.0282   -8.5489    6.8503 N   0  0  0  0  0  0  0  0  0  0  0  0
   -6.9149   -8.1466    5.5009 C   0  0  0  0  0  0  0  0  0  0  0  0
   -6.7253   -6.6273    5.3843 C   0  0  0  0  0  0  0  0  0  0  0  0
   -5.3706   -6.3886    6.0636 C   0  0  0  0  0  0  0  0  0  0  0  0
   -5.4213   -6.7804    7.5049 C   0  0  0  0  0  0  0  0  0  0  0  0
   -6.5389   -7.7082    7.8684 C   0  0  0  0  0  0  0  0  0  0  0  0
   -4.9754   -4.9998    5.8905 N   0  0  0  0  0  0  0  0  0  0  0  0
   -3.7848   -4.6099    5.2371 C   0  0  0  0  0  0  0  0  0  0  0  0
   -2.9913   -5.4653    4.7710 O   0  0  0  0  0  0  0  0  0  0  0  0
   -5.6314   -4.2795    6.3181 H   0  0  0  0  0  0  0  0  0  0  0  0
   -3.4097   -3.2022    5.0721 C   0  0  0  0  0  0  0  0  0  0  0  0
   -3.0585   -2.3807    6.1502 C   0  0  0  0  0  0  0  0  0  0  0  0
   -2.8637   -1.1484    5.6766 N   0  0  0  0  0  0  0  0  0  0  0  0
   -3.0702   -1.1354    4.3508 C   0  0  0  0  0  0  0  0  0  0  0  0
   -2.9902   -0.1218    3.4049 C   0  0  0  0  0  0  0  0  0  0  0  0
   -3.2429   -0.3643    2.0780 C   0  0  0  0  0  0  0  0  0  0  0  0
   -3.5766   -1.6355    1.6979 C   0  0  0  0  0  0  0  0  0  0  0  0
   -3.6643   -2.6676    2.6237 C   0  0  0  0  0  0  0  0  0  0  0  0
   -3.4094   -2.4070    3.9599 C   0  0  0  0  0  0  0  0  0  0  0  0
   -2.5868   -0.2966    6.2604 H   0  0  0  0  0  0  0  0  0  0  0  0
   -8.4209   -9.3725    7.3238 S   0  0  0  0  0  0  0  0  0  0  0  0
   -8.8823  -10.2078    6.1315 O   0  0  0  0  0  0  0  0  0  0  0  0
   -8.0490  -10.4274    8.3752 O   0  0  0  0  0  0  0  0  0  0  0  0
  -11.9102   -7.0093    8.9806 C   0  0  0  0  0  0  0  0  0  0  0  0
  -10.6659   -6.4511    8.9692 C   0  0  0  0  0  0  0  0  0  0  0  0
   -9.5756   -7.1500    8.4556 C   0  0  0  0  0  0  0  0  0  0  0  0
   -9.7030   -8.4083    7.9461 C   0  0  0  0  0  0  0  0  0  0  0  0
  -10.9815   -8.9699    7.9616 C   0  0  0  0  0  0  0  0  0  0  0  0
  -12.0610   -8.2917    8.4654 C   0  0  0  0  0  0  0  0  0  0  0  0
  -12.7926   -5.1214   10.1503 F   0  0  0  0  0  0  0  0  0  0  0  0
  -13.1143   -6.2980    9.5362 C   0  0  0  0  0  0  0  0  0  0  0  0
  -14.0082   -6.0577    8.5239 F   0  0  0  0  0  0  0  0  0  0  0  0
  -13.7194   -7.1694   10.4418 F   0  0  0  0  0  0  0  0  0  0  0  0
 30 31  1  0  0  0
 31 32  1  0  0  0
 31 33  1  0  0  0
 31 24  1  0  0  0
 24 25  2  0  0  0
 25 26  1  0  0  0
 26 27  2  0  0  0
 27 28  1  0  0  0
 28 29  2  0  0  0
 27 21  1  0  0  0
 21 22  2  0  0  0
 21 23  2  0  0  0
 21  1  1  0  0  0
  1  2  1  0  0  0
  2  3  1  0  0  0
  3  4  1  0  0  0
  4  5  1  0  0  0
  5  6  1  0  0  0
  4  7  1  0  0  0
  7  8  1  0  0  0
  8  9  2  0  0  0
  8 11  1  0  0  0
 11 12  2  0  0  0
 12 13  1  0  0  0
 13 14  1  0  0  0
 14 15  2  0  0  0
 15 16  1  0  0  0
 16 17  2  0  0  0
 17 18  1  0  0  0
 18 19  2  0  0  0
 29 24  1  0  0  0
  6  1  1  0  0  0
 19 11  1  0  0  0
 19 14  1  0  0  0
  7 10  1  0  0  0
 13 20  1  0  0  0
M  END
> <minimizedAffinity>
-8.58212

> <CNNscore>
0.3084573150

> <CNNaffinity>
5.8642449379

> <CNN_VS>
1.8088692427

> <CNNaffinity_variance>
0.3140405118

$$$$
[H]c1c([H])c(S(=O)(=O)N2C([H])([H])C([H])([H])C([H])(N([H])C(=O)c3c([H])n([H])c4c([H])c([H])c([H])c([H])c34)C([H])([H])C2([H])[H])c([H])c([H])c1C(F)(F)F


 33 36  0  0  0  0  0  0  0  0999 V2000
  -11.2056   -8.2734    7.5707 N   0  0  0  0  0  0  0  0  0  0  0  0
  -10.6104   -6.9942    7.6423 C   0  0  0  0  0  0  0  0  0  0  0  0
   -9.2029   -7.0657    8.2520 C   0  0  0  0  0  0  0  0  0  0  0  0
   -8.4176   -7.8954    7.2281 C   0  0  0  0  0  0  0  0  0  0  0  0
   -8.9858   -9.2727    7.1105 C   0  0  0  0  0  0  0  0  0  0  0  0
  -10.3905   -9.4210    7.6070 C   0  0  0  0  0  0  0  0  0  0  0  0
   -7.0099   -7.9164    7.5928 N   0  0  0  0  0  0  0  0  0  0  0  0
   -5.9991   -7.3131    6.8114 C   0  0  0  0  0  0  0  0  0  0  0  0
   -6.2758   -6.7230    5.7372 O   0  0  0  0  0  0  0  0  0  0  0  0
   -6.7750   -8.4479    8.4841 H   0  0  0  0  0  0  0  0  0  0  0  0
   -4.5864   -7.3450    7.2024 C   0  0  0  0  0  0  0  0  0  0  0  0
   -3.6808   -8.2837    6.6932 C   0  0  0  0  0  0  0  0  0  0  0  0
   -2.5131   -8.1006    7.3126 N   0  0  0  0  0  0  0  0  0  0  0  0
   -2.6207   -7.0928    8.1922 C   0  0  0  0  0  0  0  0  0  0  0  0
   -1.7072   -6.5148    9.0637 C   0  0  0  0  0  0  0  0  0  0  0  0
   -2.0612   -5.4646    9.8732 C   0  0  0  0  0  0  0  0  0  0  0  0
   -3.3425   -4.9899    9.8050 C   0  0  0  0  0  0  0  0  0  0  0  0
   -4.2763   -5.5502    8.9424 C   0  0  0  0  0  0  0  0  0  0  0  0
   -3.9052   -6.6117    8.1337 C   0  0  0  0  0  0  0  0  0  0  0  0
   -1.6240   -8.6686    7.1399 H   0  0  0  0  0  0  0  0  0  0  0  0
  -12.6756   -8.5155    8.3599 S   0  0  0  0  0  0  0  0  0  0  0  0
  -12.6282   -9.9044    8.9928 O   0  0  0  0  0  0  0  0  0  0  0  0
  -12.7581   -7.5749    9.5702 O   0  0  0  0  0  0  0  0  0  0  0  0
  -16.3173   -8.0805    5.7039 C   0  0  0  0  0  0  0  0  0  0  0  0
  -16.4337   -7.8598    7.0448 C   0  0  0  0  0  0  0  0  0  0  0  0
  -15.3283   -7.9753    7.8849 C   0  0  0  0  0  0  0  0  0  0  0  0
  -14.0948   -8.3091    7.4091 C   0  0  0  0  0  0  0  0  0  0  0  0
  -13.9867   -8.5317    6.0347 C   0  0  0  0  0  0  0  0  0  0  0  0
  -15.0678   -8.4219    5.1991 C   0  0  0  0  0  0  0  0  0  0  0  0
  -18.5091   -8.8168    5.1000 F   0  0  0  0  0  0  0  0  0  0  0  0
  -17.4849   -7.9798    4.7600 C   0  0  0  0  0  0  0  0  0  0  0  0
  -17.9392   -6.6858    4.7344 F   0  0  0  0  0  0  0  0  0  0  0  0
  -17.0065   -8.2894    3.4868 F   0  0  0  0  0  0  0  0  0  0  0  0
 30 31  1  0  0  0
 31 32  1  0  0  0
 31 33  1  0  0  0
 31 24  1  0  0  0
 24 25  2  0  0  0
 25 26  1  0  0  0
 26 27  2  0  0  0
 27 28  1  0  0  0
 28 29  2  0  0  0
 27 21  1  0  0  0
 21 22  2  0  0  0
 21 23  2  0  0  0
 21  1  1  0  0  0
  1  2  1  0  0  0
  2  3  1  0  0  0
  3  4  1  0  0  0
  4  5  1  0  0  0
  5  6  1  0  0  0
  4  7  1  0  0  0
  7  8  1  0  0  0
  8  9  2  0  0  0
  8 11  1  0  0  0
 11 12  2  0  0  0
 12 13  1  0  0  0
 13 14  1  0  0  0
 14 15  2  0  0  0
 15 16  1  0  0  0
 16 17  2  0  0  0
 17 18  1  0  0  0
 18 19  2  0  0  0
 29 24  1  0  0  0
  6  1  1  0  0  0
 19 11  1  0  0  0
 19 14  1  0  0  0
  7 10  1  0  0  0
 13 20  1  0  0  0
M  END
> <minimizedAffinity>
-9.01709

> <CNNscore>
0.2684092224

> <CNNaffinity>
6.2832994461

> <CNN_VS>
1.6864955425

> <CNNaffinity_variance>
0.2763001025

$$$$
[H]c1c([H])c(S(=O)(=O)N2C([H])([H])C([H])([H])C([H])(N([H])C(=O)c3c([H])n([H])c4c([H])c([H])c([H])c([H])c34)C([H])([H])C2([H])[H])c([H])c([H])c1C(F)(F)F


 33 36  0  0  0  0  0  0  0  0999 V2000
   -7.0115   -8.6153    7.0225 N   0  0  0  0  0  0  0  0  0  0  0  0
   -6.6906   -8.2897    5.6858 C   0  0  0  0  0  0  0  0  0  0  0  0
   -6.5487   -6.7723    5.4986 C   0  0  0  0  0  0  0  0  0  0  0  0
   -5.3385   -6.4214    6.3737 C   0  0  0  0  0  0  0  0  0  0  0  0
   -5.6135   -6.7278    7.8104 C   0  0  0  0  0  0  0  0  0  0  0  0
   -6.7359   -7.6900    8.0474 C   0  0  0  0  0  0  0  0  0  0  0  0
   -4.9789   -5.0265    6.1736 N   0  0  0  0  0  0  0  0  0  0  0  0
   -3.8679   -4.6169    5.4029 C   0  0  0  0  0  0  0  0  0  0  0  0
   -3.1182   -5.4587    4.8479 O   0  0  0  0  0  0  0  0  0  0  0  0
   -5.5944   -4.3178    6.6745 H   0  0  0  0  0  0  0  0  0  0  0  0
   -3.5278   -3.2034    5.2131 C   0  0  0  0  0  0  0  0  0  0  0  0
   -3.5193   -2.5888    3.9550 C   0  0  0  0  0  0  0  0  0  0  0  0
   -3.0834   -1.3379    4.1158 N   0  0  0  0  0  0  0  0  0  0  0  0
   -2.8124   -1.1162    5.4112 C   0  0  0  0  0  0  0  0  0  0  0  0
   -2.3484    0.0041    6.0879 C   0  0  0  0  0  0  0  0  0  0  0  0
   -2.1566   -0.0133    7.4467 C   0  0  0  0  0  0  0  0  0  0  0  0
   -2.4351   -1.1645    8.1314 C   0  0  0  0  0  0  0  0  0  0  0  0
   -2.8997   -2.2996    7.4789 C   0  0  0  0  0  0  0  0  0  0  0  0
   -3.0856   -2.2679    6.1067 C   0  0  0  0  0  0  0  0  0  0  0  0
   -2.9642   -0.6178    3.3345 H   0  0  0  0  0  0  0  0  0  0  0  0
   -8.4278   -9.4818    7.3154 S   0  0  0  0  0  0  0  0  0  0  0  0
   -8.8294  -10.1527    6.0037 O   0  0  0  0  0  0  0  0  0  0  0  0
   -8.1114  -10.6661    8.2393 O   0  0  0  0  0  0  0  0  0  0  0  0
  -11.7704   -6.9719    9.0570 C   0  0  0  0  0  0  0  0  0  0  0  0
  -12.0181   -8.2639    8.6969 C   0  0  0  0  0  0  0  0  0  0  0  0
  -11.0067   -9.0633    8.1688 C   0  0  0  0  0  0  0  0  0  0  0  0
   -9.7382   -8.5953    7.9918 C   0  0  0  0  0  0  0  0  0  0  0  0
   -9.4953   -7.2716    8.3649 C   0  0  0  0  0  0  0  0  0  0  0  0
  -10.4832   -6.4759    8.8844 C   0  0  0  0  0  0  0  0  0  0  0  0
  -13.8062   -5.7702    8.7082 F   0  0  0  0  0  0  0  0  0  0  0  0
  -12.8335   -6.0675    9.6194 C   0  0  0  0  0  0  0  0  0  0  0  0
  -13.4004   -6.6603   10.7188 F   0  0  0  0  0  0  0  0  0  0  0  0
  -12.1937   -4.9033   10.0447 F   0  0  0  0  0  0  0  0  0  0  0  0
 30 31  1  0  0  0
 31 32  1  0  0  0
 31 33  1  0  0  0
 31 24  1  0  0  0
 24 25  2  0  0  0
 25 26  1  0  0  0
 26 27  2  0  0  0
 27 28  1  0  0  0
 28 29  2  0  0  0
 27 21  1  0  0  0
 21 22  2  0  0  0
 21 23  2  0  0  0
 21  1  1  0  0  0
  1  2  1  0  0  0
  2  3  1  0  0  0
  3  4  1  0  0  0
  4  5  1  0  0  0
  5  6  1  0  0  0
  4  7  1  0  0  0
  7  8  1  0  0  0
  8  9  2  0  0  0
  8 11  1  0  0  0
 11 12  2  0  0  0
 12 13  1  0  0  0
 13 14  1  0  0  0
 14 15  2  0  0  0
 15 16  1  0  0  0
 16 17  2  0  0  0
 17 18  1  0  0  0
 18 19  2  0  0  0
 29 24  1  0  0  0
  6  1  1  0  0  0
 19 11  1  0  0  0
 19 14  1  0  0  0
  7 10  1  0  0  0
 13 20  1  0  0  0
M  END
> <minimizedAffinity>
-7.98476

> <CNNscore>
0.2313054502

> <CNNaffinity>
5.7524318695

> <CNN_VS>
1.3305687904

> <CNNaffinity_variance>
0.2666602731

$$$$
[H]c1c([H])c(C2([H])C([H])([H])C([H])([H])N(S(=O)(=O)c3c([H])c(OC([H])([H])[H])c(OC([H])([H])[H])c(OC([H])([H])[H])c3[H])C([H])([H])C2([H])[H])c([H])c([H])c1F


 28 30  0  0  0  0  0  0  0  0999 V2000
  -17.3786   -5.1924    3.7774 S   0  0  0  0  0  0  0  0  0  0  0  0
  -17.9777   -6.1524    2.7921 O   0  0  0  0  0  0  0  0  0  0  0  0
  -16.3967   -4.2597    3.0937 O   0  0  0  0  0  0  0  0  0  0  0  0
  -20.6780   -2.8917    4.1534 C   0  0  0  0  0  0  0  0  0  0  0  0
  -19.6682   -3.6821    3.6554 C   0  0  0  0  0  0  0  0  0  0  0  0
  -18.6480   -4.1931    4.4294 C   0  0  0  0  0  0  0  0  0  0  0  0
  -18.6730   -3.8749    5.7683 C   0  0  0  0  0  0  0  0  0  0  0  0
  -19.6805   -3.0776    6.3040 C   0  0  0  0  0  0  0  0  0  0  0  0
  -20.6828   -2.5867    5.4938 C   0  0  0  0  0  0  0  0  0  0  0  0
  -21.6621   -1.0836    2.8665 C   0  0  0  0  0  0  0  0  0  0  0  0
  -21.6554   -2.4260    3.3063 O   0  0  0  0  0  0  0  0  0  0  0  0
  -19.6777   -2.7730    7.6651 O   0  0  0  0  0  0  0  0  0  0  0  0
  -18.6571   -1.9441    8.1907 C   0  0  0  0  0  0  0  0  0  0  0  0
  -21.6765   -1.7902    6.0668 O   0  0  0  0  0  0  0  0  0  0  0  0
  -21.4914   -0.4316    6.3816 C   0  0  0  0  0  0  0  0  0  0  0  0
  -16.6171   -6.0398    5.0747 N   0  0  0  0  0  0  0  0  0  0  0  0
  -15.4717   -5.3949    5.5775 C   0  0  0  0  0  0  0  0  0  0  0  0
  -14.4811   -6.1712    6.3187 C   0  0  0  0  0  0  0  0  0  0  0  0
  -14.6149   -7.6599    6.2896 C   0  0  0  0  0  0  0  0  0  0  0  0
  -16.0732   -8.0863    6.1390 C   0  0  0  0  0  0  0  0  0  0  0  0
  -16.5001   -7.4401    4.8132 C   0  0  0  0  0  0  0  0  0  0  0  0
  -14.0271   -8.3046    7.4984 C   0  0  0  0  0  0  0  0  0  0  0  0
  -13.5359   -9.5813    7.4788 C   0  0  0  0  0  0  0  0  0  0  0  0
  -12.9884  -10.1991    8.5810 C   0  0  0  0  0  0  0  0  0  0  0  0
  -12.9430   -9.4732    9.7573 C   0  0  0  0  0  0  0  0  0  0  0  0
  -12.4164  -10.0197   10.8837 F   0  0  0  0  0  0  0  0  0  0  0  0
  -13.4375   -8.1857    9.7803 C   0  0  0  0  0  0  0  0  0  0  0  0
  -13.9865   -7.5633    8.6790 C   0  0  0  0  0  0  0  0  0  0  0  0
 10 11  1  0  0  0
 11  4  1  0  0  0
  4  5  2  0  0  0
  5  6  1  0  0  0
  6  7  2  0  0  0
  7  8  1  0  0  0
  8 12  1  0  0  0
 12 13  1  0  0  0
  8  9  2  0  0  0
  9 14  1  0  0  0
 14 15  1  0  0  0
  6  1  1  0  0  0
  1  2  2  0  0  0
  1  3  2  0  0  0
  1 16  1  0  0  0
 16 17  1  0  0  0
 17 18  1  0  0  0
 18 19  1  0  0  0
 19 20  1  0  0  0
 20 21  1  0  0  0
 19 22  1  0  0  0
 22 23  2  0  0  0
 23 24  1  0  0  0
 24 25  2  0  0  0
 25 26  1  0  0  0
 25 27  1  0  0  0
 27 28  2  0  0  0
  9  4  1  0  0  0
 21 16  1  0  0  0
 28 22  1  0  0  0
M  END
> <minimizedAffinity>
18.08798

> <CNNscore>
0.5248067379

> <CNNaffinity>
6.5182991028

> <CNN_VS>
3.4208471775

> <CNNaffinity_variance>
0.2828899324

$$$$
[H]c1c([H])c(C2([H])C([H])([H])C([H])([H])N(S(=O)(=O)c3c([H])c(OC([H])([H])[H])c(OC([H])([H])[H])c(OC([H])([H])[H])c3[H])C([H])([H])C2([H])[H])c([H])c([H])c1F


 28 30  0  0  0  0  0  0  0  0999 V2000
  -10.9461   -7.5767    8.8250 S   0  0  0  0  0  0  0  0  0  0  0  0
  -10.9419   -8.9551    9.4176 O   0  0  0  0  0  0  0  0  0  0  0  0
  -11.0998   -6.5243    9.9069 O   0  0  0  0  0  0  0  0  0  0  0  0
   -6.9804   -7.3549    8.0872 C   0  0  0  0  0  0  0  0  0  0  0  0
   -8.2046   -7.5751    8.6746 C   0  0  0  0  0  0  0  0  0  0  0  0
   -9.4064   -7.2897    8.0620 C   0  0  0  0  0  0  0  0  0  0  0  0
   -9.3397   -6.7567    6.7947 C   0  0  0  0  0  0  0  0  0  0  0  0
   -8.1170   -6.5216    6.1720 C   0  0  0  0  0  0  0  0  0  0  0  0
   -6.9377   -6.8218    6.8209 C   0  0  0  0  0  0  0  0  0  0  0  0
   -5.1200   -6.6879    9.4972 C   0  0  0  0  0  0  0  0  0  0  0  0
   -5.8319   -7.6704    8.7738 O   0  0  0  0  0  0  0  0  0  0  0  0
   -8.0829   -5.9803    4.8870 O   0  0  0  0  0  0  0  0  0  0  0  0
   -9.1774   -5.2083    4.4277 C   0  0  0  0  0  0  0  0  0  0  0  0
   -5.7306   -6.5721    6.1645 O   0  0  0  0  0  0  0  0  0  0  0  0
   -4.9722   -5.4036    6.3606 C   0  0  0  0  0  0  0  0  0  0  0  0
  -12.1911   -7.4222    7.6388 N   0  0  0  0  0  0  0  0  0  0  0  0
  -13.2072   -6.5175    7.9986 C   0  0  0  0  0  0  0  0  0  0  0  0
  -14.5157   -6.6193    7.3574 C   0  0  0  0  0  0  0  0  0  0  0  0
  -14.7822   -7.8375    6.5329 C   0  0  0  0  0  0  0  0  0  0  0  0
  -13.4987   -8.3823    5.9110 C   0  0  0  0  0  0  0  0  0  0  0  0
  -12.6133   -8.6885    7.1275 C   0  0  0  0  0  0  0  0  0  0  0  0
  -15.7898   -7.5873    5.4630 C   0  0  0  0  0  0  0  0  0  0  0  0
  -16.8486   -8.4263    5.2469 C   0  0  0  0  0  0  0  0  0  0  0  0
  -17.7922   -8.2176    4.2659 C   0  0  0  0  0  0  0  0  0  0  0  0
  -17.6423   -7.0964    3.4703 C   0  0  0  0  0  0  0  0  0  0  0  0
  -18.5357   -6.8280    2.4832 F   0  0  0  0  0  0  0  0  0  0  0  0
  -16.5757   -6.2486    3.6857 C   0  0  0  0  0  0  0  0  0  0  0  0
  -15.6286   -6.4538    4.6668 C   0  0  0  0  0  0  0  0  0  0  0  0
 10 11  1  0  0  0
 11  4  1  0  0  0
  4  5  2  0  0  0
  5  6  1  0  0  0
  6  7  2  0  0  0
  7  8  1  0  0  0
  8 12  1  0  0  0
 12 13  1  0  0  0
  8  9  2  0  0  0
  9 14  1  0  0  0
 14 15  1  0  0  0
  6  1  1  0  0  0
  1  2  2  0  0  0
  1  3  2  0  0  0
  1 16  1  0  0  0
 16 17  1  0  0  0
 17 18  1  0  0  0
 18 19  1  0  0  0
 19 20  1  0  0  0
 20 21  1  0  0  0
 19 22  1  0  0  0
 22 23  2  0  0  0
 23 24  1  0  0  0
 24 25  2  0  0  0
 25 26  1  0  0  0
 25 27  1  0  0  0
 27 28  2  0  0  0
  9  4  1  0  0  0
 21 16  1  0  0  0
 28 22  1  0  0  0
M  END
> <minimizedAffinity>
-1.62117

> <CNNscore>
0.4907356501

> <CNNaffinity>
6.6767363548

> <CNN_VS>
3.2765126228

> <CNNaffinity_variance>
0.3373388648

$$$$
[H]c1c([H])c(C2([H])C([H])([H])C([H])([H])N(S(=O)(=O)c3c([H])c(OC([H])([H])[H])c(OC([H])([H])[H])c(OC([H])([H])[H])c3[H])C([H])([H])C2([H])[H])c([H])c([H])c1F


 28 30  0  0  0  0  0  0  0  0999 V2000
  -14.3506   -8.6901    5.0480 S   0  0  0  0  0  0  0  0  0  0  0  0
  -14.2695  -10.1803    4.8938 O   0  0  0  0  0  0  0  0  0  0  0  0
  -13.5350   -7.9913    3.9764 O   0  0  0  0  0  0  0  0  0  0  0  0
  -17.6568   -6.4969    4.2869 C   0  0  0  0  0  0  0  0  0  0  0  0
  -16.3564   -6.9070    4.4686 C   0  0  0  0  0  0  0  0  0  0  0  0
  -16.0049   -8.1922    4.8230 C   0  0  0  0  0  0  0  0  0  0  0  0
  -17.0366   -9.0867    4.9960 C   0  0  0  0  0  0  0  0  0  0  0  0
  -18.3634   -8.7039    4.8200 C   0  0  0  0  0  0  0  0  0  0  0  0
  -18.6712   -7.4072    4.4651 C   0  0  0  0  0  0  0  0  0  0  0  0
  -18.1570   -4.2050    4.9127 C   0  0  0  0  0  0  0  0  0  0  0  0
  -17.9140   -5.1935    3.9332 O   0  0  0  0  0  0  0  0  0  0  0  0
  -19.3865   -9.6340    5.0028 O   0  0  0  0  0  0  0  0  0  0  0  0
  -19.8578   -9.9021    6.3109 C   0  0  0  0  0  0  0  0  0  0  0  0
  -20.0135   -7.0602    4.2975 O   0  0  0  0  0  0  0  0  0  0  0  0
  -21.0522   -7.5888    5.0854 C   0  0  0  0  0  0  0  0  0  0  0  0
  -13.8345   -8.2069    6.6231 N   0  0  0  0  0  0  0  0  0  0  0  0
  -14.3184   -6.9450    7.0155 C   0  0  0  0  0  0  0  0  0  0  0  0
  -13.6251   -6.2092    8.0697 C   0  0  0  0  0  0  0  0  0  0  0  0
  -12.2912   -6.7264    8.5035 C   0  0  0  0  0  0  0  0  0  0  0  0
  -12.1996   -8.2415    8.3386 C   0  0  0  0  0  0  0  0  0  0  0  0
  -12.4430   -8.4536    6.8375 C   0  0  0  0  0  0  0  0  0  0  0  0
  -11.9713   -6.3560    9.9116 C   0  0  0  0  0  0  0  0  0  0  0  0
  -12.8471   -6.5721   10.9402 C   0  0  0  0  0  0  0  0  0  0  0  0
  -12.5758   -6.2391   12.2486 C   0  0  0  0  0  0  0  0  0  0  0  0
  -11.3491   -5.6578   12.5134 C   0  0  0  0  0  0  0  0  0  0  0  0
  -11.0143   -5.3037   13.7811 F   0  0  0  0  0  0  0  0  0  0  0  0
  -10.4639   -5.4386   11.4785 C   0  0  0  0  0  0  0  0  0  0  0  0
  -10.7317   -5.7704   10.1670 C   0  0  0  0  0  0  0  0  0  0  0  0
 10 11  1  0  0  0
 11  4  1  0  0  0
  4  5  2  0  0  0
  5  6  1  0  0  0
  6  7  2  0  0  0
  7  8  1  0  0  0
  8 12  1  0  0  0
 12 13  1  0  0  0
  8  9  2  0  0  0
  9 14  1  0  0  0
 14 15  1  0  0  0
  6  1  1  0  0  0
  1  2  2  0  0  0
  1  3  2  0  0  0
  1 16  1  0  0  0
 16 17  1  0  0  0
 17 18  1  0  0  0
 18 19  1  0  0  0
 19 20  1  0  0  0
 20 21  1  0  0  0
 19 22  1  0  0  0
 22 23  2  0  0  0
 23 24  1  0  0  0
 24 25  2  0  0  0
 25 26  1  0  0  0
 25 27  1  0  0  0
 27 28  2  0  0  0
  9  4  1  0  0  0
 21 16  1  0  0  0
 28 22  1  0  0  0
M  END
> <minimizedAffinity>
9.48663

> <CNNscore>
0.3988356590

> <CNNaffinity>
6.2626237869

> <CNN_VS>
2.4977576733

> <CNNaffinity_variance>
0.6578981876

$$$$
[H]c1c([H])c(C2([H])C([H])([H])C([H])([H])N(S(=O)(=O)c3c([H])c(OC([H])([H])[H])c(OC([H])([H])[H])c(OC([H])([H])[H])c3[H])C([H])([H])C2([H])[H])c([H])c([H])c1F


 28 30  0  0  0  0  0  0  0  0999 V2000
  -11.3455   -6.6629    8.9484 S   0  0  0  0  0  0  0  0  0  0  0  0
  -11.5673   -5.2144    9.2709 O   0  0  0  0  0  0  0  0  0  0  0  0
  -11.4721   -7.5189   10.1945 O   0  0  0  0  0  0  0  0  0  0  0  0
  -13.7917   -8.9519    6.6910 C   0  0  0  0  0  0  0  0  0  0  0  0
  -12.8137   -8.5183    7.5556 C   0  0  0  0  0  0  0  0  0  0  0  0
  -12.5906   -7.1899    7.8497 C   0  0  0  0  0  0  0  0  0  0  0  0
  -13.4093   -6.2758    7.2263 C   0  0  0  0  0  0  0  0  0  0  0  0
  -14.4084   -6.6815    6.3460 C   0  0  0  0  0  0  0  0  0  0  0  0
  -14.5979   -8.0213    6.0796 C   0  0  0  0  0  0  0  0  0  0  0  0
  -14.1148  -11.2099    7.5224 C   0  0  0  0  0  0  0  0  0  0  0  0
  -13.9423  -10.2983    6.4572 O   0  0  0  0  0  0  0  0  0  0  0  0
  -15.2219   -5.7305    5.7300 O   0  0  0  0  0  0  0  0  0  0  0  0
  -14.7328   -5.0180    4.6083 C   0  0  0  0  0  0  0  0  0  0  0  0
  -15.6100   -8.3902    5.1910 O   0  0  0  0  0  0  0  0  0  0  0  0
  -16.9783   -8.1976    5.4558 C   0  0  0  0  0  0  0  0  0  0  0  0
   -9.8079   -6.8962    8.1985 N   0  0  0  0  0  0  0  0  0  0  0  0
   -8.9847   -7.8196    8.8695 C   0  0  0  0  0  0  0  0  0  0  0  0
   -7.5408   -7.7804    8.6522 C   0  0  0  0  0  0  0  0  0  0  0  0
   -6.9894   -6.5997    7.9195 C   0  0  0  0  0  0  0  0  0  0  0  0
   -8.0027   -6.0364    6.9261 C   0  0  0  0  0  0  0  0  0  0  0  0
   -9.2008   -5.6618    7.8103 C   0  0  0  0  0  0  0  0  0  0  0  0
   -5.7170   -6.9173    7.2107 C   0  0  0  0  0  0  0  0  0  0  0  0
   -5.0213   -5.9759    6.5025 C   0  0  0  0  0  0  0  0  0  0  0  0
   -3.8445   -6.2438    5.8394 C   0  0  0  0  0  0  0  0  0  0  0  0
   -3.3594   -7.5372    5.9064 C   0  0  0  0  0  0  0  0  0  0  0  0
   -2.2040   -7.8727    5.2763 F   0  0  0  0  0  0  0  0  0  0  0  0
   -4.0585   -8.4886    6.6196 C   0  0  0  0  0  0  0  0  0  0  0  0
   -5.2372   -8.2247    7.2850 C   0  0  0  0  0  0  0  0  0  0  0  0
 10 11  1  0  0  0
 11  4  1  0  0  0
  4  5  2  0  0  0
  5  6  1  0  0  0
  6  7  2  0  0  0
  7  8  1  0  0  0
  8 12  1  0  0  0
 12 13  1  0  0  0
  8  9  2  0  0  0
  9 14  1  0  0  0
 14 15  1  0  0  0
  6  1  1  0  0  0
  1  2  2  0  0  0
  1  3  2  0  0  0
  1 16  1  0  0  0
 16 17  1  0  0  0
 17 18  1  0  0  0
 18 19  1  0  0  0
 19 20  1  0  0  0
 20 21  1  0  0  0
 19 22  1  0  0  0
 22 23  2  0  0  0
 23 24  1  0  0  0
 24 25  2  0  0  0
 25 26  1  0  0  0
 25 27  1  0  0  0
 27 28  2  0  0  0
  9  4  1  0  0  0
 21 16  1  0  0  0
 28 22  1  0  0  0
M  END
> <minimizedAffinity>
-1.95058

> <CNNscore>
0.3483726382

> <CNNaffinity>
6.2619318962

> <CNN_VS>
2.1814856529

> <CNNaffinity_variance>
0.5945983529

$$$$
[H]c1c([H])c(C2([H])C([H])([H])C([H])([H])N(S(=O)(=O)c3c([H])c(OC([H])([H])[H])c(OC([H])([H])[H])c(OC([H])([H])[H])c3[H])C([H])([H])C2([H])[H])c([H])c([H])c1F


 28 30  0  0  0  0  0  0  0  0999 V2000
   -8.2016   -8.9463    7.4917 S   0  0  0  0  0  0  0  0  0  0  0  0
   -7.7415   -9.7683    8.6595 O   0  0  0  0  0  0  0  0  0  0  0  0
   -8.2304   -9.7786    6.2235 O   0  0  0  0  0  0  0  0  0  0  0  0
  -11.4254   -6.8715    8.7655 C   0  0  0  0  0  0  0  0  0  0  0  0
  -10.1405   -7.2994    8.5245 C   0  0  0  0  0  0  0  0  0  0  0  0
   -9.8372   -8.4224    7.7844 C   0  0  0  0  0  0  0  0  0  0  0  0
  -10.9024   -9.1293    7.2745 C   0  0  0  0  0  0  0  0  0  0  0  0
  -12.2147   -8.7233    7.4998 C   0  0  0  0  0  0  0  0  0  0  0  0
  -12.4739   -7.5930    8.2463 C   0  0  0  0  0  0  0  0  0  0  0  0
  -11.8298   -5.8128   10.9126 C   0  0  0  0  0  0  0  0  0  0  0  0
  -11.6337   -5.7383    9.5156 O   0  0  0  0  0  0  0  0  0  0  0  0
  -13.2727   -9.4614    6.9693 O   0  0  0  0  0  0  0  0  0  0  0  0
  -13.7494   -9.1598    5.6706 C   0  0  0  0  0  0  0  0  0  0  0  0
  -13.8031   -7.2168    8.4512 O   0  0  0  0  0  0  0  0  0  0  0  0
  -14.6081   -7.7510    9.4738 C   0  0  0  0  0  0  0  0  0  0  0  0
   -7.2006   -7.5544    7.2884 N   0  0  0  0  0  0  0  0  0  0  0  0
   -7.0230   -7.1756    5.9446 C   0  0  0  0  0  0  0  0  0  0  0  0
   -5.8754   -6.3487    5.5802 C   0  0  0  0  0  0  0  0  0  0  0  0
   -4.8133   -6.1557    6.6143 C   0  0  0  0  0  0  0  0  0  0  0  0
   -5.3921   -6.2118    8.0260 C   0  0  0  0  0  0  0  0  0  0  0  0
   -6.0242   -7.6093    8.0985 C   0  0  0  0  0  0  0  0  0  0  0  0
   -4.0688   -4.8776    6.4291 C   0  0  0  0  0  0  0  0  0  0  0  0
   -3.9677   -4.2616    5.2117 C   0  0  0  0  0  0  0  0  0  0  0  0
   -3.2862   -3.0814    5.0143 C   0  0  0  0  0  0  0  0  0  0  0  0
   -2.6806   -2.5070    6.1171 C   0  0  0  0  0  0  0  0  0  0  0  0
   -1.9916   -1.3429    5.9960 F   0  0  0  0  0  0  0  0  0  0  0  0
   -2.7807   -3.1257    7.3459 C   0  0  0  0  0  0  0  0  0  0  0  0
   -3.4621   -4.3075    7.5479 C   0  0  0  0  0  0  0  0  0  0  0  0
 10 11  1  0  0  0
 11  4  1  0  0  0
  4  5  2  0  0  0
  5  6  1  0  0  0
  6  7  2  0  0  0
  7  8  1  0  0  0
  8 12  1  0  0  0
 12 13  1  0  0  0
  8  9  2  0  0  0
  9 14  1  0  0  0
 14 15  1  0  0  0
  6  1  1  0  0  0
  1  2  2  0  0  0
  1  3  2  0  0  0
  1 16  1  0  0  0
 16 17  1  0  0  0
 17 18  1  0  0  0
 18 19  1  0  0  0
 19 20  1  0  0  0
 20 21  1  0  0  0
 19 22  1  0  0  0
 22 23  2  0  0  0
 23 24  1  0  0  0
 24 25  2  0  0  0
 25 26  1  0  0  0
 25 27  1  0  0  0
 27 28  2  0  0  0
  9  4  1  0  0  0
 21 16  1  0  0  0
 28 22  1  0  0  0
M  END
> <minimizedAffinity>
-6.40747

> <CNNscore>
0.3201932311

> <CNNaffinity>
6.0485062599

> <CNN_VS>
1.9366908073

> <CNNaffinity_variance>
0.2513298392

$$$$
[H]c1c([H])c(C2([H])C([H])([H])C([H])([H])N(S(=O)(=O)c3c([H])c(OC([H])([H])[H])c(OC([H])([H])[H])c(OC([H])([H])[H])c3[H])C([H])([H])C2([H])[H])c([H])c([H])c1F


 28 30  0  0  0  0  0  0  0  0999 V2000
  -10.9984   -5.0617    4.1655 S   0  0  0  0  0  0  0  0  0  0  0  0
  -10.8573   -5.8594    2.9026 O   0  0  0  0  0  0  0  0  0  0  0  0
  -11.0526   -3.5761    3.8624 O   0  0  0  0  0  0  0  0  0  0  0  0
  -13.8052   -6.7767    6.5109 C   0  0  0  0  0  0  0  0  0  0  0  0
  -12.6187   -6.4386    5.9025 C   0  0  0  0  0  0  0  0  0  0  0  0
  -12.5121   -5.4741    4.9230 C   0  0  0  0  0  0  0  0  0  0  0  0
  -13.6759   -4.8356    4.5591 C   0  0  0  0  0  0  0  0  0  0  0  0
  -14.8929   -5.1541    5.1551 C   0  0  0  0  0  0  0  0  0  0  0  0
  -14.9551   -6.1260    6.1317 C   0  0  0  0  0  0  0  0  0  0  0  0
  -13.6816   -7.4254    8.8472 C   0  0  0  0  0  0  0  0  0  0  0  0
  -13.8169   -7.7523    7.4796 O   0  0  0  0  0  0  0  0  0  0  0  0
  -16.0549   -4.4888    4.7643 O   0  0  0  0  0  0  0  0  0  0  0  0
  -16.8078   -4.9859    3.6730 C   0  0  0  0  0  0  0  0  0  0  0  0
  -16.1936   -6.4184    6.7068 O   0  0  0  0  0  0  0  0  0  0  0  0
  -17.2579   -7.0003    5.9941 C   0  0  0  0  0  0  0  0  0  0  0  0
   -9.7135   -5.4166    5.2626 N   0  0  0  0  0  0  0  0  0  0  0  0
   -8.7932   -4.3632    5.4171 C   0  0  0  0  0  0  0  0  0  0  0  0
   -7.4509   -4.6531    5.9149 C   0  0  0  0  0  0  0  0  0  0  0  0
   -7.0460   -6.0898    5.9983 C   0  0  0  0  0  0  0  0  0  0  0  0
   -8.2489   -6.9947    6.2534 C   0  0  0  0  0  0  0  0  0  0  0  0
   -9.1651   -6.7197    5.0523 C   0  0  0  0  0  0  0  0  0  0  0  0
   -6.0109   -6.3261    7.0447 C   0  0  0  0  0  0  0  0  0  0  0  0
   -5.3743   -5.2994    7.6867 C   0  0  0  0  0  0  0  0  0  0  0  0
   -4.4153   -5.4911    8.6562 C   0  0  0  0  0  0  0  0  0  0  0  0
   -4.0950   -6.7965    8.9817 C   0  0  0  0  0  0  0  0  0  0  0  0
   -3.1581   -7.0600    9.9290 F   0  0  0  0  0  0  0  0  0  0  0  0
   -4.7351   -7.8339    8.3361 C   0  0  0  0  0  0  0  0  0  0  0  0
   -5.6959   -7.6464    7.3648 C   0  0  0  0  0  0  0  0  0  0  0  0
 10 11  1  0  0  0
 11  4  1  0  0  0
  4  5  2  0  0  0
  5  6  1  0  0  0
  6  7  2  0  0  0
  7  8  1  0  0  0
  8 12  1  0  0  0
 12 13  1  0  0  0
  8  9  2  0  0  0
  9 14  1  0  0  0
 14 15  1  0  0  0
  6  1  1  0  0  0
  1  2  2  0  0  0
  1  3  2  0  0  0
  1 16  1  0  0  0
 16 17  1  0  0  0
 17 18  1  0  0  0
 18 19  1  0  0  0
 19 20  1  0  0  0
 20 21  1  0  0  0
 19 22  1  0  0  0
 22 23  2  0  0  0
 23 24  1  0  0  0
 24 25  2  0  0  0
 25 26  1  0  0  0
 25 27  1  0  0  0
 27 28  2  0  0  0
  9  4  1  0  0  0
 21 16  1  0  0  0
 28 22  1  0  0  0
M  END
> <minimizedAffinity>
37.13493

> <CNNscore>
0.3169764876

> <CNNaffinity>
5.4495372772

> <CNN_VS>
1.7273751497

> <CNNaffinity_variance>
1.1685848236

$$$$
[H]c1c([H])c(C2([H])C([H])([H])C([H])([H])N(S(=O)(=O)c3c([H])c(OC([H])([H])[H])c(OC([H])([H])[H])c(OC([H])([H])[H])c3[H])C([H])([H])C2([H])[H])c([H])c([H])c1F


 28 30  0  0  0  0  0  0  0  0999 V2000
   -8.1938   -8.9812    7.4876 S   0  0  0  0  0  0  0  0  0  0  0  0
   -7.7499   -9.7881    8.6721 O   0  0  0  0  0  0  0  0  0  0  0  0
   -8.1919   -9.8261    6.2275 O   0  0  0  0  0  0  0  0  0  0  0  0
  -12.2265   -8.7521    7.4165 C   0  0  0  0  0  0  0  0  0  0  0  0
  -10.9219   -9.1437    7.2243 C   0  0  0  0  0  0  0  0  0  0  0  0
   -9.8386   -8.4672    7.7437 C   0  0  0  0  0  0  0  0  0  0  0  0
  -10.1147   -7.3438    8.4896 C   0  0  0  0  0  0  0  0  0  0  0  0
  -11.4236   -6.9206    8.7030 C   0  0  0  0  0  0  0  0  0  0  0  0
  -12.4788   -7.6271    8.1649 C   0  0  0  0  0  0  0  0  0  0  0  0
  -13.8129   -9.1288    5.6176 C   0  0  0  0  0  0  0  0  0  0  0  0
  -13.2450   -9.4890    6.8599 O   0  0  0  0  0  0  0  0  0  0  0  0
  -11.6705   -5.7779    9.4637 O   0  0  0  0  0  0  0  0  0  0  0  0
  -11.7693   -5.8871   10.8719 C   0  0  0  0  0  0  0  0  0  0  0  0
  -13.7779   -7.1721    8.4003 O   0  0  0  0  0  0  0  0  0  0  0  0
  -14.6265   -7.7287    9.3747 C   0  0  0  0  0  0  0  0  0  0  0  0
   -7.1996   -7.5836    7.2896 N   0  0  0  0  0  0  0  0  0  0  0  0
   -6.9966   -7.2185    5.9457 C   0  0  0  0  0  0  0  0  0  0  0  0
   -5.8482   -6.3865    5.5961 C   0  0  0  0  0  0  0  0  0  0  0  0
   -4.8097   -6.1732    6.6501 C   0  0  0  0  0  0  0  0  0  0  0  0
   -5.4179   -6.2182    8.0499 C   0  0  0  0  0  0  0  0  0  0  0  0
   -6.0403   -7.6198    8.1249 C   0  0  0  0  0  0  0  0  0  0  0  0
   -4.0715   -4.8912    6.4661 C   0  0  0  0  0  0  0  0  0  0  0  0
   -3.9609   -4.2813    5.2465 C   0  0  0  0  0  0  0  0  0  0  0  0
   -3.2849   -3.0977    5.0501 C   0  0  0  0  0  0  0  0  0  0  0  0
   -2.6955   -2.5133    6.1564 C   0  0  0  0  0  0  0  0  0  0  0  0
   -2.0128   -1.3454    6.0365 F   0  0  0  0  0  0  0  0  0  0  0  0
   -2.8053   -3.1259    7.3874 C   0  0  0  0  0  0  0  0  0  0  0  0
   -3.4812   -4.3110    7.5884 C   0  0  0  0  0  0  0  0  0  0  0  0
 10 11  1  0  0  0
 11  4  1  0  0  0
  4  5  2  0  0  0
  5  6  1  0  0  0
  6  7  2  0  0  0
  7  8  1  0  0  0
  8 12  1  0  0  0
 12 13  1  0  0  0
  8  9  2  0  0  0
  9 14  1  0  0  0
 14 15  1  0  0  0
  6  1  1  0  0  0
  1  2  2  0  0  0
  1  3  2  0  0  0
  1 16  1  0  0  0
 16 17  1  0  0  0
 17 18  1  0  0  0
 18 19  1  0  0  0
 19 20  1  0  0  0
 20 21  1  0  0  0
 19 22  1  0  0  0
 22 23  2  0  0  0
 23 24  1  0  0  0
 24 25  2  0  0  0
 25 26  1  0  0  0
 25 27  1  0  0  0
 27 28  2  0  0  0
  9  4  1  0  0  0
 21 16  1  0  0  0
 28 22  1  0  0  0
M  END
> <minimizedAffinity>
-6.37459

> <CNNscore>
0.3022699058

> <CNNaffinity>
6.0348572731

> <CNN_VS>
1.8241556883

> <CNNaffinity_variance>
0.2467184812

$$$$
[H]c1c([H])c(C2([H])C([H])([H])C([H])([H])N(S(=O)(=O)c3c([H])c(OC([H])([H])[H])c(OC([H])([H])[H])c(OC([H])([H])[H])c3[H])C([H])([H])C2([H])[H])c([H])c([H])c1F


 28 30  0  0  0  0  0  0  0  0999 V2000
   -5.6027   -7.0383    6.6874 S   0  0  0  0  0  0  0  0  0  0  0  0
   -5.7656   -6.6394    5.2502 O   0  0  0  0  0  0  0  0  0  0  0  0
   -4.8552   -8.3536    6.8012 O   0  0  0  0  0  0  0  0  0  0  0  0
   -3.2409   -3.8504    7.4483 C   0  0  0  0  0  0  0  0  0  0  0  0
   -4.0107   -4.8057    6.8263 C   0  0  0  0  0  0  0  0  0  0  0  0
   -4.6318   -5.8387    7.4958 C   0  0  0  0  0  0  0  0  0  0  0  0
   -4.4498   -5.8856    8.8593 C   0  0  0  0  0  0  0  0  0  0  0  0
   -3.6769   -4.9344    9.5193 C   0  0  0  0  0  0  0  0  0  0  0  0
   -3.0729   -3.9168    8.8110 C   0  0  0  0  0  0  0  0  0  0  0  0
   -3.4438   -1.8827    6.0407 C   0  0  0  0  0  0  0  0  0  0  0  0
   -2.6589   -2.8550    6.6996 O   0  0  0  0  0  0  0  0  0  0  0  0
   -3.5117   -5.0094   10.9023 O   0  0  0  0  0  0  0  0  0  0  0  0
   -4.6182   -4.7602   11.7499 C   0  0  0  0  0  0  0  0  0  0  0  0
   -2.3050   -2.9810    9.5075 O   0  0  0  0  0  0  0  0  0  0  0  0
   -2.8110   -1.7475    9.9565 C   0  0  0  0  0  0  0  0  0  0  0  0
   -7.1359   -7.1349    7.4753 N   0  0  0  0  0  0  0  0  0  0  0  0
   -7.5333   -8.4496    7.7823 C   0  0  0  0  0  0  0  0  0  0  0  0
   -8.9480   -8.7352    8.0072 C   0  0  0  0  0  0  0  0  0  0  0  0
   -9.9285   -7.6633    7.6542 C   0  0  0  0  0  0  0  0  0  0  0  0
   -9.3176   -6.2733    7.8145 C   0  0  0  0  0  0  0  0  0  0  0  0
   -8.1164   -6.2976    6.8583 C   0  0  0  0  0  0  0  0  0  0  0  0
  -11.1810   -7.7553    8.4574 C   0  0  0  0  0  0  0  0  0  0  0  0
  -11.9837   -8.8629    8.4335 C   0  0  0  0  0  0  0  0  0  0  0  0
  -13.1449   -8.9725    9.1656 C   0  0  0  0  0  0  0  0  0  0  0  0
  -13.4984   -7.8959    9.9586 C   0  0  0  0  0  0  0  0  0  0  0  0
  -14.6308   -7.9348   10.7074 F   0  0  0  0  0  0  0  0  0  0  0  0
  -12.6911   -6.7777    9.9847 C   0  0  0  0  0  0  0  0  0  0  0  0
  -11.5276   -6.6638    9.2532 C   0  0  0  0  0  0  0  0  0  0  0  0
 10 11  1  0  0  0
 11  4  1  0  0  0
  4  5  2  0  0  0
  5  6  1  0  0  0
  6  7  2  0  0  0
  7  8  1  0  0  0
  8 12  1  0  0  0
 12 13  1  0  0  0
  8  9  2  0  0  0
  9 14  1  0  0  0
 14 15  1  0  0  0
  6  1  1  0  0  0
  1  2  2  0  0  0
  1  3  2  0  0  0
  1 16  1  0  0  0
 16 17  1  0  0  0
 17 18  1  0  0  0
 18 19  1  0  0  0
 19 20  1  0  0  0
 20 21  1  0  0  0
 19 22  1  0  0  0
 22 23  2  0  0  0
 23 24  1  0  0  0
 24 25  2  0  0  0
 25 26  1  0  0  0
 25 27  1  0  0  0
 27 28  2  0  0  0
  9  4  1  0  0  0
 21 16  1  0  0  0
 28 22  1  0  0  0
M  END
> <minimizedAffinity>
-7.14203

> <CNNscore>
0.2921061218

> <CNNaffinity>
5.8346929550

> <CNN_VS>
1.7043495178

> <CNNaffinity_variance>
0.1775994301

$$$$
[H]c1c([H])c(C2([H])C([H])([H])C([H])([H])N(S(=O)(=O)c3c([H])c(OC([H])([H])[H])c(OC([H])([H])[H])c(OC([H])([H])[H])c3[H])C([H])([H])C2([H])[H])c([H])c([H])c1F


 28 30  0  0  0  0  0  0  0  0999 V2000
  -14.4805   -7.9016    1.8106 S   0  0  0  0  0  0  0  0  0  0  0  0
  -15.6034   -7.9283    0.8158 O   0  0  0  0  0  0  0  0  0  0  0  0
  -13.7689   -6.5619    1.7857 O   0  0  0  0  0  0  0  0  0  0  0  0
  -17.0417   -8.2592    4.9142 C   0  0  0  0  0  0  0  0  0  0  0  0
  -16.5005   -8.1140    3.6580 C   0  0  0  0  0  0  0  0  0  0  0  0
  -15.1443   -8.0866    3.4107 C   0  0  0  0  0  0  0  0  0  0  0  0
  -14.3171   -8.2142    4.5033 C   0  0  0  0  0  0  0  0  0  0  0  0
  -14.8325   -8.3627    5.7878 C   0  0  0  0  0  0  0  0  0  0  0  0
  -16.1964   -8.3849    5.9910 C   0  0  0  0  0  0  0  0  0  0  0  0
  -19.0968   -9.4754    5.3521 C   0  0  0  0  0  0  0  0  0  0  0  0
  -18.4079   -8.2756    5.0666 O   0  0  0  0  0  0  0  0  0  0  0  0
  -13.9676   -8.4896    6.8747 O   0  0  0  0  0  0  0  0  0  0  0  0
  -13.4626   -7.3249    7.5019 C   0  0  0  0  0  0  0  0  0  0  0  0
  -16.6765   -8.5356    7.2937 O   0  0  0  0  0  0  0  0  0  0  0  0
  -15.8806   -8.3411    8.4374 C   0  0  0  0  0  0  0  0  0  0  0  0
  -13.3700   -9.1907    1.5175 N   0  0  0  0  0  0  0  0  0  0  0  0
  -12.3958   -9.3386    2.5223 C   0  0  0  0  0  0  0  0  0  0  0  0
  -11.1508  -10.0375    2.2142 C   0  0  0  0  0  0  0  0  0  0  0  0
  -10.8725  -10.3413    0.7771 C   0  0  0  0  0  0  0  0  0  0  0  0
  -12.1645  -10.5423   -0.0111 C   0  0  0  0  0  0  0  0  0  0  0  0
  -12.9036   -9.2082    0.1665 C   0  0  0  0  0  0  0  0  0  0  0  0
   -9.9939  -11.5340    0.6107 C   0  0  0  0  0  0  0  0  0  0  0  0
   -8.6332  -11.4610    0.7327 C   0  0  0  0  0  0  0  0  0  0  0  0
   -7.8000  -12.5472    0.5837 C   0  0  0  0  0  0  0  0  0  0  0  0
   -8.3906  -13.7644    0.2963 C   0  0  0  0  0  0  0  0  0  0  0  0
   -7.6299  -14.8781    0.1361 F   0  0  0  0  0  0  0  0  0  0  0  0
   -9.7623  -13.8412    0.1725 C   0  0  0  0  0  0  0  0  0  0  0  0
  -10.6002  -12.7560    0.3210 C   0  0  0  0  0  0  0  0  0  0  0  0
 10 11  1  0  0  0
 11  4  1  0  0  0
  4  5  2  0  0  0
  5  6  1  0  0  0
  6  7  2  0  0  0
  7  8  1  0  0  0
  8 12  1  0  0  0
 12 13  1  0  0  0
  8  9  2  0  0  0
  9 14  1  0  0  0
 14 15  1  0  0  0
  6  1  1  0  0  0
  1  2  2  0  0  0
  1  3  2  0  0  0
  1 16  1  0  0  0
 16 17  1  0  0  0
 17 18  1  0  0  0
 18 19  1  0  0  0
 19 20  1  0  0  0
 20 21  1  0  0  0
 19 22  1  0  0  0
 22 23  2  0  0  0
 23 24  1  0  0  0
 24 25  2  0  0  0
 25 26  1  0  0  0
 25 27  1  0  0  0
 27 28  2  0  0  0
  9  4  1  0  0  0
 21 16  1  0  0  0
 28 22  1  0  0  0
M  END
> <minimizedAffinity>
43.30331

> <CNNscore>
0.2782332599

> <CNNaffinity>
5.5284385681

> <CNN_VS>
1.5381954908

> <CNNaffinity_variance>
0.6386939883

$$$$
[H]c1c([H])c(C2([H])C([H])([H])C([H])([H])N(S(=O)(=O)c3c([H])c(OC([H])([H])[H])c(OC([H])([H])[H])c(OC([H])([H])[H])c3[H])C([H])([H])C2([H])[H])c([H])c([H])c1Cl


 28 30  0  0  0  0  0  0  0  0999 V2000
  -10.6227   -7.9498    8.2191 S   0  0  0  0  0  0  0  0  0  0  0  0
  -10.6470   -9.3742    8.6931 O   0  0  0  0  0  0  0  0  0  0  0  0
  -11.6742   -7.6984    7.1606 O   0  0  0  0  0  0  0  0  0  0  0  0
  -12.3899   -5.2788   10.6634 C   0  0  0  0  0  0  0  0  0  0  0  0
  -12.0973   -6.1151    9.6168 C   0  0  0  0  0  0  0  0  0  0  0  0
  -10.9637   -6.8949    9.5688 C   0  0  0  0  0  0  0  0  0  0  0  0
  -10.0951   -6.8142   10.6367 C   0  0  0  0  0  0  0  0  0  0  0  0
  -10.3803   -5.9705   11.7035 C   0  0  0  0  0  0  0  0  0  0  0  0
  -11.5192   -5.2056   11.7214 C   0  0  0  0  0  0  0  0  0  0  0  0
  -13.5757   -3.2230   10.0989 C   0  0  0  0  0  0  0  0  0  0  0  0
  -13.5440   -4.5344   10.6313 O   0  0  0  0  0  0  0  0  0  0  0  0
   -9.4685   -5.9248   12.7610 O   0  0  0  0  0  0  0  0  0  0  0  0
   -8.2064   -6.5300   12.6721 C   0  0  0  0  0  0  0  0  0  0  0  0
  -11.7417   -4.3834   12.8204 O   0  0  0  0  0  0  0  0  0  0  0  0
  -11.1610   -4.5895   14.0846 C   0  0  0  0  0  0  0  0  0  0  0  0
   -9.0635   -7.6116    7.5846 N   0  0  0  0  0  0  0  0  0  0  0  0
   -8.1789   -8.7101    7.6777 C   0  0  0  0  0  0  0  0  0  0  0  0
   -6.7409   -8.4625    7.5496 C   0  0  0  0  0  0  0  0  0  0  0  0
   -6.2811   -7.0462    7.6566 C   0  0  0  0  0  0  0  0  0  0  0  0
   -7.3206   -6.0703    7.1123 C   0  0  0  0  0  0  0  0  0  0  0  0
   -8.5650   -6.3450    7.9687 C   0  0  0  0  0  0  0  0  0  0  0  0
   -4.9896   -6.8454    6.9567 C   0  0  0  0  0  0  0  0  0  0  0  0
   -4.9336   -6.1250    5.7924 C   0  0  0  0  0  0  0  0  0  0  0  0
   -3.7669   -5.9006    5.0911 C   0  0  0  0  0  0  0  0  0  0  0  0
   -2.6054   -6.4380    5.6052 C   0  0  0  0  0  0  0  0  0  0  0  0
   -1.0644   -6.2025    4.7761 Cl  0  0  0  0  0  0  0  0  0  0  0  0
   -2.6539   -7.1641    6.7763 C   0  0  0  0  0  0  0  0  0  0  0  0
   -3.8152   -7.3925    7.4822 C   0  0  0  0  0  0  0  0  0  0  0  0
 10 11  1  0  0  0
 11  4  1  0  0  0
  4  5  2  0  0  0
  5  6  1  0  0  0
  6  7  2  0  0  0
  7  8  1  0  0  0
  8 12  1  0  0  0
 12 13  1  0  0  0
  8  9  2  0  0  0
  9 14  1  0  0  0
 14 15  1  0  0  0
  6  1  1  0  0  0
  1  2  2  0  0  0
  1  3  2  0  0  0
  1 16  1  0  0  0
 16 17  1  0  0  0
 17 18  1  0  0  0
 18 19  1  0  0  0
 19 20  1  0  0  0
 20 21  1  0  0  0
 19 22  1  0  0  0
 22 23  2  0  0  0
 23 24  1  0  0  0
 24 25  2  0  0  0
 25 26  1  0  0  0
 25 27  1  0  0  0
 27 28  2  0  0  0
  9  4  1  0  0  0
 21 16  1  0  0  0
 28 22  1  0  0  0
M  END
> <minimizedAffinity>
9.48613

> <CNNscore>
0.4898110330

> <CNNaffinity>
5.9385666847

> <CNN_VS>
2.9087755680

> <CNNaffinity_variance>
0.4927261770

$$$$
[H]c1c([H])c(C2([H])C([H])([H])C([H])([H])N(S(=O)(=O)c3c([H])c(OC([H])([H])[H])c(OC([H])([H])[H])c(OC([H])([H])[H])c3[H])C([H])([H])C2([H])[H])c([H])c([H])c1Cl


 28 30  0  0  0  0  0  0  0  0999 V2000
  -12.5037   -5.6678   10.9155 S   0  0  0  0  0  0  0  0  0  0  0  0
  -12.9859   -4.3679   10.3393 O   0  0  0  0  0  0  0  0  0  0  0  0
  -13.3474   -6.0999   12.0948 O   0  0  0  0  0  0  0  0  0  0  0  0
  -13.9547   -8.2945    8.2272 C   0  0  0  0  0  0  0  0  0  0  0  0
  -13.8332   -7.3221    9.1863 C   0  0  0  0  0  0  0  0  0  0  0  0
  -12.6214   -6.9104    9.6936 C   0  0  0  0  0  0  0  0  0  0  0  0
  -11.4883   -7.5202    9.1977 C   0  0  0  0  0  0  0  0  0  0  0  0
  -11.5981   -8.5071    8.2255 C   0  0  0  0  0  0  0  0  0  0  0  0
  -12.8212   -8.8953    7.7401 C   0  0  0  0  0  0  0  0  0  0  0  0
  -15.9068   -7.8619    6.8295 C   0  0  0  0  0  0  0  0  0  0  0  0
  -15.2035   -8.6460    7.7755 O   0  0  0  0  0  0  0  0  0  0  0  0
  -10.4205   -9.0940    7.7558 O   0  0  0  0  0  0  0  0  0  0  0  0
   -9.2889   -8.3267    7.4430 C   0  0  0  0  0  0  0  0  0  0  0  0
  -12.8576   -9.8888    6.7680 O   0  0  0  0  0  0  0  0  0  0  0  0
  -13.1233   -9.6465    5.4083 C   0  0  0  0  0  0  0  0  0  0  0  0
  -10.8697   -5.4752   11.4064 N   0  0  0  0  0  0  0  0  0  0  0  0
   -9.9553   -6.1351   10.5542 C   0  0  0  0  0  0  0  0  0  0  0  0
   -8.6001   -6.3917   11.0474 C   0  0  0  0  0  0  0  0  0  0  0  0
   -8.3685   -6.2390   12.5143 C   0  0  0  0  0  0  0  0  0  0  0  0
   -9.2563   -5.1546   13.1183 C   0  0  0  0  0  0  0  0  0  0  0  0
  -10.6817   -5.6283   12.7999 C   0  0  0  0  0  0  0  0  0  0  0  0
   -6.9455   -5.9426   12.8064 C   0  0  0  0  0  0  0  0  0  0  0  0
   -6.5226   -5.7636   14.0974 C   0  0  0  0  0  0  0  0  0  0  0  0
   -5.2151   -5.4856   14.4389 C   0  0  0  0  0  0  0  0  0  0  0  0
   -4.2996   -5.3865   13.4122 C   0  0  0  0  0  0  0  0  0  0  0  0
   -2.6036   -5.0334   13.7538 Cl  0  0  0  0  0  0  0  0  0  0  0  0
   -4.7177   -5.5653   12.1106 C   0  0  0  0  0  0  0  0  0  0  0  0
   -6.0216   -5.8431   11.7617 C   0  0  0  0  0  0  0  0  0  0  0  0
 10 11  1  0  0  0
 11  4  1  0  0  0
  4  5  2  0  0  0
  5  6  1  0  0  0
  6  7  2  0  0  0
  7  8  1  0  0  0
  8 12  1  0  0  0
 12 13  1  0  0  0
  8  9  2  0  0  0
  9 14  1  0  0  0
 14 15  1  0  0  0
  6  1  1  0  0  0
  1  2  2  0  0  0
  1  3  2  0  0  0
  1 16  1  0  0  0
 16 17  1  0  0  0
 17 18  1  0  0  0
 18 19  1  0  0  0
 19 20  1  0  0  0
 20 21  1  0  0  0
 19 22  1  0  0  0
 22 23  2  0  0  0
 23 24  1  0  0  0
 24 25  2  0  0  0
 25 26  1  0  0  0
 25 27  1  0  0  0
 27 28  2  0  0  0
  9  4  1  0  0  0
 21 16  1  0  0  0
 28 22  1  0  0  0
M  END
> <minimizedAffinity>
8.82050

> <CNNscore>
0.4681377709

> <CNNaffinity>
6.0008401871

> <CNN_VS>
2.8092198372

> <CNNaffinity_variance>
0.6862242818

$$$$
[H]c1c([H])c(C2([H])C([H])([H])C([H])([H])N(S(=O)(=O)c3c([H])c(OC([H])([H])[H])c(OC([H])([H])[H])c(OC([H])([H])[H])c3[H])C([H])([H])C2([H])[H])c([H])c([H])c1Cl


 28 30  0  0  0  0  0  0  0  0999 V2000
   -8.7939   -9.8765    6.8165 S   0  0  0  0  0  0  0  0  0  0  0  0
   -8.2490  -10.5527    8.0413 O   0  0  0  0  0  0  0  0  0  0  0  0
   -8.0278   -8.6127    6.4922 O   0  0  0  0  0  0  0  0  0  0  0  0
   -8.6370  -13.1936    4.5351 C   0  0  0  0  0  0  0  0  0  0  0  0
   -8.7540  -12.3225    5.5877 C   0  0  0  0  0  0  0  0  0  0  0  0
   -8.6387  -10.9572    5.4531 C   0  0  0  0  0  0  0  0  0  0  0  0
   -8.3934  -10.4650    4.1885 C   0  0  0  0  0  0  0  0  0  0  0  0
   -8.2727  -11.3374    3.1136 C   0  0  0  0  0  0  0  0  0  0  0  0
   -8.3929  -12.6940    3.2806 C   0  0  0  0  0  0  0  0  0  0  0  0
   -9.9641  -15.1100    5.2544 C   0  0  0  0  0  0  0  0  0  0  0  0
   -8.7659  -14.5431    4.7573 O   0  0  0  0  0  0  0  0  0  0  0  0
   -8.0242  -10.7889    1.8529 O   0  0  0  0  0  0  0  0  0  0  0  0
   -6.7600  -10.2941    1.5010 C   0  0  0  0  0  0  0  0  0  0  0  0
   -8.2608  -13.5085    2.1615 O   0  0  0  0  0  0  0  0  0  0  0  0
   -8.9875  -13.3295    0.9709 C   0  0  0  0  0  0  0  0  0  0  0  0
  -10.4475   -9.5029    7.0886 N   0  0  0  0  0  0  0  0  0  0  0  0
  -11.3121  -10.1031    6.1451 C   0  0  0  0  0  0  0  0  0  0  0  0
  -12.6711   -9.5743    6.0067 C   0  0  0  0  0  0  0  0  0  0  0  0
  -12.9511   -8.2445    6.6246 C   0  0  0  0  0  0  0  0  0  0  0  0
  -12.1210   -8.0193    7.8854 C   0  0  0  0  0  0  0  0  0  0  0  0
  -10.6708   -8.1405    7.3959 C   0  0  0  0  0  0  0  0  0  0  0  0
  -14.3918   -8.0895    6.9383 C   0  0  0  0  0  0  0  0  0  0  0  0
  -15.2332   -7.4652    6.0551 C   0  0  0  0  0  0  0  0  0  0  0  0
  -16.5820   -7.2875    6.2841 C   0  0  0  0  0  0  0  0  0  0  0  0
  -17.0921   -7.7708    7.4708 C   0  0  0  0  0  0  0  0  0  0  0  0
  -18.8070   -7.5890    7.8501 Cl  0  0  0  0  0  0  0  0  0  0  0  0
  -16.2516   -8.4000    8.3645 C   0  0  0  0  0  0  0  0  0  0  0  0
  -14.9036   -8.5812    8.1429 C   0  0  0  0  0  0  0  0  0  0  0  0
 10 11  1  0  0  0
 11  4  1  0  0  0
  4  5  2  0  0  0
  5  6  1  0  0  0
  6  7  2  0  0  0
  7  8  1  0  0  0
  8 12  1  0  0  0
 12 13  1  0  0  0
  8  9  2  0  0  0
  9 14  1  0  0  0
 14 15  1  0  0  0
  6  1  1  0  0  0
  1  2  2  0  0  0
  1  3  2  0  0  0
  1 16  1  0  0  0
 16 17  1  0  0  0
 17 18  1  0  0  0
 18 19  1  0  0  0
 19 20  1  0  0  0
 20 21  1  0  0  0
 19 22  1  0  0  0
 22 23  2  0  0  0
 23 24  1  0  0  0
 24 25  2  0  0  0
 25 26  1  0  0  0
 25 27  1  0  0  0
 27 28  2  0  0  0
  9  4  1  0  0  0
 21 16  1  0  0  0
 28 22  1  0  0  0
M  END
> <minimizedAffinity>
14.44250

> <CNNscore>
0.4522236586

> <CNNaffinity>
6.2089562416

> <CNN_VS>
2.8078370094

> <CNNaffinity_variance>
0.6134926677

$$$$
[H]c1c([H])c(C2([H])C([H])([H])C([H])([H])N(S(=O)(=O)c3c([H])c(OC([H])([H])[H])c(OC([H])([H])[H])c(OC([H])([H])[H])c3[H])C([H])([H])C2([H])[H])c([H])c([H])c1Cl


 28 30  0  0  0  0  0  0  0  0999 V2000
   -9.8194   -9.3984    7.7118 S   0  0  0  0  0  0  0  0  0  0  0  0
   -9.7871  -10.8405    7.2953 O   0  0  0  0  0  0  0  0  0  0  0  0
   -9.8300   -9.2551    9.2180 O   0  0  0  0  0  0  0  0  0  0  0  0
   -6.6707   -6.9125    7.3398 C   0  0  0  0  0  0  0  0  0  0  0  0
   -7.7956   -7.5565    7.7874 C   0  0  0  0  0  0  0  0  0  0  0  0
   -8.3862   -8.6004    7.1116 C   0  0  0  0  0  0  0  0  0  0  0  0
   -7.8003   -9.0003    5.9292 C   0  0  0  0  0  0  0  0  0  0  0  0
   -6.6601   -8.3558    5.4647 C   0  0  0  0  0  0  0  0  0  0  0  0
   -6.0951   -7.3179    6.1619 C   0  0  0  0  0  0  0  0  0  0  0  0
   -5.0195   -6.0536    8.9167 C   0  0  0  0  0  0  0  0  0  0  0  0
   -6.1454   -5.8789    8.0764 O   0  0  0  0  0  0  0  0  0  0  0  0
   -6.1047   -8.7986    4.2617 O   0  0  0  0  0  0  0  0  0  0  0  0
   -6.8412   -9.5686    3.3496 C   0  0  0  0  0  0  0  0  0  0  0  0
   -4.9547   -6.7183    5.6390 O   0  0  0  0  0  0  0  0  0  0  0  0
   -4.8643   -5.3523    5.3170 C   0  0  0  0  0  0  0  0  0  0  0  0
  -11.2240   -8.6689    7.0463 N   0  0  0  0  0  0  0  0  0  0  0  0
  -11.6202   -7.5011    7.7372 C   0  0  0  0  0  0  0  0  0  0  0  0
  -12.9846   -7.0039    7.5448 C   0  0  0  0  0  0  0  0  0  0  0  0
  -13.9622   -7.9291    6.8991 C   0  0  0  0  0  0  0  0  0  0  0  0
  -13.2874   -8.8496    5.8860 C   0  0  0  0  0  0  0  0  0  0  0  0
  -12.2360   -9.6001    6.7161 C   0  0  0  0  0  0  0  0  0  0  0  0
  -15.0597   -7.1792    6.2423 C   0  0  0  0  0  0  0  0  0  0  0  0
  -16.3559   -7.6122    6.3427 C   0  0  0  0  0  0  0  0  0  0  0  0
  -17.4232   -6.9630    5.7570 C   0  0  0  0  0  0  0  0  0  0  0  0
  -17.1507   -5.8193    5.0361 C   0  0  0  0  0  0  0  0  0  0  0  0
  -18.4535   -4.9221    4.2514 Cl  0  0  0  0  0  0  0  0  0  0  0  0
  -15.8489   -5.3775    4.9306 C   0  0  0  0  0  0  0  0  0  0  0  0
  -14.7779   -6.0203    5.5127 C   0  0  0  0  0  0  0  0  0  0  0  0
 10 11  1  0  0  0
 11  4  1  0  0  0
  4  5  2  0  0  0
  5  6  1  0  0  0
  6  7  2  0  0  0
  7  8  1  0  0  0
  8 12  1  0  0  0
 12 13  1  0  0  0
  8  9  2  0  0  0
  9 14  1  0  0  0
 14 15  1  0  0  0
  6  1  1  0  0  0
  1  2  2  0  0  0
  1  3  2  0  0  0
  1 16  1  0  0  0
 16 17  1  0  0  0
 17 18  1  0  0  0
 18 19  1  0  0  0
 19 20  1  0  0  0
 20 21  1  0  0  0
 19 22  1  0  0  0
 22 23  2  0  0  0
 23 24  1  0  0  0
 24 25  2  0  0  0
 25 26  1  0  0  0
 25 27  1  0  0  0
 27 28  2  0  0  0
  9  4  1  0  0  0
 21 16  1  0  0  0
 28 22  1  0  0  0
M  END
> <minimizedAffinity>
-2.06915

> <CNNscore>
0.4153203368

> <CNNaffinity>
6.4688935280

> <CNN_VS>
2.6866631508

> <CNNaffinity_variance>
0.2124739587

$$$$
[H]c1c([H])c(C2([H])C([H])([H])C([H])([H])N(S(=O)(=O)c3c([H])c(OC([H])([H])[H])c(OC([H])([H])[H])c(OC([H])([H])[H])c3[H])C([H])([H])C2([H])[H])c([H])c([H])c1Cl


 28 30  0  0  0  0  0  0  0  0999 V2000
  -14.2238   -4.8808    4.2604 S   0  0  0  0  0  0  0  0  0  0  0  0
  -13.8826   -4.5757    2.8305 O   0  0  0  0  0  0  0  0  0  0  0  0
  -14.3499   -3.6175    5.0834 O   0  0  0  0  0  0  0  0  0  0  0  0
  -18.1439   -5.6855    4.7274 C   0  0  0  0  0  0  0  0  0  0  0  0
  -16.9235   -5.0622    4.6765 C   0  0  0  0  0  0  0  0  0  0  0  0
  -15.7620   -5.7067    4.3147 C   0  0  0  0  0  0  0  0  0  0  0  0
  -15.8552   -7.0441    3.9921 C   0  0  0  0  0  0  0  0  0  0  0  0
  -17.0861   -7.6873    4.0398 C   0  0  0  0  0  0  0  0  0  0  0  0
  -18.2262   -7.0167    4.4045 C   0  0  0  0  0  0  0  0  0  0  0  0
  -19.9705   -4.1642    4.1793 C   0  0  0  0  0  0  0  0  0  0  0  0
  -19.2545   -4.9676    5.0992 O   0  0  0  0  0  0  0  0  0  0  0  0
  -17.1274   -9.0427    3.7037 O   0  0  0  0  0  0  0  0  0  0  0  0
  -15.9634   -9.8230    3.6452 C   0  0  0  0  0  0  0  0  0  0  0  0
  -19.4240   -7.7222    4.4309 O   0  0  0  0  0  0  0  0  0  0  0  0
  -19.6430   -8.8668    5.2181 C   0  0  0  0  0  0  0  0  0  0  0  0
  -12.9923   -5.8827    4.9143 N   0  0  0  0  0  0  0  0  0  0  0  0
  -13.4460   -6.6908    5.9816 C   0  0  0  0  0  0  0  0  0  0  0  0
  -12.4528   -7.2878    6.8776 C   0  0  0  0  0  0  0  0  0  0  0  0
  -11.0623   -6.7488    6.8095 C   0  0  0  0  0  0  0  0  0  0  0  0
  -10.7034   -6.2831    5.4012 C   0  0  0  0  0  0  0  0  0  0  0  0
  -11.7590   -5.2128    5.0888 C   0  0  0  0  0  0  0  0  0  0  0  0
  -10.0734   -7.7511    7.2737 C   0  0  0  0  0  0  0  0  0  0  0  0
  -10.3840   -9.0857    7.2770 C   0  0  0  0  0  0  0  0  0  0  0  0
   -9.5120  -10.0695    7.6955 C   0  0  0  0  0  0  0  0  0  0  0  0
   -8.2661   -9.6686    8.1303 C   0  0  0  0  0  0  0  0  0  0  0  0
   -7.0842  -10.8576    8.6846 Cl  0  0  0  0  0  0  0  0  0  0  0  0
   -7.9463   -8.3275    8.1300 C   0  0  0  0  0  0  0  0  0  0  0  0
   -8.8117   -7.3391    7.7135 C   0  0  0  0  0  0  0  0  0  0  0  0
 10 11  1  0  0  0
 11  4  1  0  0  0
  4  5  2  0  0  0
  5  6  1  0  0  0
  6  7  2  0  0  0
  7  8  1  0  0  0
  8 12  1  0  0  0
 12 13  1  0  0  0
  8  9  2  0  0  0
  9 14  1  0  0  0
 14 15  1  0  0  0
  6  1  1  0  0  0
  1  2  2  0  0  0
  1  3  2  0  0  0
  1 16  1  0  0  0
 16 17  1  0  0  0
 17 18  1  0  0  0
 18 19  1  0  0  0
 19 20  1  0  0  0
 20 21  1  0  0  0
 19 22  1  0  0  0
 22 23  2  0  0  0
 23 24  1  0  0  0
 24 25  2  0  0  0
 25 26  1  0  0  0
 25 27  1  0  0  0
 27 28  2  0  0  0
  9  4  1  0  0  0
 21 16  1  0  0  0
 28 22  1  0  0  0
M  END
> <minimizedAffinity>
17.40170

> <CNNscore>
0.4096708000

> <CNNaffinity>
6.2703561783

> <CNN_VS>
2.5687818527

> <CNNaffinity_variance>
0.7733125687

$$$$
[H]c1c([H])c(C2([H])C([H])([H])C([H])([H])N(S(=O)(=O)c3c([H])c(OC([H])([H])[H])c(OC([H])([H])[H])c(OC([H])([H])[H])c3[H])C([H])([H])C2([H])[H])c([H])c([H])c1Cl


 28 30  0  0  0  0  0  0  0  0999 V2000
  -12.3838  -10.1602    7.1601 S   0  0  0  0  0  0  0  0  0  0  0  0
  -12.1188  -11.1238    6.0396 O   0  0  0  0  0  0  0  0  0  0  0  0
  -12.7035  -10.8828    8.4504 O   0  0  0  0  0  0  0  0  0  0  0  0
   -8.5474   -8.9593    7.4292 C   0  0  0  0  0  0  0  0  0  0  0  0
   -9.6869   -9.6942    7.2247 C   0  0  0  0  0  0  0  0  0  0  0  0
  -10.9533   -9.1952    7.4313 C   0  0  0  0  0  0  0  0  0  0  0  0
  -11.0558   -7.8903    7.8651 C   0  0  0  0  0  0  0  0  0  0  0  0
   -9.9085   -7.1350    8.0761 C   0  0  0  0  0  0  0  0  0  0  0  0
   -8.6599   -7.6616    7.8609 C   0  0  0  0  0  0  0  0  0  0  0  0
   -6.4771   -9.1046    6.1471 C   0  0  0  0  0  0  0  0  0  0  0  0
   -7.3216   -9.5349    7.1988 O   0  0  0  0  0  0  0  0  0  0  0  0
  -10.0660   -5.8183    8.5156 O   0  0  0  0  0  0  0  0  0  0  0  0
  -10.4876   -5.5226    9.8201 C   0  0  0  0  0  0  0  0  0  0  0  0
   -7.5551   -6.8496    8.0922 O   0  0  0  0  0  0  0  0  0  0  0  0
   -7.0588   -5.9174    7.1635 C   0  0  0  0  0  0  0  0  0  0  0  0
  -13.7003   -9.1523    6.7141 N   0  0  0  0  0  0  0  0  0  0  0  0
  -14.4847   -9.6967    5.6719 C   0  0  0  0  0  0  0  0  0  0  0  0
  -15.3786   -8.8042    4.9302 C   0  0  0  0  0  0  0  0  0  0  0  0
  -15.1677   -7.3357    5.0974 C   0  0  0  0  0  0  0  0  0  0  0  0
  -14.6594   -6.9916    6.4947 C   0  0  0  0  0  0  0  0  0  0  0  0
  -13.3506   -7.7854    6.6145 C   0  0  0  0  0  0  0  0  0  0  0  0
  -16.4103   -6.5781    4.8149 C   0  0  0  0  0  0  0  0  0  0  0  0
  -16.5088   -5.2529    5.1492 C   0  0  0  0  0  0  0  0  0  0  0  0
  -17.6342   -4.4900    4.9152 C   0  0  0  0  0  0  0  0  0  0  0  0
  -18.7070   -5.1121    4.3117 C   0  0  0  0  0  0  0  0  0  0  0  0
  -20.1897   -4.2152    3.9730 Cl  0  0  0  0  0  0  0  0  0  0  0  0
  -18.6154   -6.4454    3.9724 C   0  0  0  0  0  0  0  0  0  0  0  0
  -17.4949   -7.2138    4.2030 C   0  0  0  0  0  0  0  0  0  0  0  0
 10 11  1  0  0  0
 11  4  1  0  0  0
  4  5  2  0  0  0
  5  6  1  0  0  0
  6  7  2  0  0  0
  7  8  1  0  0  0
  8 12  1  0  0  0
 12 13  1  0  0  0
  8  9  2  0  0  0
  9 14  1  0  0  0
 14 15  1  0  0  0
  6  1  1  0  0  0
  1  2  2  0  0  0
  1  3  2  0  0  0
  1 16  1  0  0  0
 16 17  1  0  0  0
 17 18  1  0  0  0
 18 19  1  0  0  0
 19 20  1  0  0  0
 20 21  1  0  0  0
 19 22  1  0  0  0
 22 23  2  0  0  0
 23 24  1  0  0  0
 24 25  2  0  0  0
 25 26  1  0  0  0
 25 27  1  0  0  0
 27 28  2  0  0  0
  9  4  1  0  0  0
 21 16  1  0  0  0
 28 22  1  0  0  0
M  END
> <minimizedAffinity>
-1.00976

> <CNNscore>
0.3656547964

> <CNNaffinity>
6.6356859207

> <CNN_VS>
2.4263703823

> <CNNaffinity_variance>
0.3305745721

$$$$
[H]c1c([H])c(C2([H])C([H])([H])C([H])([H])N(S(=O)(=O)c3c([H])c(OC([H])([H])[H])c(OC([H])([H])[H])c(OC([H])([H])[H])c3[H])C([H])([H])C2([H])[H])c([H])c([H])c1Cl


 28 30  0  0  0  0  0  0  0  0999 V2000
   -7.1728   -8.4756    6.4042 S   0  0  0  0  0  0  0  0  0  0  0  0
   -7.2312   -7.7776    5.0762 O   0  0  0  0  0  0  0  0  0  0  0  0
   -6.9666   -9.9655    6.2403 O   0  0  0  0  0  0  0  0  0  0  0  0
   -4.9306   -6.8491    9.3299 C   0  0  0  0  0  0  0  0  0  0  0  0
   -5.9728   -7.3467    8.5905 C   0  0  0  0  0  0  0  0  0  0  0  0
   -5.8222   -7.8490    7.3176 C   0  0  0  0  0  0  0  0  0  0  0  0
   -4.5520   -7.8410    6.7809 C   0  0  0  0  0  0  0  0  0  0  0  0
   -3.4874   -7.3394    7.5199 C   0  0  0  0  0  0  0  0  0  0  0  0
   -3.6704   -6.8455    8.7869 C   0  0  0  0  0  0  0  0  0  0  0  0
   -4.1444   -5.7843   11.3791 C   0  0  0  0  0  0  0  0  0  0  0  0
   -5.1685   -6.3663   10.5937 O   0  0  0  0  0  0  0  0  0  0  0  0
   -2.2205   -7.3536    6.9313 O   0  0  0  0  0  0  0  0  0  0  0  0
   -1.8153   -8.3920    6.0800 C   0  0  0  0  0  0  0  0  0  0  0  0
   -2.5609   -6.3592    9.4695 O   0  0  0  0  0  0  0  0  0  0  0  0
   -1.2324   -6.6733    9.1317 C   0  0  0  0  0  0  0  0  0  0  0  0
   -8.6413   -8.1785    7.2427 N   0  0  0  0  0  0  0  0  0  0  0  0
   -8.9238   -9.1545    8.2253 C   0  0  0  0  0  0  0  0  0  0  0  0
  -10.2935   -9.2585    8.7341 C   0  0  0  0  0  0  0  0  0  0  0  0
  -11.3628   -8.5617    7.9596 C   0  0  0  0  0  0  0  0  0  0  0  0
  -10.8429   -7.2913    7.2925 C   0  0  0  0  0  0  0  0  0  0  0  0
   -9.7030   -7.7899    6.3928 C   0  0  0  0  0  0  0  0  0  0  0  0
  -12.5255   -8.2367    8.8202 C   0  0  0  0  0  0  0  0  0  0  0  0
  -13.4842   -9.1804    9.0805 C   0  0  0  0  0  0  0  0  0  0  0  0
  -14.5898   -8.9448    9.8713 C   0  0  0  0  0  0  0  0  0  0  0  0
  -14.7195   -7.6863   10.4202 C   0  0  0  0  0  0  0  0  0  0  0  0
  -16.1021   -7.2930   11.4456 Cl  0  0  0  0  0  0  0  0  0  0  0  0
  -13.7588   -6.7314   10.1627 C   0  0  0  0  0  0  0  0  0  0  0  0
  -12.6520   -6.9591    9.3740 C   0  0  0  0  0  0  0  0  0  0  0  0
 10 11  1  0  0  0
 11  4  1  0  0  0
  4  5  2  0  0  0
  5  6  1  0  0  0
  6  7  2  0  0  0
  7  8  1  0  0  0
  8 12  1  0  0  0
 12 13  1  0  0  0
  8  9  2  0  0  0
  9 14  1  0  0  0
 14 15  1  0  0  0
  6  1  1  0  0  0
  1  2  2  0  0  0
  1  3  2  0  0  0
  1 16  1  0  0  0
 16 17  1  0  0  0
 17 18  1  0  0  0
 18 19  1  0  0  0
 19 20  1  0  0  0
 20 21  1  0  0  0
 19 22  1  0  0  0
 22 23  2  0  0  0
 23 24  1  0  0  0
 24 25  2  0  0  0
 25 26  1  0  0  0
 25 27  1  0  0  0
 27 28  2  0  0  0
  9  4  1  0  0  0
 21 16  1  0  0  0
 28 22  1  0  0  0
M  END
> <minimizedAffinity>
5.94164

> <CNNscore>
0.3498497009

> <CNNaffinity>
5.8955497742

> <CNN_VS>
2.0625562668

> <CNNaffinity_variance>
1.3447508812

$$$$
[H]c1c([H])c(C2([H])C([H])([H])C([H])([H])N(S(=O)(=O)c3c([H])c(OC([H])([H])[H])c(OC([H])([H])[H])c(OC([H])([H])[H])c3[H])C([H])([H])C2([H])[H])c([H])c([H])c1Cl


 28 30  0  0  0  0  0  0  0  0999 V2000
  -12.1910   -9.8166    7.2020 S   0  0  0  0  0  0  0  0  0  0  0  0
  -11.8614  -10.8262    6.1407 O   0  0  0  0  0  0  0  0  0  0  0  0
  -12.6450  -10.4838    8.4819 O   0  0  0  0  0  0  0  0  0  0  0  0
   -8.3623   -8.5878    7.4541 C   0  0  0  0  0  0  0  0  0  0  0  0
   -9.5030   -9.2985    7.1817 C   0  0  0  0  0  0  0  0  0  0  0  0
  -10.7587   -8.8857    7.5665 C   0  0  0  0  0  0  0  0  0  0  0  0
  -10.8489   -7.6964    8.2586 C   0  0  0  0  0  0  0  0  0  0  0  0
   -9.7003   -6.9668    8.5409 C   0  0  0  0  0  0  0  0  0  0  0  0
   -8.4626   -7.4054    8.1433 C   0  0  0  0  0  0  0  0  0  0  0  0
   -6.6059   -8.7405    5.7680 C   0  0  0  0  0  0  0  0  0  0  0  0
   -7.1477   -9.0720    7.0333 O   0  0  0  0  0  0  0  0  0  0  0  0
   -9.8451   -5.7685    9.2445 O   0  0  0  0  0  0  0  0  0  0  0  0
  -11.0609   -5.4084    9.8437 C   0  0  0  0  0  0  0  0  0  0  0  0
   -7.3558   -6.6255    8.4596 O   0  0  0  0  0  0  0  0  0  0  0  0
   -6.2918   -7.0647    9.2676 C   0  0  0  0  0  0  0  0  0  0  0  0
  -13.4302   -8.7861    6.6099 N   0  0  0  0  0  0  0  0  0  0  0  0
  -14.4871   -8.6071    7.5312 C   0  0  0  0  0  0  0  0  0  0  0  0
  -15.7669   -8.0946    7.0360 C   0  0  0  0  0  0  0  0  0  0  0  0
  -15.9788   -8.1040    5.5582 C   0  0  0  0  0  0  0  0  0  0  0  0
  -14.6736   -7.8891    4.7972 C   0  0  0  0  0  0  0  0  0  0  0  0
  -13.7814   -9.0478    5.2650 C   0  0  0  0  0  0  0  0  0  0  0  0
  -16.9715   -7.0811    5.1505 C   0  0  0  0  0  0  0  0  0  0  0  0
  -16.7822   -5.7618    5.4686 C   0  0  0  0  0  0  0  0  0  0  0  0
  -17.6650   -4.7602    5.1208 C   0  0  0  0  0  0  0  0  0  0  0  0
  -18.7923   -5.1262    4.4155 C   0  0  0  0  0  0  0  0  0  0  0  0
  -19.9782   -3.9125    3.9274 Cl  0  0  0  0  0  0  0  0  0  0  0  0
  -18.9896   -6.4518    4.0918 C   0  0  0  0  0  0  0  0  0  0  0  0
  -18.1126   -7.4576    4.4357 C   0  0  0  0  0  0  0  0  0  0  0  0
 10 11  1  0  0  0
 11  4  1  0  0  0
  4  5  2  0  0  0
  5  6  1  0  0  0
  6  7  2  0  0  0
  7  8  1  0  0  0
  8 12  1  0  0  0
 12 13  1  0  0  0
  8  9  2  0  0  0
  9 14  1  0  0  0
 14 15  1  0  0  0
  6  1  1  0  0  0
  1  2  2  0  0  0
  1  3  2  0  0  0
  1 16  1  0  0  0
 16 17  1  0  0  0
 17 18  1  0  0  0
 18 19  1  0  0  0
 19 20  1  0  0  0
 20 21  1  0  0  0
 19 22  1  0  0  0
 22 23  2  0  0  0
 23 24  1  0  0  0
 24 25  2  0  0  0
 25 26  1  0  0  0
 25 27  1  0  0  0
 27 28  2  0  0  0
  9  4  1  0  0  0
 21 16  1  0  0  0
 28 22  1  0  0  0
M  END
> <minimizedAffinity>
-3.97095

> <CNNscore>
0.3469499052

> <CNNaffinity>
6.6436929703

> <CNN_VS>
2.3050286770

> <CNNaffinity_variance>
0.1684802175

$$$$
[H]c1c([H])c(C2([H])C([H])([H])C([H])([H])N(S(=O)(=O)c3c([H])c(OC([H])([H])[H])c(OC([H])([H])[H])c(OC([H])([H])[H])c3[H])C([H])([H])C2([H])[H])c([H])c([H])c1Cl


 28 30  0  0  0  0  0  0  0  0999 V2000
  -12.1787   -9.8454    7.1921 S   0  0  0  0  0  0  0  0  0  0  0  0
  -11.8516  -10.8410    6.1169 O   0  0  0  0  0  0  0  0  0  0  0  0
  -12.6467  -10.5287    8.4584 O   0  0  0  0  0  0  0  0  0  0  0  0
   -9.6829   -7.0077    8.5886 C   0  0  0  0  0  0  0  0  0  0  0  0
  -10.7954   -7.7436    8.2705 C   0  0  0  0  0  0  0  0  0  0  0  0
  -10.7404   -8.9335    7.5802 C   0  0  0  0  0  0  0  0  0  0  0  0
   -9.4949   -9.3873    7.2005 C   0  0  0  0  0  0  0  0  0  0  0  0
   -8.3597   -8.6507    7.5168 C   0  0  0  0  0  0  0  0  0  0  0  0
   -8.4479   -7.4678    8.2063 C   0  0  0  0  0  0  0  0  0  0  0  0
  -11.0489   -5.4665    9.8962 C   0  0  0  0  0  0  0  0  0  0  0  0
   -9.8269   -5.8297    9.2804 O   0  0  0  0  0  0  0  0  0  0  0  0
   -7.1215   -9.1534    7.1097 O   0  0  0  0  0  0  0  0  0  0  0  0
   -6.6293   -8.9391    5.8139 C   0  0  0  0  0  0  0  0  0  0  0  0
   -7.2716   -6.7824    8.4891 O   0  0  0  0  0  0  0  0  0  0  0  0
   -6.4840   -6.1414    7.5161 C   0  0  0  0  0  0  0  0  0  0  0  0
  -13.4049   -8.7944    6.6089 N   0  0  0  0  0  0  0  0  0  0  0  0
  -14.4439   -8.5851    7.5440 C   0  0  0  0  0  0  0  0  0  0  0  0
  -15.7200   -8.0503    7.0631 C   0  0  0  0  0  0  0  0  0  0  0  0
  -15.9542   -8.0683    5.5888 C   0  0  0  0  0  0  0  0  0  0  0  0
  -14.6562   -7.8877    4.8066 C   0  0  0  0  0  0  0  0  0  0  0  0
  -13.7816   -9.0607    5.2719 C   0  0  0  0  0  0  0  0  0  0  0  0
  -16.9313   -7.0284    5.1864 C   0  0  0  0  0  0  0  0  0  0  0  0
  -18.0239   -7.3564    4.4273 C   0  0  0  0  0  0  0  0  0  0  0  0
  -18.9703   -6.4395    4.0185 C   0  0  0  0  0  0  0  0  0  0  0  0
  -18.7896   -5.1279    4.4045 C   0  0  0  0  0  0  0  0  0  0  0  0
  -19.9497   -3.8848    3.9281 Cl  0  0  0  0  0  0  0  0  0  0  0  0
  -17.6926   -4.7902    5.1683 C   0  0  0  0  0  0  0  0  0  0  0  0
  -16.7432   -5.7002    5.5803 C   0  0  0  0  0  0  0  0  0  0  0  0
 10 11  1  0  0  0
 11  4  1  0  0  0
  4  5  2  0  0  0
  5  6  1  0  0  0
  6  7  2  0  0  0
  7  8  1  0  0  0
  8 12  1  0  0  0
 12 13  1  0  0  0
  8  9  2  0  0  0
  9 14  1  0  0  0
 14 15  1  0  0  0
  6  1  1  0  0  0
  1  2  2  0  0  0
  1  3  2  0  0  0
  1 16  1  0  0  0
 16 17  1  0  0  0
 17 18  1  0  0  0
 18 19  1  0  0  0
 19 20  1  0  0  0
 20 21  1  0  0  0
 19 22  1  0  0  0
 22 23  2  0  0  0
 23 24  1  0  0  0
 24 25  2  0  0  0
 25 26  1  0  0  0
 25 27  1  0  0  0
 27 28  2  0  0  0
  9  4  1  0  0  0
 21 16  1  0  0  0
 28 22  1  0  0  0
M  END
> <minimizedAffinity>
-3.94499

> <CNNscore>
0.3450480103

> <CNNaffinity>
6.6821670532

> <CNN_VS>
2.3056683540

> <CNNaffinity_variance>
0.1964829713

$$$$
[H]c1c([H])c(C2([H])C([H])([H])C([H])([H])N(S(=O)(=O)c3c([H])c(OC([H])([H])[H])c(OC([H])([H])[H])c(OC([H])([H])[H])c3[H])C([H])([H])C2([H])[H])c([H])c([H])c1C#N


 29 31  0  0  0  0  0  0  0  0999 V2000
   -8.7273   -6.3618    6.4686 S   0  0  0  0  0  0  0  0  0  0  0  0
   -8.0612   -5.9802    7.7855 O   0  0  0  0  0  0  0  0  0  0  0  0
   -9.3879   -5.1531    5.8677 O   0  0  0  0  0  0  0  0  0  0  0  0
  -12.1572   -7.9664    7.8803 C   0  0  0  0  0  0  0  0  0  0  0  0
  -11.1812   -7.0485    7.5336 C   0  0  0  0  0  0  0  0  0  0  0  0
  -10.0202   -7.4788    6.9314 C   0  0  0  0  0  0  0  0  0  0  0  0
   -9.8902   -8.8401    6.7002 C   0  0  0  0  0  0  0  0  0  0  0  0
  -10.8558   -9.7649    7.0411 C   0  0  0  0  0  0  0  0  0  0  0  0
  -12.0129   -9.3232    7.6429 C   0  0  0  0  0  0  0  0  0  0  0  0
  -13.3470   -6.7369    9.6373 C   0  0  0  0  0  0  0  0  0  0  0  0
  -13.3339   -7.5732    8.4857 O   0  0  0  0  0  0  0  0  0  0  0  0
  -10.5918  -11.0863    6.7517 O   0  0  0  0  0  0  0  0  0  0  0  0
   -9.3458  -11.5978    6.4095 C   0  0  0  0  0  0  0  0  0  0  0  0
  -12.9917  -10.2424    7.9913 O   0  0  0  0  0  0  0  0  0  0  0  0
  -14.0939   -9.7670    8.7482 C   0  0  0  0  0  0  0  0  0  0  0  0
   -7.6522   -7.1303    5.4550 N   0  0  0  0  0  0  0  0  0  0  0  0
   -7.0910   -6.4679    4.3620 C   0  0  0  0  0  0  0  0  0  0  0  0
   -6.8263   -7.3683    3.1868 C   0  0  0  0  0  0  0  0  0  0  0  0
   -6.2264   -8.6874    3.5851 C   0  0  0  0  0  0  0  0  0  0  0  0
   -6.0192   -8.9000    5.0386 C   0  0  0  0  0  0  0  0  0  0  0  0
   -7.0851   -8.3162    5.9368 C   0  0  0  0  0  0  0  0  0  0  0  0
   -6.9615   -9.8304    2.9355 C   0  0  0  0  0  0  0  0  0  0  0  0
   -6.5125  -10.3920    1.7564 C   0  0  0  0  0  0  0  0  0  0  0  0
   -7.1736  -11.4394    1.1463 C   0  0  0  0  0  0  0  0  0  0  0  0
   -8.3203  -11.9735    1.6941 C   0  0  0  0  0  0  0  0  0  0  0  0
   -8.7789  -11.4223    2.8703 C   0  0  0  0  0  0  0  0  0  0  0  0
   -8.1072  -10.3619    3.4853 C   0  0  0  0  0  0  0  0  0  0  0  0
   -9.0151  -13.0730    1.0546 C   0  0  0  0  0  0  0  0  0  0  0  0
   -9.5554  -13.9592    0.5447 N   0  0  0  0  0  0  0  0  0  0  0  0
 10 11  1  0  0  0
 11  4  1  0  0  0
  4  5  2  0  0  0
  5  6  1  0  0  0
  6  7  2  0  0  0
  7  8  1  0  0  0
  8 12  1  0  0  0
 12 13  1  0  0  0
  8  9  2  0  0  0
  9 14  1  0  0  0
 14 15  1  0  0  0
  6  1  1  0  0  0
  1  2  2  0  0  0
  1  3  2  0  0  0
  1 16  1  0  0  0
 16 17  1  0  0  0
 17 18  1  0  0  0
 18 19  1  0  0  0
 19 20  1  0  0  0
 20 21  1  0  0  0
 19 22  1  0  0  0
 22 23  2  0  0  0
 23 24  1  0  0  0
 24 25  2  0  0  0
 25 26  1  0  0  0
 26 27  2  0  0  0
 25 28  1  0  0  0
 28 29  3  0  0  0
  9  4  1  0  0  0
 21 16  1  0  0  0
 27 22  1  0  0  0
M  END
> <minimizedAffinity>
15.22873

> <CNNscore>
0.5096775293

> <CNNaffinity>
6.3631272316

> <CNN_VS>
3.2431430817

> <CNNaffinity_variance>
1.2072613239

$$$$
[H]c1c([H])c(C2([H])C([H])([H])C([H])([H])N(S(=O)(=O)c3c([H])c(OC([H])([H])[H])c(OC([H])([H])[H])c(OC([H])([H])[H])c3[H])C([H])([H])C2([H])[H])c([H])c([H])c1C#N


 29 31  0  0  0  0  0  0  0  0999 V2000
  -13.7009   -6.6551    8.8209 S   0  0  0  0  0  0  0  0  0  0  0  0
  -14.3561   -7.7717    9.6257 O   0  0  0  0  0  0  0  0  0  0  0  0
  -14.0139   -5.3274    9.4513 O   0  0  0  0  0  0  0  0  0  0  0  0
  -15.6005   -7.8339    5.4543 C   0  0  0  0  0  0  0  0  0  0  0  0
  -14.9648   -7.8636    6.6832 C   0  0  0  0  0  0  0  0  0  0  0  0
  -14.5279   -6.6903    7.2562 C   0  0  0  0  0  0  0  0  0  0  0  0
  -14.7546   -5.5162    6.5536 C   0  0  0  0  0  0  0  0  0  0  0  0
  -15.3871   -5.4736    5.3280 C   0  0  0  0  0  0  0  0  0  0  0  0
  -15.8198   -6.6531    4.7645 C   0  0  0  0  0  0  0  0  0  0  0  0
  -15.4332   -9.5207    3.6821 C   0  0  0  0  0  0  0  0  0  0  0  0
  -16.0520   -8.9891    4.8483 O   0  0  0  0  0  0  0  0  0  0  0  0
  -15.5444   -4.2353    4.7437 O   0  0  0  0  0  0  0  0  0  0  0  0
  -14.6701   -3.6659    3.8258 C   0  0  0  0  0  0  0  0  0  0  0  0
  -16.4567   -6.6246    3.5325 O   0  0  0  0  0  0  0  0  0  0  0  0
  -17.8642   -6.4439    3.5293 C   0  0  0  0  0  0  0  0  0  0  0  0
  -12.0750   -6.9463    8.6076 N   0  0  0  0  0  0  0  0  0  0  0  0
  -11.3080   -6.1609    7.7456 C   0  0  0  0  0  0  0  0  0  0  0  0
  -10.1994   -6.9200    7.0698 C   0  0  0  0  0  0  0  0  0  0  0  0
   -9.4705   -7.8444    8.0041 C   0  0  0  0  0  0  0  0  0  0  0  0
   -9.9624   -7.8824    9.4031 C   0  0  0  0  0  0  0  0  0  0  0  0
  -11.4597   -7.7600    9.5665 C   0  0  0  0  0  0  0  0  0  0  0  0
   -9.3364   -9.2194    7.4038 C   0  0  0  0  0  0  0  0  0  0  0  0
  -10.3600   -9.7809    6.6660 C   0  0  0  0  0  0  0  0  0  0  0  0
  -10.2552  -11.0400    6.1091 C   0  0  0  0  0  0  0  0  0  0  0  0
   -9.1137  -11.7962    6.2676 C   0  0  0  0  0  0  0  0  0  0  0  0
   -8.0850  -11.2475    7.0015 C   0  0  0  0  0  0  0  0  0  0  0  0
   -8.1944   -9.9726    7.5641 C   0  0  0  0  0  0  0  0  0  0  0  0
   -9.0025  -13.1178    5.6835 C   0  0  0  0  0  0  0  0  0  0  0  0
   -8.9246  -14.1783    5.2289 N   0  0  0  0  0  0  0  0  0  0  0  0
 10 11  1  0  0  0
 11  4  1  0  0  0
  4  5  2  0  0  0
  5  6  1  0  0  0
  6  7  2  0  0  0
  7  8  1  0  0  0
  8 12  1  0  0  0
 12 13  1  0  0  0
  8  9  2  0  0  0
  9 14  1  0  0  0
 14 15  1  0  0  0
  6  1  1  0  0  0
  1  2  2  0  0  0
  1  3  2  0  0  0
  1 16  1  0  0  0
 16 17  1  0  0  0
 17 18  1  0  0  0
 18 19  1  0  0  0
 19 20  1  0  0  0
 20 21  1  0  0  0
 19 22  1  0  0  0
 22 23  2  0  0  0
 23 24  1  0  0  0
 24 25  2  0  0  0
 25 26  1  0  0  0
 26 27  2  0  0  0
 25 28  1  0  0  0
 28 29  3  0  0  0
  9  4  1  0  0  0
 21 16  1  0  0  0
 27 22  1  0  0  0
M  END
> <minimizedAffinity>
4.76567

> <CNNscore>
0.4519430995

> <CNNaffinity>
6.5706925392

> <CNN_VS>
2.9695792198

> <CNNaffinity_variance>
0.6031711698

$$$$
[H]c1c([H])c(C2([H])C([H])([H])C([H])([H])N(S(=O)(=O)c3c([H])c(OC([H])([H])[H])c(OC([H])([H])[H])c(OC([H])([H])[H])c3[H])C([H])([H])C2([H])[H])c([H])c([H])c1C#N


 29 31  0  0  0  0  0  0  0  0999 V2000
  -11.6516   -6.4962    9.2716 S   0  0  0  0  0  0  0  0  0  0  0  0
  -11.9685   -7.3729   10.4777 O   0  0  0  0  0  0  0  0  0  0  0  0
  -11.9594   -5.0613    9.5953 O   0  0  0  0  0  0  0  0  0  0  0  0
  -14.4697   -6.5568    6.3757 C   0  0  0  0  0  0  0  0  0  0  0  0
  -13.5737   -6.1030    7.3279 C   0  0  0  0  0  0  0  0  0  0  0  0
  -12.8108   -7.0054    8.0346 C   0  0  0  0  0  0  0  0  0  0  0  0
  -12.9866   -8.3506    7.7462 C   0  0  0  0  0  0  0  0  0  0  0  0
  -13.8763   -8.8152    6.7995 C   0  0  0  0  0  0  0  0  0  0  0  0
  -14.6341   -7.9038    6.0988 C   0  0  0  0  0  0  0  0  0  0  0  0
  -14.7536   -4.9984    4.5035 C   0  0  0  0  0  0  0  0  0  0  0  0
  -15.2518   -5.6827    5.6476 O   0  0  0  0  0  0  0  0  0  0  0  0
  -13.9464  -10.1797    6.6178 O   0  0  0  0  0  0  0  0  0  0  0  0
  -13.5395  -11.1329    7.5436 C   0  0  0  0  0  0  0  0  0  0  0  0
  -15.5328   -8.3575    5.1444 O   0  0  0  0  0  0  0  0  0  0  0  0
  -15.0221   -8.6484    3.8528 C   0  0  0  0  0  0  0  0  0  0  0  0
  -10.0977   -6.7591    8.7327 N   0  0  0  0  0  0  0  0  0  0  0  0
   -9.3306   -5.7186    8.2062 C   0  0  0  0  0  0  0  0  0  0  0  0
   -8.3862   -6.1596    7.1219 C   0  0  0  0  0  0  0  0  0  0  0  0
   -7.6834   -7.4474    7.4477 C   0  0  0  0  0  0  0  0  0  0  0  0
   -8.0414   -8.0794    8.7412 C   0  0  0  0  0  0  0  0  0  0  0  0
   -9.4922   -7.9524    9.1444 C   0  0  0  0  0  0  0  0  0  0  0  0
   -7.7665   -8.4120    6.2937 C   0  0  0  0  0  0  0  0  0  0  0  0
   -6.9206   -8.3027    5.2075 C   0  0  0  0  0  0  0  0  0  0  0  0
   -6.9828   -9.1770    4.1406 C   0  0  0  0  0  0  0  0  0  0  0  0
   -7.9003  -10.2054    4.1151 C   0  0  0  0  0  0  0  0  0  0  0  0
   -8.7501  -10.3256    5.1927 C   0  0  0  0  0  0  0  0  0  0  0  0
   -8.6845   -9.4386    6.2711 C   0  0  0  0  0  0  0  0  0  0  0  0
   -7.9664  -11.1237    2.9959 C   0  0  0  0  0  0  0  0  0  0  0  0
   -8.0353  -11.8596    2.1065 N   0  0  0  0  0  0  0  0  0  0  0  0
 10 11  1  0  0  0
 11  4  1  0  0  0
  4  5  2  0  0  0
  5  6  1  0  0  0
  6  7  2  0  0  0
  7  8  1  0  0  0
  8 12  1  0  0  0
 12 13  1  0  0  0
  8  9  2  0  0  0
  9 14  1  0  0  0
 14 15  1  0  0  0
  6  1  1  0  0  0
  1  2  2  0  0  0
  1  3  2  0  0  0
  1 16  1  0  0  0
 16 17  1  0  0  0
 17 18  1  0  0  0
 18 19  1  0  0  0
 19 20  1  0  0  0
 20 21  1  0  0  0
 19 22  1  0  0  0
 22 23  2  0  0  0
 23 24  1  0  0  0
 24 25  2  0  0  0
 25 26  1  0  0  0
 26 27  2  0  0  0
 25 28  1  0  0  0
 28 29  3  0  0  0
  9  4  1  0  0  0
 21 16  1  0  0  0
 27 22  1  0  0  0
M  END
> <minimizedAffinity>
4.55387

> <CNNscore>
0.4400347173

> <CNNaffinity>
6.3965134621

> <CNN_VS>
2.8146879673

> <CNNaffinity_variance>
0.7554993629

$$$$
[H]c1c([H])c(C2([H])C([H])([H])C([H])([H])N(S(=O)(=O)c3c([H])c(OC([H])([H])[H])c(OC([H])([H])[H])c(OC([H])([H])[H])c3[H])C([H])([H])C2([H])[H])c([H])c([H])c1C#N


 29 31  0  0  0  0  0  0  0  0999 V2000
   -9.5104   -6.1600    8.8051 S   0  0  0  0  0  0  0  0  0  0  0  0
   -9.4503   -6.2351   10.3264 O   0  0  0  0  0  0  0  0  0  0  0  0
   -9.7243   -4.7352    8.3777 O   0  0  0  0  0  0  0  0  0  0  0  0
  -13.3284   -7.4492    8.5008 C   0  0  0  0  0  0  0  0  0  0  0  0
  -12.2157   -6.7122    8.8669 C   0  0  0  0  0  0  0  0  0  0  0  0
  -10.9764   -7.0531    8.3731 C   0  0  0  0  0  0  0  0  0  0  0  0
  -10.9104   -8.1415    7.5161 C   0  0  0  0  0  0  0  0  0  0  0  0
  -12.0122   -8.8839    7.1438 C   0  0  0  0  0  0  0  0  0  0  0  0
  -13.2466   -8.5340    7.6437 C   0  0  0  0  0  0  0  0  0  0  0  0
  -15.1381   -7.7730   10.1239 C   0  0  0  0  0  0  0  0  0  0  0  0
  -14.5868   -7.1383    8.9755 O   0  0  0  0  0  0  0  0  0  0  0  0
  -11.7983   -9.9402    6.2846 O   0  0  0  0  0  0  0  0  0  0  0  0
  -10.6511  -10.7238    6.2487 C   0  0  0  0  0  0  0  0  0  0  0  0
  -14.3625   -9.2723    7.2779 O   0  0  0  0  0  0  0  0  0  0  0  0
  -15.2615   -8.6814    6.3523 C   0  0  0  0  0  0  0  0  0  0  0  0
   -8.1806   -6.8896    8.1172 N   0  0  0  0  0  0  0  0  0  0  0  0
   -7.1299   -6.1321    7.5971 C   0  0  0  0  0  0  0  0  0  0  0  0
   -6.4639   -6.7680    6.4080 C   0  0  0  0  0  0  0  0  0  0  0  0
   -6.2382   -8.2432    6.5846 C   0  0  0  0  0  0  0  0  0  0  0  0
   -6.7189   -8.8310    7.8591 C   0  0  0  0  0  0  0  0  0  0  0  0
   -8.0078   -8.2511    8.3940 C   0  0  0  0  0  0  0  0  0  0  0  0
   -6.7200   -9.0088    5.3802 C   0  0  0  0  0  0  0  0  0  0  0  0
   -6.1023   -8.8736    4.1523 C   0  0  0  0  0  0  0  0  0  0  0  0
   -6.5305   -9.5665    3.0375 C   0  0  0  0  0  0  0  0  0  0  0  0
   -7.6025  -10.4305    3.1041 C   0  0  0  0  0  0  0  0  0  0  0  0
   -8.2277  -10.5744    4.3233 C   0  0  0  0  0  0  0  0  0  0  0  0
   -7.7916   -9.8713    5.4500 C   0  0  0  0  0  0  0  0  0  0  0  0
   -8.0529  -11.1584    1.9346 C   0  0  0  0  0  0  0  0  0  0  0  0
   -8.3969  -11.7456    0.9997 N   0  0  0  0  0  0  0  0  0  0  0  0
 10 11  1  0  0  0
 11  4  1  0  0  0
  4  5  2  0  0  0
  5  6  1  0  0  0
  6  7  2  0  0  0
  7  8  1  0  0  0
  8 12  1  0  0  0
 12 13  1  0  0  0
  8  9  2  0  0  0
  9 14  1  0  0  0
 14 15  1  0  0  0
  6  1  1  0  0  0
  1  2  2  0  0  0
  1  3  2  0  0  0
  1 16  1  0  0  0
 16 17  1  0  0  0
 17 18  1  0  0  0
 18 19  1  0  0  0
 19 20  1  0  0  0
 20 21  1  0  0  0
 19 22  1  0  0  0
 22 23  2  0  0  0
 23 24  1  0  0  0
 24 25  2  0  0  0
 25 26  1  0  0  0
 26 27  2  0  0  0
 25 28  1  0  0  0
 28 29  3  0  0  0
  9  4  1  0  0  0
 21 16  1  0  0  0
 27 22  1  0  0  0
M  END
> <minimizedAffinity>
6.85593

> <CNNscore>
0.4388701022

> <CNNaffinity>
6.2980484962

> <CNN_VS>
2.7640252113

> <CNNaffinity_variance>
0.8884895444

$$$$
[H]c1c([H])c(C2([H])C([H])([H])C([H])([H])N(S(=O)(=O)c3c([H])c(OC([H])([H])[H])c(OC([H])([H])[H])c(OC([H])([H])[H])c3[H])C([H])([H])C2([H])[H])c([H])c([H])c1C#N


 29 31  0  0  0  0  0  0  0  0999 V2000
  -13.0782   -6.6099    8.8380 S   0  0  0  0  0  0  0  0  0  0  0  0
  -13.8353   -7.5153    9.8028 O   0  0  0  0  0  0  0  0  0  0  0  0
  -13.2902   -5.1726    9.2221 O   0  0  0  0  0  0  0  0  0  0  0  0
  -15.6313   -6.4206    5.7111 C   0  0  0  0  0  0  0  0  0  0  0  0
  -15.0416   -6.1901    6.9417 C   0  0  0  0  0  0  0  0  0  0  0  0
  -13.8816   -6.8505    7.2791 C   0  0  0  0  0  0  0  0  0  0  0  0
  -13.3559   -7.7307    6.3450 C   0  0  0  0  0  0  0  0  0  0  0  0
  -13.9343   -7.9690    5.1152 C   0  0  0  0  0  0  0  0  0  0  0  0
  -15.0943   -7.3030    4.7884 C   0  0  0  0  0  0  0  0  0  0  0  0
  -18.0579   -6.4326    5.3571 C   0  0  0  0  0  0  0  0  0  0  0  0
  -16.7944   -5.7778    5.3375 O   0  0  0  0  0  0  0  0  0  0  0  0
  -13.3019   -8.8706    4.2864 O   0  0  0  0  0  0  0  0  0  0  0  0
  -12.8296  -10.1191    4.6730 C   0  0  0  0  0  0  0  0  0  0  0  0
  -15.6865   -7.5336    3.5554 O   0  0  0  0  0  0  0  0  0  0  0  0
  -16.3781   -8.7607    3.3826 C   0  0  0  0  0  0  0  0  0  0  0  0
  -11.4787   -7.0605    8.7252 N   0  0  0  0  0  0  0  0  0  0  0  0
  -10.4690   -6.1079    8.5793 C   0  0  0  0  0  0  0  0  0  0  0  0
   -9.3071   -6.5877    7.7536 C   0  0  0  0  0  0  0  0  0  0  0  0
   -8.8952   -7.9940    8.0867 C   0  0  0  0  0  0  0  0  0  0  0  0
   -9.6945   -8.6803    9.1312 C   0  0  0  0  0  0  0  0  0  0  0  0
  -11.1728   -8.3667    9.1254 C   0  0  0  0  0  0  0  0  0  0  0  0
   -8.7499   -8.8220    6.8368 C   0  0  0  0  0  0  0  0  0  0  0  0
   -7.6358   -8.7081    6.0286 C   0  0  0  0  0  0  0  0  0  0  0  0
   -7.4859   -9.4581    4.8790 C   0  0  0  0  0  0  0  0  0  0  0  0
   -8.4510  -10.3605    4.4865 C   0  0  0  0  0  0  0  0  0  0  0  0
   -9.5675  -10.4838    5.2840 C   0  0  0  0  0  0  0  0  0  0  0  0
   -9.7162   -9.7229    6.4472 C   0  0  0  0  0  0  0  0  0  0  0  0
   -8.2948  -11.1483    3.2801 C   0  0  0  0  0  0  0  0  0  0  0  0
   -8.1643  -11.7634    2.3095 N   0  0  0  0  0  0  0  0  0  0  0  0
 10 11  1  0  0  0
 11  4  1  0  0  0
  4  5  2  0  0  0
  5  6  1  0  0  0
  6  7  2  0  0  0
  7  8  1  0  0  0
  8 12  1  0  0  0
 12 13  1  0  0  0
  8  9  2  0  0  0
  9 14  1  0  0  0
 14 15  1  0  0  0
  6  1  1  0  0  0
  1  2  2  0  0  0
  1  3  2  0  0  0
  1 16  1  0  0  0
 16 17  1  0  0  0
 17 18  1  0  0  0
 18 19  1  0  0  0
 19 20  1  0  0  0
 20 21  1  0  0  0
 19 22  1  0  0  0
 22 23  2  0  0  0
 23 24  1  0  0  0
 24 25  2  0  0  0
 25 26  1  0  0  0
 26 27  2  0  0  0
 25 28  1  0  0  0
 28 29  3  0  0  0
  9  4  1  0  0  0
 21 16  1  0  0  0
 27 22  1  0  0  0
M  END
> <minimizedAffinity>
7.74208

> <CNNscore>
0.4242576361

> <CNNaffinity>
6.5711646080

> <CNN_VS>
2.7878668308

> <CNNaffinity_variance>
1.1214939356

$$$$
[H]c1c([H])c(C2([H])C([H])([H])C([H])([H])N(S(=O)(=O)c3c([H])c(OC([H])([H])[H])c(OC([H])([H])[H])c(OC([H])([H])[H])c3[H])C([H])([H])C2([H])[H])c([H])c([H])c1C#N


 29 31  0  0  0  0  0  0  0  0999 V2000
  -14.1099   -8.5751    4.9452 S   0  0  0  0  0  0  0  0  0  0  0  0
  -13.8837  -10.0814    5.0034 O   0  0  0  0  0  0  0  0  0  0  0  0
  -12.9848   -7.9241    4.1910 O   0  0  0  0  0  0  0  0  0  0  0  0
  -12.7993   -7.0311    8.4425 C   0  0  0  0  0  0  0  0  0  0  0  0
  -12.8498   -7.4234    7.1163 C   0  0  0  0  0  0  0  0  0  0  0  0
  -13.9796   -8.0403    6.6277 C   0  0  0  0  0  0  0  0  0  0  0  0
  -15.0291   -8.2390    7.5124 C   0  0  0  0  0  0  0  0  0  0  0  0
  -14.9908   -7.8525    8.8364 C   0  0  0  0  0  0  0  0  0  0  0  0
  -13.8558   -7.2364    9.3141 C   0  0  0  0  0  0  0  0  0  0  0  0
  -10.5206   -6.1612    8.1876 C   0  0  0  0  0  0  0  0  0  0  0  0
  -11.6841   -6.4104    8.9685 O   0  0  0  0  0  0  0  0  0  0  0  0
  -16.1076   -8.1136    9.6007 O   0  0  0  0  0  0  0  0  0  0  0  0
  -16.3713   -9.3140   10.2496 C   0  0  0  0  0  0  0  0  0  0  0  0
  -13.8039   -6.8432   10.6434 O   0  0  0  0  0  0  0  0  0  0  0  0
  -12.8523   -5.8506   10.9939 C   0  0  0  0  0  0  0  0  0  0  0  0
  -15.6264   -8.2202    4.3551 N   0  0  0  0  0  0  0  0  0  0  0  0
  -15.8328   -7.9736    2.9968 C   0  0  0  0  0  0  0  0  0  0  0  0
  -16.9238   -6.9738    2.7282 C   0  0  0  0  0  0  0  0  0  0  0  0
  -18.1366   -7.1871    3.5898 C   0  0  0  0  0  0  0  0  0  0  0  0
  -18.0598   -8.3041    4.5630 C   0  0  0  0  0  0  0  0  0  0  0  0
  -16.7047   -8.5190    5.1964 C   0  0  0  0  0  0  0  0  0  0  0  0
  -18.5755   -5.8960    4.2293 C   0  0  0  0  0  0  0  0  0  0  0  0
  -19.8591   -5.4145    4.0616 C   0  0  0  0  0  0  0  0  0  0  0  0
  -20.2788   -4.2329    4.6395 C   0  0  0  0  0  0  0  0  0  0  0  0
  -19.4262   -3.4773    5.4155 C   0  0  0  0  0  0  0  0  0  0  0  0
  -18.1428   -3.9464    5.5907 C   0  0  0  0  0  0  0  0  0  0  0  0
  -17.7211   -5.1431    5.0042 C   0  0  0  0  0  0  0  0  0  0  0  0
  -19.8656   -2.2368    6.0225 C   0  0  0  0  0  0  0  0  0  0  0  0
  -20.2281   -1.2456    6.4952 N   0  0  0  0  0  0  0  0  0  0  0  0
 10 11  1  0  0  0
 11  4  1  0  0  0
  4  5  2  0  0  0
  5  6  1  0  0  0
  6  7  2  0  0  0
  7  8  1  0  0  0
  8 12  1  0  0  0
 12 13  1  0  0  0
  8  9  2  0  0  0
  9 14  1  0  0  0
 14 15  1  0  0  0
  6  1  1  0  0  0
  1  2  2  0  0  0
  1  3  2  0  0  0
  1 16  1  0  0  0
 16 17  1  0  0  0
 17 18  1  0  0  0
 18 19  1  0  0  0
 19 20  1  0  0  0
 20 21  1  0  0  0
 19 22  1  0  0  0
 22 23  2  0  0  0
 23 24  1  0  0  0
 24 25  2  0  0  0
 25 26  1  0  0  0
 26 27  2  0  0  0
 25 28  1  0  0  0
 28 29  3  0  0  0
  9  4  1  0  0  0
 21 16  1  0  0  0
 27 22  1  0  0  0
M  END
> <minimizedAffinity>
11.31812

> <CNNscore>
0.4153359532

> <CNNaffinity>
6.7243728638

> <CNN_VS>
2.7928738594

> <CNNaffinity_variance>
1.2269772291

$$$$
[H]c1c([H])c(C2([H])C([H])([H])C([H])([H])N(S(=O)(=O)c3c([H])c(OC([H])([H])[H])c(OC([H])([H])[H])c(OC([H])([H])[H])c3[H])C([H])([H])C2([H])[H])c([H])c([H])c1C#N


 29 31  0  0  0  0  0  0  0  0999 V2000
  -14.9390   -5.8739    5.1122 S   0  0  0  0  0  0  0  0  0  0  0  0
  -13.8745   -5.8946    4.0214 O   0  0  0  0  0  0  0  0  0  0  0  0
  -15.1998   -4.4561    5.5367 O   0  0  0  0  0  0  0  0  0  0  0  0
  -12.9878   -8.5112    7.4721 C   0  0  0  0  0  0  0  0  0  0  0  0
  -13.5575   -7.9128    6.3619 C   0  0  0  0  0  0  0  0  0  0  0  0
  -14.1827   -6.6926    6.4875 C   0  0  0  0  0  0  0  0  0  0  0  0
  -14.2073   -6.1171    7.7492 C   0  0  0  0  0  0  0  0  0  0  0  0
  -13.6430   -6.7036    8.8634 C   0  0  0  0  0  0  0  0  0  0  0  0
  -13.0204   -7.9241    8.7261 C   0  0  0  0  0  0  0  0  0  0  0  0
  -11.2589   -9.9553    6.5027 C   0  0  0  0  0  0  0  0  0  0  0  0
  -12.3530   -9.7340    7.3857 O   0  0  0  0  0  0  0  0  0  0  0  0
  -13.7429   -6.0174   10.0545 O   0  0  0  0  0  0  0  0  0  0  0  0
  -12.7609   -5.1911   10.5877 C   0  0  0  0  0  0  0  0  0  0  0  0
  -12.4494   -8.5251    9.8383 O   0  0  0  0  0  0  0  0  0  0  0  0
  -13.3161   -9.2172   10.7236 C   0  0  0  0  0  0  0  0  0  0  0  0
  -16.2996   -6.7082    4.6362 N   0  0  0  0  0  0  0  0  0  0  0  0
  -17.4305   -6.0375    4.1676 C   0  0  0  0  0  0  0  0  0  0  0  0
  -18.7220   -6.7265    4.5130 C   0  0  0  0  0  0  0  0  0  0  0  0
  -18.6617   -8.2147    4.3125 C   0  0  0  0  0  0  0  0  0  0  0  0
  -17.3643   -8.7600    3.8434 C   0  0  0  0  0  0  0  0  0  0  0  0
  -16.1361   -8.0785    4.4009 C   0  0  0  0  0  0  0  0  0  0  0  0
  -19.1877   -8.9418    5.5222 C   0  0  0  0  0  0  0  0  0  0  0  0
  -18.7901   -8.5903    6.7973 C   0  0  0  0  0  0  0  0  0  0  0  0
  -19.2610   -9.2458    7.9175 C   0  0  0  0  0  0  0  0  0  0  0  0
  -20.1563  -10.2883    7.8090 C   0  0  0  0  0  0  0  0  0  0  0  0
  -20.5611  -10.6490    6.5426 C   0  0  0  0  0  0  0  0  0  0  0  0
  -20.0823   -9.9832    5.4105 C   0  0  0  0  0  0  0  0  0  0  0  0
  -20.6513  -10.9771    8.9842 C   0  0  0  0  0  0  0  0  0  0  0  0
  -21.0608  -11.5296    9.9139 N   0  0  0  0  0  0  0  0  0  0  0  0
 10 11  1  0  0  0
 11  4  1  0  0  0
  4  5  2  0  0  0
  5  6  1  0  0  0
  6  7  2  0  0  0
  7  8  1  0  0  0
  8 12  1  0  0  0
 12 13  1  0  0  0
  8  9  2  0  0  0
  9 14  1  0  0  0
 14 15  1  0  0  0
  6  1  1  0  0  0
  1  2  2  0  0  0
  1  3  2  0  0  0
  1 16  1  0  0  0
 16 17  1  0  0  0
 17 18  1  0  0  0
 18 19  1  0  0  0
 19 20  1  0  0  0
 20 21  1  0  0  0
 19 22  1  0  0  0
 22 23  2  0  0  0
 23 24  1  0  0  0
 24 25  2  0  0  0
 25 26  1  0  0  0
 26 27  2  0  0  0
 25 28  1  0  0  0
 28 29  3  0  0  0
  9  4  1  0  0  0
 21 16  1  0  0  0
 27 22  1  0  0  0
M  END
> <minimizedAffinity>
-0.17234

> <CNNscore>
0.3833633363

> <CNNaffinity>
6.6090788841

> <CNN_VS>
2.5336785316

> <CNNaffinity_variance>
0.1073821411

$$$$
[H]c1c([H])c(C2([H])C([H])([H])C([H])([H])N(S(=O)(=O)c3c([H])c(OC([H])([H])[H])c(OC([H])([H])[H])c(OC([H])([H])[H])c3[H])C([H])([H])C2([H])[H])c([H])c([H])c1C#N


 29 31  0  0  0  0  0  0  0  0999 V2000
  -14.9500   -5.8208    5.0394 S   0  0  0  0  0  0  0  0  0  0  0  0
  -13.8886   -5.8188    3.9453 O   0  0  0  0  0  0  0  0  0  0  0  0
  -15.2310   -4.4098    5.4733 O   0  0  0  0  0  0  0  0  0  0  0  0
  -13.5980   -6.8050    8.7185 C   0  0  0  0  0  0  0  0  0  0  0  0
  -14.2255   -6.1292    7.6866 C   0  0  0  0  0  0  0  0  0  0  0  0
  -14.1770   -6.6361    6.4074 C   0  0  0  0  0  0  0  0  0  0  0  0
  -13.4859   -7.8239    6.2195 C   0  0  0  0  0  0  0  0  0  0  0  0
  -12.8565   -8.5068    7.2399 C   0  0  0  0  0  0  0  0  0  0  0  0
  -12.9114   -7.9905    8.5152 C   0  0  0  0  0  0  0  0  0  0  0  0
  -12.7384   -5.3073   10.4599 C   0  0  0  0  0  0  0  0  0  0  0  0
  -13.6244   -6.3279   10.0136 O   0  0  0  0  0  0  0  0  0  0  0  0
  -12.2064   -9.6758    6.9075 O   0  0  0  0  0  0  0  0  0  0  0  0
  -10.8274   -9.8471    6.8856 C   0  0  0  0  0  0  0  0  0  0  0  0
  -12.2824   -8.6668    9.5503 O   0  0  0  0  0  0  0  0  0  0  0  0
  -13.0291   -9.6671   10.2253 C   0  0  0  0  0  0  0  0  0  0  0  0
  -16.2992   -6.6728    4.5624 N   0  0  0  0  0  0  0  0  0  0  0  0
  -17.4320   -6.0179    4.0764 C   0  0  0  0  0  0  0  0  0  0  0  0
  -18.7202   -6.7142    4.4195 C   0  0  0  0  0  0  0  0  0  0  0  0
  -18.6452   -8.2041    4.2376 C   0  0  0  0  0  0  0  0  0  0  0  0
  -17.3391   -8.7435    3.7859 C   0  0  0  0  0  0  0  0  0  0  0  0
  -16.1216   -8.0444    4.3451 C   0  0  0  0  0  0  0  0  0  0  0  0
  -19.1748   -8.9212    5.4517 C   0  0  0  0  0  0  0  0  0  0  0  0
  -20.1120   -9.9290    5.3354 C   0  0  0  0  0  0  0  0  0  0  0  0
  -20.6093  -10.5966    6.4369 C   0  0  0  0  0  0  0  0  0  0  0  0
  -20.1869  -10.2824    7.7108 C   0  0  0  0  0  0  0  0  0  0  0  0
  -19.2521   -9.2788    7.8408 C   0  0  0  0  0  0  0  0  0  0  0  0
  -18.7508   -8.6048    6.7235 C   0  0  0  0  0  0  0  0  0  0  0  0
  -20.7081  -10.9825    8.8678 C   0  0  0  0  0  0  0  0  0  0  0  0
  -21.1301  -11.5530    9.7809 N   0  0  0  0  0  0  0  0  0  0  0  0
 10 11  1  0  0  0
 11  4  1  0  0  0
  4  5  2  0  0  0
  5  6  1  0  0  0
  6  7  2  0  0  0
  7  8  1  0  0  0
  8 12  1  0  0  0
 12 13  1  0  0  0
  8  9  2  0  0  0
  9 14  1  0  0  0
 14 15  1  0  0  0
  6  1  1  0  0  0
  1  2  2  0  0  0
  1  3  2  0  0  0
  1 16  1  0  0  0
 16 17  1  0  0  0
 17 18  1  0  0  0
 18 19  1  0  0  0
 19 20  1  0  0  0
 20 21  1  0  0  0
 19 22  1  0  0  0
 22 23  2  0  0  0
 23 24  1  0  0  0
 24 25  2  0  0  0
 25 26  1  0  0  0
 26 27  2  0  0  0
 25 28  1  0  0  0
 28 29  3  0  0  0
  9  4  1  0  0  0
 21 16  1  0  0  0
 27 22  1  0  0  0
M  END
> <minimizedAffinity>
-0.77073

> <CNNscore>
0.3715989888

> <CNNaffinity>
6.5931930542

> <CNN_VS>
2.4500238895

> <CNNaffinity_variance>
0.0820995420

$$$$
[H]c1c([H])c(C2([H])C([H])([H])C([H])([H])N(S(=O)(=O)c3c([H])c(OC([H])([H])[H])c(OC([H])([H])[H])c(OC([H])([H])[H])c3[H])C([H])([H])C2([H])[H])c([H])c([H])c1C#N


 29 31  0  0  0  0  0  0  0  0999 V2000
  -13.8942   -6.7407    8.8498 S   0  0  0  0  0  0  0  0  0  0  0  0
  -14.8437   -7.6579    9.6120 O   0  0  0  0  0  0  0  0  0  0  0  0
  -14.0894   -5.3216    9.3040 O   0  0  0  0  0  0  0  0  0  0  0  0
  -14.5030   -6.0313    4.9181 C   0  0  0  0  0  0  0  0  0  0  0  0
  -14.0341   -5.9227    6.2156 C   0  0  0  0  0  0  0  0  0  0  0  0
  -14.4472   -6.8248    7.1702 C   0  0  0  0  0  0  0  0  0  0  0  0
  -15.3308   -7.8157    6.7692 C   0  0  0  0  0  0  0  0  0  0  0  0
  -15.8053   -7.9345    5.4790 C   0  0  0  0  0  0  0  0  0  0  0  0
  -15.3855   -7.0267    4.5325 C   0  0  0  0  0  0  0  0  0  0  0  0
  -14.4779   -3.7707    3.9676 C   0  0  0  0  0  0  0  0  0  0  0  0
  -14.1120   -5.1457    3.9339 O   0  0  0  0  0  0  0  0  0  0  0  0
  -16.6796   -8.9686    5.2227 O   0  0  0  0  0  0  0  0  0  0  0  0
  -18.0372   -8.8240    4.9629 C   0  0  0  0  0  0  0  0  0  0  0  0
  -15.8552   -7.1343    3.2317 O   0  0  0  0  0  0  0  0  0  0  0  0
  -15.3908   -8.2300    2.4586 C   0  0  0  0  0  0  0  0  0  0  0  0
  -12.3235   -7.2845    8.9557 N   0  0  0  0  0  0  0  0  0  0  0  0
  -11.2593   -6.3930    9.0999 C   0  0  0  0  0  0  0  0  0  0  0  0
   -9.9944   -6.8563    8.4310 C   0  0  0  0  0  0  0  0  0  0  0  0
   -9.7159   -8.3160    8.6556 C   0  0  0  0  0  0  0  0  0  0  0  0
  -10.7190   -9.0578    9.4583 C   0  0  0  0  0  0  0  0  0  0  0  0
  -12.1562   -8.6450    9.2402 C   0  0  0  0  0  0  0  0  0  0  0  0
   -9.3925   -9.0076    7.3572 C   0  0  0  0  0  0  0  0  0  0  0  0
   -8.2544   -8.6908    6.6418 C   0  0  0  0  0  0  0  0  0  0  0  0
   -7.9423   -9.3136    5.4497 C   0  0  0  0  0  0  0  0  0  0  0  0
   -8.7613  -10.2870    4.9189 C   0  0  0  0  0  0  0  0  0  0  0  0
   -9.8999  -10.6125    5.6227 C   0  0  0  0  0  0  0  0  0  0  0  0
  -10.2130   -9.9799    6.8293 C   0  0  0  0  0  0  0  0  0  0  0  0
   -8.4347  -10.9414    3.6678 C   0  0  0  0  0  0  0  0  0  0  0  0
   -8.1695  -11.4488    2.6630 N   0  0  0  0  0  0  0  0  0  0  0  0
 10 11  1  0  0  0
 11  4  1  0  0  0
  4  5  2  0  0  0
  5  6  1  0  0  0
  6  7  2  0  0  0
  7  8  1  0  0  0
  8 12  1  0  0  0
 12 13  1  0  0  0
  8  9  2  0  0  0
  9 14  1  0  0  0
 14 15  1  0  0  0
  6  1  1  0  0  0
  1  2  2  0  0  0
  1  3  2  0  0  0
  1 16  1  0  0  0
 16 17  1  0  0  0
 17 18  1  0  0  0
 18 19  1  0  0  0
 19 20  1  0  0  0
 20 21  1  0  0  0
 19 22  1  0  0  0
 22 23  2  0  0  0
 23 24  1  0  0  0
 24 25  2  0  0  0
 25 26  1  0  0  0
 26 27  2  0  0  0
 25 28  1  0  0  0
 28 29  3  0  0  0
  9  4  1  0  0  0
 21 16  1  0  0  0
 27 22  1  0  0  0
M  END
> <minimizedAffinity>
5.27415

> <CNNscore>
0.3685449064

> <CNNaffinity>
6.3514709473

> <CNN_VS>
2.3408021927

> <CNNaffinity_variance>
0.8155070543

$$$$
[H]c1c([H])c(C#N)c([H])c(N2C([H])([H])C([H])([H])N(S(=O)(=O)c3c([H])c([H])c(C(F)(F)F)c([H])c3[H])C([H])([H])C2([H])[H])c1[H]


 27 29  0  0  0  0  0  0  0  0999 V2000
  -12.9287   -8.2133    8.2386 N   0  0  0  0  0  0  0  0  0  0  0  0
  -12.6357   -8.9335    7.0773 C   0  0  0  0  0  0  0  0  0  0  0  0
  -13.7901   -9.2847    6.2016 C   0  0  0  0  0  0  0  0  0  0  0  0
  -14.9806   -8.5186    6.5193 N   0  0  0  0  0  0  0  0  0  0  0  0
  -15.3549   -8.2430    7.8628 C   0  0  0  0  0  0  0  0  0  0  0  0
  -14.1949   -8.2686    8.8342 C   0  0  0  0  0  0  0  0  0  0  0  0
  -15.7922   -8.0781    5.4375 C   0  0  0  0  0  0  0  0  0  0  0  0
  -15.7910   -8.7847    4.2569 C   0  0  0  0  0  0  0  0  0  0  0  0
  -16.5820   -8.2946    3.2036 C   0  0  0  0  0  0  0  0  0  0  0  0
  -17.3293   -7.1594    3.3346 C   0  0  0  0  0  0  0  0  0  0  0  0
  -17.3193   -6.4561    4.5386 C   0  0  0  0  0  0  0  0  0  0  0  0
  -16.5547   -6.9238    5.5654 C   0  0  0  0  0  0  0  0  0  0  0  0
  -18.1136   -5.2436    4.6888 C   0  0  0  0  0  0  0  0  0  0  0  0
  -18.7649   -4.2838    4.7910 N   0  0  0  0  0  0  0  0  0  0  0  0
  -11.7544   -7.2180    8.9176 S   0  0  0  0  0  0  0  0  0  0  0  0
  -12.1031   -5.7549    8.8545 O   0  0  0  0  0  0  0  0  0  0  0  0
  -11.6330   -7.5395   10.4020 O   0  0  0  0  0  0  0  0  0  0  0  0
   -7.7777   -7.9229    6.8694 C   0  0  0  0  0  0  0  0  0  0  0  0
   -8.5225   -9.0022    7.3456 C   0  0  0  0  0  0  0  0  0  0  0  0
   -9.7432   -8.7719    7.9715 C   0  0  0  0  0  0  0  0  0  0  0  0
  -10.2301   -7.5078    8.1310 C   0  0  0  0  0  0  0  0  0  0  0  0
   -9.5024   -6.4438    7.6645 C   0  0  0  0  0  0  0  0  0  0  0  0
   -8.2691   -6.6488    7.0297 C   0  0  0  0  0  0  0  0  0  0  0  0
   -6.0367   -6.9122    5.6974 F   0  0  0  0  0  0  0  0  0  0  0  0
   -6.4565   -8.1302    6.1935 C   0  0  0  0  0  0  0  0  0  0  0  0
   -5.5162   -8.6073    7.0584 F   0  0  0  0  0  0  0  0  0  0  0  0
   -6.6695   -8.9896    5.1224 F   0  0  0  0  0  0  0  0  0  0  0  0
 24 25  1  0  0  0
 25 26  1  0  0  0
 25 27  1  0  0  0
 25 18  1  0  0  0
 18 19  2  0  0  0
 19 20  1  0  0  0
 20 21  2  0  0  0
 21 22  1  0  0  0
 22 23  2  0  0  0
 21 15  1  0  0  0
 15 16  2  0  0  0
 15 17  2  0  0  0
 15  1  1  0  0  0
  1  2  1  0  0  0
  2  3  1  0  0  0
  3  4  1  0  0  0
  4  5  1  0  0  0
  5  6  1  0  0  0
  4  7  1  0  0  0
  7  8  2  0  0  0
  8  9  1  0  0  0
  9 10  2  0  0  0
 10 11  1  0  0  0
 11 12  2  0  0  0
 11 13  1  0  0  0
 13 14  3  0  0  0
 23 18  1  0  0  0
  6  1  1  0  0  0
 12  7  1  0  0  0
M  END
> <minimizedAffinity>
-7.69118

> <CNNscore>
0.4635210633

> <CNNaffinity>
6.7174491882

> <CNN_VS>
3.1136791706

> <CNNaffinity_variance>
0.0347868204

$$$$
[H]c1c([H])c(C#N)c([H])c(N2C([H])([H])C([H])([H])N(S(=O)(=O)c3c([H])c([H])c(C(F)(F)F)c([H])c3[H])C([H])([H])C2([H])[H])c1[H]


 27 29  0  0  0  0  0  0  0  0999 V2000
   -7.3019   -7.5733    7.3486 N   0  0  0  0  0  0  0  0  0  0  0  0
   -7.2369   -6.8445    6.1580 C   0  0  0  0  0  0  0  0  0  0  0  0
   -5.9430   -6.1654    5.8619 C   0  0  0  0  0  0  0  0  0  0  0  0
   -4.8551   -6.6618    6.6836 N   0  0  0  0  0  0  0  0  0  0  0  0
   -5.0352   -6.9563    8.0627 C   0  0  0  0  0  0  0  0  0  0  0  0
   -6.4663   -7.2793    8.4333 C   0  0  0  0  0  0  0  0  0  0  0  0
   -3.5795   -6.8117    6.0726 C   0  0  0  0  0  0  0  0  0  0  0  0
   -2.7977   -7.8979    6.3923 C   0  0  0  0  0  0  0  0  0  0  0  0
   -1.5309   -7.9884    5.7903 C   0  0  0  0  0  0  0  0  0  0  0  0
   -1.0808   -7.0395    4.9178 C   0  0  0  0  0  0  0  0  0  0  0  0
   -1.8868   -5.9456    4.6045 C   0  0  0  0  0  0  0  0  0  0  0  0
   -3.1167   -5.8493    5.1840 C   0  0  0  0  0  0  0  0  0  0  0  0
   -1.4159   -4.9274    3.6743 C   0  0  0  0  0  0  0  0  0  0  0  0
   -1.0641   -4.1111    2.9222 N   0  0  0  0  0  0  0  0  0  0  0  0
   -8.3725   -8.8651    7.4747 S   0  0  0  0  0  0  0  0  0  0  0  0
   -8.5182   -9.6464    6.1962 O   0  0  0  0  0  0  0  0  0  0  0  0
   -7.8293   -9.8585    8.4943 O   0  0  0  0  0  0  0  0  0  0  0  0
  -12.3873   -7.2919    8.8577 C   0  0  0  0  0  0  0  0  0  0  0  0
  -12.3062   -8.5096    8.1817 C   0  0  0  0  0  0  0  0  0  0  0  0
  -11.0664   -8.9822    7.7636 C   0  0  0  0  0  0  0  0  0  0  0  0
   -9.9230   -8.2775    8.0009 C   0  0  0  0  0  0  0  0  0  0  0  0
   -9.9972   -7.0806    8.6650 C   0  0  0  0  0  0  0  0  0  0  0  0
  -11.2344   -6.5821    9.0973 C   0  0  0  0  0  0  0  0  0  0  0  0
  -14.1979   -7.5955   10.2915 F   0  0  0  0  0  0  0  0  0  0  0  0
  -13.7047   -6.7477    9.3201 C   0  0  0  0  0  0  0  0  0  0  0  0
  -13.5776   -5.4951    9.8443 F   0  0  0  0  0  0  0  0  0  0  0  0
  -14.5695   -6.7771    8.2328 F   0  0  0  0  0  0  0  0  0  0  0  0
 24 25  1  0  0  0
 25 26  1  0  0  0
 25 27  1  0  0  0
 25 18  1  0  0  0
 18 19  2  0  0  0
 19 20  1  0  0  0
 20 21  2  0  0  0
 21 22  1  0  0  0
 22 23  2  0  0  0
 21 15  1  0  0  0
 15 16  2  0  0  0
 15 17  2  0  0  0
 15  1  1  0  0  0
  1  2  1  0  0  0
  2  3  1  0  0  0
  3  4  1  0  0  0
  4  5  1  0  0  0
  5  6  1  0  0  0
  4  7  1  0  0  0
  7  8  2  0  0  0
  8  9  1  0  0  0
  9 10  2  0  0  0
 10 11  1  0  0  0
 11 12  2  0  0  0
 11 13  1  0  0  0
 13 14  3  0  0  0
 23 18  1  0  0  0
  6  1  1  0  0  0
 12  7  1  0  0  0
M  END
> <minimizedAffinity>
-7.53570

> <CNNscore>
0.4423564970

> <CNNaffinity>
5.7385292053

> <CNN_VS>
2.5384757519

> <CNNaffinity_variance>
0.1644408405

$$$$
[H]c1c([H])c(C#N)c([H])c(N2C([H])([H])C([H])([H])N(S(=O)(=O)c3c([H])c([H])c(C(F)(F)F)c([H])c3[H])C([H])([H])C2([H])[H])c1[H]


 27 29  0  0  0  0  0  0  0  0999 V2000
  -13.5588   -8.8683    7.7735 N   0  0  0  0  0  0  0  0  0  0  0  0
  -13.1884   -8.9962    6.4320 C   0  0  0  0  0  0  0  0  0  0  0  0
  -14.2528   -8.7427    5.4194 C   0  0  0  0  0  0  0  0  0  0  0  0
  -15.4041   -8.0629    5.9830 N   0  0  0  0  0  0  0  0  0  0  0  0
  -15.9148   -8.3982    7.2667 C   0  0  0  0  0  0  0  0  0  0  0  0
  -14.8884   -9.0266    8.1839 C   0  0  0  0  0  0  0  0  0  0  0  0
  -16.0375   -7.0661    5.1904 C   0  0  0  0  0  0  0  0  0  0  0  0
  -17.2403   -7.3451    4.5833 C   0  0  0  0  0  0  0  0  0  0  0  0
  -17.8138   -6.3426    3.7824 C   0  0  0  0  0  0  0  0  0  0  0  0
  -17.2092   -5.1312    3.6052 C   0  0  0  0  0  0  0  0  0  0  0  0
  -15.9906   -4.8652    4.2287 C   0  0  0  0  0  0  0  0  0  0  0  0
  -15.4268   -5.8318    5.0069 C   0  0  0  0  0  0  0  0  0  0  0  0
  -15.3371   -3.5755    4.0463 C   0  0  0  0  0  0  0  0  0  0  0  0
  -14.7937   -2.5573    3.8920 N   0  0  0  0  0  0  0  0  0  0  0  0
  -12.3962   -8.4692    8.9222 S   0  0  0  0  0  0  0  0  0  0  0  0
  -12.6660   -7.1600    9.6145 O   0  0  0  0  0  0  0  0  0  0  0  0
  -12.4121   -9.5193   10.0261 O   0  0  0  0  0  0  0  0  0  0  0  0
   -8.3117   -8.3427    6.9708 C   0  0  0  0  0  0  0  0  0  0  0  0
   -8.9847   -9.5566    7.1113 C   0  0  0  0  0  0  0  0  0  0  0  0
  -10.2395   -9.5814    7.7113 C   0  0  0  0  0  0  0  0  0  0  0  0
  -10.8290   -8.4392    8.1677 C   0  0  0  0  0  0  0  0  0  0  0  0
  -10.1721   -7.2437    8.0318 C   0  0  0  0  0  0  0  0  0  0  0  0
   -8.9066   -7.1914    7.4304 C   0  0  0  0  0  0  0  0  0  0  0  0
   -6.7206   -6.9645    5.9735 F   0  0  0  0  0  0  0  0  0  0  0  0
   -6.9570   -8.2759    6.3339 C   0  0  0  0  0  0  0  0  0  0  0  0
   -5.9766   -8.6871    7.1881 F   0  0  0  0  0  0  0  0  0  0  0  0
   -7.0043   -9.0462    5.1783 F   0  0  0  0  0  0  0  0  0  0  0  0
 24 25  1  0  0  0
 25 26  1  0  0  0
 25 27  1  0  0  0
 25 18  1  0  0  0
 18 19  2  0  0  0
 19 20  1  0  0  0
 20 21  2  0  0  0
 21 22  1  0  0  0
 22 23  2  0  0  0
 21 15  1  0  0  0
 15 16  2  0  0  0
 15 17  2  0  0  0
 15  1  1  0  0  0
  1  2  1  0  0  0
  2  3  1  0  0  0
  3  4  1  0  0  0
  4  5  1  0  0  0
  5  6  1  0  0  0
  4  7  1  0  0  0
  7  8  2  0  0  0
  8  9  1  0  0  0
  9 10  2  0  0  0
 10 11  1  0  0  0
 11 12  2  0  0  0
 11 13  1  0  0  0
 13 14  3  0  0  0
 23 18  1  0  0  0
  6  1  1  0  0  0
 12  7  1  0  0  0
M  END
> <minimizedAffinity>
-7.55701

> <CNNscore>
0.4408217072

> <CNNaffinity>
6.8291335106

> <CNN_VS>
3.0104303360

> <CNNaffinity_variance>
0.0942436233

$$$$
[H]c1c([H])c(C#N)c([H])c(N2C([H])([H])C([H])([H])N(S(=O)(=O)c3c([H])c([H])c(C(F)(F)F)c([H])c3[H])C([H])([H])C2([H])[H])c1[H]


 27 29  0  0  0  0  0  0  0  0999 V2000
  -12.4865   -9.3515    7.2518 N   0  0  0  0  0  0  0  0  0  0  0  0
  -13.1293   -9.6953    8.4441 C   0  0  0  0  0  0  0  0  0  0  0  0
  -12.7357   -8.9265    9.6594 C   0  0  0  0  0  0  0  0  0  0  0  0
  -12.0079   -7.7135    9.3369 N   0  0  0  0  0  0  0  0  0  0  0  0
  -11.0281   -7.6819    8.3073 C   0  0  0  0  0  0  0  0  0  0  0  0
  -11.2237   -8.7460    7.2494 C   0  0  0  0  0  0  0  0  0  0  0  0
  -12.2785   -6.5532   10.1137 C   0  0  0  0  0  0  0  0  0  0  0  0
  -13.1156   -5.5823    9.6139 C   0  0  0  0  0  0  0  0  0  0  0  0
  -13.3285   -4.4375   10.4009 C   0  0  0  0  0  0  0  0  0  0  0  0
  -12.7320   -4.2824   11.6193 C   0  0  0  0  0  0  0  0  0  0  0  0
  -11.8871   -5.2768   12.1108 C   0  0  0  0  0  0  0  0  0  0  0  0
  -11.6745   -6.3904   11.3542 C   0  0  0  0  0  0  0  0  0  0  0  0
  -11.2459   -5.1212   13.4102 C   0  0  0  0  0  0  0  0  0  0  0  0
  -10.7238   -5.0209   14.4461 N   0  0  0  0  0  0  0  0  0  0  0  0
  -13.2593   -9.6245    5.7825 S   0  0  0  0  0  0  0  0  0  0  0  0
  -12.3122   -9.9756    4.6663 O   0  0  0  0  0  0  0  0  0  0  0  0
  -14.1787  -10.8312    5.9252 O   0  0  0  0  0  0  0  0  0  0  0  0
  -15.6788   -5.9496    4.7115 C   0  0  0  0  0  0  0  0  0  0  0  0
  -15.7366   -7.0868    3.9055 C   0  0  0  0  0  0  0  0  0  0  0  0
  -14.9895   -8.2096    4.2467 C   0  0  0  0  0  0  0  0  0  0  0  0
  -14.1976   -8.2228    5.3571 C   0  0  0  0  0  0  0  0  0  0  0  0
  -14.1375   -7.1080    6.1526 C   0  0  0  0  0  0  0  0  0  0  0  0
  -14.8809   -5.9635    5.8312 C   0  0  0  0  0  0  0  0  0  0  0  0
  -17.4070   -4.5320    5.3669 F   0  0  0  0  0  0  0  0  0  0  0  0
  -16.4655   -4.7195    4.3749 C   0  0  0  0  0  0  0  0  0  0  0  0
  -15.6689   -3.6149    4.3018 F   0  0  0  0  0  0  0  0  0  0  0  0
  -17.1309   -4.9675    3.1805 F   0  0  0  0  0  0  0  0  0  0  0  0
 24 25  1  0  0  0
 25 26  1  0  0  0
 25 27  1  0  0  0
 25 18  1  0  0  0
 18 19  2  0  0  0
 19 20  1  0  0  0
 20 21  2  0  0  0
 21 22  1  0  0  0
 22 23  2  0  0  0
 21 15  1  0  0  0
 15 16  2  0  0  0
 15 17  2  0  0  0
 15  1  1  0  0  0
  1  2  1  0  0  0
  2  3  1  0  0  0
  3  4  1  0  0  0
  4  5  1  0  0  0
  5  6  1  0  0  0
  4  7  1  0  0  0
  7  8  2  0  0  0
  8  9  1  0  0  0
  9 10  2  0  0  0
 10 11  1  0  0  0
 11 12  2  0  0  0
 11 13  1  0  0  0
 13 14  3  0  0  0
 23 18  1  0  0  0
  6  1  1  0  0  0
 12  7  1  0  0  0
M  END
> <minimizedAffinity>
-1.15248

> <CNNscore>
0.4216381311

> <CNNaffinity>
6.3819260597

> <CNN_VS>
2.6908633709

> <CNNaffinity_variance>
0.2978652120

$$$$
[H]c1c([H])c(C#N)c([H])c(N2C([H])([H])C([H])([H])N(S(=O)(=O)c3c([H])c([H])c(C(F)(F)F)c([H])c3[H])C([H])([H])C2([H])[H])c1[H]


 27 29  0  0  0  0  0  0  0  0999 V2000
  -11.8339   -7.2874    8.8189 N   0  0  0  0  0  0  0  0  0  0  0  0
  -11.7582   -8.1110    7.6923 C   0  0  0  0  0  0  0  0  0  0  0  0
  -13.0503   -8.4682    7.0398 C   0  0  0  0  0  0  0  0  0  0  0  0
  -14.1437   -7.6177    7.4714 N   0  0  0  0  0  0  0  0  0  0  0  0
  -14.2882   -7.2181    8.8281 C   0  0  0  0  0  0  0  0  0  0  0  0
  -12.9905   -7.2288    9.6063 C   0  0  0  0  0  0  0  0  0  0  0  0
  -15.0987   -7.2210    6.4950 C   0  0  0  0  0  0  0  0  0  0  0  0
  -14.9080   -6.0516    5.7954 C   0  0  0  0  0  0  0  0  0  0  0  0
  -15.8935   -5.6815    4.8642 C   0  0  0  0  0  0  0  0  0  0  0  0
  -17.0046   -6.4462    4.6521 C   0  0  0  0  0  0  0  0  0  0  0  0
  -17.1814   -7.6288    5.3694 C   0  0  0  0  0  0  0  0  0  0  0  0
  -16.2310   -7.9954    6.2749 C   0  0  0  0  0  0  0  0  0  0  0  0
  -18.3636   -8.4523    5.1503 C   0  0  0  0  0  0  0  0  0  0  0  0
  -19.2929   -9.1313    4.9740 N   0  0  0  0  0  0  0  0  0  0  0  0
  -10.5278   -6.3054    9.2195 S   0  0  0  0  0  0  0  0  0  0  0  0
  -10.7793   -4.8436    8.9626 O   0  0  0  0  0  0  0  0  0  0  0  0
  -10.2708   -6.4128   10.7175 O   0  0  0  0  0  0  0  0  0  0  0  0
   -6.8695   -7.6495    6.9138 C   0  0  0  0  0  0  0  0  0  0  0  0
   -7.1907   -8.2497    8.1316 C   0  0  0  0  0  0  0  0  0  0  0  0
   -8.3181   -7.8284    8.8290 C   0  0  0  0  0  0  0  0  0  0  0  0
   -9.1201   -6.8364    8.3462 C   0  0  0  0  0  0  0  0  0  0  0  0
   -8.8091   -6.2437    7.1499 C   0  0  0  0  0  0  0  0  0  0  0  0
   -7.6785   -6.6500    6.4270 C   0  0  0  0  0  0  0  0  0  0  0  0
   -5.1329   -6.9519    5.5268 F   0  0  0  0  0  0  0  0  0  0  0  0
   -5.6611   -8.0729    6.1353 C   0  0  0  0  0  0  0  0  0  0  0  0
   -4.7125   -8.6321    6.9398 F   0  0  0  0  0  0  0  0  0  0  0  0
   -6.0920   -8.9471    5.1447 F   0  0  0  0  0  0  0  0  0  0  0  0
 24 25  1  0  0  0
 25 26  1  0  0  0
 25 27  1  0  0  0
 25 18  1  0  0  0
 18 19  2  0  0  0
 19 20  1  0  0  0
 20 21  2  0  0  0
 21 22  1  0  0  0
 22 23  2  0  0  0
 21 15  1  0  0  0
 15 16  2  0  0  0
 15 17  2  0  0  0
 15  1  1  0  0  0
  1  2  1  0  0  0
  2  3  1  0  0  0
  3  4  1  0  0  0
  4  5  1  0  0  0
  5  6  1  0  0  0
  4  7  1  0  0  0
  7  8  2  0  0  0
  8  9  1  0  0  0
  9 10  2  0  0  0
 10 11  1  0  0  0
 11 12  2  0  0  0
 11 13  1  0  0  0
 13 14  3  0  0  0
 23 18  1  0  0  0
  6  1  1  0  0  0
 12  7  1  0  0  0
M  END
> <minimizedAffinity>
-6.44841

> <CNNscore>
0.4151004255

> <CNNaffinity>
6.5337080956

> <CNN_VS>
2.7121450901

> <CNNaffinity_variance>
0.0704961494

$$$$
[H]c1c([H])c(C#N)c([H])c(N2C([H])([H])C([H])([H])N(S(=O)(=O)c3c([H])c([H])c(C(F)(F)F)c([H])c3[H])C([H])([H])C2([H])[H])c1[H]


 27 29  0  0  0  0  0  0  0  0999 V2000
  -13.6221   -8.7583    7.8549 N   0  0  0  0  0  0  0  0  0  0  0  0
  -13.2472   -8.9216    6.5186 C   0  0  0  0  0  0  0  0  0  0  0  0
  -14.2057   -8.4224    5.4915 C   0  0  0  0  0  0  0  0  0  0  0  0
  -15.2067   -7.5341    6.0521 N   0  0  0  0  0  0  0  0  0  0  0  0
  -15.8133   -7.7927    7.3116 C   0  0  0  0  0  0  0  0  0  0  0  0
  -14.9671   -8.6478    8.2295 C   0  0  0  0  0  0  0  0  0  0  0  0
  -15.5957   -6.4046    5.2803 C   0  0  0  0  0  0  0  0  0  0  0  0
  -14.6302   -5.6121    4.7033 C   0  0  0  0  0  0  0  0  0  0  0  0
  -15.0587   -4.4875    3.9773 C   0  0  0  0  0  0  0  0  0  0  0  0
  -16.3825   -4.1816    3.8420 C   0  0  0  0  0  0  0  0  0  0  0  0
  -17.3477   -4.9963    4.4328 C   0  0  0  0  0  0  0  0  0  0  0  0
  -16.9413   -6.0889    5.1391 C   0  0  0  0  0  0  0  0  0  0  0  0
  -18.7632   -4.6789    4.2941 C   0  0  0  0  0  0  0  0  0  0  0  0
  -19.8933   -4.4124    4.2060 N   0  0  0  0  0  0  0  0  0  0  0  0
  -12.4361   -8.6440    9.0427 S   0  0  0  0  0  0  0  0  0  0  0  0
  -12.6589   -7.5044   10.0008 O   0  0  0  0  0  0  0  0  0  0  0  0
  -12.4726   -9.9035    9.8994 O   0  0  0  0  0  0  0  0  0  0  0  0
   -8.3727   -8.2166    7.0902 C   0  0  0  0  0  0  0  0  0  0  0  0
   -9.0153   -9.4547    7.1086 C   0  0  0  0  0  0  0  0  0  0  0  0
  -10.2640   -9.5720    7.7103 C   0  0  0  0  0  0  0  0  0  0  0  0
  -10.8766   -8.4979    8.2859 C   0  0  0  0  0  0  0  0  0  0  0  0
  -10.2496   -7.2789    8.2702 C   0  0  0  0  0  0  0  0  0  0  0  0
   -8.9909   -7.1338    7.6698 C   0  0  0  0  0  0  0  0  0  0  0  0
   -6.9221   -8.9709    5.4311 F   0  0  0  0  0  0  0  0  0  0  0  0
   -7.0255   -8.0512    6.4554 C   0  0  0  0  0  0  0  0  0  0  0  0
   -6.8573   -6.7970    5.9470 F   0  0  0  0  0  0  0  0  0  0  0  0
   -6.0730   -8.3598    7.4190 F   0  0  0  0  0  0  0  0  0  0  0  0
 24 25  1  0  0  0
 25 26  1  0  0  0
 25 27  1  0  0  0
 25 18  1  0  0  0
 18 19  2  0  0  0
 19 20  1  0  0  0
 20 21  2  0  0  0
 21 22  1  0  0  0
 22 23  2  0  0  0
 21 15  1  0  0  0
 15 16  2  0  0  0
 15 17  2  0  0  0
 15  1  1  0  0  0
  1  2  1  0  0  0
  2  3  1  0  0  0
  3  4  1  0  0  0
  4  5  1  0  0  0
  5  6  1  0  0  0
  4  7  1  0  0  0
  7  8  2  0  0  0
  8  9  1  0  0  0
  9 10  2  0  0  0
 10 11  1  0  0  0
 11 12  2  0  0  0
 11 13  1  0  0  0
 13 14  3  0  0  0
 23 18  1  0  0  0
  6  1  1  0  0  0
 12  7  1  0  0  0
M  END
> <minimizedAffinity>
-7.87717

> <CNNscore>
0.4004687071

> <CNNaffinity>
6.7680878639

> <CNN_VS>
2.7104074955

> <CNNaffinity_variance>
0.0621184111

$$$$
[H]c1c([H])c(C#N)c([H])c(N2C([H])([H])C([H])([H])N(S(=O)(=O)c3c([H])c([H])c(C(F)(F)F)c([H])c3[H])C([H])([H])C2([H])[H])c1[H]


 27 29  0  0  0  0  0  0  0  0999 V2000
   -7.3420   -7.7698    7.3349 N   0  0  0  0  0  0  0  0  0  0  0  0
   -7.1826   -7.1001    6.1187 C   0  0  0  0  0  0  0  0  0  0  0  0
   -5.8381   -6.5135    5.8519 C   0  0  0  0  0  0  0  0  0  0  0  0
   -4.8181   -7.0368    6.7412 N   0  0  0  0  0  0  0  0  0  0  0  0
   -5.0734   -7.2580    8.1222 C   0  0  0  0  0  0  0  0  0  0  0  0
   -6.5359   -7.4780    8.4422 C   0  0  0  0  0  0  0  0  0  0  0  0
   -3.5298   -7.2900    6.1942 C   0  0  0  0  0  0  0  0  0  0  0  0
   -2.7307   -6.2332    5.8231 C   0  0  0  0  0  0  0  0  0  0  0  0
   -1.4794   -6.5302    5.2563 C   0  0  0  0  0  0  0  0  0  0  0  0
   -1.0602   -7.8170    5.0752 C   0  0  0  0  0  0  0  0  0  0  0  0
   -1.8826   -8.8760    5.4579 C   0  0  0  0  0  0  0  0  0  0  0  0
   -3.0981   -8.5973    6.0080 C   0  0  0  0  0  0  0  0  0  0  0  0
   -1.4444  -10.2530    5.2692 C   0  0  0  0  0  0  0  0  0  0  0  0
   -1.1128  -11.3563    5.1004 N   0  0  0  0  0  0  0  0  0  0  0  0
   -8.4946   -8.9882    7.4677 S   0  0  0  0  0  0  0  0  0  0  0  0
   -8.7166   -9.7422    6.1838 O   0  0  0  0  0  0  0  0  0  0  0  0
   -8.0004  -10.0284    8.4654 O   0  0  0  0  0  0  0  0  0  0  0  0
  -12.4157   -7.2512    8.9218 C   0  0  0  0  0  0  0  0  0  0  0  0
  -11.2225   -6.5579    9.1268 C   0  0  0  0  0  0  0  0  0  0  0  0
  -10.0250   -7.1020    8.6738 C   0  0  0  0  0  0  0  0  0  0  0  0
   -9.9918   -8.3044    8.0308 C   0  0  0  0  0  0  0  0  0  0  0  0
  -11.1615   -8.9895    7.8265 C   0  0  0  0  0  0  0  0  0  0  0  0
  -12.3819   -8.4629    8.2729 C   0  0  0  0  0  0  0  0  0  0  0  0
  -14.5549   -6.5674    8.3037 F   0  0  0  0  0  0  0  0  0  0  0  0
  -13.7248   -6.6999    9.3987 C   0  0  0  0  0  0  0  0  0  0  0  0
  -14.3174   -7.5232   10.3103 F   0  0  0  0  0  0  0  0  0  0  0  0
  -13.4773   -5.4343    9.9165 F   0  0  0  0  0  0  0  0  0  0  0  0
 24 25  1  0  0  0
 25 26  1  0  0  0
 25 27  1  0  0  0
 25 18  1  0  0  0
 18 19  2  0  0  0
 19 20  1  0  0  0
 20 21  2  0  0  0
 21 22  1  0  0  0
 22 23  2  0  0  0
 21 15  1  0  0  0
 15 16  2  0  0  0
 15 17  2  0  0  0
 15  1  1  0  0  0
  1  2  1  0  0  0
  2  3  1  0  0  0
  3  4  1  0  0  0
  4  5  1  0  0  0
  5  6  1  0  0  0
  4  7  1  0  0  0
  7  8  2  0  0  0
  8  9  1  0  0  0
  9 10  2  0  0  0
 10 11  1  0  0  0
 11 12  2  0  0  0
 11 13  1  0  0  0
 13 14  3  0  0  0
 23 18  1  0  0  0
  6  1  1  0  0  0
 12  7  1  0  0  0
M  END
> <minimizedAffinity>
-7.60307

> <CNNscore>
0.3849969804

> <CNNaffinity>
5.7205176353

> <CNN_VS>
2.2023820877

> <CNNaffinity_variance>
0.1317148060

$$$$
[H]c1c([H])c(C#N)c([H])c(N2C([H])([H])C([H])([H])N(S(=O)(=O)c3c([H])c([H])c(C(F)(F)F)c([H])c3[H])C([H])([H])C2([H])[H])c1[H]


 27 29  0  0  0  0  0  0  0  0999 V2000
   -7.5506   -8.2284    6.7949 N   0  0  0  0  0  0  0  0  0  0  0  0
   -6.5897   -8.6355    5.8653 C   0  0  0  0  0  0  0  0  0  0  0  0
   -5.2881   -7.9090    5.8904 C   0  0  0  0  0  0  0  0  0  0  0  0
   -5.1066   -7.1375    7.1057 N   0  0  0  0  0  0  0  0  0  0  0  0
   -6.1742   -6.4030    7.6904 C   0  0  0  0  0  0  0  0  0  0  0  0
   -7.5450   -6.9364    7.3352 C   0  0  0  0  0  0  0  0  0  0  0  0
   -3.8065   -7.1062    7.6817 C   0  0  0  0  0  0  0  0  0  0  0  0
   -2.9161   -8.1172    7.4021 C   0  0  0  0  0  0  0  0  0  0  0  0
   -1.6545   -8.0634    8.0192 C   0  0  0  0  0  0  0  0  0  0  0  0
   -1.3125   -7.0496    8.8674 C   0  0  0  0  0  0  0  0  0  0  0  0
   -2.2271   -6.0326    9.1389 C   0  0  0  0  0  0  0  0  0  0  0  0
   -3.4532   -6.0768    8.5453 C   0  0  0  0  0  0  0  0  0  0  0  0
   -1.8718   -4.9458   10.0426 C   0  0  0  0  0  0  0  0  0  0  0  0
   -1.5744   -4.0945   10.7791 N   0  0  0  0  0  0  0  0  0  0  0  0
   -8.7167   -9.3226    7.3180 S   0  0  0  0  0  0  0  0  0  0  0  0
   -9.1625  -10.2786    6.2441 O   0  0  0  0  0  0  0  0  0  0  0  0
   -8.1172  -10.1971    8.4123 O   0  0  0  0  0  0  0  0  0  0  0  0
  -12.2993   -7.0892    8.9561 C   0  0  0  0  0  0  0  0  0  0  0  0
  -11.0192   -6.5482    9.0792 C   0  0  0  0  0  0  0  0  0  0  0  0
   -9.9274   -7.2439    8.5703 C   0  0  0  0  0  0  0  0  0  0  0  0
  -10.0816   -8.4493    7.9510 C   0  0  0  0  0  0  0  0  0  0  0  0
  -11.3373   -8.9851    7.8271 C   0  0  0  0  0  0  0  0  0  0  0  0
  -12.4545   -8.3040    8.3311 C   0  0  0  0  0  0  0  0  0  0  0  0
  -14.1871   -7.2476   10.3114 F   0  0  0  0  0  0  0  0  0  0  0  0
  -13.4995   -6.3720    9.4951 C   0  0  0  0  0  0  0  0  0  0  0  0
  -13.1472   -5.2711   10.2188 F   0  0  0  0  0  0  0  0  0  0  0  0
  -14.3112   -6.0522    8.4135 F   0  0  0  0  0  0  0  0  0  0  0  0
 24 25  1  0  0  0
 25 26  1  0  0  0
 25 27  1  0  0  0
 25 18  1  0  0  0
 18 19  2  0  0  0
 19 20  1  0  0  0
 20 21  2  0  0  0
 21 22  1  0  0  0
 22 23  2  0  0  0
 21 15  1  0  0  0
 15 16  2  0  0  0
 15 17  2  0  0  0
 15  1  1  0  0  0
  1  2  1  0  0  0
  2  3  1  0  0  0
  3  4  1  0  0  0
  4  5  1  0  0  0
  5  6  1  0  0  0
  4  7  1  0  0  0
  7  8  2  0  0  0
  8  9  1  0  0  0
  9 10  2  0  0  0
 10 11  1  0  0  0
 11 12  2  0  0  0
 11 13  1  0  0  0
 13 14  3  0  0  0
 23 18  1  0  0  0
  6  1  1  0  0  0
 12  7  1  0  0  0
M  END
> <minimizedAffinity>
-7.63458

> <CNNscore>
0.3274676502

> <CNNaffinity>
5.7262887955

> <CNN_VS>
1.8751742840

> <CNNaffinity_variance>
0.0461489931

$$$$
[H]c1c([H])c(C#N)c([H])c(N2C([H])([H])C([H])([H])N(S(=O)(=O)c3c([H])c([H])c(C(F)(F)F)c([H])c3[H])C([H])([H])C2([H])[H])c1[H]


 27 29  0  0  0  0  0  0  0  0999 V2000
  -13.7444   -9.2442    7.4419 N   0  0  0  0  0  0  0  0  0  0  0  0
  -13.3691   -9.3256    6.0982 C   0  0  0  0  0  0  0  0  0  0  0  0
  -14.3249   -8.7597    5.1037 C   0  0  0  0  0  0  0  0  0  0  0  0
  -15.3227   -7.9039    5.7179 N   0  0  0  0  0  0  0  0  0  0  0  0
  -15.9312   -8.2378    6.9586 C   0  0  0  0  0  0  0  0  0  0  0  0
  -15.0891   -9.1517    7.8220 C   0  0  0  0  0  0  0  0  0  0  0  0
  -15.7066   -6.7270    5.0175 C   0  0  0  0  0  0  0  0  0  0  0  0
  -14.7417   -5.9437    4.4272 C   0  0  0  0  0  0  0  0  0  0  0  0
  -15.1629   -4.7725    3.7744 C   0  0  0  0  0  0  0  0  0  0  0  0
  -16.4793   -4.4139    3.7208 C   0  0  0  0  0  0  0  0  0  0  0  0
  -17.4441   -5.2201    4.3239 C   0  0  0  0  0  0  0  0  0  0  0  0
  -17.0447   -6.3576    4.9596 C   0  0  0  0  0  0  0  0  0  0  0  0
  -18.8517   -4.8465    4.2721 C   0  0  0  0  0  0  0  0  0  0  0  0
  -19.9696   -4.5250    4.2204 N   0  0  0  0  0  0  0  0  0  0  0  0
  -12.5588   -9.2087    8.6351 S   0  0  0  0  0  0  0  0  0  0  0  0
  -12.8284  -10.1570    9.7727 O   0  0  0  0  0  0  0  0  0  0  0  0
  -11.2374   -9.6687    8.0318 O   0  0  0  0  0  0  0  0  0  0  0  0
  -12.0824   -4.9747   10.1690 C   0  0  0  0  0  0  0  0  0  0  0  0
  -13.2969   -5.6438   10.3225 C   0  0  0  0  0  0  0  0  0  0  0  0
  -13.4295   -6.9448    9.8481 C   0  0  0  0  0  0  0  0  0  0  0  0
  -12.3931   -7.5834    9.2329 C   0  0  0  0  0  0  0  0  0  0  0  0
  -11.1975   -6.9305    9.0799 C   0  0  0  0  0  0  0  0  0  0  0  0
  -11.0377   -5.6191    9.5495 C   0  0  0  0  0  0  0  0  0  0  0  0
  -11.6022   -3.6297   12.0092 F   0  0  0  0  0  0  0  0  0  0  0  0
  -11.9021   -3.5715   10.6629 C   0  0  0  0  0  0  0  0  0  0  0  0
  -10.8912   -2.9318   10.0082 F   0  0  0  0  0  0  0  0  0  0  0  0
  -13.1204   -2.9200   10.5132 F   0  0  0  0  0  0  0  0  0  0  0  0
 24 25  1  0  0  0
 25 26  1  0  0  0
 25 27  1  0  0  0
 25 18  1  0  0  0
 18 19  2  0  0  0
 19 20  1  0  0  0
 20 21  2  0  0  0
 21 22  1  0  0  0
 22 23  2  0  0  0
 21 15  1  0  0  0
 15 16  2  0  0  0
 15 17  2  0  0  0
 15  1  1  0  0  0
  1  2  1  0  0  0
  2  3  1  0  0  0
  3  4  1  0  0  0
  4  5  1  0  0  0
  5  6  1  0  0  0
  4  7  1  0  0  0
  7  8  2  0  0  0
  8  9  1  0  0  0
  9 10  2  0  0  0
 10 11  1  0  0  0
 11 12  2  0  0  0
 11 13  1  0  0  0
 13 14  3  0  0  0
 23 18  1  0  0  0
  6  1  1  0  0  0
 12  7  1  0  0  0
M  END
> <minimizedAffinity>
-2.42849

> <CNNscore>
0.3036956489

> <CNNaffinity>
6.4187879562

> <CNN_VS>
1.9493579865

> <CNNaffinity_variance>
0.2202714980

$$$$
[H]c1c([H])c(S(=O)(=O)N2C([H])([H])C([H])([H])C([H])(N([H])C(=O)c3c([H])n([H])c4c([H])c([H])c([H])c([H])c34)C([H])([H])C2([H])[H])c([H])c([H])c1OC([H])([H])[H]


 31 34  0  0  0  0  0  0  0  0999 V2000
  -16.6517   -8.6680    5.0558 N   0  0  0  0  0  0  0  0  0  0  0  0
  -15.2560   -8.8451    4.8297 C   0  0  0  0  0  0  0  0  0  0  0  0
  -14.5471   -9.5780    5.9475 C   0  0  0  0  0  0  0  0  0  0  0  0
  -14.7984   -8.9350    7.2874 C   0  0  0  0  0  0  0  0  0  0  0  0
  -15.8968   -7.8937    7.2003 C   0  0  0  0  0  0  0  0  0  0  0  0
  -17.0350   -8.5390    6.4446 C   0  0  0  0  0  0  0  0  0  0  0  0
  -13.6077   -8.2244    7.7884 N   0  0  0  0  0  0  0  0  0  0  0  0
  -12.3587   -8.6761    7.3477 C   0  0  0  0  0  0  0  0  0  0  0  0
  -12.2638   -9.6471    6.5387 O   0  0  0  0  0  0  0  0  0  0  0  0
  -13.7675   -7.4020    8.4248 H   0  0  0  0  0  0  0  0  0  0  0  0
  -11.1152   -8.0706    7.7746 C   0  0  0  0  0  0  0  0  0  0  0  0
  -10.9745   -6.7898    8.3132 C   0  0  0  0  0  0  0  0  0  0  0  0
   -9.6996   -6.6126    8.6410 N   0  0  0  0  0  0  0  0  0  0  0  0
   -8.9622   -7.7098    8.3518 C   0  0  0  0  0  0  0  0  0  0  0  0
   -7.6181   -8.0007    8.4924 C   0  0  0  0  0  0  0  0  0  0  0  0
   -7.1050   -9.2100    8.0956 C   0  0  0  0  0  0  0  0  0  0  0  0
   -7.9660  -10.1238    7.5531 C   0  0  0  0  0  0  0  0  0  0  0  0
   -9.3062   -9.8319    7.4140 C   0  0  0  0  0  0  0  0  0  0  0  0
   -9.8591   -8.6211    7.8064 C   0  0  0  0  0  0  0  0  0  0  0  0
   -9.2755   -5.7415    9.0745 H   0  0  0  0  0  0  0  0  0  0  0  0
  -17.3573   -7.4568    4.0690 S   0  0  0  0  0  0  0  0  0  0  0  0
  -17.1522   -7.8240    2.6281 O   0  0  0  0  0  0  0  0  0  0  0  0
  -18.8532   -7.4290    4.2966 O   0  0  0  0  0  0  0  0  0  0  0  0
  -15.4779   -3.3857    4.9842 C   0  0  0  0  0  0  0  0  0  0  0  0
  -16.3161   -3.5601    3.8959 C   0  0  0  0  0  0  0  0  0  0  0  0
  -16.8808   -4.7892    3.6236 C   0  0  0  0  0  0  0  0  0  0  0  0
  -16.6417   -5.9049    4.4168 C   0  0  0  0  0  0  0  0  0  0  0  0
  -15.8060   -5.7103    5.4937 C   0  0  0  0  0  0  0  0  0  0  0  0
  -15.2363   -4.4876    5.7755 C   0  0  0  0  0  0  0  0  0  0  0  0
  -13.5716   -1.8834    4.8503 C   0  0  0  0  0  0  0  0  0  0  0  0
  -14.9030   -2.1404    5.2638 O   0  0  0  0  0  0  0  0  0  0  0  0
 30 31  1  0  0  0
 31 24  1  0  0  0
 24 25  2  0  0  0
 25 26  1  0  0  0
 26 27  2  0  0  0
 27 28  1  0  0  0
 28 29  2  0  0  0
 27 21  1  0  0  0
 21 22  2  0  0  0
 21 23  2  0  0  0
 21  1  1  0  0  0
  1  2  1  0  0  0
  2  3  1  0  0  0
  3  4  1  0  0  0
  4  5  1  0  0  0
  5  6  1  0  0  0
  4  7  1  0  0  0
  7  8  1  0  0  0
  8  9  2  0  0  0
  8 11  1  0  0  0
 11 12  2  0  0  0
 12 13  1  0  0  0
 13 14  1  0  0  0
 14 15  2  0  0  0
 15 16  1  0  0  0
 16 17  2  0  0  0
 17 18  1  0  0  0
 18 19  2  0  0  0
 29 24  1  0  0  0
  6  1  1  0  0  0
 19 11  1  0  0  0
 19 14  1  0  0  0
  7 10  1  0  0  0
 13 20  1  0  0  0
M  END
> <minimizedAffinity>
-0.00260

> <CNNscore>
0.5709539056

> <CNNaffinity>
7.0429840088

> <CNN_VS>
4.0212192535

> <CNNaffinity_variance>
0.6291003227

$$$$
[H]c1c([H])c(S(=O)(=O)N2C([H])([H])C([H])([H])C([H])(N([H])C(=O)c3c([H])n([H])c4c([H])c([H])c([H])c([H])c34)C([H])([H])C2([H])[H])c([H])c([H])c1OC([H])([H])[H]


 31 34  0  0  0  0  0  0  0  0999 V2000
  -11.3513   -9.6266    7.2155 N   0  0  0  0  0  0  0  0  0  0  0  0
  -12.6405  -10.1593    7.5071 C   0  0  0  0  0  0  0  0  0  0  0  0
  -13.5050  -10.3639    6.2825 C   0  0  0  0  0  0  0  0  0  0  0  0
  -13.6154   -9.1071    5.4576 C   0  0  0  0  0  0  0  0  0  0  0  0
  -12.6277   -8.0553    5.9231 C   0  0  0  0  0  0  0  0  0  0  0  0
  -11.2959   -8.7552    6.0623 C   0  0  0  0  0  0  0  0  0  0  0  0
  -14.9485   -8.4883    5.5740 N   0  0  0  0  0  0  0  0  0  0  0  0
  -15.8448   -8.6931    4.5191 C   0  0  0  0  0  0  0  0  0  0  0  0
  -15.5221   -9.3960    3.5152 O   0  0  0  0  0  0  0  0  0  0  0  0
  -15.1579   -7.9532    6.4553 H   0  0  0  0  0  0  0  0  0  0  0  0
  -17.1785   -8.1305    4.5084 C   0  0  0  0  0  0  0  0  0  0  0  0
  -18.3626   -8.8349    4.7369 C   0  0  0  0  0  0  0  0  0  0  0  0
  -19.3730   -7.9733    4.7080 N   0  0  0  0  0  0  0  0  0  0  0  0
  -18.9370   -6.7145    4.4700 C   0  0  0  0  0  0  0  0  0  0  0  0
  -19.5916   -5.5042    4.3378 C   0  0  0  0  0  0  0  0  0  0  0  0
  -18.9036   -4.3466    4.0733 C   0  0  0  0  0  0  0  0  0  0  0  0
  -17.5444   -4.4254    3.9424 C   0  0  0  0  0  0  0  0  0  0  0  0
  -16.8934   -5.6335    4.0749 C   0  0  0  0  0  0  0  0  0  0  0  0
  -17.5568   -6.8221    4.3446 C   0  0  0  0  0  0  0  0  0  0  0  0
  -20.4001   -8.2015    4.8484 H   0  0  0  0  0  0  0  0  0  0  0  0
  -10.5638   -8.9526    8.5810 S   0  0  0  0  0  0  0  0  0  0  0  0
  -10.5000   -9.9887    9.6652 O   0  0  0  0  0  0  0  0  0  0  0  0
   -9.1324   -8.6168    8.2227 O   0  0  0  0  0  0  0  0  0  0  0  0
  -12.8091   -5.2359   10.0259 C   0  0  0  0  0  0  0  0  0  0  0  0
  -13.4251   -6.4753    9.9860 C   0  0  0  0  0  0  0  0  0  0  0  0
  -12.7446   -7.5935    9.5498 C   0  0  0  0  0  0  0  0  0  0  0  0
  -11.4205   -7.5370    9.1318 C   0  0  0  0  0  0  0  0  0  0  0  0
  -10.8263   -6.2957    9.1795 C   0  0  0  0  0  0  0  0  0  0  0  0
  -11.4960   -5.1721    9.6133 C   0  0  0  0  0  0  0  0  0  0  0  0
  -12.9292   -2.8184   10.2492 C   0  0  0  0  0  0  0  0  0  0  0  0
  -13.4962   -4.0991   10.4677 O   0  0  0  0  0  0  0  0  0  0  0  0
 30 31  1  0  0  0
 31 24  1  0  0  0
 24 25  2  0  0  0
 25 26  1  0  0  0
 26 27  2  0  0  0
 27 28  1  0  0  0
 28 29  2  0  0  0
 27 21  1  0  0  0
 21 22  2  0  0  0
 21 23  2  0  0  0
 21  1  1  0  0  0
  1  2  1  0  0  0
  2  3  1  0  0  0
  3  4  1  0  0  0
  4  5  1  0  0  0
  5  6  1  0  0  0
  4  7  1  0  0  0
  7  8  1  0  0  0
  8  9  2  0  0  0
  8 11  1  0  0  0
 11 12  2  0  0  0
 12 13  1  0  0  0
 13 14  1  0  0  0
 14 15  2  0  0  0
 15 16  1  0  0  0
 16 17  2  0  0  0
 17 18  1  0  0  0
 18 19  2  0  0  0
 29 24  1  0  0  0
  6  1  1  0  0  0
 19 11  1  0  0  0
 19 14  1  0  0  0
  7 10  1  0  0  0
 13 20  1  0  0  0
M  END
> <minimizedAffinity>
6.04974

> <CNNscore>
0.5282853246

> <CNNaffinity>
6.8343825340

> <CNN_VS>
3.6105039120

> <CNNaffinity_variance>
0.7840928435

$$$$
[H]c1c([H])c(S(=O)(=O)N2C([H])([H])C([H])([H])C([H])(N([H])C(=O)c3c([H])n([H])c4c([H])c([H])c([H])c([H])c34)C([H])([H])C2([H])[H])c([H])c([H])c1OC([H])([H])[H]


 31 34  0  0  0  0  0  0  0  0999 V2000
   -7.9531   -7.4816    7.6939 N   0  0  0  0  0  0  0  0  0  0  0  0
   -8.9327   -6.4595    7.5311 C   0  0  0  0  0  0  0  0  0  0  0  0
  -10.1469   -6.6345    8.4167 C   0  0  0  0  0  0  0  0  0  0  0  0
  -10.7630   -8.0012    8.2598 C   0  0  0  0  0  0  0  0  0  0  0  0
   -9.8601   -8.9235    7.4646 C   0  0  0  0  0  0  0  0  0  0  0  0
   -8.4777   -8.7796    8.0574 C   0  0  0  0  0  0  0  0  0  0  0  0
  -12.0374   -7.9483    7.5204 N   0  0  0  0  0  0  0  0  0  0  0  0
  -13.2044   -7.7522    8.2673 C   0  0  0  0  0  0  0  0  0  0  0  0
  -13.1582   -7.6111    9.5259 O   0  0  0  0  0  0  0  0  0  0  0  0
  -11.9924   -8.0323    6.4727 H   0  0  0  0  0  0  0  0  0  0  0  0
  -14.5176   -7.6925    7.6612 C   0  0  0  0  0  0  0  0  0  0  0  0
  -15.6647   -8.3324    8.1358 C   0  0  0  0  0  0  0  0  0  0  0  0
  -16.6847   -7.9933    7.3557 N   0  0  0  0  0  0  0  0  0  0  0  0
  -16.2904   -7.1535    6.3706 C   0  0  0  0  0  0  0  0  0  0  0  0
  -16.9657   -6.5481    5.3275 C   0  0  0  0  0  0  0  0  0  0  0  0
  -16.3155   -5.7349    4.4335 C   0  0  0  0  0  0  0  0  0  0  0  0
  -14.9725   -5.5404    4.6046 C   0  0  0  0  0  0  0  0  0  0  0  0
  -14.3008   -6.1447    5.6458 C   0  0  0  0  0  0  0  0  0  0  0  0
  -14.9267   -6.9704    6.5690 C   0  0  0  0  0  0  0  0  0  0  0  0
  -17.6908   -8.3160    7.4578 H   0  0  0  0  0  0  0  0  0  0  0  0
   -6.8335   -7.5698    6.3987 S   0  0  0  0  0  0  0  0  0  0  0  0
   -6.9825   -8.8992    5.7177 O   0  0  0  0  0  0  0  0  0  0  0  0
   -7.1735   -6.5174    5.3657 O   0  0  0  0  0  0  0  0  0  0  0  0
   -2.5654   -7.0260    7.9579 C   0  0  0  0  0  0  0  0  0  0  0  0
   -3.5787   -6.1562    8.3238 C   0  0  0  0  0  0  0  0  0  0  0  0
   -4.8642   -6.3237    7.8515 C   0  0  0  0  0  0  0  0  0  0  0  0
   -5.2075   -7.3616    6.9935 C   0  0  0  0  0  0  0  0  0  0  0  0
   -4.1858   -8.2153    6.6422 C   0  0  0  0  0  0  0  0  0  0  0  0
   -2.8983   -8.0579    7.1075 C   0  0  0  0  0  0  0  0  0  0  0  0
   -1.0601   -6.4208    9.7680 C   0  0  0  0  0  0  0  0  0  0  0  0
   -1.2600   -6.8594    8.4348 O   0  0  0  0  0  0  0  0  0  0  0  0
 30 31  1  0  0  0
 31 24  1  0  0  0
 24 25  2  0  0  0
 25 26  1  0  0  0
 26 27  2  0  0  0
 27 28  1  0  0  0
 28 29  2  0  0  0
 27 21  1  0  0  0
 21 22  2  0  0  0
 21 23  2  0  0  0
 21  1  1  0  0  0
  1  2  1  0  0  0
  2  3  1  0  0  0
  3  4  1  0  0  0
  4  5  1  0  0  0
  5  6  1  0  0  0
  4  7  1  0  0  0
  7  8  1  0  0  0
  8  9  2  0  0  0
  8 11  1  0  0  0
 11 12  2  0  0  0
 12 13  1  0  0  0
 13 14  1  0  0  0
 14 15  2  0  0  0
 15 16  1  0  0  0
 16 17  2  0  0  0
 17 18  1  0  0  0
 18 19  2  0  0  0
 29 24  1  0  0  0
  6  1  1  0  0  0
 19 11  1  0  0  0
 19 14  1  0  0  0
  7 10  1  0  0  0
 13 20  1  0  0  0
M  END
> <minimizedAffinity>
-9.19290

> <CNNscore>
0.5132969022

> <CNNaffinity>
6.9501357079

> <CNN_VS>
3.5674831867

> <CNNaffinity_variance>
0.2329793721

$$$$
[H]c1c([H])c(S(=O)(=O)N2C([H])([H])C([H])([H])C([H])(N([H])C(=O)c3c([H])n([H])c4c([H])c([H])c([H])c([H])c34)C([H])([H])C2([H])[H])c([H])c([H])c1OC([H])([H])[H]


 31 34  0  0  0  0  0  0  0  0999 V2000
   -8.6958   -5.2977    4.1984 N   0  0  0  0  0  0  0  0  0  0  0  0
   -9.3622   -5.9765    3.1374 C   0  0  0  0  0  0  0  0  0  0  0  0
  -10.3980   -5.1303    2.4300 C   0  0  0  0  0  0  0  0  0  0  0  0
  -11.3902   -4.5350    3.3959 C   0  0  0  0  0  0  0  0  0  0  0  0
  -10.9395   -4.7204    4.8315 C   0  0  0  0  0  0  0  0  0  0  0  0
   -9.4895   -4.2983    4.8793 C   0  0  0  0  0  0  0  0  0  0  0  0
  -12.7095   -5.1861    3.3001 N   0  0  0  0  0  0  0  0  0  0  0  0
  -13.7818   -4.5605    3.9458 C   0  0  0  0  0  0  0  0  0  0  0  0
  -13.6208   -3.4706    4.5723 O   0  0  0  0  0  0  0  0  0  0  0  0
  -12.7736   -6.0671    2.7286 H   0  0  0  0  0  0  0  0  0  0  0  0
  -15.1233   -5.1043    3.9355 C   0  0  0  0  0  0  0  0  0  0  0  0
  -16.3034   -4.3623    3.8495 C   0  0  0  0  0  0  0  0  0  0  0  0
  -17.3261   -5.2085    3.8048 N   0  0  0  0  0  0  0  0  0  0  0  0
  -16.9023   -6.4927    3.8570 C   0  0  0  0  0  0  0  0  0  0  0  0
  -17.5714   -7.7023    3.8544 C   0  0  0  0  0  0  0  0  0  0  0  0
  -16.8931   -8.8925    3.9363 C   0  0  0  0  0  0  0  0  0  0  0  0
  -15.5288   -8.8472    4.0220 C   0  0  0  0  0  0  0  0  0  0  0  0
  -14.8634   -7.6398    4.0241 C   0  0  0  0  0  0  0  0  0  0  0  0
  -15.5167   -6.4184    3.9403 C   0  0  0  0  0  0  0  0  0  0  0  0
  -18.3539   -4.9521    3.7368 H   0  0  0  0  0  0  0  0  0  0  0  0
   -7.8963   -6.3506    5.2897 S   0  0  0  0  0  0  0  0  0  0  0  0
   -7.4381   -7.5686    4.5417 O   0  0  0  0  0  0  0  0  0  0  0  0
   -6.6487   -5.6764    5.8183 O   0  0  0  0  0  0  0  0  0  0  0  0
  -10.7094   -7.5188    8.7051 C   0  0  0  0  0  0  0  0  0  0  0  0
  -10.0120   -6.3228    8.7279 C   0  0  0  0  0  0  0  0  0  0  0  0
   -9.1649   -5.9743    7.6960 C   0  0  0  0  0  0  0  0  0  0  0  0
   -8.9680   -6.7947    6.5918 C   0  0  0  0  0  0  0  0  0  0  0  0
   -9.6707   -7.9788    6.5884 C   0  0  0  0  0  0  0  0  0  0  0  0
  -10.5194   -8.3375    7.6131 C   0  0  0  0  0  0  0  0  0  0  0  0
  -12.4344   -8.9873    9.5863 C   0  0  0  0  0  0  0  0  0  0  0  0
  -11.5696   -7.8760    9.7500 O   0  0  0  0  0  0  0  0  0  0  0  0
 30 31  1  0  0  0
 31 24  1  0  0  0
 24 25  2  0  0  0
 25 26  1  0  0  0
 26 27  2  0  0  0
 27 28  1  0  0  0
 28 29  2  0  0  0
 27 21  1  0  0  0
 21 22  2  0  0  0
 21 23  2  0  0  0
 21  1  1  0  0  0
  1  2  1  0  0  0
  2  3  1  0  0  0
  3  4  1  0  0  0
  4  5  1  0  0  0
  5  6  1  0  0  0
  4  7  1  0  0  0
  7  8  1  0  0  0
  8  9  2  0  0  0
  8 11  1  0  0  0
 11 12  2  0  0  0
 12 13  1  0  0  0
 13 14  1  0  0  0
 14 15  2  0  0  0
 15 16  1  0  0  0
 16 17  2  0  0  0
 17 18  1  0  0  0
 18 19  2  0  0  0
 29 24  1  0  0  0
  6  1  1  0  0  0
 19 11  1  0  0  0
 19 14  1  0  0  0
  7 10  1  0  0  0
 13 20  1  0  0  0
M  END
> <minimizedAffinity>
29.68159

> <CNNscore>
0.4934565425

> <CNNaffinity>
6.4369153976

> <CNN_VS>
3.1763379574

> <CNNaffinity_variance>
0.4364584088

$$$$
[H]c1c([H])c(S(=O)(=O)N2C([H])([H])C([H])([H])C([H])(N([H])C(=O)c3c([H])n([H])c4c([H])c([H])c([H])c([H])c34)C([H])([H])C2([H])[H])c([H])c([H])c1OC([H])([H])[H]


 31 34  0  0  0  0  0  0  0  0999 V2000
  -11.0502   -9.8723    7.6090 N   0  0  0  0  0  0  0  0  0  0  0  0
  -12.3341   -9.5686    8.1475 C   0  0  0  0  0  0  0  0  0  0  0  0
  -13.4723  -10.2681    7.4372 C   0  0  0  0  0  0  0  0  0  0  0  0
  -13.4401  -10.0234    5.9503 C   0  0  0  0  0  0  0  0  0  0  0  0
  -12.1396   -9.3681    5.5287 C   0  0  0  0  0  0  0  0  0  0  0  0
  -11.0330  -10.1557    6.1906 C   0  0  0  0  0  0  0  0  0  0  0  0
  -14.5117   -9.1064    5.5205 N   0  0  0  0  0  0  0  0  0  0  0  0
  -14.2983   -7.7366    5.7115 C   0  0  0  0  0  0  0  0  0  0  0  0
  -13.2190   -7.3084    6.2194 O   0  0  0  0  0  0  0  0  0  0  0  0
  -15.3612   -9.5328    5.0697 H   0  0  0  0  0  0  0  0  0  0  0  0
  -15.2768   -6.7358    5.3422 C   0  0  0  0  0  0  0  0  0  0  0  0
  -15.0559   -5.3576    5.2956 C   0  0  0  0  0  0  0  0  0  0  0  0
  -16.1637   -4.7721    4.8550 N   0  0  0  0  0  0  0  0  0  0  0  0
  -17.1310   -5.6831    4.5990 C   0  0  0  0  0  0  0  0  0  0  0  0
  -18.4323   -5.5680    4.1471 C   0  0  0  0  0  0  0  0  0  0  0  0
  -19.2310   -6.6721    3.9846 C   0  0  0  0  0  0  0  0  0  0  0  0
  -18.7000   -7.8962    4.2853 C   0  0  0  0  0  0  0  0  0  0  0  0
  -17.4018   -8.0089    4.7355 C   0  0  0  0  0  0  0  0  0  0  0  0
  -16.5660   -6.9148    4.9089 C   0  0  0  0  0  0  0  0  0  0  0  0
  -16.3111   -3.7311    4.7089 H   0  0  0  0  0  0  0  0  0  0  0  0
   -9.8339   -8.7537    8.0655 S   0  0  0  0  0  0  0  0  0  0  0  0
   -8.8466   -9.4476    8.9582 O   0  0  0  0  0  0  0  0  0  0  0  0
   -9.0673   -8.3133    6.8373 O   0  0  0  0  0  0  0  0  0  0  0  0
  -11.7056   -5.1677   10.2058 C   0  0  0  0  0  0  0  0  0  0  0  0
  -12.2673   -6.4301   10.2965 C   0  0  0  0  0  0  0  0  0  0  0  0
  -11.6998   -7.5086    9.6497 C   0  0  0  0  0  0  0  0  0  0  0  0
  -10.5481   -7.3880    8.8816 C   0  0  0  0  0  0  0  0  0  0  0  0
  -10.0052   -6.1249    8.8045 C   0  0  0  0  0  0  0  0  0  0  0  0
  -10.5631   -5.0403    9.4461 C   0  0  0  0  0  0  0  0  0  0  0  0
  -12.7222   -2.9625   10.0963 C   0  0  0  0  0  0  0  0  0  0  0  0
  -12.2783   -4.0710   10.8604 O   0  0  0  0  0  0  0  0  0  0  0  0
 30 31  1  0  0  0
 31 24  1  0  0  0
 24 25  2  0  0  0
 25 26  1  0  0  0
 26 27  2  0  0  0
 27 28  1  0  0  0
 28 29  2  0  0  0
 27 21  1  0  0  0
 21 22  2  0  0  0
 21 23  2  0  0  0
 21  1  1  0  0  0
  1  2  1  0  0  0
  2  3  1  0  0  0
  3  4  1  0  0  0
  4  5  1  0  0  0
  5  6  1  0  0  0
  4  7  1  0  0  0
  7  8  1  0  0  0
  8  9  2  0  0  0
  8 11  1  0  0  0
 11 12  2  0  0  0
 12 13  1  0  0  0
 13 14  1  0  0  0
 14 15  2  0  0  0
 15 16  1  0  0  0
 16 17  2  0  0  0
 17 18  1  0  0  0
 18 19  2  0  0  0
 29 24  1  0  0  0
  6  1  1  0  0  0
 19 11  1  0  0  0
 19 14  1  0  0  0
  7 10  1  0  0  0
 13 20  1  0  0  0
M  END
> <minimizedAffinity>
-1.94170

> <CNNscore>
0.4756529331

> <CNNaffinity>
6.8071236610

> <CNN_VS>
3.2378282547

> <CNNaffinity_variance>
0.1685299128

$$$$
[H]c1c([H])c(S(=O)(=O)N2C([H])([H])C([H])([H])C([H])(N([H])C(=O)c3c([H])n([H])c4c([H])c([H])c([H])c([H])c34)C([H])([H])C2([H])[H])c([H])c([H])c1OC([H])([H])[H]


 31 34  0  0  0  0  0  0  0  0999 V2000
  -14.8045   -9.5240    7.0217 N   0  0  0  0  0  0  0  0  0  0  0  0
  -14.2733   -8.5544    6.1226 C   0  0  0  0  0  0  0  0  0  0  0  0
  -13.3659   -9.1402    5.0632 C   0  0  0  0  0  0  0  0  0  0  0  0
  -12.2656   -9.9753    5.6666 C   0  0  0  0  0  0  0  0  0  0  0  0
  -12.5103  -10.2243    7.1419 C   0  0  0  0  0  0  0  0  0  0  0  0
  -13.9501  -10.6655    7.2652 C   0  0  0  0  0  0  0  0  0  0  0  0
  -10.9561   -9.3031    5.5827 N   0  0  0  0  0  0  0  0  0  0  0  0
  -10.0692   -9.4914    6.6486 C   0  0  0  0  0  0  0  0  0  0  0  0
  -10.3800  -10.2239    7.6351 O   0  0  0  0  0  0  0  0  0  0  0  0
  -10.7538   -8.7449    4.7141 H   0  0  0  0  0  0  0  0  0  0  0  0
   -8.7589   -8.8777    6.6908 C   0  0  0  0  0  0  0  0  0  0  0  0
   -7.9002   -8.7127    5.6018 C   0  0  0  0  0  0  0  0  0  0  0  0
   -6.8227   -8.0557    6.0159 N   0  0  0  0  0  0  0  0  0  0  0  0
   -6.9029   -7.7646    7.3350 C   0  0  0  0  0  0  0  0  0  0  0  0
   -6.0458   -7.1203    8.2074 C   0  0  0  0  0  0  0  0  0  0  0  0
   -6.3616   -6.9666    9.5340 C   0  0  0  0  0  0  0  0  0  0  0  0
   -7.5548   -7.4729    9.9708 C   0  0  0  0  0  0  0  0  0  0  0  0
   -8.4084   -8.1148    9.0990 C   0  0  0  0  0  0  0  0  0  0  0  0
   -8.1223   -8.2857    7.7519 C   0  0  0  0  0  0  0  0  0  0  0  0
   -5.9879   -7.7767    5.4226 H   0  0  0  0  0  0  0  0  0  0  0  0
  -15.4200   -8.8486    8.4721 S   0  0  0  0  0  0  0  0  0  0  0  0
  -16.7477   -8.2098    8.1851 O   0  0  0  0  0  0  0  0  0  0  0  0
  -15.6823   -9.9542    9.4716 O   0  0  0  0  0  0  0  0  0  0  0  0
  -12.4789   -5.7718   10.1534 C   0  0  0  0  0  0  0  0  0  0  0  0
  -12.5725   -7.0436   10.6929 C   0  0  0  0  0  0  0  0  0  0  0  0
  -13.4605   -7.9684   10.1830 C   0  0  0  0  0  0  0  0  0  0  0  0
  -14.2989   -7.6770    9.1136 C   0  0  0  0  0  0  0  0  0  0  0  0
  -14.1900   -6.4075    8.5916 C   0  0  0  0  0  0  0  0  0  0  0  0
  -13.3069   -5.4757    9.0926 C   0  0  0  0  0  0  0  0  0  0  0  0
  -11.6083   -3.5024   10.1739 C   0  0  0  0  0  0  0  0  0  0  0  0
  -11.5794   -4.8309   10.6680 O   0  0  0  0  0  0  0  0  0  0  0  0
 30 31  1  0  0  0
 31 24  1  0  0  0
 24 25  2  0  0  0
 25 26  1  0  0  0
 26 27  2  0  0  0
 27 28  1  0  0  0
 28 29  2  0  0  0
 27 21  1  0  0  0
 21 22  2  0  0  0
 21 23  2  0  0  0
 21  1  1  0  0  0
  1  2  1  0  0  0
  2  3  1  0  0  0
  3  4  1  0  0  0
  4  5  1  0  0  0
  5  6  1  0  0  0
  4  7  1  0  0  0
  7  8  1  0  0  0
  8  9  2  0  0  0
  8 11  1  0  0  0
 11 12  2  0  0  0
 12 13  1  0  0  0
 13 14  1  0  0  0
 14 15  2  0  0  0
 15 16  1  0  0  0
 16 17  2  0  0  0
 17 18  1  0  0  0
 18 19  2  0  0  0
 29 24  1  0  0  0
  6  1  1  0  0  0
 19 11  1  0  0  0
 19 14  1  0  0  0
  7 10  1  0  0  0
 13 20  1  0  0  0
M  END
> <minimizedAffinity>
6.92570

> <CNNscore>
0.4689049125

> <CNNaffinity>
6.4090094566

> <CNN_VS>
3.0052161217

> <CNNaffinity_variance>
0.7525896430

$$$$
[H]c1c([H])c(S(=O)(=O)N2C([H])([H])C([H])([H])C([H])(N([H])C(=O)c3c([H])n([H])c4c([H])c([H])c([H])c([H])c34)C([H])([H])C2([H])[H])c([H])c([H])c1OC([H])([H])[H]


 31 34  0  0  0  0  0  0  0  0999 V2000
  -11.4379   -7.7596    6.9185 N   0  0  0  0  0  0  0  0  0  0  0  0
  -12.0157   -9.0250    6.6097 C   0  0  0  0  0  0  0  0  0  0  0  0
  -12.7883   -9.0396    5.3089 C   0  0  0  0  0  0  0  0  0  0  0  0
  -13.8259   -7.9473    5.2608 C   0  0  0  0  0  0  0  0  0  0  0  0
  -13.6456   -6.9667    6.4029 C   0  0  0  0  0  0  0  0  0  0  0  0
  -12.1765   -6.6147    6.4326 C   0  0  0  0  0  0  0  0  0  0  0  0
  -15.1932   -8.4813    5.3997 N   0  0  0  0  0  0  0  0  0  0  0  0
  -16.2299   -7.7512    4.8077 C   0  0  0  0  0  0  0  0  0  0  0  0
  -15.9935   -6.6838    4.1666 O   0  0  0  0  0  0  0  0  0  0  0  0
  -15.3063   -9.3939    5.9107 H   0  0  0  0  0  0  0  0  0  0  0  0
  -17.6155   -8.1634    4.8821 C   0  0  0  0  0  0  0  0  0  0  0  0
  -18.4926   -8.2738    3.8008 C   0  0  0  0  0  0  0  0  0  0  0  0
  -19.6530   -8.7377    4.2505 N   0  0  0  0  0  0  0  0  0  0  0  0
  -19.6118   -8.9489    5.5866 C   0  0  0  0  0  0  0  0  0  0  0  0
  -20.5508   -9.4020    6.4942 C   0  0  0  0  0  0  0  0  0  0  0  0
  -20.2565   -9.5113    7.8301 C   0  0  0  0  0  0  0  0  0  0  0  0
  -19.0009   -9.1562    8.2401 C   0  0  0  0  0  0  0  0  0  0  0  0
  -18.0657   -8.7049    7.3333 C   0  0  0  0  0  0  0  0  0  0  0  0
  -18.3282   -8.5843    5.9760 C   0  0  0  0  0  0  0  0  0  0  0  0
  -20.5215   -8.9311    3.6716 H   0  0  0  0  0  0  0  0  0  0  0  0
  -10.9883   -7.5952    8.5646 S   0  0  0  0  0  0  0  0  0  0  0  0
  -10.0107   -8.6800    8.9116 O   0  0  0  0  0  0  0  0  0  0  0  0
  -10.2608   -6.2826    8.7599 O   0  0  0  0  0  0  0  0  0  0  0  0
  -14.6899   -7.8415   11.2442 C   0  0  0  0  0  0  0  0  0  0  0  0
  -14.1080   -6.6236   10.9355 C   0  0  0  0  0  0  0  0  0  0  0  0
  -12.9921   -6.5537   10.1271 C   0  0  0  0  0  0  0  0  0  0  0  0
  -12.3989   -7.6878    9.5858 C   0  0  0  0  0  0  0  0  0  0  0  0
  -12.9928   -8.8885    9.9045 C   0  0  0  0  0  0  0  0  0  0  0  0
  -14.1074   -8.9706   10.7108 C   0  0  0  0  0  0  0  0  0  0  0  0
  -16.1279   -9.1395   12.7126 C   0  0  0  0  0  0  0  0  0  0  0  0
  -15.8221   -7.9167   12.0640 O   0  0  0  0  0  0  0  0  0  0  0  0
 30 31  1  0  0  0
 31 24  1  0  0  0
 24 25  2  0  0  0
 25 26  1  0  0  0
 26 27  2  0  0  0
 27 28  1  0  0  0
 28 29  2  0  0  0
 27 21  1  0  0  0
 21 22  2  0  0  0
 21 23  2  0  0  0
 21  1  1  0  0  0
  1  2  1  0  0  0
  2  3  1  0  0  0
  3  4  1  0  0  0
  4  5  1  0  0  0
  5  6  1  0  0  0
  4  7  1  0  0  0
  7  8  1  0  0  0
  8  9  2  0  0  0
  8 11  1  0  0  0
 11 12  2  0  0  0
 12 13  1  0  0  0
 13 14  1  0  0  0
 14 15  2  0  0  0
 15 16  1  0  0  0
 16 17  2  0  0  0
 17 18  1  0  0  0
 18 19  2  0  0  0
 29 24  1  0  0  0
  6  1  1  0  0  0
 19 11  1  0  0  0
 19 14  1  0  0  0
  7 10  1  0  0  0
 13 20  1  0  0  0
M  END
> <minimizedAffinity>
12.57309

> <CNNscore>
0.4464543164

> <CNNaffinity>
6.5805792809

> <CNN_VS>
2.9379279613

> <CNNaffinity_variance>
0.9921889305

$$$$
[H]c1c([H])c(S(=O)(=O)N2C([H])([H])C([H])([H])C([H])(N([H])C(=O)c3c([H])n([H])c4c([H])c([H])c([H])c([H])c34)C([H])([H])C2([H])[H])c([H])c([H])c1OC([H])([H])[H]


 31 34  0  0  0  0  0  0  0  0999 V2000
  -17.1972   -8.4813    4.1407 N   0  0  0  0  0  0  0  0  0  0  0  0
  -16.0158   -8.8867    3.4547 C   0  0  0  0  0  0  0  0  0  0  0  0
  -15.2237   -9.9496    4.1840 C   0  0  0  0  0  0  0  0  0  0  0  0
  -14.9109   -9.5423    5.6012 C   0  0  0  0  0  0  0  0  0  0  0  0
  -15.6905   -8.3056    6.0027 C   0  0  0  0  0  0  0  0  0  0  0  0
  -17.1213   -8.5506    5.5835 C   0  0  0  0  0  0  0  0  0  0  0  0
  -13.4882   -9.1956    5.7725 N   0  0  0  0  0  0  0  0  0  0  0  0
  -12.8016   -9.8074    6.8272 C   0  0  0  0  0  0  0  0  0  0  0  0
  -13.3818  -10.6364    7.5903 O   0  0  0  0  0  0  0  0  0  0  0  0
  -13.0651   -8.5311    5.0752 H   0  0  0  0  0  0  0  0  0  0  0  0
  -11.4063   -9.5428    7.1073 C   0  0  0  0  0  0  0  0  0  0  0  0
  -10.3319  -10.3545    6.7365 C   0  0  0  0  0  0  0  0  0  0  0  0
   -9.2074   -9.7552    7.1111 N   0  0  0  0  0  0  0  0  0  0  0  0
   -9.4611   -8.5740    7.7207 C   0  0  0  0  0  0  0  0  0  0  0  0
   -8.6416   -7.6140    8.2844 C   0  0  0  0  0  0  0  0  0  0  0  0
   -9.1616   -6.4870    8.8696 C   0  0  0  0  0  0  0  0  0  0  0  0
  -10.5214   -6.3404    8.8802 C   0  0  0  0  0  0  0  0  0  0  0  0
  -11.3370   -7.2988    8.3172 C   0  0  0  0  0  0  0  0  0  0  0  0
  -10.8455   -8.4485    7.7153 C   0  0  0  0  0  0  0  0  0  0  0  0
   -8.2210  -10.1208    6.9696 H   0  0  0  0  0  0  0  0  0  0  0  0
  -17.8288   -6.9851    3.5918 S   0  0  0  0  0  0  0  0  0  0  0  0
  -18.1261   -7.0926    2.1244 O   0  0  0  0  0  0  0  0  0  0  0  0
  -19.1493   -6.7127    4.2789 O   0  0  0  0  0  0  0  0  0  0  0  0
  -14.8361   -3.6161    4.3900 C   0  0  0  0  0  0  0  0  0  0  0  0
  -14.5544   -4.9245    4.7450 C   0  0  0  0  0  0  0  0  0  0  0  0
  -15.4593   -5.9373    4.5025 C   0  0  0  0  0  0  0  0  0  0  0  0
  -16.6875   -5.7021    3.8964 C   0  0  0  0  0  0  0  0  0  0  0  0
  -16.9481   -4.3949    3.5509 C   0  0  0  0  0  0  0  0  0  0  0  0
  -16.0520   -3.3752    3.7881 C   0  0  0  0  0  0  0  0  0  0  0  0
  -14.2907   -1.5191    5.4915 C   0  0  0  0  0  0  0  0  0  0  0  0
  -13.9206   -2.5858    4.6343 O   0  0  0  0  0  0  0  0  0  0  0  0
 30 31  1  0  0  0
 31 24  1  0  0  0
 24 25  2  0  0  0
 25 26  1  0  0  0
 26 27  2  0  0  0
 27 28  1  0  0  0
 28 29  2  0  0  0
 27 21  1  0  0  0
 21 22  2  0  0  0
 21 23  2  0  0  0
 21  1  1  0  0  0
  1  2  1  0  0  0
  2  3  1  0  0  0
  3  4  1  0  0  0
  4  5  1  0  0  0
  5  6  1  0  0  0
  4  7  1  0  0  0
  7  8  1  0  0  0
  8  9  2  0  0  0
  8 11  1  0  0  0
 11 12  2  0  0  0
 12 13  1  0  0  0
 13 14  1  0  0  0
 14 15  2  0  0  0
 15 16  1  0  0  0
 16 17  2  0  0  0
 17 18  1  0  0  0
 18 19  2  0  0  0
 29 24  1  0  0  0
  6  1  1  0  0  0
 19 11  1  0  0  0
 19 14  1  0  0  0
  7 10  1  0  0  0
 13 20  1  0  0  0
M  END
> <minimizedAffinity>
-2.29687

> <CNNscore>
0.4264365733

> <CNNaffinity>
6.7747278214

> <CNN_VS>
2.8889918327

> <CNNaffinity_variance>
0.3751001954

$$$$
[H]c1c([H])c(S(=O)(=O)N2C([H])([H])C([H])([H])C([H])(N([H])C(=O)c3c([H])n([H])c4c([H])c([H])c([H])c([H])c34)C([H])([H])C2([H])[H])c([H])c([H])c1OC([H])([H])[H]


 31 34  0  0  0  0  0  0  0  0999 V2000
   -8.5794   -6.6437    6.7507 N   0  0  0  0  0  0  0  0  0  0  0  0
   -9.5864   -6.1623    5.8648 C   0  0  0  0  0  0  0  0  0  0  0  0
  -10.8251   -5.6552    6.5702 C   0  0  0  0  0  0  0  0  0  0  0  0
  -11.3888   -6.6808    7.5202 C   0  0  0  0  0  0  0  0  0  0  0  0
  -10.4273   -7.8365    7.7156 C   0  0  0  0  0  0  0  0  0  0  0  0
   -9.0728   -7.2220    7.9814 C   0  0  0  0  0  0  0  0  0  0  0  0
  -12.6368   -7.2765    7.0091 N   0  0  0  0  0  0  0  0  0  0  0  0
  -13.8388   -6.8178    7.5597 C   0  0  0  0  0  0  0  0  0  0  0  0
  -13.8469   -5.9158    8.4500 O   0  0  0  0  0  0  0  0  0  0  0  0
  -12.5528   -7.9902    6.2408 H   0  0  0  0  0  0  0  0  0  0  0  0
  -15.1296   -7.3301    7.1513 C   0  0  0  0  0  0  0  0  0  0  0  0
  -16.2926   -7.3201    7.9244 C   0  0  0  0  0  0  0  0  0  0  0  0
  -17.2843   -7.8152    7.1927 N   0  0  0  0  0  0  0  0  0  0  0  0
  -16.8553   -8.1639    5.9575 C   0  0  0  0  0  0  0  0  0  0  0  0
  -17.4933   -8.7220    4.8656 C   0  0  0  0  0  0  0  0  0  0  0  0
  -16.8118   -9.0017    3.7077 C   0  0  0  0  0  0  0  0  0  0  0  0
  -15.4758   -8.7118    3.6653 C   0  0  0  0  0  0  0  0  0  0  0  0
  -14.8415   -8.1548    4.7553 C   0  0  0  0  0  0  0  0  0  0  0  0
  -15.4997   -7.8570    5.9401 C   0  0  0  0  0  0  0  0  0  0  0  0
  -18.2933   -7.9375    7.4989 H   0  0  0  0  0  0  0  0  0  0  0  0
   -7.4116   -7.6380    5.9849 S   0  0  0  0  0  0  0  0  0  0  0  0
   -7.2514   -7.1903    4.5612 O   0  0  0  0  0  0  0  0  0  0  0  0
   -6.0671   -7.4413    6.6511 O   0  0  0  0  0  0  0  0  0  0  0  0
   -8.7111  -12.0224    6.1606 C   0  0  0  0  0  0  0  0  0  0  0  0
   -7.8931  -11.4774    7.1358 C   0  0  0  0  0  0  0  0  0  0  0  0
   -7.5038  -10.1550    7.0792 C   0  0  0  0  0  0  0  0  0  0  0  0
   -7.9062   -9.3089    6.0529 C   0  0  0  0  0  0  0  0  0  0  0  0
   -8.7192   -9.8700    5.0937 C   0  0  0  0  0  0  0  0  0  0  0  0
   -9.1146  -11.1894    5.1398 C   0  0  0  0  0  0  0  0  0  0  0  0
   -9.5643  -13.9991    5.0322 C   0  0  0  0  0  0  0  0  0  0  0  0
   -9.1083  -13.3636    6.2145 O   0  0  0  0  0  0  0  0  0  0  0  0
 30 31  1  0  0  0
 31 24  1  0  0  0
 24 25  2  0  0  0
 25 26  1  0  0  0
 26 27  2  0  0  0
 27 28  1  0  0  0
 28 29  2  0  0  0
 27 21  1  0  0  0
 21 22  2  0  0  0
 21 23  2  0  0  0
 21  1  1  0  0  0
  1  2  1  0  0  0
  2  3  1  0  0  0
  3  4  1  0  0  0
  4  5  1  0  0  0
  5  6  1  0  0  0
  4  7  1  0  0  0
  7  8  1  0  0  0
  8  9  2  0  0  0
  8 11  1  0  0  0
 11 12  2  0  0  0
 12 13  1  0  0  0
 13 14  1  0  0  0
 14 15  2  0  0  0
 15 16  1  0  0  0
 16 17  2  0  0  0
 17 18  1  0  0  0
 18 19  2  0  0  0
 29 24  1  0  0  0
  6  1  1  0  0  0
 19 11  1  0  0  0
 19 14  1  0  0  0
  7 10  1  0  0  0
 13 20  1  0  0  0
M  END
> <minimizedAffinity>
15.45196

> <CNNscore>
0.4238439202

> <CNNaffinity>
6.5177459717

> <CNN_VS>
2.7625069618

> <CNNaffinity_variance>
0.9195485115

$$$$
[H]c1c([H])c(Cl)c([H])c(N2C([H])([H])C([H])([H])N(S(=O)(=O)c3c([H])c([H])c(OC([H])([H])[H])c([H])c3[H])C([H])([H])C2([H])[H])c1[H]


 24 26  0  0  0  0  0  0  0  0999 V2000
   -7.7678   -8.7649    7.1649 N   0  0  0  0  0  0  0  0  0  0  0  0
   -8.8931   -9.5407    6.7629 C   0  0  0  0  0  0  0  0  0  0  0  0
  -10.0806   -9.4281    7.7087 C   0  0  0  0  0  0  0  0  0  0  0  0
  -10.4202   -8.0118    7.9032 N   0  0  0  0  0  0  0  0  0  0  0  0
   -9.4835   -7.1139    7.2848 C   0  0  0  0  0  0  0  0  0  0  0  0
   -8.1054   -7.5186    7.8181 C   0  0  0  0  0  0  0  0  0  0  0  0
  -11.5642   -7.6638    8.6339 C   0  0  0  0  0  0  0  0  0  0  0  0
  -12.5923   -8.6029    8.7810 C   0  0  0  0  0  0  0  0  0  0  0  0
  -13.7303   -8.2879    9.4952 C   0  0  0  0  0  0  0  0  0  0  0  0
  -13.8586   -7.0385   10.0698 C   0  0  0  0  0  0  0  0  0  0  0  0
  -12.8467   -6.0883    9.9355 C   0  0  0  0  0  0  0  0  0  0  0  0
  -12.9593   -4.4988   10.6404 Cl  0  0  0  0  0  0  0  0  0  0  0  0
  -11.7150   -6.4238    9.2162 C   0  0  0  0  0  0  0  0  0  0  0  0
   -6.7701   -8.3950    5.8064 S   0  0  0  0  0  0  0  0  0  0  0  0
   -5.3143   -8.6327    6.1164 O   0  0  0  0  0  0  0  0  0  0  0  0
   -6.8807   -6.9414    5.4071 O   0  0  0  0  0  0  0  0  0  0  0  0
   -7.8457  -10.9993    2.2113 C   0  0  0  0  0  0  0  0  0  0  0  0
   -6.9168   -9.9863    2.1109 C   0  0  0  0  0  0  0  0  0  0  0  0
   -6.6021   -9.2078    3.2051 C   0  0  0  0  0  0  0  0  0  0  0  0
   -7.1891   -9.3966    4.4390 C   0  0  0  0  0  0  0  0  0  0  0  0
   -8.1155  -10.4122    4.5261 C   0  0  0  0  0  0  0  0  0  0  0  0
   -8.4427  -11.2036    3.4347 C   0  0  0  0  0  0  0  0  0  0  0  0
   -7.8535  -13.1469    1.1070 C   0  0  0  0  0  0  0  0  0  0  0  0
   -8.1622  -11.7877    1.0963 O   0  0  0  0  0  0  0  0  0  0  0  0
 23 24  1  0  0  0
 24 17  1  0  0  0
 17 18  2  0  0  0
 18 19  1  0  0  0
 19 20  2  0  0  0
 20 21  1  0  0  0
 21 22  2  0  0  0
 20 14  1  0  0  0
 14 15  2  0  0  0
 14 16  2  0  0  0
 14  1  1  0  0  0
  1  2  1  0  0  0
  2  3  1  0  0  0
  3  4  1  0  0  0
  4  5  1  0  0  0
  5  6  1  0  0  0
  4  7  1  0  0  0
  7  8  2  0  0  0
  8  9  1  0  0  0
  9 10  2  0  0  0
 10 11  1  0  0  0
 11 12  1  0  0  0
 11 13  2  0  0  0
 22 17  1  0  0  0
  6  1  1  0  0  0
 13  7  1  0  0  0
M  END
> <minimizedAffinity>
2.55152

> <CNNscore>
0.6067114472

> <CNNaffinity>
5.9055299759

> <CNN_VS>
3.5829527378

> <CNNaffinity_variance>
0.3872733116

$$$$
[H]c1c([H])c(Cl)c([H])c(N2C([H])([H])C([H])([H])N(S(=O)(=O)c3c([H])c([H])c(OC([H])([H])[H])c([H])c3[H])C([H])([H])C2([H])[H])c1[H]


 24 26  0  0  0  0  0  0  0  0999 V2000
  -13.2983   -8.2880    8.1036 N   0  0  0  0  0  0  0  0  0  0  0  0
  -12.9454   -8.5207    6.7431 C   0  0  0  0  0  0  0  0  0  0  0  0
  -14.1456   -8.6616    5.8174 C   0  0  0  0  0  0  0  0  0  0  0  0
  -15.0253   -7.4950    5.9737 N   0  0  0  0  0  0  0  0  0  0  0  0
  -14.6158   -6.6140    7.0332 C   0  0  0  0  0  0  0  0  0  0  0  0
  -14.4945   -7.4935    8.2818 C   0  0  0  0  0  0  0  0  0  0  0  0
  -16.1317   -7.3386    5.1281 C   0  0  0  0  0  0  0  0  0  0  0  0
  -16.4616   -8.3677    4.2378 C   0  0  0  0  0  0  0  0  0  0  0  0
  -17.5457   -8.2412    3.3934 C   0  0  0  0  0  0  0  0  0  0  0  0
  -18.3121   -7.0927    3.4246 C   0  0  0  0  0  0  0  0  0  0  0  0
  -18.0011   -6.0555    4.3035 C   0  0  0  0  0  0  0  0  0  0  0  0
  -18.9354   -4.5868    4.3821 Cl  0  0  0  0  0  0  0  0  0  0  0  0
  -16.9112   -6.2021    5.1409 C   0  0  0  0  0  0  0  0  0  0  0  0
  -12.0107   -7.4967    8.9368 S   0  0  0  0  0  0  0  0  0  0  0  0
  -11.9555   -7.9175   10.3831 O   0  0  0  0  0  0  0  0  0  0  0  0
  -12.1852   -5.9953    8.9445 O   0  0  0  0  0  0  0  0  0  0  0  0
   -7.9903   -8.5546    7.0444 C   0  0  0  0  0  0  0  0  0  0  0  0
   -8.9204   -9.5266    7.3433 C   0  0  0  0  0  0  0  0  0  0  0  0
  -10.1303   -9.1923    7.9147 C   0  0  0  0  0  0  0  0  0  0  0  0
  -10.4709   -7.8894    8.2135 C   0  0  0  0  0  0  0  0  0  0  0  0
   -9.5330   -6.9276    7.9099 C   0  0  0  0  0  0  0  0  0  0  0  0
   -8.3117   -7.2481    7.3352 C   0  0  0  0  0  0  0  0  0  0  0  0
   -5.6649   -8.0554    6.6267 C   0  0  0  0  0  0  0  0  0  0  0  0
   -6.7620   -8.8995    6.4638 O   0  0  0  0  0  0  0  0  0  0  0  0
 23 24  1  0  0  0
 24 17  1  0  0  0
 17 18  2  0  0  0
 18 19  1  0  0  0
 19 20  2  0  0  0
 20 21  1  0  0  0
 21 22  2  0  0  0
 20 14  1  0  0  0
 14 15  2  0  0  0
 14 16  2  0  0  0
 14  1  1  0  0  0
  1  2  1  0  0  0
  2  3  1  0  0  0
  3  4  1  0  0  0
  4  5  1  0  0  0
  5  6  1  0  0  0
  4  7  1  0  0  0
  7  8  2  0  0  0
  8  9  1  0  0  0
  9 10  2  0  0  0
 10 11  1  0  0  0
 11 12  1  0  0  0
 11 13  2  0  0  0
 22 17  1  0  0  0
  6  1  1  0  0  0
 13  7  1  0  0  0
M  END
> <minimizedAffinity>
-7.46052

> <CNNscore>
0.5833461881

> <CNNaffinity>
6.6547050476

> <CNN_VS>
3.8819968700

> <CNNaffinity_variance>
0.0362233184

$$$$
[H]c1c([H])c(Cl)c([H])c(N2C([H])([H])C([H])([H])N(S(=O)(=O)c3c([H])c([H])c(OC([H])([H])[H])c([H])c3[H])C([H])([H])C2([H])[H])c1[H]


 24 26  0  0  0  0  0  0  0  0999 V2000
  -17.9069   -7.5907    4.8309 N   0  0  0  0  0  0  0  0  0  0  0  0
  -18.2813   -7.6503    6.2042 C   0  0  0  0  0  0  0  0  0  0  0  0
  -17.1887   -8.1996    7.1108 C   0  0  0  0  0  0  0  0  0  0  0  0
  -15.9496   -7.4376    6.9029 N   0  0  0  0  0  0  0  0  0  0  0  0
  -16.0405   -6.4903    5.8256 C   0  0  0  0  0  0  0  0  0  0  0  0
  -16.5092   -7.2909    4.6063 C   0  0  0  0  0  0  0  0  0  0  0  0
  -14.8385   -7.6777    7.7223 C   0  0  0  0  0  0  0  0  0  0  0  0
  -13.8033   -8.4923    7.2476 C   0  0  0  0  0  0  0  0  0  0  0  0
  -12.6971   -8.7460    8.0326 C   0  0  0  0  0  0  0  0  0  0  0  0
  -12.6079   -8.1940    9.2954 C   0  0  0  0  0  0  0  0  0  0  0  0
  -13.6276   -7.3798    9.7878 C   0  0  0  0  0  0  0  0  0  0  0  0
  -13.5637   -6.6595   11.3730 Cl  0  0  0  0  0  0  0  0  0  0  0  0
  -14.7270   -7.1382    8.9856 C   0  0  0  0  0  0  0  0  0  0  0  0
  -18.8415   -6.4021    3.9991 S   0  0  0  0  0  0  0  0  0  0  0  0
  -19.8676   -5.7780    4.9098 O   0  0  0  0  0  0  0  0  0  0  0  0
  -19.6145   -7.0008    2.8463 O   0  0  0  0  0  0  0  0  0  0  0  0
  -16.1892   -3.0437    2.4021 C   0  0  0  0  0  0  0  0  0  0  0  0
  -17.3576   -3.3999    1.7641 C   0  0  0  0  0  0  0  0  0  0  0  0
  -18.1485   -4.4162    2.2579 C   0  0  0  0  0  0  0  0  0  0  0  0
  -17.8199   -5.1202    3.3977 C   0  0  0  0  0  0  0  0  0  0  0  0
  -16.6500   -4.7545    4.0259 C   0  0  0  0  0  0  0  0  0  0  0  0
  -15.8440   -3.7346    3.5415 C   0  0  0  0  0  0  0  0  0  0  0  0
  -15.9790   -0.9792    1.1672 C   0  0  0  0  0  0  0  0  0  0  0  0
  -15.3887   -2.0101    1.8962 O   0  0  0  0  0  0  0  0  0  0  0  0
 23 24  1  0  0  0
 24 17  1  0  0  0
 17 18  2  0  0  0
 18 19  1  0  0  0
 19 20  2  0  0  0
 20 21  1  0  0  0
 21 22  2  0  0  0
 20 14  1  0  0  0
 14 15  2  0  0  0
 14 16  2  0  0  0
 14  1  1  0  0  0
  1  2  1  0  0  0
  2  3  1  0  0  0
  3  4  1  0  0  0
  4  5  1  0  0  0
  5  6  1  0  0  0
  4  7  1  0  0  0
  7  8  2  0  0  0
  8  9  1  0  0  0
  9 10  2  0  0  0
 10 11  1  0  0  0
 11 12  1  0  0  0
 11 13  2  0  0  0
 22 17  1  0  0  0
  6  1  1  0  0  0
 13  7  1  0  0  0
M  END
> <minimizedAffinity>
17.24191

> <CNNscore>
0.5739713907

> <CNNaffinity>
6.5845832825

> <CNN_VS>
3.7793624401

> <CNNaffinity_variance>
0.8309229016

$$$$
[H]c1c([H])c(Cl)c([H])c(N2C([H])([H])C([H])([H])N(S(=O)(=O)c3c([H])c([H])c(OC([H])([H])[H])c([H])c3[H])C([H])([H])C2([H])[H])c1[H]


 24 26  0  0  0  0  0  0  0  0999 V2000
   -6.9669   -8.1300    7.5538 N   0  0  0  0  0  0  0  0  0  0  0  0
   -7.8610   -9.0736    6.9706 C   0  0  0  0  0  0  0  0  0  0  0  0
   -9.1759   -9.2144    7.7246 C   0  0  0  0  0  0  0  0  0  0  0  0
   -9.7915   -7.8902    7.8888 N   0  0  0  0  0  0  0  0  0  0  0  0
   -8.9518   -6.8146    7.4368 C   0  0  0  0  0  0  0  0  0  0  0  0
   -7.6176   -6.9930    8.1684 C   0  0  0  0  0  0  0  0  0  0  0  0
  -11.0749   -7.7824    8.4409 C   0  0  0  0  0  0  0  0  0  0  0  0
  -11.9788   -8.8395    8.2795 C   0  0  0  0  0  0  0  0  0  0  0  0
  -13.2492   -8.7608    8.8124 C   0  0  0  0  0  0  0  0  0  0  0  0
  -13.6345   -7.6329    9.5102 C   0  0  0  0  0  0  0  0  0  0  0  0
  -12.7500   -6.5685    9.6826 C   0  0  0  0  0  0  0  0  0  0  0  0
  -13.1864   -5.1240   10.5538 Cl  0  0  0  0  0  0  0  0  0  0  0  0
  -11.4822   -6.6672    9.1409 C   0  0  0  0  0  0  0  0  0  0  0  0
   -5.8629   -7.5300    6.3710 S   0  0  0  0  0  0  0  0  0  0  0  0
   -6.5922   -6.9722    5.1757 O   0  0  0  0  0  0  0  0  0  0  0  0
   -4.9614   -8.6207    5.8393 O   0  0  0  0  0  0  0  0  0  0  0  0
   -3.2925   -4.1919    8.1358 C   0  0  0  0  0  0  0  0  0  0  0  0
   -3.7736   -5.2178    8.9202 C   0  0  0  0  0  0  0  0  0  0  0  0
   -4.5487   -6.2191    8.3735 C   0  0  0  0  0  0  0  0  0  0  0  0
   -4.8797   -6.2489    7.0347 C   0  0  0  0  0  0  0  0  0  0  0  0
   -4.3928   -5.2182    6.2617 C   0  0  0  0  0  0  0  0  0  0  0  0
   -3.6120   -4.2040    6.7969 C   0  0  0  0  0  0  0  0  0  0  0  0
   -3.0912   -1.9546    9.0218 C   0  0  0  0  0  0  0  0  0  0  0  0
   -2.5052   -3.1766    8.6962 O   0  0  0  0  0  0  0  0  0  0  0  0
 23 24  1  0  0  0
 24 17  1  0  0  0
 17 18  2  0  0  0
 18 19  1  0  0  0
 19 20  2  0  0  0
 20 21  1  0  0  0
 21 22  2  0  0  0
 20 14  1  0  0  0
 14 15  2  0  0  0
 14 16  2  0  0  0
 14  1  1  0  0  0
  1  2  1  0  0  0
  2  3  1  0  0  0
  3  4  1  0  0  0
  4  5  1  0  0  0
  5  6  1  0  0  0
  4  7  1  0  0  0
  7  8  2  0  0  0
  8  9  1  0  0  0
  9 10  2  0  0  0
 10 11  1  0  0  0
 11 12  1  0  0  0
 11 13  2  0  0  0
 22 17  1  0  0  0
  6  1  1  0  0  0
 13  7  1  0  0  0
M  END
> <minimizedAffinity>
-6.90227

> <CNNscore>
0.5695590973

> <CNNaffinity>
5.9976520538

> <CNN_VS>
3.4160172939

> <CNNaffinity_variance>
0.2724682689

$$$$
[H]c1c([H])c(Cl)c([H])c(N2C([H])([H])C([H])([H])N(S(=O)(=O)c3c([H])c([H])c(OC([H])([H])[H])c([H])c3[H])C([H])([H])C2([H])[H])c1[H]


 24 26  0  0  0  0  0  0  0  0999 V2000
  -13.6701   -9.7374    7.1818 N   0  0  0  0  0  0  0  0  0  0  0  0
  -13.2495   -9.2458    5.9125 C   0  0  0  0  0  0  0  0  0  0  0  0
  -14.4005   -8.8222    5.0108 C   0  0  0  0  0  0  0  0  0  0  0  0
  -15.2559   -7.8640    5.7246 N   0  0  0  0  0  0  0  0  0  0  0  0
  -14.8816   -7.6857    7.1010 C   0  0  0  0  0  0  0  0  0  0  0  0
  -14.8525   -9.0915    7.7094 C   0  0  0  0  0  0  0  0  0  0  0  0
  -16.3097   -7.2336    5.0495 C   0  0  0  0  0  0  0  0  0  0  0  0
  -16.8304   -7.8255    3.8923 C   0  0  0  0  0  0  0  0  0  0  0  0
  -17.8681   -7.2271    3.2071 C   0  0  0  0  0  0  0  0  0  0  0  0
  -18.3984   -6.0364    3.6636 C   0  0  0  0  0  0  0  0  0  0  0  0
  -17.8946   -5.4298    4.8139 C   0  0  0  0  0  0  0  0  0  0  0  0
  -18.5279   -3.9286    5.4314 Cl  0  0  0  0  0  0  0  0  0  0  0  0
  -16.8551   -6.0455    5.4856 C   0  0  0  0  0  0  0  0  0  0  0  0
  -12.4094   -9.5631    8.3472 S   0  0  0  0  0  0  0  0  0  0  0  0
  -11.0515   -9.7111    7.7099 O   0  0  0  0  0  0  0  0  0  0  0  0
  -12.4856  -10.6247    9.4205 O   0  0  0  0  0  0  0  0  0  0  0  0
  -12.5457   -5.4333   10.2941 C   0  0  0  0  0  0  0  0  0  0  0  0
  -11.4954   -5.8110    9.4857 C   0  0  0  0  0  0  0  0  0  0  0  0
  -11.4677   -7.0614    8.9046 C   0  0  0  0  0  0  0  0  0  0  0  0
  -12.4720   -7.9873    9.0966 C   0  0  0  0  0  0  0  0  0  0  0  0
  -13.5158   -7.5976    9.9063 C   0  0  0  0  0  0  0  0  0  0  0  0
  -13.5579   -6.3436   10.4979 C   0  0  0  0  0  0  0  0  0  0  0  0
  -12.6940   -3.0331   10.0734 C   0  0  0  0  0  0  0  0  0  0  0  0
  -12.5692   -4.1613   10.8825 O   0  0  0  0  0  0  0  0  0  0  0  0
 23 24  1  0  0  0
 24 17  1  0  0  0
 17 18  2  0  0  0
 18 19  1  0  0  0
 19 20  2  0  0  0
 20 21  1  0  0  0
 21 22  2  0  0  0
 20 14  1  0  0  0
 14 15  2  0  0  0
 14 16  2  0  0  0
 14  1  1  0  0  0
  1  2  1  0  0  0
  2  3  1  0  0  0
  3  4  1  0  0  0
  4  5  1  0  0  0
  5  6  1  0  0  0
  4  7  1  0  0  0
  7  8  2  0  0  0
  8  9  1  0  0  0
  9 10  2  0  0  0
 10 11  1  0  0  0
 11 12  1  0  0  0
 11 13  2  0  0  0
 22 17  1  0  0  0
  6  1  1  0  0  0
 13  7  1  0  0  0
M  END
> <minimizedAffinity>
-4.56700

> <CNNscore>
0.5599004626

> <CNNaffinity>
6.6694040298

> <CNN_VS>
3.7342023849

> <CNNaffinity_variance>
0.1632058322

$$$$
[H]c1c([H])c(Cl)c([H])c(N2C([H])([H])C([H])([H])N(S(=O)(=O)c3c([H])c([H])c(OC([H])([H])[H])c([H])c3[H])C([H])([H])C2([H])[H])c1[H]


 24 26  0  0  0  0  0  0  0  0999 V2000
  -14.7302   -7.0201    4.2701 N   0  0  0  0  0  0  0  0  0  0  0  0
  -14.6692   -8.3349    4.8153 C   0  0  0  0  0  0  0  0  0  0  0  0
  -13.7977   -8.4395    6.0590 C   0  0  0  0  0  0  0  0  0  0  0  0
  -14.2340   -7.4449    7.0488 N   0  0  0  0  0  0  0  0  0  0  0  0
  -15.2480   -6.5562    6.5506 C   0  0  0  0  0  0  0  0  0  0  0  0
  -14.6815   -5.9627    5.2566 C   0  0  0  0  0  0  0  0  0  0  0  0
  -13.6624   -7.4382    8.3282 C   0  0  0  0  0  0  0  0  0  0  0  0
  -13.2233   -8.6450    8.8862 C   0  0  0  0  0  0  0  0  0  0  0  0
  -12.6566   -8.6685   10.1442 C   0  0  0  0  0  0  0  0  0  0  0  0
  -12.5203   -7.4952   10.8599 C   0  0  0  0  0  0  0  0  0  0  0  0
  -12.9510   -6.2823   10.3229 C   0  0  0  0  0  0  0  0  0  0  0  0
  -12.8021   -4.7749   11.1841 Cl  0  0  0  0  0  0  0  0  0  0  0  0
  -13.5160   -6.2805    9.0614 C   0  0  0  0  0  0  0  0  0  0  0  0
  -16.1730   -6.8135    3.3462 S   0  0  0  0  0  0  0  0  0  0  0  0
  -16.0248   -7.3950    1.9636 O   0  0  0  0  0  0  0  0  0  0  0  0
  -16.5114   -5.3532    3.1517 O   0  0  0  0  0  0  0  0  0  0  0  0
  -19.6809   -8.9359    5.3597 C   0  0  0  0  0  0  0  0  0  0  0  0
  -18.4676   -9.5651    5.1829 C   0  0  0  0  0  0  0  0  0  0  0  0
  -17.4172   -8.9117    4.5731 C   0  0  0  0  0  0  0  0  0  0  0  0
  -17.5207   -7.6149    4.1144 C   0  0  0  0  0  0  0  0  0  0  0  0
  -18.7382   -6.9973    4.2970 C   0  0  0  0  0  0  0  0  0  0  0  0
  -19.8040   -7.6413    4.9085 C   0  0  0  0  0  0  0  0  0  0  0  0
  -20.4825  -10.5089    7.0073 C   0  0  0  0  0  0  0  0  0  0  0  0
  -20.7455   -9.6043    5.9800 O   0  0  0  0  0  0  0  0  0  0  0  0
 23 24  1  0  0  0
 24 17  1  0  0  0
 17 18  2  0  0  0
 18 19  1  0  0  0
 19 20  2  0  0  0
 20 21  1  0  0  0
 21 22  2  0  0  0
 20 14  1  0  0  0
 14 15  2  0  0  0
 14 16  2  0  0  0
 14  1  1  0  0  0
  1  2  1  0  0  0
  2  3  1  0  0  0
  3  4  1  0  0  0
  4  5  1  0  0  0
  5  6  1  0  0  0
  4  7  1  0  0  0
  7  8  2  0  0  0
  8  9  1  0  0  0
  9 10  2  0  0  0
 10 11  1  0  0  0
 11 12  1  0  0  0
 11 13  2  0  0  0
 22 17  1  0  0  0
  6  1  1  0  0  0
 13  7  1  0  0  0
M  END
> <minimizedAffinity>
0.75951

> <CNNscore>
0.5122566223

> <CNNaffinity>
6.5216612816

> <CNN_VS>
3.3407642841

> <CNNaffinity_variance>
0.3312708139

$$$$
[H]c1c([H])c(Cl)c([H])c(N2C([H])([H])C([H])([H])N(S(=O)(=O)c3c([H])c([H])c(OC([H])([H])[H])c([H])c3[H])C([H])([H])C2([H])[H])c1[H]


 24 26  0  0  0  0  0  0  0  0999 V2000
  -15.9013   -6.1927    6.5346 N   0  0  0  0  0  0  0  0  0  0  0  0
  -14.5222   -5.9645    6.8096 C   0  0  0  0  0  0  0  0  0  0  0  0
  -14.1330   -6.2496    8.2535 C   0  0  0  0  0  0  0  0  0  0  0  0
  -14.5567   -7.6090    8.6164 N   0  0  0  0  0  0  0  0  0  0  0  0
  -15.3353   -8.2523    7.5936 C   0  0  0  0  0  0  0  0  0  0  0  0
  -16.4841   -7.2890    7.2778 C   0  0  0  0  0  0  0  0  0  0  0  0
  -14.1912   -8.1442    9.8589 C   0  0  0  0  0  0  0  0  0  0  0  0
  -12.8369   -8.3703   10.1332 C   0  0  0  0  0  0  0  0  0  0  0  0
  -12.4479   -8.8963   11.3482 C   0  0  0  0  0  0  0  0  0  0  0  0
  -13.3987   -9.2026   12.3019 C   0  0  0  0  0  0  0  0  0  0  0  0
  -14.7529   -8.9854   12.0493 C   0  0  0  0  0  0  0  0  0  0  0  0
  -15.9915   -9.3546   13.2179 Cl  0  0  0  0  0  0  0  0  0  0  0  0
  -15.1216   -8.4578   10.8260 C   0  0  0  0  0  0  0  0  0  0  0  0
  -16.1402   -6.5083    4.8550 S   0  0  0  0  0  0  0  0  0  0  0  0
  -17.4111   -7.2838    4.6198 O   0  0  0  0  0  0  0  0  0  0  0  0
  -15.0246   -7.3487    4.2769 O   0  0  0  0  0  0  0  0  0  0  0  0
  -16.4325   -2.5913    2.5235 C   0  0  0  0  0  0  0  0  0  0  0  0
  -15.8518   -2.6412    3.7723 C   0  0  0  0  0  0  0  0  0  0  0  0
  -15.7707   -3.8313    4.4647 C   0  0  0  0  0  0  0  0  0  0  0  0
  -16.2574   -5.0169    3.9548 C   0  0  0  0  0  0  0  0  0  0  0  0
  -16.8352   -4.9536    2.7061 C   0  0  0  0  0  0  0  0  0  0  0  0
  -16.9244   -3.7644    1.9974 C   0  0  0  0  0  0  0  0  0  0  0  0
  -15.3527   -0.8117    1.2995 C   0  0  0  0  0  0  0  0  0  0  0  0
  -16.5127   -1.3794    1.8239 O   0  0  0  0  0  0  0  0  0  0  0  0
 23 24  1  0  0  0
 24 17  1  0  0  0
 17 18  2  0  0  0
 18 19  1  0  0  0
 19 20  2  0  0  0
 20 21  1  0  0  0
 21 22  2  0  0  0
 20 14  1  0  0  0
 14 15  2  0  0  0
 14 16  2  0  0  0
 14  1  1  0  0  0
  1  2  1  0  0  0
  2  3  1  0  0  0
  3  4  1  0  0  0
  4  5  1  0  0  0
  5  6  1  0  0  0
  4  7  1  0  0  0
  7  8  2  0  0  0
  8  9  1  0  0  0
  9 10  2  0  0  0
 10 11  1  0  0  0
 11 12  1  0  0  0
 11 13  2  0  0  0
 22 17  1  0  0  0
  6  1  1  0  0  0
 13  7  1  0  0  0
M  END
> <minimizedAffinity>
22.75354

> <CNNscore>
0.4952660203

> <CNNaffinity>
6.1847119331

> <CNN_VS>
3.0630776882

> <CNNaffinity_variance>
1.2921155691

$$$$
[H]c1c([H])c(Cl)c([H])c(N2C([H])([H])C([H])([H])N(S(=O)(=O)c3c([H])c([H])c(OC([H])([H])[H])c([H])c3[H])C([H])([H])C2([H])[H])c1[H]


 24 26  0  0  0  0  0  0  0  0999 V2000
  -13.7557   -8.0356    8.1598 N   0  0  0  0  0  0  0  0  0  0  0  0
  -15.0880   -8.4743    8.4088 C   0  0  0  0  0  0  0  0  0  0  0  0
  -16.1292   -7.7881    7.5356 C   0  0  0  0  0  0  0  0  0  0  0  0
  -15.7516   -7.9255    6.1222 N   0  0  0  0  0  0  0  0  0  0  0  0
  -14.4602   -8.5290    5.9363 C   0  0  0  0  0  0  0  0  0  0  0  0
  -13.4875   -7.6974    6.7787 C   0  0  0  0  0  0  0  0  0  0  0  0
  -16.6272   -7.4839    5.1211 C   0  0  0  0  0  0  0  0  0  0  0  0
  -16.8096   -8.2711    3.9776 C   0  0  0  0  0  0  0  0  0  0  0  0
  -17.6656   -7.8612    2.9758 C   0  0  0  0  0  0  0  0  0  0  0  0
  -18.3481   -6.6669    3.0993 C   0  0  0  0  0  0  0  0  0  0  0  0
  -18.1810   -5.8676    4.2299 C   0  0  0  0  0  0  0  0  0  0  0  0
  -19.0180   -4.3532    4.4344 Cl  0  0  0  0  0  0  0  0  0  0  0  0
  -17.3190   -6.2963    5.2218 C   0  0  0  0  0  0  0  0  0  0  0  0
  -12.6204   -9.2445    8.6368 S   0  0  0  0  0  0  0  0  0  0  0  0
  -12.9425  -10.5756    8.0071 O   0  0  0  0  0  0  0  0  0  0  0  0
  -12.6378   -9.4736   10.1308 O   0  0  0  0  0  0  0  0  0  0  0  0
   -8.3880   -8.1229    7.3360 C   0  0  0  0  0  0  0  0  0  0  0  0
   -8.9295   -9.3532    7.0322 C   0  0  0  0  0  0  0  0  0  0  0  0
  -10.2089   -9.6781    7.4317 C   0  0  0  0  0  0  0  0  0  0  0  0
  -11.0039   -8.8050    8.1448 C   0  0  0  0  0  0  0  0  0  0  0  0
  -10.4512   -7.5789    8.4420 C   0  0  0  0  0  0  0  0  0  0  0  0
   -9.1658   -7.2375    8.0472 C   0  0  0  0  0  0  0  0  0  0  0  0
   -6.5160   -8.4746    5.8515 C   0  0  0  0  0  0  0  0  0  0  0  0
   -7.0871   -7.7975    6.9277 O   0  0  0  0  0  0  0  0  0  0  0  0
 23 24  1  0  0  0
 24 17  1  0  0  0
 17 18  2  0  0  0
 18 19  1  0  0  0
 19 20  2  0  0  0
 20 21  1  0  0  0
 21 22  2  0  0  0
 20 14  1  0  0  0
 14 15  2  0  0  0
 14 16  2  0  0  0
 14  1  1  0  0  0
  1  2  1  0  0  0
  2  3  1  0  0  0
  3  4  1  0  0  0
  4  5  1  0  0  0
  5  6  1  0  0  0
  4  7  1  0  0  0
  7  8  2  0  0  0
  8  9  1  0  0  0
  9 10  2  0  0  0
 10 11  1  0  0  0
 11 12  1  0  0  0
 11 13  2  0  0  0
 22 17  1  0  0  0
  6  1  1  0  0  0
 13  7  1  0  0  0
M  END
> <minimizedAffinity>
-7.39161

> <CNNscore>
0.4630730450

> <CNNaffinity>
6.5792131424

> <CNN_VS>
3.0466563702

> <CNNaffinity_variance>
0.0528503731

$$$$
[H]c1c([H])c(Cl)c([H])c(N2C([H])([H])C([H])([H])N(S(=O)(=O)c3c([H])c([H])c(OC([H])([H])[H])c([H])c3[H])C([H])([H])C2([H])[H])c1[H]


 24 26  0  0  0  0  0  0  0  0999 V2000
   -7.7365   -8.3772    6.8227 N   0  0  0  0  0  0  0  0  0  0  0  0
   -9.1144   -8.6471    6.5813 C   0  0  0  0  0  0  0  0  0  0  0  0
   -9.3496   -9.7816    5.5938 C   0  0  0  0  0  0  0  0  0  0  0  0
   -8.6162  -10.9760    6.0351 N   0  0  0  0  0  0  0  0  0  0  0  0
   -7.7729  -10.7350    7.1739 C   0  0  0  0  0  0  0  0  0  0  0  0
   -6.8851   -9.5468    6.7900 C   0  0  0  0  0  0  0  0  0  0  0  0
   -8.7843  -12.1883    5.3526 C   0  0  0  0  0  0  0  0  0  0  0  0
   -9.3152  -13.2888    6.0363 C   0  0  0  0  0  0  0  0  0  0  0  0
   -9.4919  -14.4950    5.3896 C   0  0  0  0  0  0  0  0  0  0  0  0
   -9.1435  -14.6203    4.0591 C   0  0  0  0  0  0  0  0  0  0  0  0
   -8.6130  -13.5368    3.3593 C   0  0  0  0  0  0  0  0  0  0  0  0
   -8.1576  -13.6423    1.6808 Cl  0  0  0  0  0  0  0  0  0  0  0  0
   -8.4440  -12.3375    4.0255 C   0  0  0  0  0  0  0  0  0  0  0  0
   -7.5279   -7.6158    8.3573 S   0  0  0  0  0  0  0  0  0  0  0  0
   -7.2462   -8.6295    9.4366 O   0  0  0  0  0  0  0  0  0  0  0  0
   -8.7730   -6.8772    8.7919 O   0  0  0  0  0  0  0  0  0  0  0  0
   -4.0236   -4.6890    8.2243 C   0  0  0  0  0  0  0  0  0  0  0  0
   -4.8345   -4.8876    7.1278 C   0  0  0  0  0  0  0  0  0  0  0  0
   -5.8890   -5.7747    7.1825 C   0  0  0  0  0  0  0  0  0  0  0  0
   -6.1858   -6.4998    8.3179 C   0  0  0  0  0  0  0  0  0  0  0  0
   -5.3681   -6.2923    9.4067 C   0  0  0  0  0  0  0  0  0  0  0  0
   -4.3037   -5.4035    9.3670 C   0  0  0  0  0  0  0  0  0  0  0  0
   -3.2035   -2.4419    7.8934 C   0  0  0  0  0  0  0  0  0  0  0  0
   -2.9531   -3.7862    8.1636 O   0  0  0  0  0  0  0  0  0  0  0  0
 23 24  1  0  0  0
 24 17  1  0  0  0
 17 18  2  0  0  0
 18 19  1  0  0  0
 19 20  2  0  0  0
 20 21  1  0  0  0
 21 22  2  0  0  0
 20 14  1  0  0  0
 14 15  2  0  0  0
 14 16  2  0  0  0
 14  1  1  0  0  0
  1  2  1  0  0  0
  2  3  1  0  0  0
  3  4  1  0  0  0
  4  5  1  0  0  0
  5  6  1  0  0  0
  4  7  1  0  0  0
  7  8  2  0  0  0
  8  9  1  0  0  0
  9 10  2  0  0  0
 10 11  1  0  0  0
 11 12  1  0  0  0
 11 13  2  0  0  0
 22 17  1  0  0  0
  6  1  1  0  0  0
 13  7  1  0  0  0
M  END
> <minimizedAffinity>
17.61385

> <CNNscore>
0.4535647333

> <CNNaffinity>
5.3361649513

> <CNN_VS>
2.4202961922

> <CNNaffinity_variance>
1.0184910297

$$$$
[H]c1c([H])c(C(=O)N([H])C2([H])C([H])([H])C([H])([H])N(S(=O)(=O)c3c([H])c([H])c(C(F)(F)F)c([H])c3[H])C([H])([H])C2([H])[H])c([H])c([H])c1Cl


 30 32  0  0  0  0  0  0  0  0999 V2000
  -12.2853   -8.6174    9.6943 N   0  0  0  0  0  0  0  0  0  0  0  0
  -12.5419   -9.6955    8.8281 C   0  0  0  0  0  0  0  0  0  0  0  0
  -13.6539   -9.3966    7.8236 C   0  0  0  0  0  0  0  0  0  0  0  0
  -14.8406   -8.8196    8.4441 C   0  0  0  0  0  0  0  0  0  0  0  0
  -14.6340   -7.9661    9.6854 C   0  0  0  0  0  0  0  0  0  0  0  0
  -13.4485   -8.3643   10.5027 C   0  0  0  0  0  0  0  0  0  0  0  0
  -15.5584   -7.9009    7.5324 N   0  0  0  0  0  0  0  0  0  0  0  0
  -15.0378   -7.5776    6.2603 C   0  0  0  0  0  0  0  0  0  0  0  0
  -13.9075   -8.0456    5.8640 O   0  0  0  0  0  0  0  0  0  0  0  0
  -16.4514   -7.4647    7.8223 H   0  0  0  0  0  0  0  0  0  0  0  0
  -15.7300   -6.7209    5.3305 C   0  0  0  0  0  0  0  0  0  0  0  0
  -16.9822   -7.0440    4.8711 C   0  0  0  0  0  0  0  0  0  0  0  0
  -17.6988   -6.2392    4.0108 C   0  0  0  0  0  0  0  0  0  0  0  0
  -17.1616   -5.0630    3.5840 C   0  0  0  0  0  0  0  0  0  0  0  0
  -18.0675   -4.0001    2.5196 Cl  0  0  0  0  0  0  0  0  0  0  0  0
  -15.9048   -4.7190    4.0322 C   0  0  0  0  0  0  0  0  0  0  0  0
  -15.1906   -5.5155    4.8852 C   0  0  0  0  0  0  0  0  0  0  0  0
  -11.4835   -7.2536    9.1297 S   0  0  0  0  0  0  0  0  0  0  0  0
  -12.4432   -6.5708    8.1301 O   0  0  0  0  0  0  0  0  0  0  0  0
  -11.1779   -6.1871   10.1291 O   0  0  0  0  0  0  0  0  0  0  0  0
   -7.7165   -8.0061    6.6939 C   0  0  0  0  0  0  0  0  0  0  0  0
   -8.1628   -6.7130    6.8884 C   0  0  0  0  0  0  0  0  0  0  0  0
   -9.3240   -6.5289    7.6426 C   0  0  0  0  0  0  0  0  0  0  0  0
  -10.0351   -7.5696    8.1930 C   0  0  0  0  0  0  0  0  0  0  0  0
   -9.5628   -8.8363    7.9790 C   0  0  0  0  0  0  0  0  0  0  0  0
   -8.4236   -9.0731    7.2474 C   0  0  0  0  0  0  0  0  0  0  0  0
   -5.9560   -7.0142    5.4519 F   0  0  0  0  0  0  0  0  0  0  0  0
   -6.4638   -8.1940    5.9175 C   0  0  0  0  0  0  0  0  0  0  0  0
   -6.6320   -9.0611    4.8518 F   0  0  0  0  0  0  0  0  0  0  0  0
   -5.4894   -8.7647    6.7479 F   0  0  0  0  0  0  0  0  0  0  0  0
 27 28  1  0  0  0
 28 29  1  0  0  0
 28 30  1  0  0  0
 28 21  1  0  0  0
 21 22  2  0  0  0
 22 23  1  0  0  0
 23 24  2  0  0  0
 24 25  1  0  0  0
 25 26  2  0  0  0
 24 18  1  0  0  0
 18 19  2  0  0  0
 18 20  2  0  0  0
 18  1  1  0  0  0
  1  2  1  0  0  0
  2  3  1  0  0  0
  3  4  1  0  0  0
  4  5  1  0  0  0
  5  6  1  0  0  0
  4  7  1  0  0  0
  7  8  1  0  0  0
  8  9  2  0  0  0
  8 11  1  0  0  0
 11 12  2  0  0  0
 12 13  1  0  0  0
 13 14  2  0  0  0
 14 15  1  0  0  0
 14 16  1  0  0  0
 16 17  2  0  0  0
 26 21  1  0  0  0
  6  1  1  0  0  0
 17 11  1  0  0  0
  7 10  1  0  0  0
M  END
> <minimizedAffinity>
-7.83151

> <CNNscore>
0.4538450539

> <CNNaffinity>
6.8150687218

> <CNN_VS>
3.0929851532

> <CNNaffinity_variance>
0.1376060098

$$$$
[H]c1c([H])c(C(=O)N([H])C2([H])C([H])([H])C([H])([H])N(S(=O)(=O)c3c([H])c([H])c(C(F)(F)F)c([H])c3[H])C([H])([H])C2([H])[H])c([H])c([H])c1Cl


 30 32  0  0  0  0  0  0  0  0999 V2000
   -1.1772   -3.5660    8.9824 N   0  0  0  0  0  0  0  0  0  0  0  0
   -1.0600   -4.8850    9.4565 C   0  0  0  0  0  0  0  0  0  0  0  0
   -2.1907   -5.2754   10.4073 C   0  0  0  0  0  0  0  0  0  0  0  0
   -2.4338   -4.2769   11.4418 C   0  0  0  0  0  0  0  0  0  0  0  0
   -2.1500   -2.8250   11.0906 C   0  0  0  0  0  0  0  0  0  0  0  0
   -1.0601   -2.6480   10.0842 C   0  0  0  0  0  0  0  0  0  0  0  0
   -3.8527   -4.2396   11.8613 N   0  0  0  0  0  0  0  0  0  0  0  0
   -4.3413   -5.1017   12.8672 C   0  0  0  0  0  0  0  0  0  0  0  0
   -3.5775   -5.9695   13.4302 O   0  0  0  0  0  0  0  0  0  0  0  0
   -4.5174   -3.5878   11.4084 H   0  0  0  0  0  0  0  0  0  0  0  0
   -5.7059   -5.0635   13.3300 C   0  0  0  0  0  0  0  0  0  0  0  0
   -6.1178   -4.1178   14.2353 C   0  0  0  0  0  0  0  0  0  0  0  0
   -7.4194   -4.0180   14.6792 C   0  0  0  0  0  0  0  0  0  0  0  0
   -8.3591   -4.8853   14.2112 C   0  0  0  0  0  0  0  0  0  0  0  0
  -10.0320   -4.7566   14.7294 Cl  0  0  0  0  0  0  0  0  0  0  0  0
   -7.9674   -5.8436   13.3019 C   0  0  0  0  0  0  0  0  0  0  0  0
   -6.6766   -5.9461   12.8598 C   0  0  0  0  0  0  0  0  0  0  0  0
   -2.3456   -3.1811    7.8385 S   0  0  0  0  0  0  0  0  0  0  0  0
   -3.2233   -2.0784    8.4712 O   0  0  0  0  0  0  0  0  0  0  0  0
   -1.8664   -2.5775    6.5596 O   0  0  0  0  0  0  0  0  0  0  0  0
   -5.2518   -6.5180    6.7854 C   0  0  0  0  0  0  0  0  0  0  0  0
   -4.4918   -5.9293    5.7930 C   0  0  0  0  0  0  0  0  0  0  0  0
   -3.6128   -4.9084    6.1619 C   0  0  0  0  0  0  0  0  0  0  0  0
   -3.4742   -4.4680    7.4575 C   0  0  0  0  0  0  0  0  0  0  0  0
   -4.2437   -5.0746    8.4132 C   0  0  0  0  0  0  0  0  0  0  0  0
   -5.1219   -6.0859    8.1050 C   0  0  0  0  0  0  0  0  0  0  0  0
   -7.2919   -7.6688    7.1592 F   0  0  0  0  0  0  0  0  0  0  0  0
   -6.1620   -7.6245    6.3924 C   0  0  0  0  0  0  0  0  0  0  0  0
   -5.5385   -8.8594    6.4414 F   0  0  0  0  0  0  0  0  0  0  0  0
   -6.5701   -7.4347    5.0649 F   0  0  0  0  0  0  0  0  0  0  0  0
 27 28  1  0  0  0
 28 29  1  0  0  0
 28 30  1  0  0  0
 28 21  1  0  0  0
 21 22  2  0  0  0
 22 23  1  0  0  0
 23 24  2  0  0  0
 24 25  1  0  0  0
 25 26  2  0  0  0
 24 18  1  0  0  0
 18 19  2  0  0  0
 18 20  2  0  0  0
 18  1  1  0  0  0
  1  2  1  0  0  0
  2  3  1  0  0  0
  3  4  1  0  0  0
  4  5  1  0  0  0
  5  6  1  0  0  0
  4  7  1  0  0  0
  7  8  1  0  0  0
  8  9  2  0  0  0
  8 11  1  0  0  0
 11 12  2  0  0  0
 12 13  1  0  0  0
 13 14  2  0  0  0
 14 15  1  0  0  0
 14 16  1  0  0  0
 16 17  2  0  0  0
 26 21  1  0  0  0
  6  1  1  0  0  0
 17 11  1  0  0  0
  7 10  1  0  0  0
M  END
> <minimizedAffinity>
-1.24915

> <CNNscore>
0.4357919097

> <CNNaffinity>
5.2433881760

> <CNN_VS>
2.2850260735

> <CNNaffinity_variance>
0.5134435892

$$$$
[H]c1c([H])c(C(=O)N([H])C2([H])C([H])([H])C([H])([H])N(S(=O)(=O)c3c([H])c([H])c(C(F)(F)F)c([H])c3[H])C([H])([H])C2([H])[H])c([H])c([H])c1Cl


 30 32  0  0  0  0  0  0  0  0999 V2000
   -2.3311   -5.9636    5.7596 N   0  0  0  0  0  0  0  0  0  0  0  0
   -2.7647   -7.2650    6.0707 C   0  0  0  0  0  0  0  0  0  0  0  0
   -3.0346   -7.4588    7.5622 C   0  0  0  0  0  0  0  0  0  0  0  0
   -1.9541   -6.9602    8.4050 C   0  0  0  0  0  0  0  0  0  0  0  0
   -1.1522   -5.7777    7.8847 C   0  0  0  0  0  0  0  0  0  0  0  0
   -1.0640   -5.7155    6.3946 C   0  0  0  0  0  0  0  0  0  0  0  0
   -2.4446   -6.4714    9.7130 N   0  0  0  0  0  0  0  0  0  0  0  0
   -1.9634   -5.2670   10.2714 C   0  0  0  0  0  0  0  0  0  0  0  0
   -1.0602   -4.5709    9.6772 O   0  0  0  0  0  0  0  0  0  0  0  0
   -3.1406   -7.0177   10.2505 H   0  0  0  0  0  0  0  0  0  0  0  0
   -2.4494   -4.7397   11.5218 C   0  0  0  0  0  0  0  0  0  0  0  0
   -2.2422   -3.4263   11.8619 C   0  0  0  0  0  0  0  0  0  0  0  0
   -2.7193   -2.8671   13.0286 C   0  0  0  0  0  0  0  0  0  0  0  0
   -3.4336   -3.6323   13.8994 C   0  0  0  0  0  0  0  0  0  0  0  0
   -4.0865   -2.9366   15.3737 Cl  0  0  0  0  0  0  0  0  0  0  0  0
   -3.6530   -4.9543   13.5783 C   0  0  0  0  0  0  0  0  0  0  0  0
   -3.1805   -5.5127   12.4220 C   0  0  0  0  0  0  0  0  0  0  0  0
   -3.4183   -4.6833    5.7850 S   0  0  0  0  0  0  0  0  0  0  0  0
   -4.7887   -5.2717    5.3823 O   0  0  0  0  0  0  0  0  0  0  0  0
   -3.6722   -4.0384    7.1076 O   0  0  0  0  0  0  0  0  0  0  0  0
   -2.5970   -1.3971    2.7492 C   0  0  0  0  0  0  0  0  0  0  0  0
   -1.8452   -1.4679    3.9063 C   0  0  0  0  0  0  0  0  0  0  0  0
   -2.1322   -2.4932    4.8104 C   0  0  0  0  0  0  0  0  0  0  0  0
   -3.1221   -3.4247    4.6004 C   0  0  0  0  0  0  0  0  0  0  0  0
   -3.8460   -3.3226    3.4433 C   0  0  0  0  0  0  0  0  0  0  0  0
   -3.6027   -2.3353    2.5186 C   0  0  0  0  0  0  0  0  0  0  0  0
   -3.2454   -0.1485    0.8396 F   0  0  0  0  0  0  0  0  0  0  0  0
   -2.2666   -0.3236    1.7766 C   0  0  0  0  0  0  0  0  0  0  0  0
   -1.0639   -0.5525    1.1309 F   0  0  0  0  0  0  0  0  0  0  0  0
   -2.1280    0.8912    2.4620 F   0  0  0  0  0  0  0  0  0  0  0  0
 27 28  1  0  0  0
 28 29  1  0  0  0
 28 30  1  0  0  0
 28 21  1  0  0  0
 21 22  2  0  0  0
 22 23  1  0  0  0
 23 24  2  0  0  0
 24 25  1  0  0  0
 25 26  2  0  0  0
 24 18  1  0  0  0
 18 19  2  0  0  0
 18 20  2  0  0  0
 18  1  1  0  0  0
  1  2  1  0  0  0
  2  3  1  0  0  0
  3  4  1  0  0  0
  4  5  1  0  0  0
  5  6  1  0  0  0
  4  7  1  0  0  0
  7  8  1  0  0  0
  8  9  2  0  0  0
  8 11  1  0  0  0
 11 12  2  0  0  0
 12 13  1  0  0  0
 13 14  2  0  0  0
 14 15  1  0  0  0
 14 16  1  0  0  0
 16 17  2  0  0  0
 26 21  1  0  0  0
  6  1  1  0  0  0
 17 11  1  0  0  0
  7 10  1  0  0  0
M  END
> <minimizedAffinity>
-2.88542

> <CNNscore>
0.4099291563

> <CNNaffinity>
5.1690340042

> <CNN_VS>
2.1189377308

> <CNNaffinity_variance>
0.8839470148

$$$$
[H]c1c([H])c(C(=O)N([H])C2([H])C([H])([H])C([H])([H])N(S(=O)(=O)c3c([H])c([H])c(C(F)(F)F)c([H])c3[H])C([H])([H])C2([H])[H])c([H])c([H])c1Cl


 30 32  0  0  0  0  0  0  0  0999 V2000
  -12.0663   -4.8857   11.1708 N   0  0  0  0  0  0  0  0  0  0  0  0
  -11.6023   -4.2097   10.0280 C   0  0  0  0  0  0  0  0  0  0  0  0
  -10.9418   -5.1434    9.0147 C   0  0  0  0  0  0  0  0  0  0  0  0
   -9.9718   -6.0469    9.6223 C   0  0  0  0  0  0  0  0  0  0  0  0
  -10.2222   -6.4754   11.0595 C   0  0  0  0  0  0  0  0  0  0  0  0
  -10.9501   -5.4578   11.8759 C   0  0  0  0  0  0  0  0  0  0  0  0
   -9.8863   -7.3397    8.9067 N   0  0  0  0  0  0  0  0  0  0  0  0
   -9.2092   -7.4496    7.6726 C   0  0  0  0  0  0  0  0  0  0  0  0
   -8.6713   -6.4241    7.1137 O   0  0  0  0  0  0  0  0  0  0  0  0
  -10.3396   -8.1857    9.2947 H   0  0  0  0  0  0  0  0  0  0  0  0
   -9.0699   -8.7003    6.9696 C   0  0  0  0  0  0  0  0  0  0  0  0
  -10.0097   -9.6918    7.1006 C   0  0  0  0  0  0  0  0  0  0  0  0
   -9.9395  -10.8894    6.4208 C   0  0  0  0  0  0  0  0  0  0  0  0
   -8.9000  -11.1226    5.5726 C   0  0  0  0  0  0  0  0  0  0  0  0
   -8.8059  -12.6226    4.6644 Cl  0  0  0  0  0  0  0  0  0  0  0  0
   -7.9443  -10.1408    5.4263 C   0  0  0  0  0  0  0  0  0  0  0  0
   -8.0103   -8.9517    6.0999 C   0  0  0  0  0  0  0  0  0  0  0  0
  -13.4392   -5.8495   11.0818 S   0  0  0  0  0  0  0  0  0  0  0  0
  -13.3203   -6.8781   12.2283 O   0  0  0  0  0  0  0  0  0  0  0  0
  -14.7516   -5.1806   11.3261 O   0  0  0  0  0  0  0  0  0  0  0  0
  -13.7698   -8.4436    7.3600 C   0  0  0  0  0  0  0  0  0  0  0  0
  -13.2533   -8.9759    8.5257 C   0  0  0  0  0  0  0  0  0  0  0  0
  -13.1700   -8.1431    9.6439 C   0  0  0  0  0  0  0  0  0  0  0  0
  -13.5752   -6.8287    9.6334 C   0  0  0  0  0  0  0  0  0  0  0  0
  -14.0813   -6.3363    8.4609 C   0  0  0  0  0  0  0  0  0  0  0  0
  -14.1882   -7.1135    7.3324 C   0  0  0  0  0  0  0  0  0  0  0  0
  -14.9210   -8.9975    5.3616 F   0  0  0  0  0  0  0  0  0  0  0  0
  -13.8851   -9.3426    6.1828 C   0  0  0  0  0  0  0  0  0  0  0  0
  -14.0261  -10.6702    6.5483 F   0  0  0  0  0  0  0  0  0  0  0  0
  -12.7098   -9.2592    5.4237 F   0  0  0  0  0  0  0  0  0  0  0  0
 27 28  1  0  0  0
 28 29  1  0  0  0
 28 30  1  0  0  0
 28 21  1  0  0  0
 21 22  2  0  0  0
 22 23  1  0  0  0
 23 24  2  0  0  0
 24 25  1  0  0  0
 25 26  2  0  0  0
 24 18  1  0  0  0
 18 19  2  0  0  0
 18 20  2  0  0  0
 18  1  1  0  0  0
  1  2  1  0  0  0
  2  3  1  0  0  0
  3  4  1  0  0  0
  4  5  1  0  0  0
  5  6  1  0  0  0
  4  7  1  0  0  0
  7  8  1  0  0  0
  8  9  2  0  0  0
  8 11  1  0  0  0
 11 12  2  0  0  0
 12 13  1  0  0  0
 13 14  2  0  0  0
 14 15  1  0  0  0
 14 16  1  0  0  0
 16 17  2  0  0  0
 26 21  1  0  0  0
  6  1  1  0  0  0
 17 11  1  0  0  0
  7 10  1  0  0  0
M  END
> <minimizedAffinity>
11.22677

> <CNNscore>
0.3862008750

> <CNNaffinity>
5.9209451675

> <CNN_VS>
2.2866742611

> <CNNaffinity_variance>
0.6914242506

$$$$
[H]c1c([H])c(C(=O)N([H])C2([H])C([H])([H])C([H])([H])N(S(=O)(=O)c3c([H])c([H])c(C(F)(F)F)c([H])c3[H])C([H])([H])C2([H])[H])c([H])c([H])c1Cl


 30 32  0  0  0  0  0  0  0  0999 V2000
  -11.4932   -9.5299    8.0652 N   0  0  0  0  0  0  0  0  0  0  0  0
  -11.6773  -10.0796    6.7837 C   0  0  0  0  0  0  0  0  0  0  0  0
  -12.9107   -9.5245    6.0726 C   0  0  0  0  0  0  0  0  0  0  0  0
  -14.1020   -9.5297    6.9134 C   0  0  0  0  0  0  0  0  0  0  0  0
  -13.9000   -9.3628    8.4111 C   0  0  0  0  0  0  0  0  0  0  0  0
  -12.5981   -9.9002    8.9093 C   0  0  0  0  0  0  0  0  0  0  0  0
  -15.0249   -8.4208    6.5832 N   0  0  0  0  0  0  0  0  0  0  0  0
  -15.6199   -8.3193    5.3067 C   0  0  0  0  0  0  0  0  0  0  0  0
  -15.3555   -9.1690    4.3785 O   0  0  0  0  0  0  0  0  0  0  0  0
  -15.2367   -7.6877    7.2829 H   0  0  0  0  0  0  0  0  0  0  0  0
  -16.5555   -7.2775    4.9644 C   0  0  0  0  0  0  0  0  0  0  0  0
  -17.7512   -7.5738    4.3594 C   0  0  0  0  0  0  0  0  0  0  0  0
  -18.6935   -6.6169    4.0466 C   0  0  0  0  0  0  0  0  0  0  0  0
  -18.4507   -5.3102    4.3431 C   0  0  0  0  0  0  0  0  0  0  0  0
  -19.6492   -4.0758    3.9916 Cl  0  0  0  0  0  0  0  0  0  0  0  0
  -17.2559   -4.9899    4.9501 C   0  0  0  0  0  0  0  0  0  0  0  0
  -16.3183   -5.9366    5.2612 C   0  0  0  0  0  0  0  0  0  0  0  0
  -10.9478   -7.9502    8.2354 S   0  0  0  0  0  0  0  0  0  0  0  0
  -11.7251   -7.1103    7.1977 O   0  0  0  0  0  0  0  0  0  0  0  0
  -11.2294   -7.2745    9.5369 O   0  0  0  0  0  0  0  0  0  0  0  0
   -6.5615   -7.3423    7.1960 C   0  0  0  0  0  0  0  0  0  0  0  0
   -6.9764   -8.5348    7.7570 C   0  0  0  0  0  0  0  0  0  0  0  0
   -8.3323   -8.6776    8.0603 C   0  0  0  0  0  0  0  0  0  0  0  0
   -9.2621   -7.6911    7.8276 C   0  0  0  0  0  0  0  0  0  0  0  0
   -8.8140   -6.5237    7.2711 C   0  0  0  0  0  0  0  0  0  0  0  0
   -7.4913   -6.3323    6.9505 C   0  0  0  0  0  0  0  0  0  0  0  0
   -4.5840   -8.3790    6.3955 F   0  0  0  0  0  0  0  0  0  0  0  0
   -5.1237   -7.2077    6.8466 C   0  0  0  0  0  0  0  0  0  0  0  0
   -4.3665   -6.7452    7.9090 F   0  0  0  0  0  0  0  0  0  0  0  0
   -4.9868   -6.2657    5.8177 F   0  0  0  0  0  0  0  0  0  0  0  0
 27 28  1  0  0  0
 28 29  1  0  0  0
 28 30  1  0  0  0
 28 21  1  0  0  0
 21 22  2  0  0  0
 22 23  1  0  0  0
 23 24  2  0  0  0
 24 25  1  0  0  0
 25 26  2  0  0  0
 24 18  1  0  0  0
 18 19  2  0  0  0
 18 20  2  0  0  0
 18  1  1  0  0  0
  1  2  1  0  0  0
  2  3  1  0  0  0
  3  4  1  0  0  0
  4  5  1  0  0  0
  5  6  1  0  0  0
  4  7  1  0  0  0
  7  8  1  0  0  0
  8  9  2  0  0  0
  8 11  1  0  0  0
 11 12  2  0  0  0
 12 13  1  0  0  0
 13 14  2  0  0  0
 14 15  1  0  0  0
 14 16  1  0  0  0
 16 17  2  0  0  0
 26 21  1  0  0  0
  6  1  1  0  0  0
 17 11  1  0  0  0
  7 10  1  0  0  0
M  END
> <minimizedAffinity>
-8.07786

> <CNNscore>
0.3240377307

> <CNNaffinity>
6.6287865639

> <CNN_VS>
2.1479768753

> <CNNaffinity_variance>
0.0894348398

$$$$
[H]c1c([H])c(C(=O)N([H])C2([H])C([H])([H])C([H])([H])N(S(=O)(=O)c3c([H])c([H])c(C(F)(F)F)c([H])c3[H])C([H])([H])C2([H])[H])c([H])c([H])c1Cl


 30 32  0  0  0  0  0  0  0  0999 V2000
   -8.0717   -7.9661    8.2831 N   0  0  0  0  0  0  0  0  0  0  0  0
   -8.1438   -9.2779    7.7807 C   0  0  0  0  0  0  0  0  0  0  0  0
   -9.4180   -9.5352    6.9773 C   0  0  0  0  0  0  0  0  0  0  0  0
  -10.6227   -9.0786    7.6604 C   0  0  0  0  0  0  0  0  0  0  0  0
  -10.4887   -7.8783    8.5840 C   0  0  0  0  0  0  0  0  0  0  0  0
   -9.1427   -7.7516    9.2198 C   0  0  0  0  0  0  0  0  0  0  0  0
  -11.6733   -8.6451    6.7124 N   0  0  0  0  0  0  0  0  0  0  0  0
  -12.9121   -8.1462    7.1710 C   0  0  0  0  0  0  0  0  0  0  0  0
  -13.1810   -8.0815    8.4267 O   0  0  0  0  0  0  0  0  0  0  0  0
  -11.5213   -8.7172    5.6909 H   0  0  0  0  0  0  0  0  0  0  0  0
  -13.9408   -7.6758    6.2776 C   0  0  0  0  0  0  0  0  0  0  0  0
  -14.5985   -8.5418    5.4403 C   0  0  0  0  0  0  0  0  0  0  0  0
  -15.6139   -8.1461    4.5954 C   0  0  0  0  0  0  0  0  0  0  0  0
  -16.0018   -6.8410    4.5736 C   0  0  0  0  0  0  0  0  0  0  0  0
  -17.3181   -6.3165    3.5363 Cl  0  0  0  0  0  0  0  0  0  0  0  0
  -15.3544   -5.9538    5.4057 C   0  0  0  0  0  0  0  0  0  0  0  0
  -14.3460   -6.3427    6.2447 C   0  0  0  0  0  0  0  0  0  0  0  0
   -7.7442   -6.6833    7.2493 S   0  0  0  0  0  0  0  0  0  0  0  0
   -8.1164   -7.1661    5.8299 O   0  0  0  0  0  0  0  0  0  0  0  0
   -8.5520   -5.4415    7.4362 O   0  0  0  0  0  0  0  0  0  0  0  0
   -3.3462   -5.5771    6.8971 C   0  0  0  0  0  0  0  0  0  0  0  0
   -3.7713   -6.8357    6.5175 C   0  0  0  0  0  0  0  0  0  0  0  0
   -5.1305   -7.1320    6.6431 C   0  0  0  0  0  0  0  0  0  0  0  0
   -6.0538   -6.2336    7.1247 C   0  0  0  0  0  0  0  0  0  0  0  0
   -5.5957   -4.9969    7.4910 C   0  0  0  0  0  0  0  0  0  0  0  0
   -4.2694   -4.6525    7.3849 C   0  0  0  0  0  0  0  0  0  0  0  0
   -1.6039   -4.8410    5.4658 F   0  0  0  0  0  0  0  0  0  0  0  0
   -1.9048   -5.2568    6.7320 C   0  0  0  0  0  0  0  0  0  0  0  0
   -1.0890   -6.3263    7.0583 F   0  0  0  0  0  0  0  0  0  0  0  0
   -1.5632   -4.2127    7.6025 F   0  0  0  0  0  0  0  0  0  0  0  0
 27 28  1  0  0  0
 28 29  1  0  0  0
 28 30  1  0  0  0
 28 21  1  0  0  0
 21 22  2  0  0  0
 22 23  1  0  0  0
 23 24  2  0  0  0
 24 25  1  0  0  0
 25 26  2  0  0  0
 24 18  1  0  0  0
 18 19  2  0  0  0
 18 20  2  0  0  0
 18  1  1  0  0  0
  1  2  1  0  0  0
  2  3  1  0  0  0
  3  4  1  0  0  0
  4  5  1  0  0  0
  5  6  1  0  0  0
  4  7  1  0  0  0
  7  8  1  0  0  0
  8  9  2  0  0  0
  8 11  1  0  0  0
 11 12  2  0  0  0
 12 13  1  0  0  0
 13 14  2  0  0  0
 14 15  1  0  0  0
 14 16  1  0  0  0
 16 17  2  0  0  0
 26 21  1  0  0  0
  6  1  1  0  0  0
 17 11  1  0  0  0
  7 10  1  0  0  0
M  END
> <minimizedAffinity>
-3.58032

> <CNNscore>
0.2873543799

> <CNNaffinity>
6.4210624695

> <CNN_VS>
1.8451204300

> <CNNaffinity_variance>
0.4452988505

$$$$
[H]c1c([H])c(C(=O)N([H])C2([H])C([H])([H])C([H])([H])N(S(=O)(=O)c3c([H])c([H])c(C(F)(F)F)c([H])c3[H])C([H])([H])C2([H])[H])c([H])c([H])c1Cl


 30 32  0  0  0  0  0  0  0  0999 V2000
  -14.1783   -7.4217    9.6740 N   0  0  0  0  0  0  0  0  0  0  0  0
  -13.9534   -6.0397    9.5397 C   0  0  0  0  0  0  0  0  0  0  0  0
  -12.4770   -5.6958    9.3473 C   0  0  0  0  0  0  0  0  0  0  0  0
  -11.6078   -6.3625   10.3097 C   0  0  0  0  0  0  0  0  0  0  0  0
  -12.0512   -7.7225   10.8252 C   0  0  0  0  0  0  0  0  0  0  0  0
  -13.5341   -7.8986   10.8690 C   0  0  0  0  0  0  0  0  0  0  0  0
  -10.2675   -6.6470    9.7501 N   0  0  0  0  0  0  0  0  0  0  0  0
  -10.0856   -6.8818    8.3697 C   0  0  0  0  0  0  0  0  0  0  0  0
  -11.0824   -6.8875    7.5574 O   0  0  0  0  0  0  0  0  0  0  0  0
   -9.4392   -6.6953   10.3693 H   0  0  0  0  0  0  0  0  0  0  0  0
   -8.7899   -7.1197    7.7845 C   0  0  0  0  0  0  0  0  0  0  0  0
   -7.9456   -8.0698    8.3021 C   0  0  0  0  0  0  0  0  0  0  0  0
   -6.7132   -8.3591    7.7554 C   0  0  0  0  0  0  0  0  0  0  0  0
   -6.2922   -7.6857    6.6492 C   0  0  0  0  0  0  0  0  0  0  0  0
   -4.7446   -8.0607    5.9090 Cl  0  0  0  0  0  0  0  0  0  0  0  0
   -7.1239   -6.7267    6.1131 C   0  0  0  0  0  0  0  0  0  0  0  0
   -8.3469   -6.4366    6.6534 C   0  0  0  0  0  0  0  0  0  0  0  0
  -14.0616   -8.4296    8.3353 S   0  0  0  0  0  0  0  0  0  0  0  0
  -12.6405   -8.2272    7.7643 O   0  0  0  0  0  0  0  0  0  0  0  0
  -14.1486   -9.8990    8.5860 O   0  0  0  0  0  0  0  0  0  0  0  0
  -16.7802   -7.4230    4.8301 C   0  0  0  0  0  0  0  0  0  0  0  0
  -15.5772   -8.0643    4.6054 C   0  0  0  0  0  0  0  0  0  0  0  0
  -14.7741   -8.3536    5.7110 C   0  0  0  0  0  0  0  0  0  0  0  0
  -15.1261   -8.0293    7.0005 C   0  0  0  0  0  0  0  0  0  0  0  0
  -16.3247   -7.3944    7.1841 C   0  0  0  0  0  0  0  0  0  0  0  0
  -17.1542   -7.0894    6.1316 C   0  0  0  0  0  0  0  0  0  0  0  0
  -18.9585   -6.9935    3.9957 F   0  0  0  0  0  0  0  0  0  0  0  0
  -17.6445   -7.1459    3.6539 C   0  0  0  0  0  0  0  0  0  0  0  0
  -17.5446   -8.1302    2.6858 F   0  0  0  0  0  0  0  0  0  0  0  0
  -17.2320   -5.9492    3.0519 F   0  0  0  0  0  0  0  0  0  0  0  0
 27 28  1  0  0  0
 28 29  1  0  0  0
 28 30  1  0  0  0
 28 21  1  0  0  0
 21 22  2  0  0  0
 22 23  1  0  0  0
 23 24  2  0  0  0
 24 25  1  0  0  0
 25 26  2  0  0  0
 24 18  1  0  0  0
 18 19  2  0  0  0
 18 20  2  0  0  0
 18  1  1  0  0  0
  1  2  1  0  0  0
  2  3  1  0  0  0
  3  4  1  0  0  0
  4  5  1  0  0  0
  5  6  1  0  0  0
  4  7  1  0  0  0
  7  8  1  0  0  0
  8  9  2  0  0  0
  8 11  1  0  0  0
 11 12  2  0  0  0
 12 13  1  0  0  0
 13 14  2  0  0  0
 14 15  1  0  0  0
 14 16  1  0  0  0
 16 17  2  0  0  0
 26 21  1  0  0  0
  6  1  1  0  0  0
 17 11  1  0  0  0
  7 10  1  0  0  0
M  END
> <minimizedAffinity>
-6.00368

> <CNNscore>
0.2628909349

> <CNNaffinity>
6.7537055016

> <CNN_VS>
1.7754878998

> <CNNaffinity_variance>
0.0929143801

$$$$
[H]c1c([H])c(C(=O)N([H])C2([H])C([H])([H])C([H])([H])N(S(=O)(=O)c3c([H])c([H])c(C(F)(F)F)c([H])c3[H])C([H])([H])C2([H])[H])c([H])c([H])c1Cl


 30 32  0  0  0  0  0  0  0  0999 V2000
  -12.2636   -7.9844    8.3306 N   0  0  0  0  0  0  0  0  0  0  0  0
  -12.2131   -9.3082    8.8032 C   0  0  0  0  0  0  0  0  0  0  0  0
  -10.8279   -9.9367    8.6578 C   0  0  0  0  0  0  0  0  0  0  0  0
  -10.2514   -9.7418    7.3327 C   0  0  0  0  0  0  0  0  0  0  0  0
  -10.6382   -8.4771    6.5825 C   0  0  0  0  0  0  0  0  0  0  0  0
  -12.0035   -7.9701    6.9154 C   0  0  0  0  0  0  0  0  0  0  0  0
   -8.7742   -9.6591    7.3716 N   0  0  0  0  0  0  0  0  0  0  0  0
   -8.0510   -9.0019    6.3523 C   0  0  0  0  0  0  0  0  0  0  0  0
   -8.6492   -8.4808    5.3404 O   0  0  0  0  0  0  0  0  0  0  0  0
   -8.2436  -10.0997    8.1436 H   0  0  0  0  0  0  0  0  0  0  0  0
   -6.6163   -8.8655    6.3797 C   0  0  0  0  0  0  0  0  0  0  0  0
   -5.8570   -9.5743    7.2767 C   0  0  0  0  0  0  0  0  0  0  0  0
   -4.4805   -9.5055    7.3169 C   0  0  0  0  0  0  0  0  0  0  0  0
   -3.8199   -8.7057    6.4347 C   0  0  0  0  0  0  0  0  0  0  0  0
   -2.0656   -8.6288    6.4374 Cl  0  0  0  0  0  0  0  0  0  0  0  0
   -4.5626   -7.9843    5.5254 C   0  0  0  0  0  0  0  0  0  0  0  0
   -5.9286   -8.0495    5.4833 C   0  0  0  0  0  0  0  0  0  0  0  0
  -11.5491   -6.7459    9.2121 S   0  0  0  0  0  0  0  0  0  0  0  0
  -12.1792   -5.4316    8.7000 O   0  0  0  0  0  0  0  0  0  0  0  0
  -11.8081   -6.7263   10.6825 O   0  0  0  0  0  0  0  0  0  0  0  0
   -7.0739   -6.2277    8.5844 C   0  0  0  0  0  0  0  0  0  0  0  0
   -7.5424   -6.8107    9.7460 C   0  0  0  0  0  0  0  0  0  0  0  0
   -8.9241   -6.9495    9.8965 C   0  0  0  0  0  0  0  0  0  0  0  0
   -9.8286   -6.5334    8.9476 C   0  0  0  0  0  0  0  0  0  0  0  0
   -9.3275   -5.9603    7.8101 C   0  0  0  0  0  0  0  0  0  0  0  0
   -7.9768   -5.8027    7.6102 C   0  0  0  0  0  0  0  0  0  0  0  0
   -5.2519   -5.6853    7.1659 F   0  0  0  0  0  0  0  0  0  0  0  0
   -5.6023   -6.1112    8.4159 C   0  0  0  0  0  0  0  0  0  0  0  0
   -4.9477   -7.3010    8.6839 F   0  0  0  0  0  0  0  0  0  0  0  0
   -5.1083   -5.1683    9.3278 F   0  0  0  0  0  0  0  0  0  0  0  0
 27 28  1  0  0  0
 28 29  1  0  0  0
 28 30  1  0  0  0
 28 21  1  0  0  0
 21 22  2  0  0  0
 22 23  1  0  0  0
 23 24  2  0  0  0
 24 25  1  0  0  0
 25 26  2  0  0  0
 24 18  1  0  0  0
 18 19  2  0  0  0
 18 20  2  0  0  0
 18  1  1  0  0  0
  1  2  1  0  0  0
  2  3  1  0  0  0
  3  4  1  0  0  0
  4  5  1  0  0  0
  5  6  1  0  0  0
  4  7  1  0  0  0
  7  8  1  0  0  0
  8  9  2  0  0  0
  8 11  1  0  0  0
 11 12  2  0  0  0
 12 13  1  0  0  0
 13 14  2  0  0  0
 14 15  1  0  0  0
 14 16  1  0  0  0
 16 17  2  0  0  0
 26 21  1  0  0  0
  6  1  1  0  0  0
 17 11  1  0  0  0
  7 10  1  0  0  0
M  END
> <minimizedAffinity>
11.31283

> <CNNscore>
0.2437916845

> <CNNaffinity>
5.7338438034

> <CNN_VS>
1.3978633881

> <CNNaffinity_variance>
0.9470010996

$$$$
[H]c1c([H])c(C(=O)N([H])C2([H])C([H])([H])C([H])([H])N(S(=O)(=O)c3c([H])c([H])c(C(F)(F)F)c([H])c3[H])C([H])([H])C2([H])[H])c([H])c([H])c1Cl


 30 32  0  0  0  0  0  0  0  0999 V2000
   -5.5292   -7.5218    7.6189 N   0  0  0  0  0  0  0  0  0  0  0  0
   -5.2591   -6.2087    8.0444 C   0  0  0  0  0  0  0  0  0  0  0  0
   -4.5718   -5.3674    6.9698 C   0  0  0  0  0  0  0  0  0  0  0  0
   -3.4424   -6.0499    6.3495 C   0  0  0  0  0  0  0  0  0  0  0  0
   -3.5086   -7.5661    6.2568 C   0  0  0  0  0  0  0  0  0  0  0  0
   -4.2905   -8.2058    7.3574 C   0  0  0  0  0  0  0  0  0  0  0  0
   -3.2499   -5.6451    4.9390 N   0  0  0  0  0  0  0  0  0  0  0  0
   -2.3098   -4.6531    4.5841 C   0  0  0  0  0  0  0  0  0  0  0  0
   -1.6120   -4.0459    5.4774 O   0  0  0  0  0  0  0  0  0  0  0  0
   -3.8177   -6.0742    4.1871 H   0  0  0  0  0  0  0  0  0  0  0  0
   -2.0661   -4.2646    3.2175 C   0  0  0  0  0  0  0  0  0  0  0  0
   -1.4459   -5.1192    2.3409 C   0  0  0  0  0  0  0  0  0  0  0  0
   -1.2242   -4.8075    1.0161 C   0  0  0  0  0  0  0  0  0  0  0  0
   -1.6319   -3.6025    0.5303 C   0  0  0  0  0  0  0  0  0  0  0  0
   -1.3977   -3.1946   -1.1616 Cl  0  0  0  0  0  0  0  0  0  0  0  0
   -2.2563   -2.7284    1.3934 C   0  0  0  0  0  0  0  0  0  0  0  0
   -2.4771   -3.0340    2.7086 C   0  0  0  0  0  0  0  0  0  0  0  0
   -6.7659   -7.8154    6.5206 S   0  0  0  0  0  0  0  0  0  0  0  0
   -6.8556   -6.5600    5.6249 O   0  0  0  0  0  0  0  0  0  0  0  0
   -6.5617   -8.9377    5.5570 O   0  0  0  0  0  0  0  0  0  0  0  0
  -10.9221   -8.1378    8.3404 C   0  0  0  0  0  0  0  0  0  0  0  0
  -10.2690   -6.9203    8.3288 C   0  0  0  0  0  0  0  0  0  0  0  0
   -8.9943   -6.8678    7.7601 C   0  0  0  0  0  0  0  0  0  0  0  0
   -8.3678   -7.9657    7.2179 C   0  0  0  0  0  0  0  0  0  0  0  0
   -9.0454   -9.1545    7.2477 C   0  0  0  0  0  0  0  0  0  0  0  0
  -10.3029   -9.2608    7.7922 C   0  0  0  0  0  0  0  0  0  0  0  0
  -12.6866   -9.4517    9.2269 F   0  0  0  0  0  0  0  0  0  0  0  0
  -12.2902   -8.1812    8.9181 C   0  0  0  0  0  0  0  0  0  0  0  0
  -13.2320   -7.6091    8.0805 F   0  0  0  0  0  0  0  0  0  0  0  0
  -12.3105   -7.4408   10.1081 F   0  0  0  0  0  0  0  0  0  0  0  0
 27 28  1  0  0  0
 28 29  1  0  0  0
 28 30  1  0  0  0
 28 21  1  0  0  0
 21 22  2  0  0  0
 22 23  1  0  0  0
 23 24  2  0  0  0
 24 25  1  0  0  0
 25 26  2  0  0  0
 24 18  1  0  0  0
 18 19  2  0  0  0
 18 20  2  0  0  0
 18  1  1  0  0  0
  1  2  1  0  0  0
  2  3  1  0  0  0
  3  4  1  0  0  0
  4  5  1  0  0  0
  5  6  1  0  0  0
  4  7  1  0  0  0
  7  8  1  0  0  0
  8  9  2  0  0  0
  8 11  1  0  0  0
 11 12  2  0  0  0
 12 13  1  0  0  0
 13 14  2  0  0  0
 14 15  1  0  0  0
 14 16  1  0  0  0
 16 17  2  0  0  0
 26 21  1  0  0  0
  6  1  1  0  0  0
 17 11  1  0  0  0
  7 10  1  0  0  0
M  END
> <minimizedAffinity>
-7.51864

> <CNNscore>
0.2326704264

> <CNNaffinity>
5.4637589455

> <CNN_VS>
1.2712551355

> <CNNaffinity_variance>
0.1375803351

$$$$
[H]c1c([H])c([H])c(C2([H])C([H])([H])C([H])([H])N(C3([H])C([H])([H])C([H])([H])N(S(=O)(=O)c4c([H])c([H])c(C(F)(F)F)c([H])c4[H])C([H])([H])C3([H])[H])C([H])([H])C2([H])[H])c([H])c1[H]


 31 34  0  0  0  0  0  0  0  0999 V2000
  -11.5931   -7.9412    9.7187 N   0  0  0  0  0  0  0  0  0  0  0  0
  -11.3245   -9.0195    8.8303 C   0  0  0  0  0  0  0  0  0  0  0  0
  -12.4060   -9.1864    7.7727 C   0  0  0  0  0  0  0  0  0  0  0  0
  -13.7028   -9.3264    8.4613 C   0  0  0  0  0  0  0  0  0  0  0  0
  -13.9738   -8.3237    9.5605 C   0  0  0  0  0  0  0  0  0  0  0  0
  -12.8187   -7.9081   10.3815 C   0  0  0  0  0  0  0  0  0  0  0  0
  -14.8814   -9.2607    7.6254 N   0  0  0  0  0  0  0  0  0  0  0  0
  -14.4674   -9.1176    6.2859 C   0  0  0  0  0  0  0  0  0  0  0  0
  -15.4299   -8.5498    5.3307 C   0  0  0  0  0  0  0  0  0  0  0  0
  -16.4648   -7.6056    5.8845 C   0  0  0  0  0  0  0  0  0  0  0  0
  -16.1428   -7.2516    7.2857 C   0  0  0  0  0  0  0  0  0  0  0  0
  -15.9737   -8.5207    8.0808 C   0  0  0  0  0  0  0  0  0  0  0  0
  -16.6223   -6.4111    5.0077 C   0  0  0  0  0  0  0  0  0  0  0  0
  -17.8655   -6.2007    4.4523 C   0  0  0  0  0  0  0  0  0  0  0  0
  -18.1094   -5.1332    3.6268 C   0  0  0  0  0  0  0  0  0  0  0  0
  -17.0974   -4.2557    3.3503 C   0  0  0  0  0  0  0  0  0  0  0  0
  -15.8463   -4.4634    3.9099 C   0  0  0  0  0  0  0  0  0  0  0  0
  -15.5966   -5.5433    4.7455 C   0  0  0  0  0  0  0  0  0  0  0  0
  -10.7417   -6.5262    9.4128 S   0  0  0  0  0  0  0  0  0  0  0  0
  -11.5650   -5.4439    8.7612 O   0  0  0  0  0  0  0  0  0  0  0  0
  -10.2594   -5.9654   10.7466 O   0  0  0  0  0  0  0  0  0  0  0  0
   -7.1345   -7.4865    6.8188 C   0  0  0  0  0  0  0  0  0  0  0  0
   -7.3129   -8.1382    8.0476 C   0  0  0  0  0  0  0  0  0  0  0  0
   -8.4021   -7.8368    8.8216 C   0  0  0  0  0  0  0  0  0  0  0  0
   -9.3360   -6.8975    8.4181 C   0  0  0  0  0  0  0  0  0  0  0  0
   -9.1225   -6.2734    7.1917 C   0  0  0  0  0  0  0  0  0  0  0  0
   -8.0473   -6.5534    6.3984 C   0  0  0  0  0  0  0  0  0  0  0  0
   -6.2317   -8.9003    5.1757 F   0  0  0  0  0  0  0  0  0  0  0  0
   -5.9357   -7.8271    6.0068 C   0  0  0  0  0  0  0  0  0  0  0  0
   -4.9107   -8.2399    6.8279 F   0  0  0  0  0  0  0  0  0  0  0  0
   -5.5646   -6.7212    5.2911 F   0  0  0  0  0  0  0  0  0  0  0  0
 28 29  1  0  0  0
 29 30  1  0  0  0
 29 31  1  0  0  0
 29 22  1  0  0  0
 22 23  2  0  0  0
 23 24  1  0  0  0
 24 25  2  0  0  0
 25 26  1  0  0  0
 26 27  2  0  0  0
 25 19  1  0  0  0
 19 20  2  0  0  0
 19 21  2  0  0  0
 19  1  1  0  0  0
  1  2  1  0  0  0
  2  3  1  0  0  0
  3  4  1  0  0  0
  4  5  1  0  0  0
  5  6  1  0  0  0
  4  7  1  0  0  0
  7  8  1  0  0  0
  8  9  1  0  0  0
  9 10  1  0  0  0
 10 11  1  0  0  0
 11 12  1  0  0  0
 10 13  1  0  0  0
 13 14  2  0  0  0
 14 15  1  0  0  0
 15 16  2  0  0  0
 16 17  1  0  0  0
 17 18  2  0  0  0
 27 22  1  0  0  0
  6  1  1  0  0  0
 12  7  1  0  0  0
 18 13  1  0  0  0
M  END
> <minimizedAffinity>
-5.73924

> <CNNscore>
0.4291634858

> <CNNaffinity>
7.1833038330

> <CNN_VS>
3.0828115940

> <CNNaffinity_variance>
0.1417349130

$$$$
[H]c1c([H])c([H])c(C2([H])C([H])([H])C([H])([H])N(C3([H])C([H])([H])C([H])([H])N(S(=O)(=O)c4c([H])c([H])c(C(F)(F)F)c([H])c4[H])C([H])([H])C3([H])[H])C([H])([H])C2([H])[H])c([H])c1[H]


 31 34  0  0  0  0  0  0  0  0999 V2000
   -8.4824   -6.9328    6.3739 N   0  0  0  0  0  0  0  0  0  0  0  0
   -8.6320   -7.6106    7.6158 C   0  0  0  0  0  0  0  0  0  0  0  0
   -9.7102   -8.6835    7.5680 C   0  0  0  0  0  0  0  0  0  0  0  0
  -10.9628   -8.0544    7.1090 C   0  0  0  0  0  0  0  0  0  0  0  0
  -10.8409   -7.1566    5.8981 C   0  0  0  0  0  0  0  0  0  0  0  0
   -9.6061   -6.3543    5.7863 C   0  0  0  0  0  0  0  0  0  0  0  0
  -12.0450   -8.9537    6.7739 N   0  0  0  0  0  0  0  0  0  0  0  0
  -11.6710   -9.6913    5.6327 C   0  0  0  0  0  0  0  0  0  0  0  0
  -12.7435  -10.2906    4.8254 C   0  0  0  0  0  0  0  0  0  0  0  0
  -14.0817   -9.5991    4.8470 C   0  0  0  0  0  0  0  0  0  0  0  0
  -13.9712   -8.2827    5.5159 C   0  0  0  0  0  0  0  0  0  0  0  0
  -13.3537   -8.4795    6.8766 C   0  0  0  0  0  0  0  0  0  0  0  0
  -14.6569   -9.5045    3.4756 C   0  0  0  0  0  0  0  0  0  0  0  0
  -14.2789   -8.4229    2.7106 C   0  0  0  0  0  0  0  0  0  0  0  0
  -14.7583   -8.2434    1.4383 C   0  0  0  0  0  0  0  0  0  0  0  0
  -15.6290   -9.1594    0.9155 C   0  0  0  0  0  0  0  0  0  0  0  0
  -16.0089  -10.2501    1.6820 C   0  0  0  0  0  0  0  0  0  0  0  0
  -15.5254  -10.4340    2.9702 C   0  0  0  0  0  0  0  0  0  0  0  0
   -7.1783   -7.4249    5.4369 S   0  0  0  0  0  0  0  0  0  0  0  0
   -6.6692   -6.3669    4.4908 O   0  0  0  0  0  0  0  0  0  0  0  0
   -6.0238   -7.7662    6.3733 O   0  0  0  0  0  0  0  0  0  0  0  0
   -8.3403  -11.1772    3.1493 C   0  0  0  0  0  0  0  0  0  0  0  0
   -7.0106  -10.7318    3.1445 C   0  0  0  0  0  0  0  0  0  0  0  0
   -6.6744   -9.5974    3.8347 C   0  0  0  0  0  0  0  0  0  0  0  0
   -7.6218   -8.8748    4.5399 C   0  0  0  0  0  0  0  0  0  0  0  0
   -8.9303   -9.3505    4.5197 C   0  0  0  0  0  0  0  0  0  0  0  0
   -9.2954  -10.4780    3.8418 C   0  0  0  0  0  0  0  0  0  0  0  0
   -7.5227  -12.9121    1.7945 F   0  0  0  0  0  0  0  0  0  0  0  0
   -8.6759  -12.4056    2.3807 C   0  0  0  0  0  0  0  0  0  0  0  0
   -9.5354  -12.0982    1.3503 F   0  0  0  0  0  0  0  0  0  0  0  0
   -9.2488  -13.3107    3.2327 F   0  0  0  0  0  0  0  0  0  0  0  0
 28 29  1  0  0  0
 29 30  1  0  0  0
 29 31  1  0  0  0
 29 22  1  0  0  0
 22 23  2  0  0  0
 23 24  1  0  0  0
 24 25  2  0  0  0
 25 26  1  0  0  0
 26 27  2  0  0  0
 25 19  1  0  0  0
 19 20  2  0  0  0
 19 21  2  0  0  0
 19  1  1  0  0  0
  1  2  1  0  0  0
  2  3  1  0  0  0
  3  4  1  0  0  0
  4  5  1  0  0  0
  5  6  1  0  0  0
  4  7  1  0  0  0
  7  8  1  0  0  0
  8  9  1  0  0  0
  9 10  1  0  0  0
 10 11  1  0  0  0
 11 12  1  0  0  0
 10 13  1  0  0  0
 13 14  2  0  0  0
 14 15  1  0  0  0
 15 16  2  0  0  0
 16 17  1  0  0  0
 17 18  2  0  0  0
 27 22  1  0  0  0
  6  1  1  0  0  0
 12  7  1  0  0  0
 18 13  1  0  0  0
M  END
> <minimizedAffinity>
44.93092

> <CNNscore>
0.4184779525

> <CNNaffinity>
6.5585122108

> <CNN_VS>
2.7445926666

> <CNNaffinity_variance>
1.6217750311

$$$$
[H]c1c([H])c([H])c(C2([H])C([H])([H])C([H])([H])N(C3([H])C([H])([H])C([H])([H])N(S(=O)(=O)c4c([H])c([H])c(C(F)(F)F)c([H])c4[H])C([H])([H])C3([H])[H])C([H])([H])C2([H])[H])c([H])c1[H]


 31 34  0  0  0  0  0  0  0  0999 V2000
  -10.9028   -8.9277    6.8541 N   0  0  0  0  0  0  0  0  0  0  0  0
  -10.7029   -7.7568    6.0711 C   0  0  0  0  0  0  0  0  0  0  0  0
  -11.9459   -6.8813    6.0040 C   0  0  0  0  0  0  0  0  0  0  0  0
  -13.0637   -7.7093    5.5137 C   0  0  0  0  0  0  0  0  0  0  0  0
  -13.2175   -9.0614    6.1735 C   0  0  0  0  0  0  0  0  0  0  0  0
  -11.9738   -9.7649    6.5468 C   0  0  0  0  0  0  0  0  0  0  0  0
  -14.3823   -7.1214    5.6025 N   0  0  0  0  0  0  0  0  0  0  0  0
  -14.9064   -7.3997    6.8808 C   0  0  0  0  0  0  0  0  0  0  0  0
  -16.3663   -7.3478    7.0463 C   0  0  0  0  0  0  0  0  0  0  0  0
  -17.2021   -7.6455    5.8289 C   0  0  0  0  0  0  0  0  0  0  0  0
  -16.3532   -8.1749    4.7373 C   0  0  0  0  0  0  0  0  0  0  0  0
  -15.2215   -7.2106    4.4908 C   0  0  0  0  0  0  0  0  0  0  0  0
  -18.3380   -8.5484    6.1680 C   0  0  0  0  0  0  0  0  0  0  0  0
  -18.6943   -8.6359    7.4960 C   0  0  0  0  0  0  0  0  0  0  0  0
  -19.7222   -9.4441    7.9096 C   0  0  0  0  0  0  0  0  0  0  0  0
  -20.4111  -10.1779    6.9837 C   0  0  0  0  0  0  0  0  0  0  0  0
  -20.0565  -10.0898    5.6465 C   0  0  0  0  0  0  0  0  0  0  0  0
  -19.0163   -9.2728    5.2251 C   0  0  0  0  0  0  0  0  0  0  0  0
  -10.2754   -8.8693    8.4110 S   0  0  0  0  0  0  0  0  0  0  0  0
  -10.2853  -10.1967    9.1262 O   0  0  0  0  0  0  0  0  0  0  0  0
   -8.8167   -8.4336    8.3182 O   0  0  0  0  0  0  0  0  0  0  0  0
  -12.5906   -5.7885   10.8217 C   0  0  0  0  0  0  0  0  0  0  0  0
  -11.4806   -5.3979   10.0590 C   0  0  0  0  0  0  0  0  0  0  0  0
  -10.7892   -6.3368    9.3402 C   0  0  0  0  0  0  0  0  0  0  0  0
  -11.1613   -7.6704    9.3498 C   0  0  0  0  0  0  0  0  0  0  0  0
  -12.2689   -8.0170   10.1193 C   0  0  0  0  0  0  0  0  0  0  0  0
  -12.9781   -7.1038   10.8453 C   0  0  0  0  0  0  0  0  0  0  0  0
  -14.5656   -5.2287   11.9618 F   0  0  0  0  0  0  0  0  0  0  0  0
  -13.3133   -4.7476   11.6005 C   0  0  0  0  0  0  0  0  0  0  0  0
  -13.5326   -3.6378   10.8160 F   0  0  0  0  0  0  0  0  0  0  0  0
  -12.5616   -4.4221   12.6969 F   0  0  0  0  0  0  0  0  0  0  0  0
 28 29  1  0  0  0
 29 30  1  0  0  0
 29 31  1  0  0  0
 29 22  1  0  0  0
 22 23  2  0  0  0
 23 24  1  0  0  0
 24 25  2  0  0  0
 25 26  1  0  0  0
 26 27  2  0  0  0
 25 19  1  0  0  0
 19 20  2  0  0  0
 19 21  2  0  0  0
 19  1  1  0  0  0
  1  2  1  0  0  0
  2  3  1  0  0  0
  3  4  1  0  0  0
  4  5  1  0  0  0
  5  6  1  0  0  0
  4  7  1  0  0  0
  7  8  1  0  0  0
  8  9  1  0  0  0
  9 10  1  0  0  0
 10 11  1  0  0  0
 11 12  1  0  0  0
 10 13  1  0  0  0
 13 14  2  0  0  0
 14 15  1  0  0  0
 15 16  2  0  0  0
 16 17  1  0  0  0
 17 18  2  0  0  0
 27 22  1  0  0  0
  6  1  1  0  0  0
 12  7  1  0  0  0
 18 13  1  0  0  0
M  END
> <minimizedAffinity>
12.01089

> <CNNscore>
0.4077207148

> <CNNaffinity>
6.8860502243

> <CNN_VS>
2.8075852394

> <CNNaffinity_variance>
0.9362317324

$$$$
[H]c1c([H])c([H])c(C2([H])C([H])([H])C([H])([H])N(C3([H])C([H])([H])C([H])([H])N(S(=O)(=O)c4c([H])c([H])c(C(F)(F)F)c([H])c4[H])C([H])([H])C3([H])[H])C([H])([H])C2([H])[H])c([H])c1[H]


 31 34  0  0  0  0  0  0  0  0999 V2000
   -8.5282   -9.1137    7.4217 N   0  0  0  0  0  0  0  0  0  0  0  0
   -8.8368   -8.8141    6.0656 C   0  0  0  0  0  0  0  0  0  0  0  0
  -10.3352   -8.7256    5.8146 C   0  0  0  0  0  0  0  0  0  0  0  0
  -10.9518   -9.9845    6.2734 C   0  0  0  0  0  0  0  0  0  0  0  0
  -10.5171  -10.4689    7.6385 C   0  0  0  0  0  0  0  0  0  0  0  0
   -9.1059  -10.2385    8.0079 C   0  0  0  0  0  0  0  0  0  0  0  0
  -12.3968  -10.0034    6.3360 N   0  0  0  0  0  0  0  0  0  0  0  0
  -12.8998   -9.7157    5.0513 C   0  0  0  0  0  0  0  0  0  0  0  0
  -14.2742   -9.2028    4.9554 C   0  0  0  0  0  0  0  0  0  0  0  0
  -14.7998   -8.4338    6.1393 C   0  0  0  0  0  0  0  0  0  0  0  0
  -13.7051   -8.1440    7.0933 C   0  0  0  0  0  0  0  0  0  0  0  0
  -13.0171   -9.4365    7.4504 C   0  0  0  0  0  0  0  0  0  0  0  0
  -15.5249   -7.2078    5.7013 C   0  0  0  0  0  0  0  0  0  0  0  0
  -14.7582   -6.1242    5.3323 C   0  0  0  0  0  0  0  0  0  0  0  0
  -15.3316   -4.9485    4.9205 C   0  0  0  0  0  0  0  0  0  0  0  0
  -16.6949   -4.8494    4.8722 C   0  0  0  0  0  0  0  0  0  0  0  0
  -17.4687   -5.9389    5.2402 C   0  0  0  0  0  0  0  0  0  0  0  0
  -16.8909   -7.1300    5.6578 C   0  0  0  0  0  0  0  0  0  0  0  0
   -8.0517   -7.8038    8.3587 S   0  0  0  0  0  0  0  0  0  0  0  0
   -7.1564   -8.1706    9.5152 O   0  0  0  0  0  0  0  0  0  0  0  0
   -7.2540   -6.8525    7.4728 O   0  0  0  0  0  0  0  0  0  0  0  0
  -11.7610   -5.6446    9.8560 C   0  0  0  0  0  0  0  0  0  0  0  0
  -10.6629   -4.9132    9.3808 C   0  0  0  0  0  0  0  0  0  0  0  0
   -9.5497   -5.5759    8.9362 C   0  0  0  0  0  0  0  0  0  0  0  0
   -9.4816   -6.9588    8.9459 C   0  0  0  0  0  0  0  0  0  0  0  0
  -10.5929   -7.6477    9.4250 C   0  0  0  0  0  0  0  0  0  0  0  0
  -11.7163   -7.0151    9.8739 C   0  0  0  0  0  0  0  0  0  0  0  0
  -14.0638   -5.2646    9.5983 F   0  0  0  0  0  0  0  0  0  0  0  0
  -12.9504   -4.8958   10.3428 C   0  0  0  0  0  0  0  0  0  0  0  0
  -12.7743   -3.5456   10.1398 F   0  0  0  0  0  0  0  0  0  0  0  0
  -13.1210   -5.1649   11.6739 F   0  0  0  0  0  0  0  0  0  0  0  0
 28 29  1  0  0  0
 29 30  1  0  0  0
 29 31  1  0  0  0
 29 22  1  0  0  0
 22 23  2  0  0  0
 23 24  1  0  0  0
 24 25  2  0  0  0
 25 26  1  0  0  0
 26 27  2  0  0  0
 25 19  1  0  0  0
 19 20  2  0  0  0
 19 21  2  0  0  0
 19  1  1  0  0  0
  1  2  1  0  0  0
  2  3  1  0  0  0
  3  4  1  0  0  0
  4  5  1  0  0  0
  5  6  1  0  0  0
  4  7  1  0  0  0
  7  8  1  0  0  0
  8  9  1  0  0  0
  9 10  1  0  0  0
 10 11  1  0  0  0
 11 12  1  0  0  0
 10 13  1  0  0  0
 13 14  2  0  0  0
 14 15  1  0  0  0
 15 16  2  0  0  0
 16 17  1  0  0  0
 17 18  2  0  0  0
 27 22  1  0  0  0
  6  1  1  0  0  0
 12  7  1  0  0  0
 18 13  1  0  0  0
M  END
> <minimizedAffinity>
1.58264

> <CNNscore>
0.3914216459

> <CNNaffinity>
6.9437780380

> <CNN_VS>
2.7179450989

> <CNNaffinity_variance>
0.2041649520

$$$$
[H]c1c([H])c([H])c(C2([H])C([H])([H])C([H])([H])N(C3([H])C([H])([H])C([H])([H])N(S(=O)(=O)c4c([H])c([H])c(C(F)(F)F)c([H])c4[H])C([H])([H])C3([H])[H])C([H])([H])C2([H])[H])c([H])c1[H]


 31 34  0  0  0  0  0  0  0  0999 V2000
  -11.7115   -9.2467    6.5203 N   0  0  0  0  0  0  0  0  0  0  0  0
  -11.9867   -8.2465    5.5467 C   0  0  0  0  0  0  0  0  0  0  0  0
  -13.2711   -7.4850    5.8404 C   0  0  0  0  0  0  0  0  0  0  0  0
  -14.3650   -8.4654    5.9733 C   0  0  0  0  0  0  0  0  0  0  0  0
  -14.0691   -9.6646    6.8461 C   0  0  0  0  0  0  0  0  0  0  0  0
  -12.6922  -10.1965    6.8014 C   0  0  0  0  0  0  0  0  0  0  0  0
  -15.6199   -7.9586    6.4838 N   0  0  0  0  0  0  0  0  0  0  0  0
  -15.9709   -8.7104    7.6229 C   0  0  0  0  0  0  0  0  0  0  0  0
  -17.3863   -8.7275    8.0202 C   0  0  0  0  0  0  0  0  0  0  0  0
  -18.4042   -8.5313    6.9273 C   0  0  0  0  0  0  0  0  0  0  0  0
  -17.7537   -8.5963    5.5988 C   0  0  0  0  0  0  0  0  0  0  0  0
  -16.6137   -7.6110    5.5674 C   0  0  0  0  0  0  0  0  0  0  0  0
  -19.5315   -9.4958    7.0671 C   0  0  0  0  0  0  0  0  0  0  0  0
  -20.4115   -9.5888    6.0112 C   0  0  0  0  0  0  0  0  0  0  0  0
  -21.4842  -10.4425    6.0463 C   0  0  0  0  0  0  0  0  0  0  0  0
  -21.6841  -11.2213    7.1527 C   0  0  0  0  0  0  0  0  0  0  0  0
  -20.7987  -11.1318    8.2154 C   0  0  0  0  0  0  0  0  0  0  0  0
  -19.7123  -10.2683    8.1827 C   0  0  0  0  0  0  0  0  0  0  0  0
  -10.5568   -8.8363    7.6688 S   0  0  0  0  0  0  0  0  0  0  0  0
  -10.0029  -10.0144    8.4295 O   0  0  0  0  0  0  0  0  0  0  0  0
   -9.3793   -8.1893    6.9468 O   0  0  0  0  0  0  0  0  0  0  0  0
  -12.3580   -5.8114   10.5442 C   0  0  0  0  0  0  0  0  0  0  0  0
  -11.1511   -5.5289    9.8884 C   0  0  0  0  0  0  0  0  0  0  0  0
  -10.6169   -6.4507    9.0274 C   0  0  0  0  0  0  0  0  0  0  0  0
  -11.2430   -7.6623    8.7887 C   0  0  0  0  0  0  0  0  0  0  0  0
  -12.4393   -7.9039    9.4591 C   0  0  0  0  0  0  0  0  0  0  0  0
  -12.9964   -7.0046   10.3222 C   0  0  0  0  0  0  0  0  0  0  0  0
  -14.2427   -5.0766   11.7366 F   0  0  0  0  0  0  0  0  0  0  0  0
  -12.9063   -4.7952   11.4819 C   0  0  0  0  0  0  0  0  0  0  0  0
  -12.8737   -3.5484   10.8992 F   0  0  0  0  0  0  0  0  0  0  0  0
  -12.1593   -4.8112   12.6286 F   0  0  0  0  0  0  0  0  0  0  0  0
 28 29  1  0  0  0
 29 30  1  0  0  0
 29 31  1  0  0  0
 29 22  1  0  0  0
 22 23  2  0  0  0
 23 24  1  0  0  0
 24 25  2  0  0  0
 25 26  1  0  0  0
 26 27  2  0  0  0
 25 19  1  0  0  0
 19 20  2  0  0  0
 19 21  2  0  0  0
 19  1  1  0  0  0
  1  2  1  0  0  0
  2  3  1  0  0  0
  3  4  1  0  0  0
  4  5  1  0  0  0
  5  6  1  0  0  0
  4  7  1  0  0  0
  7  8  1  0  0  0
  8  9  1  0  0  0
  9 10  1  0  0  0
 10 11  1  0  0  0
 11 12  1  0  0  0
 10 13  1  0  0  0
 13 14  2  0  0  0
 14 15  1  0  0  0
 15 16  2  0  0  0
 16 17  1  0  0  0
 17 18  2  0  0  0
 27 22  1  0  0  0
  6  1  1  0  0  0
 12  7  1  0  0  0
 18 13  1  0  0  0
M  END
> <minimizedAffinity>
4.73210

> <CNNscore>
0.3886027038

> <CNNaffinity>
6.7428808212

> <CNN_VS>
2.6203017235

> <CNNaffinity_variance>
0.5210608840

$$$$
[H]c1c([H])c([H])c(C2([H])C([H])([H])C([H])([H])N(C3([H])C([H])([H])C([H])([H])N(S(=O)(=O)c4c([H])c([H])c(C(F)(F)F)c([H])c4[H])C([H])([H])C3([H])[H])C([H])([H])C2([H])[H])c([H])c1[H]


 31 34  0  0  0  0  0  0  0  0999 V2000
   -9.4409   -6.2423    7.6007 N   0  0  0  0  0  0  0  0  0  0  0  0
   -9.7521   -5.6529    8.8575 C   0  0  0  0  0  0  0  0  0  0  0  0
  -11.1233   -6.0667    9.3718 C   0  0  0  0  0  0  0  0  0  0  0  0
  -12.1188   -5.7466    8.3315 C   0  0  0  0  0  0  0  0  0  0  0  0
  -11.7603   -6.1752    6.9262 C   0  0  0  0  0  0  0  0  0  0  0  0
  -10.3366   -6.0821    6.5449 C   0  0  0  0  0  0  0  0  0  0  0  0
  -13.4489   -6.2776    8.5338 N   0  0  0  0  0  0  0  0  0  0  0  0
  -13.9429   -5.7812    9.7568 C   0  0  0  0  0  0  0  0  0  0  0  0
  -15.0254   -6.5309   10.4106 C   0  0  0  0  0  0  0  0  0  0  0  0
  -15.0918   -8.0109   10.1380 C   0  0  0  0  0  0  0  0  0  0  0  0
  -13.8721   -8.4600    9.4287 C   0  0  0  0  0  0  0  0  0  0  0  0
  -13.6860   -7.6112    8.1973 C   0  0  0  0  0  0  0  0  0  0  0  0
  -15.3458   -8.7747   11.3921 C   0  0  0  0  0  0  0  0  0  0  0  0
  -14.2583   -9.3656   11.9973 C   0  0  0  0  0  0  0  0  0  0  0  0
  -14.3898  -10.0948   13.1513 C   0  0  0  0  0  0  0  0  0  0  0  0
  -15.6272  -10.2368   13.7162 C   0  0  0  0  0  0  0  0  0  0  0  0
  -16.7227   -9.6410   13.1109 C   0  0  0  0  0  0  0  0  0  0  0  0
  -16.5926   -8.9028   11.9426 C   0  0  0  0  0  0  0  0  0  0  0  0
   -8.4105   -7.5673    7.6615 S   0  0  0  0  0  0  0  0  0  0  0  0
   -8.3297   -8.2195    9.0185 O   0  0  0  0  0  0  0  0  0  0  0  0
   -8.9411   -8.6249    6.6990 O   0  0  0  0  0  0  0  0  0  0  0  0
   -4.2660   -6.3297    6.2635 C   0  0  0  0  0  0  0  0  0  0  0  0
   -4.5190   -6.5312    7.6280 C   0  0  0  0  0  0  0  0  0  0  0  0
   -5.7733   -6.9001    8.0365 C   0  0  0  0  0  0  0  0  0  0  0  0
   -6.8039   -7.0786    7.1292 C   0  0  0  0  0  0  0  0  0  0  0  0
   -6.5115   -6.8691    5.7840 C   0  0  0  0  0  0  0  0  0  0  0  0
   -5.2714   -6.5018    5.3468 C   0  0  0  0  0  0  0  0  0  0  0  0
   -2.9032   -4.5713    5.5121 F   0  0  0  0  0  0  0  0  0  0  0  0
   -2.8970   -5.9182    5.8528 C   0  0  0  0  0  0  0  0  0  0  0  0
   -2.5162   -6.6054    4.7223 F   0  0  0  0  0  0  0  0  0  0  0  0
   -2.0359   -6.1740    6.8854 F   0  0  0  0  0  0  0  0  0  0  0  0
 28 29  1  0  0  0
 29 30  1  0  0  0
 29 31  1  0  0  0
 29 22  1  0  0  0
 22 23  2  0  0  0
 23 24  1  0  0  0
 24 25  2  0  0  0
 25 26  1  0  0  0
 26 27  2  0  0  0
 25 19  1  0  0  0
 19 20  2  0  0  0
 19 21  2  0  0  0
 19  1  1  0  0  0
  1  2  1  0  0  0
  2  3  1  0  0  0
  3  4  1  0  0  0
  4  5  1  0  0  0
  5  6  1  0  0  0
  4  7  1  0  0  0
  7  8  1  0  0  0
  8  9  1  0  0  0
  9 10  1  0  0  0
 10 11  1  0  0  0
 11 12  1  0  0  0
 10 13  1  0  0  0
 13 14  2  0  0  0
 14 15  1  0  0  0
 15 16  2  0  0  0
 16 17  1  0  0  0
 17 18  2  0  0  0
 27 22  1  0  0  0
  6  1  1  0  0  0
 12  7  1  0  0  0
 18 13  1  0  0  0
M  END
> <minimizedAffinity>
24.37744

> <CNNscore>
0.3632397354

> <CNNaffinity>
6.2571787834

> <CNN_VS>
2.2728559971

> <CNNaffinity_variance>
0.5356387496

$$$$
[H]c1c([H])c([H])c(C2([H])C([H])([H])C([H])([H])N(C3([H])C([H])([H])C([H])([H])N(S(=O)(=O)c4c([H])c([H])c(C(F)(F)F)c([H])c4[H])C([H])([H])C3([H])[H])C([H])([H])C2([H])[H])c([H])c1[H]


 31 34  0  0  0  0  0  0  0  0999 V2000
   -9.1018   -6.9396    6.7609 N   0  0  0  0  0  0  0  0  0  0  0  0
   -8.8659   -5.5999    6.3443 C   0  0  0  0  0  0  0  0  0  0  0  0
  -10.1536   -4.8066    6.1763 C   0  0  0  0  0  0  0  0  0  0  0  0
  -11.0291   -5.5452    5.2471 C   0  0  0  0  0  0  0  0  0  0  0  0
  -11.1717   -7.0264    5.5172 C   0  0  0  0  0  0  0  0  0  0  0  0
   -9.9722   -7.7308    6.0132 C   0  0  0  0  0  0  0  0  0  0  0  0
  -12.3922   -5.0732    5.1406 N   0  0  0  0  0  0  0  0  0  0  0  0
  -13.1444   -5.6524    6.1822 C   0  0  0  0  0  0  0  0  0  0  0  0
  -14.6026   -5.7280    6.0109 C   0  0  0  0  0  0  0  0  0  0  0  0
  -15.1206   -5.8075    4.5987 C   0  0  0  0  0  0  0  0  0  0  0  0
  -14.0050   -6.0355    3.6521 C   0  0  0  0  0  0  0  0  0  0  0  0
  -12.9589   -4.9726    3.8691 C   0  0  0  0  0  0  0  0  0  0  0  0
  -16.1973   -6.8310    4.4810 C   0  0  0  0  0  0  0  0  0  0  0  0
  -16.3835   -7.6714    5.5567 C   0  0  0  0  0  0  0  0  0  0  0  0
  -17.3444   -8.6498    5.5428 C   0  0  0  0  0  0  0  0  0  0  0  0
  -18.1378   -8.7934    4.4381 C   0  0  0  0  0  0  0  0  0  0  0  0
  -17.9544   -7.9474    3.3554 C   0  0  0  0  0  0  0  0  0  0  0  0
  -16.9823   -6.9566    3.3666 C   0  0  0  0  0  0  0  0  0  0  0  0
   -8.8533   -7.2408    8.3944 S   0  0  0  0  0  0  0  0  0  0  0  0
   -8.0448   -8.4827    8.6729 O   0  0  0  0  0  0  0  0  0  0  0  0
   -8.0706   -6.0693    8.9787 O   0  0  0  0  0  0  0  0  0  0  0  0
  -12.8891   -7.4957   10.4705 C   0  0  0  0  0  0  0  0  0  0  0  0
  -11.9645   -6.5102   10.8450 C   0  0  0  0  0  0  0  0  0  0  0  0
  -10.7503   -6.4467   10.2142 C   0  0  0  0  0  0  0  0  0  0  0  0
  -10.4114   -7.3384    9.2106 C   0  0  0  0  0  0  0  0  0  0  0  0
  -11.3573   -8.3012    8.8682 C   0  0  0  0  0  0  0  0  0  0  0  0
  -12.5755   -8.3888    9.4782 C   0  0  0  0  0  0  0  0  0  0  0  0
  -15.2046   -7.8318   10.2727 F   0  0  0  0  0  0  0  0  0  0  0  0
  -14.1942   -7.5460   11.1823 C   0  0  0  0  0  0  0  0  0  0  0  0
  -14.4881   -6.3124   11.7179 F   0  0  0  0  0  0  0  0  0  0  0  0
  -14.1182   -8.4934   12.1670 F   0  0  0  0  0  0  0  0  0  0  0  0
 28 29  1  0  0  0
 29 30  1  0  0  0
 29 31  1  0  0  0
 29 22  1  0  0  0
 22 23  2  0  0  0
 23 24  1  0  0  0
 24 25  2  0  0  0
 25 26  1  0  0  0
 26 27  2  0  0  0
 25 19  1  0  0  0
 19 20  2  0  0  0
 19 21  2  0  0  0
 19  1  1  0  0  0
  1  2  1  0  0  0
  2  3  1  0  0  0
  3  4  1  0  0  0
  4  5  1  0  0  0
  5  6  1  0  0  0
  4  7  1  0  0  0
  7  8  1  0  0  0
  8  9  1  0  0  0
  9 10  1  0  0  0
 10 11  1  0  0  0
 11 12  1  0  0  0
 10 13  1  0  0  0
 13 14  2  0  0  0
 14 15  1  0  0  0
 15 16  2  0  0  0
 16 17  1  0  0  0
 17 18  2  0  0  0
 27 22  1  0  0  0
  6  1  1  0  0  0
 12  7  1  0  0  0
 18 13  1  0  0  0
M  END
> <minimizedAffinity>
32.11135

> <CNNscore>
0.2720242441

> <CNNaffinity>
6.4934959412

> <CNN_VS>
1.7663882971

> <CNNaffinity_variance>
0.6897658110

$$$$
[H]c1c([H])c([H])c(C2([H])C([H])([H])C([H])([H])N(C3([H])C([H])([H])C([H])([H])N(S(=O)(=O)c4c([H])c([H])c(C(F)(F)F)c([H])c4[H])C([H])([H])C3([H])[H])C([H])([H])C2([H])[H])c([H])c1[H]


 31 34  0  0  0  0  0  0  0  0999 V2000
   -4.3458   -6.7353    8.2076 N   0  0  0  0  0  0  0  0  0  0  0  0
   -4.6876   -7.2004    6.9073 C   0  0  0  0  0  0  0  0  0  0  0  0
   -6.0591   -6.7179    6.4577 C   0  0  0  0  0  0  0  0  0  0  0  0
   -7.0435   -7.1166    7.4811 C   0  0  0  0  0  0  0  0  0  0  0  0
   -6.6550   -6.8262    8.9136 C   0  0  0  0  0  0  0  0  0  0  0  0
   -5.2273   -6.9780    9.2596 C   0  0  0  0  0  0  0  0  0  0  0  0
   -8.3668   -6.5471    7.3522 N   0  0  0  0  0  0  0  0  0  0  0  0
   -8.8826   -6.3273    8.6452 C   0  0  0  0  0  0  0  0  0  0  0  0
  -10.3421   -6.2264    8.7901 C   0  0  0  0  0  0  0  0  0  0  0  0
  -11.1808   -6.9659    7.7806 C   0  0  0  0  0  0  0  0  0  0  0  0
  -10.3322   -7.8616    6.9620 C   0  0  0  0  0  0  0  0  0  0  0  0
   -9.2103   -7.0536    6.3622 C   0  0  0  0  0  0  0  0  0  0  0  0
  -12.3070   -7.6822    8.4431 C   0  0  0  0  0  0  0  0  0  0  0  0
  -11.9796   -8.7240    9.2831 C   0  0  0  0  0  0  0  0  0  0  0  0
  -12.9445   -9.4489    9.9343 C   0  0  0  0  0  0  0  0  0  0  0  0
  -14.2614   -9.1295    9.7487 C   0  0  0  0  0  0  0  0  0  0  0  0
  -14.5936   -8.0800    8.9062 C   0  0  0  0  0  0  0  0  0  0  0  0
  -13.6189   -7.3449    8.2455 C   0  0  0  0  0  0  0  0  0  0  0  0
   -3.2926   -5.4277    8.2517 S   0  0  0  0  0  0  0  0  0  0  0  0
   -3.7625   -4.2910    9.1239 O   0  0  0  0  0  0  0  0  0  0  0  0
   -1.9667   -5.9064    8.8340 O   0  0  0  0  0  0  0  0  0  0  0  0
   -2.5517   -3.9171    4.0289 C   0  0  0  0  0  0  0  0  0  0  0  0
   -3.7921   -4.4745    4.3708 C   0  0  0  0  0  0  0  0  0  0  0  0
   -4.0012   -4.9296    5.6458 C   0  0  0  0  0  0  0  0  0  0  0  0
   -3.0108   -4.8533    6.6103 C   0  0  0  0  0  0  0  0  0  0  0  0
   -1.7939   -4.2930    6.2305 C   0  0  0  0  0  0  0  0  0  0  0  0
   -1.5563   -3.8303    4.9682 C   0  0  0  0  0  0  0  0  0  0  0  0
   -3.3249   -2.5012    2.3227 F   0  0  0  0  0  0  0  0  0  0  0  0
   -2.3517   -3.4428    2.6334 C   0  0  0  0  0  0  0  0  0  0  0  0
   -2.5212   -4.4857    1.7510 F   0  0  0  0  0  0  0  0  0  0  0  0
   -1.0911   -2.9206    2.5261 F   0  0  0  0  0  0  0  0  0  0  0  0
 28 29  1  0  0  0
 29 30  1  0  0  0
 29 31  1  0  0  0
 29 22  1  0  0  0
 22 23  2  0  0  0
 23 24  1  0  0  0
 24 25  2  0  0  0
 25 26  1  0  0  0
 26 27  2  0  0  0
 25 19  1  0  0  0
 19 20  2  0  0  0
 19 21  2  0  0  0
 19  1  1  0  0  0
  1  2  1  0  0  0
  2  3  1  0  0  0
  3  4  1  0  0  0
  4  5  1  0  0  0
  5  6  1  0  0  0
  4  7  1  0  0  0
  7  8  1  0  0  0
  8  9  1  0  0  0
  9 10  1  0  0  0
 10 11  1  0  0  0
 11 12  1  0  0  0
 10 13  1  0  0  0
 13 14  2  0  0  0
 14 15  1  0  0  0
 15 16  2  0  0  0
 16 17  1  0  0  0
 17 18  2  0  0  0
 27 22  1  0  0  0
  6  1  1  0  0  0
 12  7  1  0  0  0
 18 13  1  0  0  0
M  END
> <minimizedAffinity>
-1.88332

> <CNNscore>
0.2688051760

> <CNNaffinity>
6.0655660629

> <CNN_VS>
1.6304554939

> <CNNaffinity_variance>
0.7786810398

$$$$
[H]c1c([H])c([H])c(C2([H])C([H])([H])C([H])([H])N(C3([H])C([H])([H])C([H])([H])N(S(=O)(=O)c4c([H])c([H])c(C(F)(F)F)c([H])c4[H])C([H])([H])C3([H])[H])C([H])([H])C2([H])[H])c([H])c1[H]


 31 34  0  0  0  0  0  0  0  0999 V2000
   -9.8297   -8.0521    8.1134 N   0  0  0  0  0  0  0  0  0  0  0  0
  -10.5239   -8.6179    9.2188 C   0  0  0  0  0  0  0  0  0  0  0  0
  -11.8148   -9.3092    8.8042 C   0  0  0  0  0  0  0  0  0  0  0  0
  -12.6342   -8.3386    8.0546 C   0  0  0  0  0  0  0  0  0  0  0  0
  -11.9077   -7.5540    6.9851 C   0  0  0  0  0  0  0  0  0  0  0  0
  -10.5104   -7.1726    7.2733 C   0  0  0  0  0  0  0  0  0  0  0  0
  -13.7945   -8.8711    7.3746 N   0  0  0  0  0  0  0  0  0  0  0  0
  -13.6784   -8.5745    6.0017 C   0  0  0  0  0  0  0  0  0  0  0  0
  -14.9098   -8.5658    5.1986 C   0  0  0  0  0  0  0  0  0  0  0  0
  -16.1907   -8.2302    5.9169 C   0  0  0  0  0  0  0  0  0  0  0  0
  -15.9018   -7.7338    7.2817 C   0  0  0  0  0  0  0  0  0  0  0  0
  -15.0390   -8.7439    7.9935 C   0  0  0  0  0  0  0  0  0  0  0  0
  -17.0180   -7.2814    5.1195 C   0  0  0  0  0  0  0  0  0  0  0  0
  -17.1300   -5.9938    5.5964 C   0  0  0  0  0  0  0  0  0  0  0  0
  -17.8740   -5.0486    4.9377 C   0  0  0  0  0  0  0  0  0  0  0  0
  -18.5173   -5.3902    3.7801 C   0  0  0  0  0  0  0  0  0  0  0  0
  -18.4041   -6.6844    3.2965 C   0  0  0  0  0  0  0  0  0  0  0  0
  -17.6520   -7.6431    3.9614 C   0  0  0  0  0  0  0  0  0  0  0  0
   -8.5244   -8.9452    7.5484 S   0  0  0  0  0  0  0  0  0  0  0  0
   -8.0461  -10.0059    8.5074 O   0  0  0  0  0  0  0  0  0  0  0  0
   -8.9593   -9.6684    6.2779 O   0  0  0  0  0  0  0  0  0  0  0  0
   -5.1067   -6.1423    6.4872 C   0  0  0  0  0  0  0  0  0  0  0  0
   -5.2316   -6.6393    7.7925 C   0  0  0  0  0  0  0  0  0  0  0  0
   -6.2684   -7.4800    8.1002 C   0  0  0  0  0  0  0  0  0  0  0  0
   -7.2023   -7.8520    7.1481 C   0  0  0  0  0  0  0  0  0  0  0  0
   -7.0424   -7.3371    5.8642 C   0  0  0  0  0  0  0  0  0  0  0  0
   -6.0194   -6.4981    5.5275 C   0  0  0  0  0  0  0  0  0  0  0  0
   -2.7945   -5.9488    6.1269 F   0  0  0  0  0  0  0  0  0  0  0  0
   -3.9771   -5.2223    6.1875 C   0  0  0  0  0  0  0  0  0  0  0  0
   -3.8248   -4.3125    7.2094 F   0  0  0  0  0  0  0  0  0  0  0  0
   -4.2374   -4.5816    5.0064 F   0  0  0  0  0  0  0  0  0  0  0  0
 28 29  1  0  0  0
 29 30  1  0  0  0
 29 31  1  0  0  0
 29 22  1  0  0  0
 22 23  2  0  0  0
 23 24  1  0  0  0
 24 25  2  0  0  0
 25 26  1  0  0  0
 26 27  2  0  0  0
 25 19  1  0  0  0
 19 20  2  0  0  0
 19 21  2  0  0  0
 19  1  1  0  0  0
  1  2  1  0  0  0
  2  3  1  0  0  0
  3  4  1  0  0  0
  4  5  1  0  0  0
  5  6  1  0  0  0
  4  7  1  0  0  0
  7  8  1  0  0  0
  8  9  1  0  0  0
  9 10  1  0  0  0
 10 11  1  0  0  0
 11 12  1  0  0  0
 10 13  1  0  0  0
 13 14  2  0  0  0
 14 15  1  0  0  0
 15 16  2  0  0  0
 16 17  1  0  0  0
 17 18  2  0  0  0
 27 22  1  0  0  0
  6  1  1  0  0  0
 12  7  1  0  0  0
 18 13  1  0  0  0
M  END
> <minimizedAffinity>
-6.76221

> <CNNscore>
0.2431738973

> <CNNaffinity>
6.8054857254

> <CNN_VS>
1.6549165249

> <CNNaffinity_variance>
0.1137219071

$$$$
